MODEL        1
REMARK 921   NORMALIZED FREE ENERGY PREDICTED BY IDOCK:   -8.51 KCAL/MOL
REMARK 922        TOTAL FREE ENERGY PREDICTED BY IDOCK:  -14.41 KCAL/MOL
REMARK 923 INTER-LIGAND FREE ENERGY PREDICTED BY IDOCK:  -12.98 KCAL/MOL
REMARK 924 INTRA-LIGAND FREE ENERGY PREDICTED BY IDOCK:   -1.43 KCAL/MOL
REMARK 927      BINDING AFFINITY PREDICTED BY RF-SCORE:    0.00 PKD
ROOT
HETATM    1  C   UNL     1     -12.334  14.680  70.401  1.00  0.00    -0.399 C  
HETATM    2  C   UNL     1     -11.517  15.789  69.758  1.00  0.00    -0.350 C  
ENDROOT
BRANCH   2   3
HETATM    3  C   UNL     1     -11.345  15.610  68.267  1.00  0.00    -0.357 A  
HETATM    4  C   UNL     1     -11.732  14.354  67.777  1.00  0.00    -0.407 A  
HETATM    5  C   UNL     1     -11.479  13.964  66.460  1.00  0.00    -0.361 A  
HETATM    6  C   UNL     1     -10.865  14.858  65.592  1.00  0.00    -0.347 A  
HETATM    7  C   UNL     1     -10.534  16.145  66.047  1.00  0.00    -0.349 A  
HETATM    8  C   UNL     1     -10.784  16.553  67.378  1.00  0.00    -0.260 A  
BRANCH   5   9
HETATM    9  C   UNL     1     -11.770  12.542  66.125  1.00  0.00    -0.409 C  
HETATM   10  C   UNL     1     -11.858  12.101  64.689  1.00  0.00    -0.400 C  
BRANCH   9  11
HETATM   11  N   UNL     1     -11.938  11.729  67.131  1.00  0.00    -0.595 NA 
HETATM   12  H   UNL     1     -12.732  11.768  67.770  1.00  0.00     0.000 HD 
BRANCH  11  13
HETATM   13  O   UNL     1     -10.901  10.802  67.229  1.00  0.00    -0.260 OA 
BRANCH  13  14
HETATM   14  C   UNL     1     -10.022  11.244  68.256  1.00  0.00    -0.195 C  
BRANCH  14  15
HETATM   15  C   UNL     1     -10.285  10.406  69.469  1.00  0.00    -0.258 A  
HETATM   16  F   UNL     1     -13.435   9.189  72.993  1.00  0.00    -0.458 F  
HETATM   17  F   UNL     1     -13.478  11.131  72.046  1.00  0.00    -0.513 F  
HETATM   18  C   UNL     1      -9.271   9.649  70.038  1.00  0.00    -0.275 A  
HETATM   19  F   UNL     1     -14.193   9.392  70.962  1.00  0.00    -0.341 F  
HETATM   20  C   UNL     1      -9.542   8.840  71.137  1.00  0.00    -0.309 A  
HETATM   21  C   UNL     1     -11.536  10.426  70.089  1.00  0.00    -0.396 A  
HETATM   22  C   UNL     1     -10.836   8.721  71.685  1.00  0.00    -0.399 A  
HETATM   23  C   UNL     1     -13.208   9.813  71.806  1.00  0.00    -0.436 C  
HETATM   24  C   UNL     1     -11.825   9.618  71.212  1.00  0.00    -0.460 A  
BRANCH  22  25
HETATM   25  C   UNL     1     -11.137   7.623  72.717  1.00  0.00    -0.437 C  
HETATM   26  C   UNL     1     -11.831   6.397  72.075  1.00  0.00    -0.382 C  
HETATM   27  C   UNL     1     -10.894   5.635  71.142  1.00  0.00    -0.288 C  
HETATM   28  C   UNL     1      -9.687   5.106  71.903  1.00  0.00    -0.211 C  
HETATM   29  C   UNL     1      -8.972   6.186  72.706  1.00  0.00    -0.126 C  
HETATM   30  C   UNL     1      -9.927   7.074  73.521  1.00  0.00    -0.321 C  
ENDBRANCH  22  25
ENDBRANCH  14  15
ENDBRANCH  13  14
ENDBRANCH  11  13
ENDBRANCH   9  11
ENDBRANCH   5   9
BRANCH   8  31
HETATM   31  C   UNL     1     -10.324  17.929  67.844  1.00  0.00    -0.389 C  
BRANCH  31  32
HETATM   32  N   UNL     1      -9.254  18.565  67.037  1.00  0.00    -0.277 NA 
HETATM   33  O   UNL     1      -7.015  19.512  65.169  1.00  0.00    -0.407 OA 
HETATM   34  O   UNL     1      -6.118  21.332  66.140  1.00  0.00    -0.271 OA 
HETATM   35  C   UNL     1      -9.544  19.999  66.774  1.00  0.00    -0.417 C  
HETATM   36  C   UNL     1      -6.988  20.465  66.143  1.00  0.00    -0.242 C  
HETATM   37  C   UNL     1      -8.167  18.994  67.972  1.00  0.00    -0.300 C  
HETATM   38  C   UNL     1      -8.098  20.329  67.207  1.00  0.00    -0.381 C  
ENDBRANCH  31  32
ENDBRANCH   8  31
ENDBRANCH   2   3
TORSDOF 9
ENDMDL
MODEL        2
REMARK 921   NORMALIZED FREE ENERGY PREDICTED BY IDOCK:   -8.46 KCAL/MOL
REMARK 922        TOTAL FREE ENERGY PREDICTED BY IDOCK:  -14.34 KCAL/MOL
REMARK 923 INTER-LIGAND FREE ENERGY PREDICTED BY IDOCK:  -10.81 KCAL/MOL
REMARK 924 INTRA-LIGAND FREE ENERGY PREDICTED BY IDOCK:   -3.53 KCAL/MOL
REMARK 927      BINDING AFFINITY PREDICTED BY RF-SCORE:    0.00 PKD
ROOT
HETATM    1  C   UNL     1      -6.816  12.629  67.982  1.00  0.00    -0.095 C  
HETATM    2  C   UNL     1      -8.335  12.687  67.994  1.00  0.00    -0.175 C  
ENDROOT
BRANCH   2   3
HETATM    3  C   UNL     1      -8.979  11.518  67.283  1.00  0.00    -0.162 A  
HETATM    4  C   UNL     1      -9.106  11.672  65.894  1.00  0.00    -0.155 A  
HETATM    5  C   UNL     1      -9.830  10.768  65.113  1.00  0.00    -0.333 A  
HETATM    6  C   UNL     1     -10.406   9.657  65.717  1.00  0.00    -0.030 A  
HETATM    7  C   UNL     1     -10.228   9.450  67.095  1.00  0.00    -0.319 A  
HETATM    8  C   UNL     1      -9.499  10.359  67.898  1.00  0.00    -0.150 A  
BRANCH   5   9
HETATM    9  C   UNL     1     -10.045  11.150  63.690  1.00  0.00    -0.379 C  
HETATM   10  C   UNL     1      -8.871  11.332  62.765  1.00  0.00    -0.236 C  
BRANCH   9  11
HETATM   11  N   UNL     1     -11.282  11.310  63.311  1.00  0.00    -0.832 NA 
HETATM   12  H   UNL     1     -11.870  10.560  62.948  1.00  0.00     0.000 HD 
BRANCH  11  13
HETATM   13  O   UNL     1     -11.704  12.631  63.460  1.00  0.00    -0.472 OA 
BRANCH  13  14
HETATM   14  C   UNL     1     -12.496  12.700  64.640  1.00  0.00    -0.466 C  
BRANCH  14  15
HETATM   15  C   UNL     1     -11.926  13.783  65.504  1.00  0.00    -0.404 A  
HETATM   16  F   UNL     1     -11.334  15.518  70.028  1.00  0.00    -0.234 F  
HETATM   17  F   UNL     1     -13.021  14.276  69.494  1.00  0.00    -0.162 F  
HETATM   18  C   UNL     1     -11.366  14.918  64.936  1.00  0.00    -0.415 A  
HETATM   19  F   UNL     1     -11.053  13.384  69.700  1.00  0.00    -0.244 F  
HETATM   20  C   UNL     1     -10.800  15.894  65.750  1.00  0.00    -0.260 A  
HETATM   21  C   UNL     1     -12.014  13.702  66.895  1.00  0.00    -0.454 A  
HETATM   22  C   UNL     1     -10.733  15.761  67.152  1.00  0.00    -0.312 A  
HETATM   23  C   UNL     1     -11.698  14.485  69.220  1.00  0.00    -0.310 C  
HETATM   24  C   UNL     1     -11.453  14.689  67.737  1.00  0.00    -0.359 A  
BRANCH  22  25
HETATM   25  C   UNL     1      -9.869  16.727  67.977  1.00  0.00    -0.265 C  
HETATM   26  C   UNL     1      -8.441  16.178  68.207  1.00  0.00    -0.180 C  
HETATM   27  C   UNL     1      -7.631  16.136  66.914  1.00  0.00    -0.275 C  
HETATM   28  C   UNL     1      -7.474  17.532  66.330  1.00  0.00    -0.334 C  
HETATM   29  C   UNL     1      -8.803  18.262  66.173  1.00  0.00    -0.113 C  
HETATM   30  C   UNL     1      -9.704  18.166  67.415  1.00  0.00    -0.296 C  
ENDBRANCH  22  25
ENDBRANCH  14  15
ENDBRANCH  13  14
ENDBRANCH  11  13
ENDBRANCH   9  11
ENDBRANCH   5   9
BRANCH   8  31
HETATM   31  C   UNL     1      -9.414  10.133  69.402  1.00  0.00    -0.224 C  
BRANCH  31  32
HETATM   32  N   UNL     1     -10.492   9.309  70.000  1.00  0.00    -0.213 NA 
HETATM   33  O   UNL     1     -12.710   7.382  70.878  1.00  0.00    -0.240 OA 
HETATM   34  O   UNL     1     -13.790   8.402  72.568  1.00  0.00    -0.252 OA 
HETATM   35  C   UNL     1     -10.303   9.136  71.465  1.00  0.00    -0.344 C  
HETATM   36  C   UNL     1     -12.856   8.402  71.771  1.00  0.00    -0.345 C  
HETATM   37  C   UNL     1     -11.651  10.208  70.292  1.00  0.00    -0.302 C  
HETATM   38  C   UNL     1     -11.789   9.512  71.659  1.00  0.00    -0.468 C  
ENDBRANCH  31  32
ENDBRANCH   8  31
ENDBRANCH   2   3
TORSDOF 9
ENDMDL
MODEL        3
REMARK 921   NORMALIZED FREE ENERGY PREDICTED BY IDOCK:   -8.42 KCAL/MOL
REMARK 922        TOTAL FREE ENERGY PREDICTED BY IDOCK:  -14.29 KCAL/MOL
REMARK 923 INTER-LIGAND FREE ENERGY PREDICTED BY IDOCK:  -11.82 KCAL/MOL
REMARK 924 INTRA-LIGAND FREE ENERGY PREDICTED BY IDOCK:   -2.46 KCAL/MOL
REMARK 927      BINDING AFFINITY PREDICTED BY RF-SCORE:    0.00 PKD
ROOT
HETATM    1  C   UNL     1      -6.577  11.302  68.403  1.00  0.00    -0.059 C  
HETATM    2  C   UNL     1      -7.842  11.506  67.585  1.00  0.00    -0.125 C  
ENDROOT
BRANCH   2   3
HETATM    3  C   UNL     1      -8.888  10.443  67.838  1.00  0.00    -0.125 A  
HETATM    4  C   UNL     1      -9.085  10.121  69.189  1.00  0.00    -0.189 A  
HETATM    5  C   UNL     1      -9.883   9.045  69.584  1.00  0.00    -0.182 A  
HETATM    6  C   UNL     1     -10.541   8.295  68.617  1.00  0.00    -0.144 A  
HETATM    7  C   UNL     1     -10.412   8.648  67.263  1.00  0.00    -0.360 A  
HETATM    8  C   UNL     1      -9.605   9.734  66.849  1.00  0.00    -0.228 A  
BRANCH   5   9
HETATM    9  C   UNL     1      -9.854   8.698  71.032  1.00  0.00    -0.210 C  
HETATM   10  C   UNL     1      -8.726   7.875  71.595  1.00  0.00    -0.153 C  
BRANCH   9  11
HETATM   11  N   UNL     1     -10.842   9.143  71.757  1.00  0.00    -0.365 NA 
HETATM   12  H   UNL     1     -10.759   9.401  72.741  1.00  0.00     0.000 HD 
BRANCH  11  13
HETATM   13  O   UNL     1     -12.027   9.225  71.027  1.00  0.00    -0.291 OA 
BRANCH  13  14
HETATM   14  C   UNL     1     -12.885  10.141  71.697  1.00  0.00    -0.454 C  
BRANCH  14  15
HETATM   15  C   UNL     1     -12.591  11.509  71.163  1.00  0.00    -0.463 A  
HETATM   16  F   UNL     1     -12.762  16.325  71.937  1.00  0.00    -0.495 F  
HETATM   17  F   UNL     1     -14.161  14.970  72.872  1.00  0.00    -0.485 F  
HETATM   18  C   UNL     1     -12.164  11.679  69.853  1.00  0.00    -0.310 A  
HETATM   19  F   UNL     1     -12.107  15.044  73.571  1.00  0.00    -0.468 F  
HETATM   20  C   UNL     1     -11.851  12.951  69.384  1.00  0.00    -0.371 A  
HETATM   21  C   UNL     1     -12.808  12.641  71.949  1.00  0.00    -0.305 A  
HETATM   22  C   UNL     1     -11.911  14.094  70.209  1.00  0.00    -0.404 A  
HETATM   23  C   UNL     1     -12.868  15.066  72.439  1.00  0.00    -0.349 C  
HETATM   24  C   UNL     1     -12.505  13.942  71.486  1.00  0.00    -0.384 A  
BRANCH  22  25
HETATM   25  C   UNL     1     -11.305  15.422  69.729  1.00  0.00    -0.317 C  
HETATM   26  C   UNL     1      -9.759  15.373  69.686  1.00  0.00    -0.251 C  
HETATM   27  C   UNL     1      -9.247  14.439  68.594  1.00  0.00    -0.181 C  
HETATM   28  C   UNL     1      -9.708  14.908  67.223  1.00  0.00    -0.228 C  
HETATM   29  C   UNL     1     -11.213  15.137  67.148  1.00  0.00    -0.320 C  
HETATM   30  C   UNL     1     -11.769  15.936  68.338  1.00  0.00    -0.246 C  
ENDBRANCH  22  25
ENDBRANCH  14  15
ENDBRANCH  13  14
ENDBRANCH  11  13
ENDBRANCH   9  11
ENDBRANCH   5   9
BRANCH   8  31
HETATM   31  C   UNL     1      -9.428  10.017  65.363  1.00  0.00    -0.250 C  
BRANCH  31  32
HETATM   32  N   UNL     1     -10.539  10.743  64.701  1.00  0.00    -0.283 NA 
HETATM   33  O   UNL     1     -12.956  11.870  63.187  1.00  0.00    -0.640 OA 
HETATM   34  O   UNL     1     -12.587  14.078  62.974  1.00  0.00    -0.643 OA 
HETATM   35  C   UNL     1     -11.047  11.858  65.546  1.00  0.00    -0.304 C  
HETATM   36  C   UNL     1     -12.234  12.998  63.438  1.00  0.00    -0.472 C  
HETATM   37  C   UNL     1      -9.942  11.761  63.782  1.00  0.00    -0.355 C  
HETATM   38  C   UNL     1     -10.975  12.775  64.305  1.00  0.00    -0.414 C  
ENDBRANCH  31  32
ENDBRANCH   8  31
ENDBRANCH   2   3
TORSDOF 9
ENDMDL
MODEL        4
REMARK 921   NORMALIZED FREE ENERGY PREDICTED BY IDOCK:   -8.11 KCAL/MOL
REMARK 922        TOTAL FREE ENERGY PREDICTED BY IDOCK:  -13.81 KCAL/MOL
REMARK 923 INTER-LIGAND FREE ENERGY PREDICTED BY IDOCK:  -11.21 KCAL/MOL
REMARK 924 INTRA-LIGAND FREE ENERGY PREDICTED BY IDOCK:   -2.60 KCAL/MOL
REMARK 927      BINDING AFFINITY PREDICTED BY RF-SCORE:    0.00 PKD
ROOT
HETATM    1  C   UNL     1     -13.623  13.362  72.220  1.00  0.00    -0.703 C  
HETATM    2  C   UNL     1     -12.767  13.400  70.964  1.00  0.00    -0.387 C  
ENDROOT
BRANCH   2   3
HETATM    3  C   UNL     1     -12.283  12.033  70.536  1.00  0.00    -0.414 A  
HETATM    4  C   UNL     1     -12.808  10.964  71.278  1.00  0.00    -0.536 A  
HETATM    5  C   UNL     1     -12.336   9.658  71.128  1.00  0.00    -0.427 A  
HETATM    6  C   UNL     1     -11.348   9.395  70.188  1.00  0.00    -0.220 A  
HETATM    7  C   UNL     1     -10.861  10.442  69.387  1.00  0.00    -0.287 A  
HETATM    8  C   UNL     1     -11.329  11.770  69.529  1.00  0.00    -0.317 A  
BRANCH   5   9
HETATM    9  C   UNL     1     -12.845   8.656  72.106  1.00  0.00    -0.391 C  
HETATM   10  C   UNL     1     -14.275   8.707  72.574  1.00  0.00    -0.371 C  
BRANCH   9  11
HETATM   11  N   UNL     1     -11.993   7.759  72.517  1.00  0.00    -0.532 NA 
HETATM   12  H   UNL     1     -11.240   7.946  73.180  1.00  0.00     0.000 HD 
BRANCH  11  13
HETATM   13  O   UNL     1     -12.233   6.512  71.941  1.00  0.00    -0.343 OA 
BRANCH  13  14
HETATM   14  C   UNL     1     -11.044   5.741  72.067  1.00  0.00    -0.260 C  
BRANCH  14  15
HETATM   15  C   UNL     1     -10.145   6.108  70.927  1.00  0.00    -0.237 A  
HETATM   16  F   UNL     1      -9.510   6.206  66.089  1.00  0.00    -0.171 F  
HETATM   17  F   UNL     1     -10.777   4.738  67.043  1.00  0.00    -0.215 F  
HETATM   18  C   UNL     1      -8.846   6.537  71.161  1.00  0.00    -0.138 A  
HETATM   19  F   UNL     1     -11.449   6.796  66.883  1.00  0.00    -0.476 F  
HETATM   20  C   UNL     1      -8.037   6.917  70.095  1.00  0.00    -0.127 A  
HETATM   21  C   UNL     1     -10.573   5.956  69.607  1.00  0.00    -0.383 A  
HETATM   22  C   UNL     1      -8.500   6.924  68.763  1.00  0.00    -0.121 A  
HETATM   23  C   UNL     1     -10.349   6.033  67.145  1.00  0.00    -0.230 C  
HETATM   24  C   UNL     1      -9.761   6.328  68.512  1.00  0.00    -0.137 A  
BRANCH  22  25
HETATM   25  C   UNL     1      -7.668   7.600  67.663  1.00  0.00    -0.122 C  
HETATM   26  C   UNL     1      -8.128   9.054  67.396  1.00  0.00    -0.108 C  
HETATM   27  C   UNL     1      -7.813   9.976  68.570  1.00  0.00    -0.093 C  
HETATM   28  C   UNL     1      -6.314  10.031  68.827  1.00  0.00    -0.041 C  
HETATM   29  C   UNL     1      -5.686   8.650  68.974  1.00  0.00    -0.039 C  
HETATM   30  C   UNL     1      -6.132   7.657  67.888  1.00  0.00    -0.044 C  
ENDBRANCH  22  25
ENDBRANCH  14  15
ENDBRANCH  13  14
ENDBRANCH  11  13
ENDBRANCH   9  11
ENDBRANCH   5   9
BRANCH   8  31
HETATM   31  C   UNL     1     -10.702  12.882  68.698  1.00  0.00    -0.247 C  
BRANCH  31  32
HETATM   32  N   UNL     1     -11.428  13.258  67.461  1.00  0.00    -0.303 NA 
HETATM   33  O   UNL     1     -13.253  14.124  65.154  1.00  0.00    -0.743 OA 
HETATM   34  O   UNL     1     -12.342  13.270  63.282  1.00  0.00    -0.721 OA 
HETATM   35  C   UNL     1     -10.529  13.919  66.477  1.00  0.00    -0.282 C  
HETATM   36  C   UNL     1     -12.261  13.462  64.493  1.00  0.00    -0.398 C  
HETATM   37  C   UNL     1     -11.465  12.060  66.566  1.00  0.00    -0.349 C  
HETATM   38  C   UNL     1     -11.099  12.983  65.389  1.00  0.00    -0.300 C  
ENDBRANCH  31  32
ENDBRANCH   8  31
ENDBRANCH   2   3
TORSDOF 9
ENDMDL
MODEL        5
REMARK 921   NORMALIZED FREE ENERGY PREDICTED BY IDOCK:   -8.10 KCAL/MOL
REMARK 922        TOTAL FREE ENERGY PREDICTED BY IDOCK:  -13.78 KCAL/MOL
REMARK 923 INTER-LIGAND FREE ENERGY PREDICTED BY IDOCK:  -10.77 KCAL/MOL
REMARK 924 INTRA-LIGAND FREE ENERGY PREDICTED BY IDOCK:   -3.01 KCAL/MOL
REMARK 927      BINDING AFFINITY PREDICTED BY RF-SCORE:    0.00 PKD
ROOT
HETATM    1  C   UNL     1      -9.372   6.986  67.020  1.00  0.00    -0.174 C  
HETATM    2  C   UNL     1     -10.570   7.912  67.150  1.00  0.00    -0.383 C  
ENDROOT
BRANCH   2   3
HETATM    3  C   UNL     1     -10.199   9.376  67.071  1.00  0.00    -0.322 A  
HETATM    4  C   UNL     1     -10.348   9.953  65.801  1.00  0.00    -0.155 A  
HETATM    5  C   UNL     1      -9.888  11.241  65.516  1.00  0.00    -0.274 A  
HETATM    6  C   UNL     1      -9.305  11.994  66.527  1.00  0.00    -0.226 A  
HETATM    7  C   UNL     1      -9.212  11.458  67.823  1.00  0.00    -0.159 A  
HETATM    8  C   UNL     1      -9.672  10.155  68.125  1.00  0.00    -0.155 A  
BRANCH   5   9
HETATM    9  C   UNL     1      -9.937  11.658  64.087  1.00  0.00    -0.277 C  
HETATM   10  C   UNL     1      -9.162  10.897  63.045  1.00  0.00    -0.329 C  
BRANCH   9  11
HETATM   11  N   UNL     1     -10.675  12.696  63.809  1.00  0.00    -0.430 NA 
HETATM   12  H   UNL     1     -10.379  13.463  63.205  1.00  0.00     0.000 HD 
BRANCH  11  13
HETATM   13  O   UNL     1     -11.919  12.632  64.437  1.00  0.00    -0.355 OA 
BRANCH  13  14
HETATM   14  C   UNL     1     -12.405  13.963  64.569  1.00  0.00    -0.372 C  
BRANCH  14  15
HETATM   15  C   UNL     1     -11.627  14.622  65.666  1.00  0.00    -0.328 A  
HETATM   16  F   UNL     1     -10.979  15.141  70.476  1.00  0.00    -0.274 F  
HETATM   17  F   UNL     1     -12.897  14.610  69.634  1.00  0.00    -0.247 F  
HETATM   18  C   UNL     1     -10.709  15.621  65.379  1.00  0.00    -0.424 A  
HETATM   19  F   UNL     1     -11.305  13.136  69.693  1.00  0.00    -0.298 F  
HETATM   20  C   UNL     1      -9.960  16.193  66.403  1.00  0.00    -0.315 A  
HETATM   21  C   UNL     1     -11.864  14.292  67.002  1.00  0.00    -0.455 A  
HETATM   22  C   UNL     1     -10.067  15.765  67.743  1.00  0.00    -0.238 A  
HETATM   23  C   UNL     1     -11.552  14.455  69.450  1.00  0.00    -0.304 C  
HETATM   24  C   UNL     1     -11.120  14.869  68.056  1.00  0.00    -0.301 A  
BRANCH  22  25
HETATM   25  C   UNL     1      -9.040  16.233  68.785  1.00  0.00    -0.245 C  
HETATM   26  C   UNL     1      -8.013  15.127  69.127  1.00  0.00    -0.205 C  
HETATM   27  C   UNL     1      -7.084  14.828  67.954  1.00  0.00    -0.171 C  
HETATM   28  C   UNL     1      -6.284  16.064  67.571  1.00  0.00    -0.194 C  
HETATM   29  C   UNL     1      -7.160  17.289  67.335  1.00  0.00    -0.184 C  
HETATM   30  C   UNL     1      -8.218  17.503  68.430  1.00  0.00    -0.278 C  
ENDBRANCH  22  25
ENDBRANCH  14  15
ENDBRANCH  13  14
ENDBRANCH  11  13
ENDBRANCH   9  11
ENDBRANCH   5   9
BRANCH   8  31
HETATM   31  C   UNL     1      -9.465   9.589  69.524  1.00  0.00    -0.185 C  
BRANCH  31  32
HETATM   32  N   UNL     1     -10.670   9.032  70.186  1.00  0.00    -0.227 NA 
HETATM   33  O   UNL     1     -13.175   7.607  71.236  1.00  0.00    -0.306 OA 
HETATM   34  O   UNL     1     -14.124   9.018  72.708  1.00  0.00    -0.524 OA 
HETATM   35  C   UNL     1     -10.542   9.056  71.668  1.00  0.00    -0.364 C  
HETATM   36  C   UNL     1     -13.183   8.761  71.962  1.00  0.00    -0.395 C  
HETATM   37  C   UNL     1     -11.684  10.126  70.292  1.00  0.00    -0.282 C  
HETATM   38  C   UNL     1     -11.957   9.672  71.738  1.00  0.00    -0.421 C  
ENDBRANCH  31  32
ENDBRANCH   8  31
ENDBRANCH   2   3
TORSDOF 9
ENDMDL
MODEL        6
REMARK 921   NORMALIZED FREE ENERGY PREDICTED BY IDOCK:   -7.96 KCAL/MOL
REMARK 922        TOTAL FREE ENERGY PREDICTED BY IDOCK:  -13.57 KCAL/MOL
REMARK 923 INTER-LIGAND FREE ENERGY PREDICTED BY IDOCK:  -11.90 KCAL/MOL
REMARK 924 INTRA-LIGAND FREE ENERGY PREDICTED BY IDOCK:   -1.67 KCAL/MOL
REMARK 927      BINDING AFFINITY PREDICTED BY RF-SCORE:    0.00 PKD
ROOT
HETATM    1  C   UNL     1     -10.739  19.086  67.470  1.00  0.00    -0.532 C  
HETATM    2  C   UNL     1     -10.057  18.537  66.228  1.00  0.00    -0.422 C  
ENDROOT
BRANCH   2   3
HETATM    3  C   UNL     1      -9.323  17.239  66.479  1.00  0.00    -0.283 A  
HETATM    4  C   UNL     1     -10.130  16.091  66.448  1.00  0.00    -0.314 A  
HETATM    5  C   UNL     1      -9.647  14.838  66.829  1.00  0.00    -0.267 A  
HETATM    6  C   UNL     1      -8.317  14.707  67.209  1.00  0.00    -0.234 A  
HETATM    7  C   UNL     1      -7.477  15.833  67.177  1.00  0.00    -0.259 A  
HETATM    8  C   UNL     1      -7.953  17.109  66.795  1.00  0.00    -0.271 A  
BRANCH   5   9
HETATM    9  C   UNL     1     -10.655  13.745  66.931  1.00  0.00    -0.276 C  
HETATM   10  C   UNL     1     -11.975  13.988  67.612  1.00  0.00    -0.404 C  
BRANCH   9  11
HETATM   11  N   UNL     1     -10.325  12.599  66.405  1.00  0.00    -0.245 NA 
HETATM   12  H   UNL     1      -9.914  12.492  65.477  1.00  0.00     0.000 HD 
BRANCH  11  13
HETATM   13  O   UNL     1     -10.601  11.535  67.263  1.00  0.00    -0.210 OA 
BRANCH  13  14
HETATM   14  C   UNL     1      -9.425  11.274  68.020  1.00  0.00    -0.173 C  
BRANCH  14  15
HETATM   15  C   UNL     1      -9.836  10.530  69.253  1.00  0.00    -0.225 A  
HETATM   16  F   UNL     1     -13.300   9.776  72.608  1.00  0.00    -0.440 F  
HETATM   17  F   UNL     1     -13.117  11.657  71.561  1.00  0.00    -0.472 F  
HETATM   18  C   UNL     1      -8.929   9.729  69.930  1.00  0.00    -0.254 A  
HETATM   19  F   UNL     1     -13.904   9.922  70.522  1.00  0.00    -0.300 F  
HETATM   20  C   UNL     1      -9.337   9.008  71.048  1.00  0.00    -0.339 A  
HETATM   21  C   UNL     1     -11.118  10.687  69.783  1.00  0.00    -0.358 A  
HETATM   22  C   UNL     1     -10.670   9.025  71.510  1.00  0.00    -0.421 A  
HETATM   23  C   UNL     1     -12.944  10.310  71.409  1.00  0.00    -0.440 C  
HETATM   24  C   UNL     1     -11.547   9.970  70.923  1.00  0.00    -0.463 A  
BRANCH  22  25
HETATM   25  C   UNL     1     -11.128   8.016  72.573  1.00  0.00    -0.440 C  
HETATM   26  C   UNL     1     -11.913   6.834  71.953  1.00  0.00    -0.374 C  
HETATM   27  C   UNL     1     -11.016   5.937  71.106  1.00  0.00    -0.327 C  
HETATM   28  C   UNL     1      -9.907   5.330  71.950  1.00  0.00    -0.227 C  
HETATM   29  C   UNL     1      -9.123   6.372  72.739  1.00  0.00    -0.135 C  
HETATM   30  C   UNL     1     -10.019   7.390  73.463  1.00  0.00    -0.377 C  
ENDBRANCH  22  25
ENDBRANCH  14  15
ENDBRANCH  13  14
ENDBRANCH  11  13
ENDBRANCH   9  11
ENDBRANCH   5   9
BRANCH   8  31
HETATM   31  C   UNL     1      -7.022  18.313  66.866  1.00  0.00    -0.190 C  
BRANCH  31  32
HETATM   32  N   UNL     1      -6.444  18.612  68.198  1.00  0.00    -0.210 NA 
HETATM   33  O   UNL     1      -5.220  18.815  71.003  1.00  0.00    -0.250 OA 
HETATM   34  O   UNL     1      -5.684  20.890  71.738  1.00  0.00    -0.586 OA 
HETATM   35  C   UNL     1      -5.585  19.826  68.164  1.00  0.00    -0.206 C  
HETATM   36  C   UNL     1      -5.718  20.071  70.823  1.00  0.00    -0.308 C  
HETATM   37  C   UNL     1      -7.456  19.395  68.974  1.00  0.00    -0.349 C  
HETATM   38  C   UNL     1      -6.320  20.331  69.426  1.00  0.00    -0.324 C  
ENDBRANCH  31  32
ENDBRANCH   8  31
ENDBRANCH   2   3
TORSDOF 9
ENDMDL
MODEL        7
REMARK 921   NORMALIZED FREE ENERGY PREDICTED BY IDOCK:   -7.87 KCAL/MOL
REMARK 922        TOTAL FREE ENERGY PREDICTED BY IDOCK:  -13.43 KCAL/MOL
REMARK 923 INTER-LIGAND FREE ENERGY PREDICTED BY IDOCK:  -10.98 KCAL/MOL
REMARK 924 INTRA-LIGAND FREE ENERGY PREDICTED BY IDOCK:   -2.45 KCAL/MOL
REMARK 927      BINDING AFFINITY PREDICTED BY RF-SCORE:    0.00 PKD
ROOT
HETATM    1  C   UNL     1     -13.512  13.640  72.359  1.00  0.00    -0.685 C  
HETATM    2  C   UNL     1     -12.782  13.813  71.037  1.00  0.00    -0.416 C  
ENDROOT
BRANCH   2   3
HETATM    3  C   UNL     1     -12.235  12.515  70.488  1.00  0.00    -0.382 A  
HETATM    4  C   UNL     1     -12.677  11.362  71.154  1.00  0.00    -0.479 A  
HETATM    5  C   UNL     1     -12.137  10.102  70.887  1.00  0.00    -0.453 A  
HETATM    6  C   UNL     1     -11.164   9.973  69.904  1.00  0.00    -0.327 A  
HETATM    7  C   UNL     1     -10.761  11.106  69.178  1.00  0.00    -0.262 A  
HETATM    8  C   UNL     1     -11.299  12.389  69.439  1.00  0.00    -0.286 A  
BRANCH   5   9
HETATM    9  C   UNL     1     -12.559   8.998  71.794  1.00  0.00    -0.367 C  
HETATM   10  C   UNL     1     -13.983   8.908  72.272  1.00  0.00    -0.531 C  
BRANCH   9  11
HETATM   11  N   UNL     1     -11.638   8.140  72.134  1.00  0.00    -0.331 NA 
HETATM   12  H   UNL     1     -10.881   8.343  72.787  1.00  0.00     0.000 HD 
BRANCH  11  13
HETATM   13  O   UNL     1     -11.811   6.911  71.498  1.00  0.00    -0.286 OA 
BRANCH  13  14
HETATM   14  C   UNL     1     -10.558   6.238  71.511  1.00  0.00    -0.237 C  
BRANCH  14  15
HETATM   15  C   UNL     1      -9.855   6.566  70.230  1.00  0.00    -0.185 A  
HETATM   16  F   UNL     1      -9.286   5.527  65.495  1.00  0.00    -0.160 F  
HETATM   17  F   UNL     1      -9.922   4.034  66.922  1.00  0.00    -0.234 F  
HETATM   18  C   UNL     1      -8.809   7.477  70.212  1.00  0.00    -0.146 A  
HETATM   19  F   UNL     1     -11.308   5.584  66.299  1.00  0.00    -0.210 F  
HETATM   20  C   UNL     1      -8.195   7.807  69.007  1.00  0.00    -0.126 A  
HETATM   21  C   UNL     1     -10.192   5.909  69.045  1.00  0.00    -0.261 A  
HETATM   22  C   UNL     1      -8.623   7.275  67.773  1.00  0.00    -0.120 A  
HETATM   23  C   UNL     1     -10.005   5.368  66.639  1.00  0.00    -0.195 C  
HETATM   24  C   UNL     1      -9.573   6.224  67.814  1.00  0.00    -0.118 A  
BRANCH  22  25
HETATM   25  C   UNL     1      -8.097   7.867  66.456  1.00  0.00    -0.107 C  
HETATM   26  C   UNL     1      -9.213   8.576  65.651  1.00  0.00    -0.161 C  
HETATM   27  C   UNL     1      -9.692   9.850  66.341  1.00  0.00    -0.270 C  
HETATM   28  C   UNL     1      -8.553  10.848  66.484  1.00  0.00    -0.156 C  
HETATM   29  C   UNL     1      -7.316  10.248  67.143  1.00  0.00    -0.091 C  
HETATM   30  C   UNL     1      -6.923   8.877  66.568  1.00  0.00    -0.080 C  
ENDBRANCH  22  25
ENDBRANCH  14  15
ENDBRANCH  13  14
ENDBRANCH  11  13
ENDBRANCH   9  11
ENDBRANCH   5   9
BRANCH   8  31
HETATM   31  C   UNL     1     -10.761  13.598  68.685  1.00  0.00    -0.256 C  
BRANCH  31  32
HETATM   32  N   UNL     1     -10.845  13.534  67.206  1.00  0.00    -0.274 NA 
HETATM   33  O   UNL     1     -10.599  13.388  64.152  1.00  0.00    -0.394 OA 
HETATM   34  O   UNL     1     -12.570  14.097  63.332  1.00  0.00    -0.818 OA 
HETATM   35  C   UNL     1     -12.011  12.728  66.757  1.00  0.00    -0.319 C  
HETATM   36  C   UNL     1     -11.890  13.799  64.310  1.00  0.00    -0.417 C  
HETATM   37  C   UNL     1     -11.557  14.761  66.731  1.00  0.00    -0.324 C  
HETATM   38  C   UNL     1     -12.369  13.866  65.776  1.00  0.00    -0.518 C  
ENDBRANCH  31  32
ENDBRANCH   8  31
ENDBRANCH   2   3
TORSDOF 9
ENDMDL
MODEL        8
REMARK 921   NORMALIZED FREE ENERGY PREDICTED BY IDOCK:   -7.86 KCAL/MOL
REMARK 922        TOTAL FREE ENERGY PREDICTED BY IDOCK:  -13.42 KCAL/MOL
REMARK 923 INTER-LIGAND FREE ENERGY PREDICTED BY IDOCK:  -10.88 KCAL/MOL
REMARK 924 INTRA-LIGAND FREE ENERGY PREDICTED BY IDOCK:   -2.53 KCAL/MOL
REMARK 927      BINDING AFFINITY PREDICTED BY RF-SCORE:    0.00 PKD
ROOT
HETATM    1  C   UNL     1     -12.909  14.889  73.211  1.00  0.00    -0.646 C  
HETATM    2  C   UNL     1     -11.958  15.248  72.080  1.00  0.00    -0.503 C  
ENDROOT
BRANCH   2   3
HETATM    3  C   UNL     1     -12.109  14.352  70.872  1.00  0.00    -0.414 A  
HETATM    4  C   UNL     1     -12.301  12.993  71.168  1.00  0.00    -0.270 A  
HETATM    5  C   UNL     1     -12.284  12.011  70.175  1.00  0.00    -0.309 A  
HETATM    6  C   UNL     1     -12.118  12.388  68.848  1.00  0.00    -0.171 A  
HETATM    7  C   UNL     1     -11.997  13.750  68.527  1.00  0.00    -0.402 A  
HETATM    8  C   UNL     1     -12.010  14.755  69.523  1.00  0.00    -0.351 A  
BRANCH   5   9
HETATM    9  C   UNL     1     -12.310  10.598  70.645  1.00  0.00    -0.369 C  
HETATM   10  C   UNL     1     -12.983  10.239  71.942  1.00  0.00    -0.554 C  
BRANCH   9  11
HETATM   11  N   UNL     1     -11.726   9.719  69.878  1.00  0.00    -0.448 NA 
HETATM   12  H   UNL     1     -12.134   9.350  69.018  1.00  0.00     0.000 HD 
BRANCH  11  13
HETATM   13  O   UNL     1     -10.478   9.345  70.373  1.00  0.00    -0.217 OA 
BRANCH  13  14
HETATM   14  C   UNL     1      -9.705   8.866  69.278  1.00  0.00    -0.165 C  
BRANCH  14  15
HETATM   15  C   UNL     1      -9.781   9.891  68.189  1.00  0.00    -0.161 A  
HETATM   16  F   UNL     1      -8.445  14.324  66.644  1.00  0.00    -0.209 F  
HETATM   17  F   UNL     1      -8.603  13.849  68.746  1.00  0.00    -0.162 F  
HETATM   18  C   UNL     1     -10.632   9.711  67.108  1.00  0.00    -0.298 A  
HETATM   19  F   UNL     1      -6.939  13.068  67.591  1.00  0.00    -0.095 F  
HETATM   20  C   UNL     1     -10.659  10.649  66.081  1.00  0.00    -0.211 A  
HETATM   21  C   UNL     1      -9.051  11.077  68.277  1.00  0.00    -0.158 A  
HETATM   22  C   UNL     1      -9.814  11.778  66.069  1.00  0.00    -0.258 A  
HETATM   23  C   UNL     1      -8.281  13.308  67.533  1.00  0.00    -0.184 C  
HETATM   24  C   UNL     1      -9.074  12.046  67.248  1.00  0.00    -0.178 A  
BRANCH  22  25
HETATM   25  C   UNL     1      -9.689  12.633  64.799  1.00  0.00     0.053 C  
HETATM   26  C   UNL     1     -10.053  11.835  63.524  1.00  0.00    -0.463 C  
HETATM   27  C   UNL     1     -11.539  11.495  63.468  1.00  0.00    -0.294 C  
HETATM   28  C   UNL     1     -12.383  12.760  63.449  1.00  0.00    -0.531 C  
HETATM   29  C   UNL     1     -12.038  13.721  64.580  1.00  0.00    -0.463 C  
HETATM   30  C   UNL     1     -10.526  13.941  64.756  1.00  0.00    -0.451 C  
ENDBRANCH  22  25
ENDBRANCH  14  15
ENDBRANCH  13  14
ENDBRANCH  11  13
ENDBRANCH   9  11
ENDBRANCH   5   9
BRANCH   8  31
HETATM   31  C   UNL     1     -11.783  16.209  69.129  1.00  0.00    -0.238 C  
BRANCH  31  32
HETATM   32  N   UNL     1     -10.424  16.547  68.639  1.00  0.00    -0.284 NA 
HETATM   33  O   UNL     1      -7.478  16.952  67.894  1.00  0.00    -0.163 OA 
HETATM   34  O   UNL     1      -7.358  18.961  66.889  1.00  0.00    -0.209 OA 
HETATM   35  C   UNL     1     -10.428  16.863  67.186  1.00  0.00    -0.296 C  
HETATM   36  C   UNL     1      -8.053  18.076  67.380  1.00  0.00    -0.222 C  
HETATM   37  C   UNL     1     -10.182  17.997  68.916  1.00  0.00    -0.311 C  
HETATM   38  C   UNL     1      -9.592  18.123  67.500  1.00  0.00    -0.280 C  
ENDBRANCH  31  32
ENDBRANCH   8  31
ENDBRANCH   2   3
TORSDOF 9
ENDMDL
MODEL        9
REMARK 921   NORMALIZED FREE ENERGY PREDICTED BY IDOCK:   -7.85 KCAL/MOL
REMARK 922        TOTAL FREE ENERGY PREDICTED BY IDOCK:  -13.42 KCAL/MOL
REMARK 923 INTER-LIGAND FREE ENERGY PREDICTED BY IDOCK:  -10.71 KCAL/MOL
REMARK 924 INTRA-LIGAND FREE ENERGY PREDICTED BY IDOCK:   -2.71 KCAL/MOL
REMARK 927      BINDING AFFINITY PREDICTED BY RF-SCORE:    0.00 PKD
ROOT
HETATM    1  C   UNL     1      -7.311  13.941  67.540  1.00  0.00    -0.181 C  
HETATM    2  C   UNL     1      -8.648  14.512  67.983  1.00  0.00    -0.162 C  
ENDROOT
BRANCH   2   3
HETATM    3  C   UNL     1      -9.831  13.799  67.367  1.00  0.00    -0.238 A  
HETATM    4  C   UNL     1      -9.496  12.775  66.468  1.00  0.00    -0.253 A  
HETATM    5  C   UNL     1     -10.460  12.136  65.684  1.00  0.00    -0.290 A  
HETATM    6  C   UNL     1     -11.796  12.489  65.825  1.00  0.00    -0.494 A  
HETATM    7  C   UNL     1     -12.156  13.463  66.772  1.00  0.00    -0.419 A  
HETATM    8  C   UNL     1     -11.190  14.120  67.571  1.00  0.00    -0.323 A  
BRANCH   5   9
HETATM    9  C   UNL     1      -9.949  11.204  64.640  1.00  0.00    -0.292 C  
HETATM   10  C   UNL     1     -10.313  11.408  63.194  1.00  0.00    -0.357 C  
BRANCH   9  11
HETATM   11  N   UNL     1      -9.188  10.229  65.052  1.00  0.00    -0.193 NA 
HETATM   12  H   UNL     1      -8.190  10.159  64.853  1.00  0.00     0.000 HD 
BRANCH  11  13
HETATM   13  O   UNL     1      -9.902   9.292  65.799  1.00  0.00    -0.296 OA 
BRANCH  13  14
HETATM   14  C   UNL     1      -8.965   8.550  66.571  1.00  0.00    -0.161 C  
BRANCH  14  15
HETATM   15  C   UNL     1      -9.385   8.645  68.005  1.00  0.00    -0.147 A  
HETATM   16  F   UNL     1     -11.835  11.165  71.392  1.00  0.00    -0.297 F  
HETATM   17  F   UNL     1     -10.988  12.122  69.649  1.00  0.00    -0.220 F  
HETATM   18  C   UNL     1      -8.871   7.768  68.950  1.00  0.00    -0.135 A  
HETATM   19  F   UNL     1     -12.764  10.890  69.443  1.00  0.00    -0.337 F  
HETATM   20  C   UNL     1      -9.304   7.838  70.271  1.00  0.00    -0.156 A  
HETATM   21  C   UNL     1     -10.243   9.660  68.429  1.00  0.00    -0.214 A  
HETATM   22  C   UNL     1     -10.291   8.754  70.693  1.00  0.00    -0.253 A  
HETATM   23  C   UNL     1     -11.558  10.955  70.077  1.00  0.00    -0.341 C  
HETATM   24  C   UNL     1     -10.686   9.753  69.768  1.00  0.00    -0.283 A  
BRANCH  22  25
HETATM   25  C   UNL     1     -10.924   8.615  72.085  1.00  0.00    -0.434 C  
HETATM   26  C   UNL     1     -12.388   8.118  72.012  1.00  0.00    -0.380 C  
HETATM   27  C   UNL     1     -12.476   6.671  71.536  1.00  0.00    -0.326 C  
HETATM   28  C   UNL     1     -11.746   5.742  72.494  1.00  0.00    -0.280 C  
HETATM   29  C   UNL     1     -10.316   6.186  72.777  1.00  0.00    -0.220 C  
HETATM   30  C   UNL     1     -10.193   7.686  73.093  1.00  0.00    -0.401 C  
ENDBRANCH  22  25
ENDBRANCH  14  15
ENDBRANCH  13  14
ENDBRANCH  11  13
ENDBRANCH   9  11
ENDBRANCH   5   9
BRANCH   8  31
HETATM   31  C   UNL     1     -11.626  15.232  68.517  1.00  0.00    -0.352 C  
BRANCH  31  32
HETATM   32  N   UNL     1     -11.948  14.818  69.904  1.00  0.00    -0.309 NA 
HETATM   33  O   UNL     1     -12.834  13.651  72.598  1.00  0.00    -0.289 OA 
HETATM   34  O   UNL     1     -12.534  15.284  74.115  1.00  0.00    -0.586 OA 
HETATM   35  C   UNL     1     -10.799  15.036  70.822  1.00  0.00    -0.071 C  
HETATM   36  C   UNL     1     -12.399  14.891  72.960  1.00  0.00    -0.342 C  
HETATM   37  C   UNL     1     -12.651  15.957  70.572  1.00  0.00    -0.142 C  
HETATM   38  C   UNL     1     -11.772  15.713  71.813  1.00  0.00    -0.535 C  
ENDBRANCH  31  32
ENDBRANCH   8  31
ENDBRANCH   2   3
TORSDOF 9
ENDMDL
MODEL       10
REMARK 921   NORMALIZED FREE ENERGY PREDICTED BY IDOCK:   -7.84 KCAL/MOL
REMARK 922        TOTAL FREE ENERGY PREDICTED BY IDOCK:  -13.39 KCAL/MOL
REMARK 923 INTER-LIGAND FREE ENERGY PREDICTED BY IDOCK:  -11.51 KCAL/MOL
REMARK 924 INTRA-LIGAND FREE ENERGY PREDICTED BY IDOCK:   -1.88 KCAL/MOL
REMARK 927      BINDING AFFINITY PREDICTED BY RF-SCORE:    0.00 PKD
ROOT
HETATM    1  C   UNL     1      -9.459  11.399  62.905  1.00  0.00    -0.372 C  
HETATM    2  C   UNL     1     -10.665  11.937  63.658  1.00  0.00    -0.502 C  
ENDROOT
BRANCH   2   3
HETATM    3  C   UNL     1     -10.705  11.499  65.104  1.00  0.00    -0.348 A  
HETATM    4  C   UNL     1      -9.968  10.339  65.388  1.00  0.00    -0.371 A  
HETATM    5  C   UNL     1     -10.038   9.704  66.630  1.00  0.00    -0.307 A  
HETATM    6  C   UNL     1     -10.824  10.257  67.633  1.00  0.00    -0.363 A  
HETATM    7  C   UNL     1     -11.513  11.456  67.388  1.00  0.00    -0.328 A  
HETATM    8  C   UNL     1     -11.452  12.109  66.135  1.00  0.00    -0.429 A  
BRANCH   5   9
HETATM    9  C   UNL     1      -9.357   8.383  66.735  1.00  0.00    -0.184 C  
HETATM   10  C   UNL     1      -8.075   8.248  67.513  1.00  0.00    -0.122 C  
BRANCH   9  11
HETATM   11  N   UNL     1      -9.930   7.383  66.127  1.00  0.00    -0.436 NA 
HETATM   12  H   UNL     1      -9.622   7.008  65.229  1.00  0.00     0.000 HD 
BRANCH  11  13
HETATM   13  O   UNL     1     -11.013   6.886  66.850  1.00  0.00    -0.377 OA 
BRANCH  13  14
HETATM   14  C   UNL     1     -10.653   5.599  67.338  1.00  0.00    -0.237 C  
BRANCH  14  15
HETATM   15  C   UNL     1     -10.417   5.725  68.811  1.00  0.00    -0.312 A  
HETATM   16  F   UNL     1     -11.679   7.922  72.983  1.00  0.00    -0.413 F  
HETATM   17  F   UNL     1     -11.932   8.885  71.065  1.00  0.00    -0.301 F  
HETATM   18  C   UNL     1      -9.350   5.074  69.413  1.00  0.00    -0.179 A  
HETATM   19  F   UNL     1     -13.266   7.273  71.642  1.00  0.00    -0.363 F  
HETATM   20  C   UNL     1      -9.169   5.163  70.790  1.00  0.00    -0.188 A  
HETATM   21  C   UNL     1     -11.222   6.555  69.592  1.00  0.00    -0.446 A  
HETATM   22  C   UNL     1     -10.062   5.867  71.624  1.00  0.00    -0.233 A  
HETATM   23  C   UNL     1     -11.960   7.663  71.677  1.00  0.00    -0.299 C  
HETATM   24  C   UNL     1     -11.047   6.665  70.991  1.00  0.00    -0.330 A  
BRANCH  22  25
HETATM   25  C   UNL     1      -9.973   5.714  73.150  1.00  0.00    -0.190 C  
HETATM   26  C   UNL     1     -11.070   4.774  73.705  1.00  0.00    -0.321 C  
HETATM   27  C   UNL     1     -10.849   3.326  73.281  1.00  0.00    -0.283 C  
HETATM   28  C   UNL     1      -9.520   2.806  73.808  1.00  0.00    -0.112 C  
HETATM   29  C   UNL     1      -8.346   3.712  73.455  1.00  0.00    -0.083 C  
HETATM   30  C   UNL     1      -8.623   5.201  73.720  1.00  0.00    -0.110 C  
ENDBRANCH  22  25
ENDBRANCH  14  15
ENDBRANCH  13  14
ENDBRANCH  11  13
ENDBRANCH   9  11
ENDBRANCH   5   9
BRANCH   8  31
HETATM   31  C   UNL     1     -12.290  13.359  65.895  1.00  0.00    -0.437 C  
BRANCH  31  32
HETATM   32  N   UNL     1     -11.658  14.648  66.265  1.00  0.00    -0.363 NA 
HETATM   33  O   UNL     1     -10.713  17.404  67.222  1.00  0.00    -0.315 OA 
HETATM   34  O   UNL     1      -8.940  17.935  65.944  1.00  0.00    -0.512 OA 
HETATM   35  C   UNL     1     -10.210  14.484  66.565  1.00  0.00    -0.279 C  
HETATM   36  C   UNL     1      -9.786  17.107  66.267  1.00  0.00    -0.291 C  
HETATM   37  C   UNL     1     -11.278  15.354  65.002  1.00  0.00    -0.387 C  
HETATM   38  C   UNL     1      -9.926  15.697  65.653  1.00  0.00    -0.388 C  
ENDBRANCH  31  32
ENDBRANCH   8  31
ENDBRANCH   2   3
TORSDOF 9
ENDMDL
MODEL       11
REMARK 921   NORMALIZED FREE ENERGY PREDICTED BY IDOCK:   -7.82 KCAL/MOL
REMARK 922        TOTAL FREE ENERGY PREDICTED BY IDOCK:  -13.37 KCAL/MOL
REMARK 923 INTER-LIGAND FREE ENERGY PREDICTED BY IDOCK:   -9.55 KCAL/MOL
REMARK 924 INTRA-LIGAND FREE ENERGY PREDICTED BY IDOCK:   -3.82 KCAL/MOL
REMARK 927      BINDING AFFINITY PREDICTED BY RF-SCORE:    0.00 PKD
ROOT
HETATM    1  C   UNL     1      -7.652  13.603  67.595  1.00  0.00    -0.186 C  
HETATM    2  C   UNL     1      -8.136  12.381  68.359  1.00  0.00    -0.143 C  
ENDROOT
BRANCH   2   3
HETATM    3  C   UNL     1      -8.656  11.285  67.457  1.00  0.00    -0.134 A  
HETATM    4  C   UNL     1      -8.897  11.679  66.132  1.00  0.00    -0.139 A  
HETATM    5  C   UNL     1      -9.537  10.841  65.216  1.00  0.00    -0.278 A  
HETATM    6  C   UNL     1      -9.910   9.562  65.610  1.00  0.00    -0.343 A  
HETATM    7  C   UNL     1      -9.613   9.127  66.912  1.00  0.00    -0.233 A  
HETATM    8  C   UNL     1      -8.966   9.965  67.850  1.00  0.00    -0.129 A  
BRANCH   5   9
HETATM    9  C   UNL     1      -9.899  11.450  63.905  1.00  0.00    -0.300 C  
HETATM   10  C   UNL     1      -9.517  10.768  62.619  1.00  0.00    -0.331 C  
BRANCH   9  11
HETATM   11  N   UNL     1     -10.550  12.579  63.948  1.00  0.00    -0.421 NA 
HETATM   12  H   UNL     1     -10.182  13.464  63.598  1.00  0.00     0.000 HD 
BRANCH  11  13
HETATM   13  O   UNL     1     -11.809  12.431  64.528  1.00  0.00    -0.350 OA 
BRANCH  13  14
HETATM   14  C   UNL     1     -12.263  13.725  64.910  1.00  0.00    -0.415 C  
BRANCH  14  15
HETATM   15  C   UNL     1     -11.969  13.895  66.368  1.00  0.00    -0.467 A  
HETATM   16  F   UNL     1      -9.922  16.658  69.833  1.00  0.00    -0.150 F  
HETATM   17  F   UNL     1      -9.212  16.677  67.792  1.00  0.00    -0.207 F  
HETATM   18  C   UNL     1     -12.246  12.876  67.268  1.00  0.00    -0.119 A  
HETATM   19  F   UNL     1     -11.090  17.648  68.285  1.00  0.00    -0.308 F  
HETATM   20  C   UNL     1     -12.010  13.065  68.626  1.00  0.00    -0.298 A  
HETATM   21  C   UNL     1     -11.347  15.053  66.838  1.00  0.00    -0.302 A  
HETATM   22  C   UNL     1     -11.529  14.285  69.145  1.00  0.00    -0.330 A  
HETATM   23  C   UNL     1     -10.344  16.536  68.545  1.00  0.00    -0.289 C  
HETATM   24  C   UNL     1     -11.090  15.258  68.213  1.00  0.00    -0.301 A  
BRANCH  22  25
HETATM   25  C   UNL     1     -11.540  14.534  70.661  1.00  0.00    -0.278 C  
HETATM   26  C   UNL     1     -12.485  15.695  71.053  1.00  0.00    -0.501 C  
HETATM   27  C   UNL     1     -13.951  15.336  70.834  1.00  0.00    -0.250 C  
HETATM   28  C   UNL     1     -14.348  14.142  71.689  1.00  0.00    -0.375 C  
HETATM   29  C   UNL     1     -13.414  12.950  71.513  1.00  0.00    -0.137 C  
HETATM   30  C   UNL     1     -11.925  13.329  71.561  1.00  0.00     0.630 C  
ENDBRANCH  22  25
ENDBRANCH  14  15
ENDBRANCH  13  14
ENDBRANCH  11  13
ENDBRANCH   9  11
ENDBRANCH   5   9
BRANCH   8  31
HETATM   31  C   UNL     1      -8.748   9.474  69.275  1.00  0.00    -0.151 C  
BRANCH  31  32
HETATM   32  N   UNL     1      -9.933   8.892  69.952  1.00  0.00    -0.183 NA 
HETATM   33  O   UNL     1     -12.360   7.383  71.063  1.00  0.00    -0.318 OA 
HETATM   34  O   UNL     1     -13.487   8.860  72.332  1.00  0.00    -0.425 OA 
HETATM   35  C   UNL     1      -9.876   9.088  71.425  1.00  0.00    -0.311 C  
HETATM   36  C   UNL     1     -12.495   8.604  71.654  1.00  0.00    -0.335 C  
HETATM   37  C   UNL     1     -11.036   9.901  69.897  1.00  0.00    -0.275 C  
HETATM   38  C   UNL     1     -11.337   9.586  71.374  1.00  0.00    -0.462 C  
ENDBRANCH  31  32
ENDBRANCH   8  31
ENDBRANCH   2   3
TORSDOF 9
ENDMDL
MODEL       12
REMARK 921   NORMALIZED FREE ENERGY PREDICTED BY IDOCK:   -7.79 KCAL/MOL
REMARK 922        TOTAL FREE ENERGY PREDICTED BY IDOCK:  -13.31 KCAL/MOL
REMARK 923 INTER-LIGAND FREE ENERGY PREDICTED BY IDOCK:  -10.99 KCAL/MOL
REMARK 924 INTRA-LIGAND FREE ENERGY PREDICTED BY IDOCK:   -2.32 KCAL/MOL
REMARK 927      BINDING AFFINITY PREDICTED BY RF-SCORE:    0.00 PKD
ROOT
HETATM    1  C   UNL     1     -12.826  14.634  73.195  1.00  0.00    -0.586 C  
HETATM    2  C   UNL     1     -13.861  13.792  72.467  1.00  0.00    -0.626 C  
ENDROOT
BRANCH   2   3
HETATM    3  C   UNL     1     -13.245  12.726  71.589  1.00  0.00    -0.410 A  
HETATM    4  C   UNL     1     -13.534  11.408  71.972  1.00  0.00    -0.289 A  
HETATM    5  C   UNL     1     -12.908  10.311  71.377  1.00  0.00    -0.544 A  
HETATM    6  C   UNL     1     -12.004  10.521  70.344  1.00  0.00    -0.425 A  
HETATM    7  C   UNL     1     -11.756  11.830  69.899  1.00  0.00    -0.399 A  
HETATM    8  C   UNL     1     -12.382  12.951  70.494  1.00  0.00    -0.362 A  
BRANCH   5   9
HETATM    9  C   UNL     1     -13.164   8.984  72.005  1.00  0.00    -0.429 C  
HETATM   10  C   UNL     1     -14.360   8.167  71.598  1.00  0.00    -0.570 C  
BRANCH   9  11
HETATM   11  N   UNL     1     -12.306   8.591  72.905  1.00  0.00    -0.540 NA 
HETATM   12  H   UNL     1     -12.206   9.019  73.825  1.00  0.00     0.000 HD 
BRANCH  11  13
HETATM   13  O   UNL     1     -11.540   7.515  72.458  1.00  0.00    -0.311 OA 
BRANCH  13  14
HETATM   14  C   UNL     1     -10.171   7.895  72.540  1.00  0.00    -0.278 C  
BRANCH  14  15
HETATM   15  C   UNL     1      -9.640   7.977  71.143  1.00  0.00    -0.189 A  
HETATM   16  F   UNL     1      -8.966   5.692  66.882  1.00  0.00    -0.114 F  
HETATM   17  F   UNL     1      -9.093   4.611  68.749  1.00  0.00    -0.112 F  
HETATM   18  C   UNL     1      -8.902   9.078  70.731  1.00  0.00    -0.281 A  
HETATM   19  F   UNL     1     -10.888   5.464  67.878  1.00  0.00    -0.242 F  
HETATM   20  C   UNL     1      -8.454   9.162  69.417  1.00  0.00    -0.130 A  
HETATM   21  C   UNL     1      -9.816   6.917  70.251  1.00  0.00    -0.186 A  
HETATM   22  C   UNL     1      -8.754   8.177  68.453  1.00  0.00    -0.134 A  
HETATM   23  C   UNL     1      -9.567   5.717  68.102  1.00  0.00    -0.116 C  
HETATM   24  C   UNL     1      -9.358   6.981  68.916  1.00  0.00    -0.139 A  
BRANCH  22  25
HETATM   25  C   UNL     1      -8.469   8.441  66.967  1.00  0.00    -0.122 C  
HETATM   26  C   UNL     1      -9.763   8.734  66.170  1.00  0.00    -0.320 C  
HETATM   27  C   UNL     1     -10.385  10.071  66.562  1.00  0.00    -0.268 C  
HETATM   28  C   UNL     1      -9.427  11.216  66.276  1.00  0.00    -0.220 C  
HETATM   29  C   UNL     1      -8.047  11.004  66.888  1.00  0.00    -0.142 C  
HETATM   30  C   UNL     1      -7.481   9.595  66.643  1.00  0.00    -0.094 C  
ENDBRANCH  22  25
ENDBRANCH  14  15
ENDBRANCH  13  14
ENDBRANCH  11  13
ENDBRANCH   9  11
ENDBRANCH   5   9
BRANCH   8  31
HETATM   31  C   UNL     1     -12.009  14.355  70.034  1.00  0.00    -0.334 C  
BRANCH  31  32
HETATM   32  N   UNL     1     -11.096  14.437  68.868  1.00  0.00    -0.248 NA 
HETATM   33  O   UNL     1      -8.922  14.422  66.705  1.00  0.00    -0.252 OA 
HETATM   34  O   UNL     1      -9.564  15.931  65.164  1.00  0.00    -0.284 OA 
HETATM   35  C   UNL     1     -11.818  14.211  67.588  1.00  0.00    -0.392 C  
HETATM   36  C   UNL     1      -9.820  15.311  66.193  1.00  0.00    -0.307 C  
HETATM   37  C   UNL     1     -10.956  15.878  68.493  1.00  0.00    -0.324 C  
HETATM   38  C   UNL     1     -11.116  15.463  67.018  1.00  0.00    -0.273 C  
ENDBRANCH  31  32
ENDBRANCH   8  31
ENDBRANCH   2   3
TORSDOF 9
ENDMDL
MODEL       13
REMARK 921   NORMALIZED FREE ENERGY PREDICTED BY IDOCK:   -7.78 KCAL/MOL
REMARK 922        TOTAL FREE ENERGY PREDICTED BY IDOCK:  -13.31 KCAL/MOL
REMARK 923 INTER-LIGAND FREE ENERGY PREDICTED BY IDOCK:  -10.21 KCAL/MOL
REMARK 924 INTRA-LIGAND FREE ENERGY PREDICTED BY IDOCK:   -3.10 KCAL/MOL
REMARK 927      BINDING AFFINITY PREDICTED BY RF-SCORE:    0.00 PKD
ROOT
HETATM    1  C   UNL     1     -10.639   8.545  67.359  1.00  0.00    -0.304 C  
HETATM    2  C   UNL     1     -10.030   9.735  68.081  1.00  0.00    -0.179 C  
ENDROOT
BRANCH   2   3
HETATM    3  C   UNL     1     -10.886  10.235  69.224  1.00  0.00    -0.275 A  
HETATM    4  C   UNL     1     -11.298   9.244  70.127  1.00  0.00    -0.193 A  
HETATM    5  C   UNL     1     -12.230   9.503  71.135  1.00  0.00    -0.421 A  
HETATM    6  C   UNL     1     -12.733  10.790  71.281  1.00  0.00    -0.546 A  
HETATM    7  C   UNL     1     -12.277  11.810  70.430  1.00  0.00    -0.416 A  
HETATM    8  C   UNL     1     -11.336  11.561  69.404  1.00  0.00    -0.355 A  
BRANCH   5   9
HETATM    9  C   UNL     1     -12.720   8.323  71.901  1.00  0.00    -0.342 C  
HETATM   10  C   UNL     1     -13.800   7.443  71.331  1.00  0.00    -0.436 C  
BRANCH   9  11
HETATM   11  N   UNL     1     -12.167   8.111  73.062  1.00  0.00    -0.625 NA 
HETATM   12  H   UNL     1     -12.683   8.062  73.940  1.00  0.00     0.000 HD 
BRANCH  11  13
HETATM   13  O   UNL     1     -10.784   7.961  72.959  1.00  0.00    -0.365 OA 
BRANCH  13  14
HETATM   14  C   UNL     1     -10.512   6.575  72.790  1.00  0.00    -0.215 C  
BRANCH  14  15
HETATM   15  C   UNL     1      -9.939   6.390  71.419  1.00  0.00    -0.206 A  
HETATM   16  F   UNL     1      -6.563   7.778  68.178  1.00  0.00    -0.051 F  
HETATM   17  F   UNL     1      -7.290   9.116  69.711  1.00  0.00    -0.053 F  
HETATM   18  C   UNL     1     -10.571   5.574  70.493  1.00  0.00    -0.339 A  
HETATM   19  F   UNL     1      -5.947   7.498  70.247  1.00  0.00    -0.024 F  
HETATM   20  C   UNL     1     -10.003   5.376  69.238  1.00  0.00    -0.277 A  
HETATM   21  C   UNL     1      -8.797   7.091  71.026  1.00  0.00    -0.146 A  
HETATM   22  C   UNL     1      -8.767   5.948  68.872  1.00  0.00    -0.116 A  
HETATM   23  C   UNL     1      -7.019   7.801  69.459  1.00  0.00    -0.058 C  
HETATM   24  C   UNL     1      -8.212   6.910  69.752  1.00  0.00    -0.131 A  
BRANCH  22  25
HETATM   25  C   UNL     1      -8.056   5.490  67.589  1.00  0.00    -0.101 C  
HETATM   26  C   UNL     1      -7.024   4.370  67.865  1.00  0.00    -0.056 C  
HETATM   27  C   UNL     1      -7.697   3.063  68.277  1.00  0.00    -0.055 C  
HETATM   28  C   UNL     1      -8.610   2.554  67.172  1.00  0.00    -0.121 C  
HETATM   29  C   UNL     1      -9.604   3.606  66.692  1.00  0.00    -0.168 C  
HETATM   30  C   UNL     1      -8.963   4.980  66.436  1.00  0.00    -0.123 C  
ENDBRANCH  22  25
ENDBRANCH  14  15
ENDBRANCH  13  14
ENDBRANCH  11  13
ENDBRANCH   9  11
ENDBRANCH   5   9
BRANCH   8  31
HETATM   31  C   UNL     1     -10.944  12.684  68.452  1.00  0.00    -0.257 C  
BRANCH  31  32
HETATM   32  N   UNL     1     -11.654  12.712  67.150  1.00  0.00    -0.348 NA 
HETATM   33  O   UNL     1     -13.267  12.389  64.562  1.00  0.00    -0.834 OA 
HETATM   34  O   UNL     1     -12.415  13.876  63.105  1.00  0.00    -0.766 OA 
HETATM   35  C   UNL     1     -12.142  14.077  66.820  1.00  0.00    -0.447 C  
HETATM   36  C   UNL     1     -12.432  13.419  64.245  1.00  0.00    -0.257 C  
HETATM   37  C   UNL     1     -10.629  12.856  66.070  1.00  0.00    -0.270 C  
HETATM   38  C   UNL     1     -11.540  13.906  65.407  1.00  0.00    -0.331 C  
ENDBRANCH  31  32
ENDBRANCH   8  31
ENDBRANCH   2   3
TORSDOF 9
ENDMDL
MODEL       14
REMARK 921   NORMALIZED FREE ENERGY PREDICTED BY IDOCK:   -7.77 KCAL/MOL
REMARK 922        TOTAL FREE ENERGY PREDICTED BY IDOCK:  -13.29 KCAL/MOL
REMARK 923 INTER-LIGAND FREE ENERGY PREDICTED BY IDOCK:  -12.02 KCAL/MOL
REMARK 924 INTRA-LIGAND FREE ENERGY PREDICTED BY IDOCK:   -1.27 KCAL/MOL
REMARK 927      BINDING AFFINITY PREDICTED BY RF-SCORE:    0.00 PKD
ROOT
HETATM    1  C   UNL     1      -6.343  10.387  68.257  1.00  0.00    -0.051 C  
HETATM    2  C   UNL     1      -7.452  10.664  67.255  1.00  0.00    -0.099 C  
ENDROOT
BRANCH   2   3
HETATM    3  C   UNL     1      -8.622   9.716  67.388  1.00  0.00    -0.125 A  
HETATM    4  C   UNL     1      -8.808   9.189  68.675  1.00  0.00    -0.133 A  
HETATM    5  C   UNL     1      -9.730   8.171  68.931  1.00  0.00    -0.156 A  
HETATM    6  C   UNL     1     -10.520   7.693  67.893  1.00  0.00    -0.270 A  
HETATM    7  C   UNL     1     -10.396   8.259  66.613  1.00  0.00    -0.293 A  
HETATM    8  C   UNL     1      -9.466   9.289  66.340  1.00  0.00    -0.277 A  
BRANCH   5   9
HETATM    9  C   UNL     1      -9.693   7.575  70.295  1.00  0.00    -0.179 C  
HETATM   10  C   UNL     1      -8.561   6.670  70.699  1.00  0.00    -0.142 C  
BRANCH   9  11
HETATM   11  N   UNL     1     -10.679   7.881  71.091  1.00  0.00    -0.225 NA 
HETATM   12  H   UNL     1     -10.652   7.768  72.105  1.00  0.00     0.000 HD 
BRANCH  11  13
HETATM   13  O   UNL     1     -11.775   8.383  70.391  1.00  0.00    -0.151 OA 
BRANCH  13  14
HETATM   14  C   UNL     1     -12.670   8.952  71.341  1.00  0.00    -0.301 C  
BRANCH  14  15
HETATM   15  C   UNL     1     -12.595  10.440  71.198  1.00  0.00    -0.512 A  
HETATM   16  F   UNL     1     -10.836  14.222  68.662  1.00  0.00    -0.225 F  
HETATM   17  F   UNL     1      -9.813  12.320  68.730  1.00  0.00    -0.200 F  
HETATM   18  C   UNL     1     -13.121  11.271  72.177  1.00  0.00    -0.272 A  
HETATM   19  F   UNL     1     -11.628  12.522  67.557  1.00  0.00    -0.317 F  
HETATM   20  C   UNL     1     -13.084  12.652  72.010  1.00  0.00    -0.471 A  
HETATM   21  C   UNL     1     -11.933  11.018  70.114  1.00  0.00    -0.443 A  
HETATM   22  C   UNL     1     -12.562  13.257  70.848  1.00  0.00    -0.386 A  
HETATM   23  C   UNL     1     -11.059  12.883  68.743  1.00  0.00    -0.263 C  
HETATM   24  C   UNL     1     -11.877  12.419  69.933  1.00  0.00    -0.376 A  
BRANCH  22  25
HETATM   25  C   UNL     1     -12.786  14.755  70.593  1.00  0.00    -0.415 C  
HETATM   26  C   UNL     1     -14.196  15.216  71.035  1.00  0.00    -0.303 C  
HETATM   27  C   UNL     1     -14.359  15.178  72.552  1.00  0.00    -0.308 C  
HETATM   28  C   UNL     1     -13.363  16.109  73.226  1.00  0.00    -0.527 C  
HETATM   29  C   UNL     1     -11.926  15.866  72.779  1.00  0.00    -0.616 C  
HETATM   30  C   UNL     1     -11.775  15.732  71.255  1.00  0.00    -0.496 C  
ENDBRANCH  22  25
ENDBRANCH  14  15
ENDBRANCH  13  14
ENDBRANCH  11  13
ENDBRANCH   9  11
ENDBRANCH   5   9
BRANCH   8  31
HETATM   31  C   UNL     1      -9.309   9.803  64.915  1.00  0.00    -0.265 C  
BRANCH  31  32
HETATM   32  N   UNL     1     -10.443  10.596  64.380  1.00  0.00    -0.291 NA 
HETATM   33  O   UNL     1     -12.933  11.872  63.125  1.00  0.00    -0.640 OA 
HETATM   34  O   UNL     1     -12.494  14.072  62.965  1.00  0.00    -0.641 OA 
HETATM   35  C   UNL     1     -10.830  11.693  65.307  1.00  0.00    -0.283 C  
HETATM   36  C   UNL     1     -12.147  12.961  63.355  1.00  0.00    -0.530 C  
HETATM   37  C   UNL     1      -9.886  11.628  63.451  1.00  0.00    -0.404 C  
HETATM   38  C   UNL     1     -10.829  12.657  64.100  1.00  0.00    -0.431 C  
ENDBRANCH  31  32
ENDBRANCH   8  31
ENDBRANCH   2   3
TORSDOF 9
ENDMDL
MODEL       15
REMARK 921   NORMALIZED FREE ENERGY PREDICTED BY IDOCK:   -7.75 KCAL/MOL
REMARK 922        TOTAL FREE ENERGY PREDICTED BY IDOCK:  -13.26 KCAL/MOL
REMARK 923 INTER-LIGAND FREE ENERGY PREDICTED BY IDOCK:   -9.61 KCAL/MOL
REMARK 924 INTRA-LIGAND FREE ENERGY PREDICTED BY IDOCK:   -3.65 KCAL/MOL
REMARK 927      BINDING AFFINITY PREDICTED BY RF-SCORE:    0.00 PKD
ROOT
HETATM    1  C   UNL     1     -12.738  12.918  65.315  1.00  0.00    -0.389 C  
HETATM    2  C   UNL     1     -11.455  12.569  66.051  1.00  0.00    -0.423 C  
ENDROOT
BRANCH   2   3
HETATM    3  C   UNL     1     -11.485  12.956  67.512  1.00  0.00    -0.386 A  
HETATM    4  C   UNL     1     -11.770  11.902  68.394  1.00  0.00    -0.387 A  
HETATM    5  C   UNL     1     -12.006  12.119  69.753  1.00  0.00    -0.372 A  
HETATM    6  C   UNL     1     -11.914  13.408  70.262  1.00  0.00    -0.378 A  
HETATM    7  C   UNL     1     -11.561  14.465  69.407  1.00  0.00    -0.349 A  
HETATM    8  C   UNL     1     -11.320  14.260  68.028  1.00  0.00    -0.318 A  
BRANCH   5   9
HETATM    9  C   UNL     1     -12.482  10.944  70.536  1.00  0.00    -0.351 C  
HETATM   10  C   UNL     1     -13.142  11.138  71.874  1.00  0.00    -0.513 C  
BRANCH   9  11
HETATM   11  N   UNL     1     -12.292   9.771  69.998  1.00  0.00    -0.428 NA 
HETATM   12  H   UNL     1     -12.717   9.469  69.121  1.00  0.00     0.000 HD 
BRANCH  11  13
HETATM   13  O   UNL     1     -11.439   8.979  70.766  1.00  0.00    -0.273 OA 
BRANCH  13  14
HETATM   14  C   UNL     1     -10.695   8.157  69.875  1.00  0.00    -0.241 C  
BRANCH  14  15
HETATM   15  C   UNL     1      -9.750   9.043  69.124  1.00  0.00    -0.167 A  
HETATM   16  F   UNL     1      -7.833  10.245  64.799  1.00  0.00    -0.140 F  
HETATM   17  F   UNL     1      -8.567   8.254  65.208  1.00  0.00    -0.156 F  
HETATM   18  C   UNL     1      -8.892   9.896  69.803  1.00  0.00    -0.229 A  
HETATM   19  F   UNL     1      -9.976   9.877  64.907  1.00  0.00    -0.376 F  
HETATM   20  C   UNL     1      -8.051  10.747  69.092  1.00  0.00    -0.133 A  
HETATM   21  C   UNL     1      -9.665   8.975  67.733  1.00  0.00    -0.190 A  
HETATM   22  C   UNL     1      -8.060  10.810  67.683  1.00  0.00    -0.114 A  
HETATM   23  C   UNL     1      -8.785   9.571  65.499  1.00  0.00    -0.154 C  
HETATM   24  C   UNL     1      -8.809   9.824  66.994  1.00  0.00    -0.145 A  
BRANCH  22  25
HETATM   25  C   UNL     1      -7.316  11.943  66.959  1.00  0.00    -0.118 C  
HETATM   26  C   UNL     1      -7.955  13.326  67.232  1.00  0.00    -0.134 C  
HETATM   27  C   UNL     1      -7.764  13.767  68.680  1.00  0.00    -0.120 C  
HETATM   28  C   UNL     1      -6.285  13.894  69.014  1.00  0.00    -0.094 C  
HETATM   29  C   UNL     1      -5.488  12.643  68.667  1.00  0.00    -0.059 C  
HETATM   30  C   UNL     1      -5.801  12.088  67.267  1.00  0.00    -0.142 C  
ENDBRANCH  22  25
ENDBRANCH  14  15
ENDBRANCH  13  14
ENDBRANCH  11  13
ENDBRANCH   9  11
ENDBRANCH   5   9
BRANCH   8  31
HETATM   31  C   UNL     1     -11.029  15.454  67.129  1.00  0.00    -0.317 C  
BRANCH  31  32
HETATM   32  N   UNL     1      -9.899  16.321  67.542  1.00  0.00    -0.236 NA 
HETATM   33  O   UNL     1      -7.465  17.807  68.670  1.00  0.00    -0.258 OA 
HETATM   34  O   UNL     1      -7.727  19.965  68.091  1.00  0.00    -0.301 OA 
HETATM   35  C   UNL     1      -9.315  17.052  66.386  1.00  0.00    -0.270 C  
HETATM   36  C   UNL     1      -8.123  18.805  68.016  1.00  0.00    -0.283 C  
HETATM   37  C   UNL     1     -10.466  17.617  68.029  1.00  0.00    -0.394 C  
HETATM   38  C   UNL     1      -9.370  18.345  67.229  1.00  0.00    -0.271 C  
ENDBRANCH  31  32
ENDBRANCH   8  31
ENDBRANCH   2   3
TORSDOF 9
ENDMDL
MODEL       16
REMARK 921   NORMALIZED FREE ENERGY PREDICTED BY IDOCK:   -7.74 KCAL/MOL
REMARK 922        TOTAL FREE ENERGY PREDICTED BY IDOCK:  -13.24 KCAL/MOL
REMARK 923 INTER-LIGAND FREE ENERGY PREDICTED BY IDOCK:  -10.10 KCAL/MOL
REMARK 924 INTRA-LIGAND FREE ENERGY PREDICTED BY IDOCK:   -3.14 KCAL/MOL
REMARK 927      BINDING AFFINITY PREDICTED BY RF-SCORE:    0.00 PKD
ROOT
HETATM    1  C   UNL     1     -11.239  10.132  67.900  1.00  0.00    -0.234 C  
HETATM    2  C   UNL     1     -10.660  10.594  69.228  1.00  0.00    -0.263 C  
ENDROOT
BRANCH   2   3
HETATM    3  C   UNL     1     -11.698  11.193  70.149  1.00  0.00    -0.439 A  
HETATM    4  C   UNL     1     -11.932  12.564  69.960  1.00  0.00    -0.372 A  
HETATM    5  C   UNL     1     -12.727  13.306  70.836  1.00  0.00    -0.332 A  
HETATM    6  C   UNL     1     -13.344  12.666  71.903  1.00  0.00    -0.485 A  
HETATM    7  C   UNL     1     -13.179  11.280  72.066  1.00  0.00    -0.437 A  
HETATM    8  C   UNL     1     -12.375  10.516  71.187  1.00  0.00    -0.510 A  
BRANCH   5   9
HETATM    9  C   UNL     1     -12.737  14.781  70.629  1.00  0.00    -0.358 C  
HETATM   10  C   UNL     1     -13.026  15.709  71.779  1.00  0.00    -0.541 C  
BRANCH   9  11
HETATM   11  N   UNL     1     -12.486  15.201  69.421  1.00  0.00    -0.591 NA 
HETATM   12  H   UNL     1     -13.048  14.961  68.604  1.00  0.00     0.000 HD 
BRANCH  11  13
HETATM   13  O   UNL     1     -11.357  16.018  69.378  1.00  0.00    -0.326 OA 
BRANCH  13  14
HETATM   14  C   UNL     1     -10.929  16.094  68.024  1.00  0.00    -0.338 C  
BRANCH  14  15
HETATM   15  C   UNL     1     -10.106  14.875  67.741  1.00  0.00    -0.234 A  
HETATM   16  F   UNL     1      -9.440  10.959  64.905  1.00  0.00    -0.211 F  
HETATM   17  F   UNL     1     -11.390  11.846  65.184  1.00  0.00    -0.352 F  
HETATM   18  C   UNL     1      -9.110  14.476  68.620  1.00  0.00    -0.187 A  
HETATM   19  F   UNL     1      -9.920  12.853  63.945  1.00  0.00    -0.392 F  
HETATM   20  C   UNL     1      -8.323  13.367  68.322  1.00  0.00    -0.160 A  
HETATM   21  C   UNL     1     -10.374  14.080  66.625  1.00  0.00    -0.278 A  
HETATM   22  C   UNL     1      -8.469  12.640  67.123  1.00  0.00    -0.186 A  
HETATM   23  C   UNL     1     -10.060  12.152  65.107  1.00  0.00    -0.261 C  
HETATM   24  C   UNL     1      -9.591  12.945  66.312  1.00  0.00    -0.245 A  
BRANCH  22  25
HETATM   25  C   UNL     1      -7.412  11.601  66.719  1.00  0.00    -0.091 C  
HETATM   26  C   UNL     1      -5.972  12.112  66.962  1.00  0.00    -0.095 C  
HETATM   27  C   UNL     1      -5.658  12.245  68.449  1.00  0.00    -0.055 C  
HETATM   28  C   UNL     1      -5.768  10.898  69.147  1.00  0.00    -0.040 C  
HETATM   29  C   UNL     1      -7.096  10.200  68.884  1.00  0.00    -0.069 C  
HETATM   30  C   UNL     1      -7.508  10.209  67.403  1.00  0.00    -0.094 C  
ENDBRANCH  22  25
ENDBRANCH  14  15
ENDBRANCH  13  14
ENDBRANCH  11  13
ENDBRANCH   9  11
ENDBRANCH   5   9
BRANCH   8  31
HETATM   31  C   UNL     1     -12.157   9.034  71.463  1.00  0.00    -0.340 C  
BRANCH  31  32
HETATM   32  N   UNL     1     -10.913   8.682  72.190  1.00  0.00    -0.364 NA 
HETATM   33  O   UNL     1      -8.268   8.369  73.711  1.00  0.00    -0.325 OA 
HETATM   34  O   UNL     1      -7.626   6.234  73.413  1.00  0.00    -0.094 OA 
HETATM   35  C   UNL     1     -11.114   7.515  73.090  1.00  0.00    -0.326 C  
HETATM   36  C   UNL     1      -8.477   7.104  73.249  1.00  0.00    -0.122 C  
HETATM   37  C   UNL     1     -10.090   7.807  71.299  1.00  0.00    -0.179 C  
HETATM   38  C   UNL     1      -9.819   6.901  72.514  1.00  0.00    -0.174 C  
ENDBRANCH  31  32
ENDBRANCH   8  31
ENDBRANCH   2   3
TORSDOF 9
ENDMDL
MODEL       17
REMARK 921   NORMALIZED FREE ENERGY PREDICTED BY IDOCK:   -7.73 KCAL/MOL
REMARK 922        TOTAL FREE ENERGY PREDICTED BY IDOCK:  -13.22 KCAL/MOL
REMARK 923 INTER-LIGAND FREE ENERGY PREDICTED BY IDOCK:  -11.12 KCAL/MOL
REMARK 924 INTRA-LIGAND FREE ENERGY PREDICTED BY IDOCK:   -2.10 KCAL/MOL
REMARK 927      BINDING AFFINITY PREDICTED BY RF-SCORE:    0.00 PKD
ROOT
HETATM    1  C   UNL     1     -11.082  12.872  66.846  1.00  0.00    -0.312 C  
HETATM    2  C   UNL     1     -12.083  13.963  67.187  1.00  0.00    -0.422 C  
ENDROOT
BRANCH   2   3
HETATM    3  C   UNL     1     -11.725  14.724  68.444  1.00  0.00    -0.343 A  
HETATM    4  C   UNL     1     -12.286  14.209  69.623  1.00  0.00    -0.376 A  
HETATM    5  C   UNL     1     -12.198  14.888  70.840  1.00  0.00    -0.389 A  
HETATM    6  C   UNL     1     -11.498  16.086  70.903  1.00  0.00    -0.451 A  
HETATM    7  C   UNL     1     -10.870  16.580  69.747  1.00  0.00    -0.302 A  
HETATM    8  C   UNL     1     -10.952  15.904  68.507  1.00  0.00    -0.324 A  
BRANCH   5   9
HETATM    9  C   UNL     1     -12.996  14.328  71.967  1.00  0.00    -0.355 C  
HETATM   10  C   UNL     1     -13.021  15.024  73.301  1.00  0.00    -0.642 C  
BRANCH   9  11
HETATM   11  N   UNL     1     -13.651  13.227  71.725  1.00  0.00    -0.346 NA 
HETATM   12  H   UNL     1     -14.477  13.173  71.130  1.00  0.00     0.000 HD 
BRANCH  11  13
HETATM   13  O   UNL     1     -13.086  12.132  72.378  1.00  0.00    -0.299 OA 
BRANCH  13  14
HETATM   14  C   UNL     1     -13.491  10.959  71.682  1.00  0.00    -0.111 C  
BRANCH  14  15
HETATM   15  C   UNL     1     -12.263  10.340  71.088  1.00  0.00    -0.500 A  
HETATM   16  F   UNL     1      -8.953   6.762  71.345  1.00  0.00    -0.139 F  
HETATM   17  F   UNL     1      -9.997   7.478  73.097  1.00  0.00    -0.227 F  
HETATM   18  C   UNL     1     -11.575  10.978  70.066  1.00  0.00    -0.427 A  
HETATM   19  F   UNL     1     -11.047   6.249  71.649  1.00  0.00    -0.271 F  
HETATM   20  C   UNL     1     -10.463  10.370  69.493  1.00  0.00    -0.274 A  
HETATM   21  C   UNL     1     -11.750   9.147  71.599  1.00  0.00    -0.448 A  
HETATM   22  C   UNL     1     -10.017   9.090  69.884  1.00  0.00    -0.203 A  
HETATM   23  C   UNL     1     -10.147   7.269  71.755  1.00  0.00    -0.179 C  
HETATM   24  C   UNL     1     -10.616   8.520  71.036  1.00  0.00    -0.267 A  
BRANCH  22  25
HETATM   25  C   UNL     1      -8.961   8.353  69.047  1.00  0.00    -0.147 C  
HETATM   26  C   UNL     1      -9.592   7.282  68.126  1.00  0.00    -0.145 C  
HETATM   27  C   UNL     1     -10.424   7.907  67.011  1.00  0.00    -0.419 C  
HETATM   28  C   UNL     1      -9.561   8.792  66.125  1.00  0.00    -0.323 C  
HETATM   29  C   UNL     1      -8.761   9.821  66.913  1.00  0.00    -0.143 C  
HETATM   30  C   UNL     1      -8.053   9.232  68.144  1.00  0.00    -0.107 C  
ENDBRANCH  22  25
ENDBRANCH  14  15
ENDBRANCH  13  14
ENDBRANCH  11  13
ENDBRANCH   9  11
ENDBRANCH   5   9
BRANCH   8  31
HETATM   31  C   UNL     1     -10.329  16.529  67.265  1.00  0.00    -0.296 C  
BRANCH  31  32
HETATM   32  N   UNL     1      -9.360  17.626  67.505  1.00  0.00    -0.246 NA 
HETATM   33  O   UNL     1      -7.515  19.910  68.390  1.00  0.00    -0.312 OA 
HETATM   34  O   UNL     1      -6.746  20.859  66.501  1.00  0.00    -0.270 OA 
HETATM   35  C   UNL     1      -8.073  17.386  66.800  1.00  0.00    -0.250 C  
HETATM   36  C   UNL     1      -7.392  19.961  67.033  1.00  0.00    -0.241 C  
HETATM   37  C   UNL     1      -9.651  18.719  66.526  1.00  0.00    -0.348 C  
HETATM   38  C   UNL     1      -8.136  18.839  66.278  1.00  0.00    -0.270 C  
ENDBRANCH  31  32
ENDBRANCH   8  31
ENDBRANCH   2   3
TORSDOF 9
ENDMDL
MODEL       18
REMARK 921   NORMALIZED FREE ENERGY PREDICTED BY IDOCK:   -7.73 KCAL/MOL
REMARK 922        TOTAL FREE ENERGY PREDICTED BY IDOCK:  -13.22 KCAL/MOL
REMARK 923 INTER-LIGAND FREE ENERGY PREDICTED BY IDOCK:  -11.24 KCAL/MOL
REMARK 924 INTRA-LIGAND FREE ENERGY PREDICTED BY IDOCK:   -1.98 KCAL/MOL
REMARK 927      BINDING AFFINITY PREDICTED BY RF-SCORE:    0.00 PKD
ROOT
HETATM    1  C   UNL     1     -14.308  14.766  72.353  1.00  0.00    -0.388 C  
HETATM    2  C   UNL     1     -13.730  13.363  72.441  1.00  0.00    -0.698 C  
ENDROOT
BRANCH   2   3
HETATM    3  C   UNL     1     -12.754  13.054  71.329  1.00  0.00    -0.385 A  
HETATM    4  C   UNL     1     -12.089  14.171  70.801  1.00  0.00    -0.419 A  
HETATM    5  C   UNL     1     -11.289  14.085  69.660  1.00  0.00    -0.270 A  
HETATM    6  C   UNL     1     -11.105  12.851  69.050  1.00  0.00    -0.284 A  
HETATM    7  C   UNL     1     -11.705  11.709  69.607  1.00  0.00    -0.418 A  
HETATM    8  C   UNL     1     -12.520  11.782  70.761  1.00  0.00    -0.405 A  
BRANCH   5   9
HETATM    9  C   UNL     1     -10.798  15.375  69.099  1.00  0.00    -0.249 C  
HETATM   10  C   UNL     1     -11.768  16.473  68.756  1.00  0.00     0.089 C  
BRANCH   9  11
HETATM   11  N   UNL     1      -9.510  15.484  68.931  1.00  0.00    -0.208 NA 
HETATM   12  H   UNL     1      -8.818  14.948  69.456  1.00  0.00     0.000 HD 
BRANCH  11  13
HETATM   13  O   UNL     1      -9.191  16.420  67.949  1.00  0.00    -0.200 OA 
BRANCH  13  14
HETATM   14  C   UNL     1      -8.290  15.801  67.038  1.00  0.00    -0.226 C  
BRANCH  14  15
HETATM   15  C   UNL     1      -8.911  14.512  66.594  1.00  0.00    -0.247 A  
HETATM   16  F   UNL     1     -12.827  12.301  64.697  1.00  0.00    -0.537 F  
HETATM   17  F   UNL     1     -12.989  14.136  65.826  1.00  0.00    -0.535 F  
HETATM   18  C   UNL     1      -8.277  13.303  66.835  1.00  0.00     0.031 A  
HETATM   19  F   UNL     1     -12.180  14.182  63.812  1.00  0.00    -0.500 F  
HETATM   20  C   UNL     1      -8.843  12.117  66.377  1.00  0.00    -0.100 A  
HETATM   21  C   UNL     1     -10.172  14.501  65.994  1.00  0.00    -0.329 A  
HETATM   22  C   UNL     1     -10.039  12.093  65.628  1.00  0.00    -0.274 A  
HETATM   23  C   UNL     1     -12.168  13.459  64.969  1.00  0.00    -0.424 C  
HETATM   24  C   UNL     1     -10.767  13.305  65.531  1.00  0.00    -0.299 A  
BRANCH  22  25
HETATM   25  C   UNL     1     -10.479  10.802  64.922  1.00  0.00    -0.324 C  
HETATM   26  C   UNL     1     -10.358  10.912  63.383  1.00  0.00    -0.299 C  
HETATM   27  C   UNL     1      -8.904  10.980  62.928  1.00  0.00    -0.255 C  
HETATM   28  C   UNL     1      -8.150   9.724  63.337  1.00  0.00    -0.151 C  
HETATM   29  C   UNL     1      -8.291   9.404  64.820  1.00  0.00    -0.159 C  
HETATM   30  C   UNL     1      -9.739   9.499  65.330  1.00  0.00    -0.314 C  
ENDBRANCH  22  25
ENDBRANCH  14  15
ENDBRANCH  13  14
ENDBRANCH  11  13
ENDBRANCH   9  11
ENDBRANCH   5   9
BRANCH   8  31
HETATM   31  C   UNL     1     -13.220  10.528  71.269  1.00  0.00    -0.306 C  
BRANCH  31  32
HETATM   32  N   UNL     1     -12.525   9.244  71.011  1.00  0.00    -0.257 NA 
HETATM   33  O   UNL     1     -11.178   6.655  70.071  1.00  0.00    -0.310 OA 
HETATM   34  O   UNL     1     -10.992   5.350  71.894  1.00  0.00    -0.223 OA 
HETATM   35  C   UNL     1     -11.355   9.062  71.911  1.00  0.00    -0.368 C  
HETATM   36  C   UNL     1     -11.299   6.436  71.411  1.00  0.00    -0.301 C  
HETATM   37  C   UNL     1     -13.235   8.174  71.778  1.00  0.00    -0.341 C  
HETATM   38  C   UNL     1     -11.859   7.633  72.209  1.00  0.00    -0.354 C  
ENDBRANCH  31  32
ENDBRANCH   8  31
ENDBRANCH   2   3
TORSDOF 9
ENDMDL
MODEL       19
REMARK 921   NORMALIZED FREE ENERGY PREDICTED BY IDOCK:   -7.67 KCAL/MOL
REMARK 922        TOTAL FREE ENERGY PREDICTED BY IDOCK:  -13.14 KCAL/MOL
REMARK 923 INTER-LIGAND FREE ENERGY PREDICTED BY IDOCK:  -11.19 KCAL/MOL
REMARK 924 INTRA-LIGAND FREE ENERGY PREDICTED BY IDOCK:   -1.95 KCAL/MOL
REMARK 927      BINDING AFFINITY PREDICTED BY RF-SCORE:    0.00 PKD
ROOT
HETATM    1  C   UNL     1     -12.803  10.030  71.134  1.00  0.00    -0.480 C  
HETATM    2  C   UNL     1     -12.743  11.471  70.654  1.00  0.00    -0.259 C  
ENDROOT
BRANCH   2   3
HETATM    3  C   UNL     1     -11.908  11.645  69.405  1.00  0.00    -0.408 A  
HETATM    4  C   UNL     1     -11.338  10.462  68.910  1.00  0.00    -0.278 A  
HETATM    5  C   UNL     1     -10.404  10.471  67.871  1.00  0.00    -0.226 A  
HETATM    6  C   UNL     1     -10.058  11.678  67.277  1.00  0.00    -0.221 A  
HETATM    7  C   UNL     1     -10.673  12.863  67.713  1.00  0.00    -0.238 A  
HETATM    8  C   UNL     1     -11.620  12.870  68.765  1.00  0.00    -0.351 A  
BRANCH   5   9
HETATM    9  C   UNL     1      -9.738   9.172  67.572  1.00  0.00    -0.160 C  
HETATM   10  C   UNL     1      -8.342   8.902  68.063  1.00  0.00    -0.121 C  
BRANCH   9  11
HETATM   11  N   UNL     1     -10.427   8.312  66.875  1.00  0.00    -0.320 NA 
HETATM   12  H   UNL     1     -11.127   8.570  66.179  1.00  0.00     0.000 HD 
BRANCH  11  13
HETATM   13  O   UNL     1     -10.093   6.997  67.196  1.00  0.00    -0.177 OA 
BRANCH  13  14
HETATM   14  C   UNL     1     -11.152   6.462  67.982  1.00  0.00    -0.267 C  
BRANCH  14  15
HETATM   15  C   UNL     1     -10.583   6.096  69.318  1.00  0.00    -0.348 A  
HETATM   16  F   UNL     1      -9.689   7.499  73.907  1.00  0.00    -0.297 F  
HETATM   17  F   UNL     1      -9.827   8.921  72.286  1.00  0.00    -0.366 F  
HETATM   18  C   UNL     1      -9.879   4.912  69.485  1.00  0.00    -0.287 A  
HETATM   19  F   UNL     1     -11.629   7.979  73.045  1.00  0.00    -0.451 F  
HETATM   20  C   UNL     1      -9.394   4.562  70.742  1.00  0.00    -0.218 A  
HETATM   21  C   UNL     1     -10.688   6.971  70.400  1.00  0.00    -0.259 A  
HETATM   22  C   UNL     1      -9.626   5.355  71.885  1.00  0.00    -0.188 A  
HETATM   23  C   UNL     1     -10.326   7.728  72.727  1.00  0.00    -0.313 C  
HETATM   24  C   UNL     1     -10.194   6.637  71.682  1.00  0.00    -0.212 A  
BRANCH  22  25
HETATM   25  C   UNL     1      -9.307   4.801  73.282  1.00  0.00    -0.129 C  
HETATM   26  C   UNL     1     -10.590   4.512  74.099  1.00  0.00    -0.335 C  
HETATM   27  C   UNL     1     -11.380   3.340  73.524  1.00  0.00    -0.227 C  
HETATM   28  C   UNL     1     -10.550   2.066  73.547  1.00  0.00    -0.226 C  
HETATM   29  C   UNL     1      -9.184   2.235  72.893  1.00  0.00    -0.105 C  
HETATM   30  C   UNL     1      -8.447   3.509  73.339  1.00  0.00    -0.082 C  
ENDBRANCH  22  25
ENDBRANCH  14  15
ENDBRANCH  13  14
ENDBRANCH  11  13
ENDBRANCH   9  11
ENDBRANCH   5   9
BRANCH   8  31
HETATM   31  C   UNL     1     -12.188  14.194  69.259  1.00  0.00    -0.269 C  
BRANCH  31  32
HETATM   32  N   UNL     1     -12.200  14.390  70.729  1.00  0.00    -0.320 NA 
HETATM   33  O   UNL     1     -12.305  14.384  73.793  1.00  0.00    -0.331 OA 
HETATM   34  O   UNL     1     -12.606  16.526  74.412  1.00  0.00    -0.733 OA 
HETATM   35  C   UNL     1     -11.183  15.387  71.158  1.00  0.00    -0.361 C  
HETATM   36  C   UNL     1     -12.406  15.714  73.513  1.00  0.00    -0.548 C  
HETATM   37  C   UNL     1     -13.264  15.391  71.051  1.00  0.00    -0.496 C  
HETATM   38  C   UNL     1     -12.272  16.068  72.016  1.00  0.00    -0.582 C  
ENDBRANCH  31  32
ENDBRANCH   8  31
ENDBRANCH   2   3
TORSDOF 9
ENDMDL
MODEL       20
REMARK 921   NORMALIZED FREE ENERGY PREDICTED BY IDOCK:   -7.67 KCAL/MOL
REMARK 922        TOTAL FREE ENERGY PREDICTED BY IDOCK:  -13.13 KCAL/MOL
REMARK 923 INTER-LIGAND FREE ENERGY PREDICTED BY IDOCK:  -11.82 KCAL/MOL
REMARK 924 INTRA-LIGAND FREE ENERGY PREDICTED BY IDOCK:   -1.31 KCAL/MOL
REMARK 927      BINDING AFFINITY PREDICTED BY RF-SCORE:    0.00 PKD
ROOT
HETATM    1  C   UNL     1     -12.841  12.435  71.399  1.00  0.00    -0.360 C  
HETATM    2  C   UNL     1     -12.710  10.929  71.558  1.00  0.00    -0.533 C  
ENDROOT
BRANCH   2   3
HETATM    3  C   UNL     1     -11.583  10.342  70.737  1.00  0.00    -0.450 A  
HETATM    4  C   UNL     1     -11.262  11.065  69.578  1.00  0.00    -0.343 A  
HETATM    5  C   UNL     1     -10.369  10.572  68.624  1.00  0.00    -0.201 A  
HETATM    6  C   UNL     1      -9.744   9.351  68.844  1.00  0.00    -0.166 A  
HETATM    7  C   UNL     1     -10.000   8.648  70.033  1.00  0.00    -0.191 A  
HETATM    8  C   UNL     1     -10.903   9.135  71.007  1.00  0.00    -0.362 A  
BRANCH   5   9
HETATM    9  C   UNL     1     -10.263  11.347  67.356  1.00  0.00    -0.193 C  
HETATM   10  C   UNL     1      -9.064  12.219  67.096  1.00  0.00    -0.193 C  
BRANCH   9  11
HETATM   11  N   UNL     1     -11.250  11.223  66.514  1.00  0.00    -0.289 NA 
HETATM   12  H   UNL     1     -11.267  10.548  65.748  1.00  0.00     0.000 HD 
BRANCH  11  13
HETATM   13  O   UNL     1     -12.281  12.122  66.783  1.00  0.00    -0.553 OA 
BRANCH  13  14
HETATM   14  C   UNL     1     -12.209  13.164  65.817  1.00  0.00    -0.456 C  
BRANCH  14  15
HETATM   15  C   UNL     1     -11.649  14.374  66.498  1.00  0.00    -0.388 A  
HETATM   16  F   UNL     1     -11.283  16.936  70.637  1.00  0.00    -0.301 F  
HETATM   17  F   UNL     1     -12.987  15.672  70.225  1.00  0.00    -0.425 F  
HETATM   18  C   UNL     1     -10.998  15.358  65.768  1.00  0.00    -0.311 A  
HETATM   19  F   UNL     1     -11.082  14.772  70.747  1.00  0.00    -0.274 F  
HETATM   20  C   UNL     1     -10.442  16.455  66.419  1.00  0.00    -0.288 A  
HETATM   21  C   UNL     1     -11.834  14.569  67.868  1.00  0.00    -0.370 A  
HETATM   22  C   UNL     1     -10.478  16.595  67.822  1.00  0.00    -0.316 A  
HETATM   23  C   UNL     1     -11.640  15.779  70.017  1.00  0.00    -0.357 C  
HETATM   24  C   UNL     1     -11.285  15.682  68.545  1.00  0.00    -0.342 A  
BRANCH  22  25
HETATM   25  C   UNL     1      -9.627  17.674  68.509  1.00  0.00    -0.315 C  
HETATM   26  C   UNL     1      -8.176  17.701  67.970  1.00  0.00    -0.242 C  
HETATM   27  C   UNL     1      -8.113  18.193  66.527  1.00  0.00    -0.295 C  
HETATM   28  C   UNL     1      -8.648  19.613  66.418  1.00  0.00    -0.390 C  
HETATM   29  C   UNL     1     -10.030  19.777  67.039  1.00  0.00    -0.532 C  
HETATM   30  C   UNL     1     -10.155  19.132  68.429  1.00  0.00    -0.498 C  
ENDBRANCH  22  25
ENDBRANCH  14  15
ENDBRANCH  13  14
ENDBRANCH  11  13
ENDBRANCH   9  11
ENDBRANCH   5   9
BRANCH   8  31
HETATM   31  C   UNL     1     -11.213   8.289  72.236  1.00  0.00    -0.374 C  
BRANCH  31  32
HETATM   32  N   UNL     1     -10.513   6.985  72.322  1.00  0.00    -0.204 NA 
HETATM   33  O   UNL     1      -8.824   4.429  72.188  1.00  0.00    -0.114 OA 
HETATM   34  O   UNL     1     -10.023   2.833  73.226  1.00  0.00    -0.098 OA 
HETATM   35  C   UNL     1     -10.410   6.509  73.727  1.00  0.00    -0.326 C  
HETATM   36  C   UNL     1      -9.903   4.014  72.911  1.00  0.00    -0.138 C  
HETATM   37  C   UNL     1     -11.518   5.906  72.069  1.00  0.00    -0.252 C  
HETATM   38  C   UNL     1     -10.915   5.128  73.253  1.00  0.00    -0.375 C  
ENDBRANCH  31  32
ENDBRANCH   8  31
ENDBRANCH   2   3
TORSDOF 9
ENDMDL
MODEL       21
REMARK 921   NORMALIZED FREE ENERGY PREDICTED BY IDOCK:   -7.65 KCAL/MOL
REMARK 922        TOTAL FREE ENERGY PREDICTED BY IDOCK:  -13.11 KCAL/MOL
REMARK 923 INTER-LIGAND FREE ENERGY PREDICTED BY IDOCK:  -10.95 KCAL/MOL
REMARK 924 INTRA-LIGAND FREE ENERGY PREDICTED BY IDOCK:   -2.16 KCAL/MOL
REMARK 927      BINDING AFFINITY PREDICTED BY RF-SCORE:    0.00 PKD
ROOT
HETATM    1  C   UNL     1      -7.802  12.814  68.530  1.00  0.00    -0.099 C  
HETATM    2  C   UNL     1      -8.700  14.024  68.333  1.00  0.00    -0.179 C  
ENDROOT
BRANCH   2   3
HETATM    3  C   UNL     1      -9.937  13.717  67.520  1.00  0.00    -0.233 A  
HETATM    4  C   UNL     1      -9.790  12.671  66.596  1.00  0.00    -0.245 A  
HETATM    5  C   UNL     1     -10.775  12.376  65.651  1.00  0.00    -0.299 A  
HETATM    6  C   UNL     1     -11.956  13.107  65.648  1.00  0.00    -0.462 A  
HETATM    7  C   UNL     1     -12.149  14.111  66.611  1.00  0.00    -0.480 A  
HETATM    8  C   UNL     1     -11.160  14.422  67.574  1.00  0.00    -0.312 A  
BRANCH   5   9
HETATM    9  C   UNL     1     -10.413  11.371  64.613  1.00  0.00    -0.315 C  
HETATM   10  C   UNL     1     -10.984  11.471  63.224  1.00  0.00    -0.308 C  
BRANCH   9  11
HETATM   11  N   UNL     1      -9.592  10.426  64.979  1.00  0.00    -0.254 NA 
HETATM   12  H   UNL     1      -8.624  10.357  64.664  1.00  0.00     0.000 HD 
BRANCH  11  13
HETATM   13  O   UNL     1     -10.195   9.522  65.852  1.00  0.00    -0.266 OA 
BRANCH  13  14
HETATM   14  C   UNL     1      -9.162   8.878  66.588  1.00  0.00    -0.170 C  
BRANCH  14  15
HETATM   15  C   UNL     1      -9.549   8.911  68.034  1.00  0.00    -0.167 A  
HETATM   16  F   UNL     1     -12.135  11.136  71.525  1.00  0.00    -0.344 F  
HETATM   17  F   UNL     1     -11.434  12.194  69.776  1.00  0.00    -0.322 F  
HETATM   18  C   UNL     1      -8.928   8.076  68.951  1.00  0.00    -0.141 A  
HETATM   19  F   UNL     1     -13.088  10.800  69.597  1.00  0.00    -0.197 F  
HETATM   20  C   UNL     1      -9.329   8.085  70.283  1.00  0.00    -0.159 A  
HETATM   21  C   UNL     1     -10.489   9.833  68.497  1.00  0.00    -0.239 A  
HETATM   22  C   UNL     1     -10.387   8.895  70.746  1.00  0.00    -0.283 A  
HETATM   23  C   UNL     1     -11.877  10.972  70.200  1.00  0.00    -0.357 C  
HETATM   24  C   UNL     1     -10.902   9.864  69.849  1.00  0.00    -0.316 A  
BRANCH  22  25
HETATM   25  C   UNL     1     -10.965   8.676  72.152  1.00  0.00    -0.434 C  
HETATM   26  C   UNL     1     -12.396   8.089  72.108  1.00  0.00    -0.358 C  
HETATM   27  C   UNL     1     -12.408   6.654  71.591  1.00  0.00    -0.382 C  
HETATM   28  C   UNL     1     -11.591   5.746  72.498  1.00  0.00    -0.321 C  
HETATM   29  C   UNL     1     -10.183   6.272  72.751  1.00  0.00    -0.202 C  
HETATM   30  C   UNL     1     -10.145   7.767  73.108  1.00  0.00    -0.390 C  
ENDBRANCH  22  25
ENDBRANCH  14  15
ENDBRANCH  13  14
ENDBRANCH  11  13
ENDBRANCH   9  11
ENDBRANCH   5   9
BRANCH   8  31
HETATM   31  C   UNL     1     -11.384  15.580  68.537  1.00  0.00    -0.351 C  
BRANCH  31  32
HETATM   32  N   UNL     1     -11.020  16.926  68.034  1.00  0.00    -0.329 NA 
HETATM   33  O   UNL     1     -10.680  19.793  67.000  1.00  0.00    -0.467 OA 
HETATM   34  O   UNL     1      -8.638  19.880  66.059  1.00  0.00    -0.364 OA 
HETATM   35  C   UNL     1      -9.743  17.406  68.624  1.00  0.00    -0.308 C  
HETATM   36  C   UNL     1      -9.470  19.242  66.699  1.00  0.00    -0.344 C  
HETATM   37  C   UNL     1     -10.310  16.753  66.729  1.00  0.00    -0.293 C  
HETATM   38  C   UNL     1      -9.280  17.795  67.202  1.00  0.00    -0.253 C  
ENDBRANCH  31  32
ENDBRANCH   8  31
ENDBRANCH   2   3
TORSDOF 9
ENDMDL
MODEL       22
REMARK 921   NORMALIZED FREE ENERGY PREDICTED BY IDOCK:   -7.64 KCAL/MOL
REMARK 922        TOTAL FREE ENERGY PREDICTED BY IDOCK:  -13.09 KCAL/MOL
REMARK 923 INTER-LIGAND FREE ENERGY PREDICTED BY IDOCK:  -10.23 KCAL/MOL
REMARK 924 INTRA-LIGAND FREE ENERGY PREDICTED BY IDOCK:   -2.86 KCAL/MOL
REMARK 927      BINDING AFFINITY PREDICTED BY RF-SCORE:    0.00 PKD
ROOT
HETATM    1  C   UNL     1     -10.695  10.407  69.980  1.00  0.00    -0.321 C  
HETATM    2  C   UNL     1     -11.529  11.052  68.886  1.00  0.00    -0.364 C  
ENDROOT
BRANCH   2   3
HETATM    3  C   UNL     1     -11.044  10.715  67.494  1.00  0.00    -0.367 A  
HETATM    4  C   UNL     1     -10.477   9.438  67.362  1.00  0.00    -0.343 A  
HETATM    5  C   UNL     1      -9.826   9.035  66.194  1.00  0.00    -0.349 A  
HETATM    6  C   UNL     1      -9.774   9.903  65.111  1.00  0.00    -0.376 A  
HETATM    7  C   UNL     1     -10.398  11.159  65.201  1.00  0.00    -0.354 A  
HETATM    8  C   UNL     1     -11.059  11.580  66.379  1.00  0.00    -0.328 A  
BRANCH   5   9
HETATM    9  C   UNL     1      -9.108   7.732  66.255  1.00  0.00    -0.178 C  
HETATM   10  C   UNL     1      -7.621   7.693  66.487  1.00  0.00    -0.096 C  
BRANCH   9  11
HETATM   11  N   UNL     1      -9.833   6.660  66.098  1.00  0.00    -0.405 NA 
HETATM   12  H   UNL     1     -10.513   6.534  65.348  1.00  0.00     0.000 HD 
BRANCH  11  13
HETATM   13  O   UNL     1      -9.566   5.704  67.077  1.00  0.00    -0.124 OA 
BRANCH  13  14
HETATM   14  C   UNL     1     -10.759   5.511  67.828  1.00  0.00    -0.102 C  
BRANCH  14  15
HETATM   15  C   UNL     1     -10.560   6.149  69.167  1.00  0.00    -0.345 A  
HETATM   16  F   UNL     1     -12.594   8.557  72.894  1.00  0.00    -0.418 F  
HETATM   17  F   UNL     1     -13.383   8.685  70.887  1.00  0.00    -0.160 F  
HETATM   18  C   UNL     1      -9.286   6.294  69.697  1.00  0.00    -0.144 A  
HETATM   19  F   UNL     1     -13.680   6.873  72.043  1.00  0.00    -0.366 F  
HETATM   20  C   UNL     1      -9.119   6.848  70.963  1.00  0.00    -0.155 A  
HETATM   21  C   UNL     1     -11.643   6.674  69.874  1.00  0.00    -0.393 A  
HETATM   22  C   UNL     1     -10.211   7.240  71.764  1.00  0.00    -0.211 A  
HETATM   23  C   UNL     1     -12.757   7.834  71.754  1.00  0.00    -0.329 C  
HETATM   24  C   UNL     1     -11.491   7.248  71.156  1.00  0.00    -0.312 A  
BRANCH  22  25
HETATM   25  C   UNL     1      -9.993   7.592  73.244  1.00  0.00    -0.379 C  
HETATM   26  C   UNL     1     -10.358   6.416  74.181  1.00  0.00    -0.335 C  
HETATM   27  C   UNL     1      -9.383   5.251  74.040  1.00  0.00    -0.129 C  
HETATM   28  C   UNL     1      -7.971   5.682  74.407  1.00  0.00    -0.104 C  
HETATM   29  C   UNL     1      -7.516   6.927  73.656  1.00  0.00    -0.085 C  
HETATM   30  C   UNL     1      -8.565   8.051  73.646  1.00  0.00    -0.322 C  
ENDBRANCH  22  25
ENDBRANCH  14  15
ENDBRANCH  13  14
ENDBRANCH  11  13
ENDBRANCH   9  11
ENDBRANCH   5   9
BRANCH   8  31
HETATM   31  C   UNL     1     -11.641  12.986  66.454  1.00  0.00    -0.363 C  
BRANCH  31  32
HETATM   32  N   UNL     1     -10.660  14.099  66.432  1.00  0.00    -0.277 NA 
HETATM   33  O   UNL     1      -8.339  16.102  66.438  1.00  0.00    -0.286 OA 
HETATM   34  O   UNL     1      -9.251  18.113  66.869  1.00  0.00    -0.263 OA 
HETATM   35  C   UNL     1     -11.060  15.164  65.474  1.00  0.00    -0.345 C  
HETATM   36  C   UNL     1      -9.413  16.918  66.641  1.00  0.00    -0.265 C  
HETATM   37  C   UNL     1     -10.996  15.030  67.553  1.00  0.00    -0.307 C  
HETATM   38  C   UNL     1     -10.781  16.205  66.581  1.00  0.00    -0.226 C  
ENDBRANCH  31  32
ENDBRANCH   8  31
ENDBRANCH   2   3
TORSDOF 9
ENDMDL
MODEL       23
REMARK 921   NORMALIZED FREE ENERGY PREDICTED BY IDOCK:   -7.62 KCAL/MOL
REMARK 922        TOTAL FREE ENERGY PREDICTED BY IDOCK:  -13.06 KCAL/MOL
REMARK 923 INTER-LIGAND FREE ENERGY PREDICTED BY IDOCK:  -11.45 KCAL/MOL
REMARK 924 INTRA-LIGAND FREE ENERGY PREDICTED BY IDOCK:   -1.60 KCAL/MOL
REMARK 927      BINDING AFFINITY PREDICTED BY RF-SCORE:    0.00 PKD
ROOT
HETATM    1  C   UNL     1      -9.575   7.943  66.477  1.00  0.00    -0.281 C  
HETATM    2  C   UNL     1      -9.047   9.368  66.512  1.00  0.00    -0.188 C  
ENDROOT
BRANCH   2   3
HETATM    3  C   UNL     1     -10.088  10.375  66.946  1.00  0.00    -0.269 A  
HETATM    4  C   UNL     1     -10.880  10.887  65.907  1.00  0.00    -0.132 A  
HETATM    5  C   UNL     1     -11.766  11.948  66.108  1.00  0.00    -0.217 A  
HETATM    6  C   UNL     1     -11.905  12.487  67.380  1.00  0.00    -0.381 A  
HETATM    7  C   UNL     1     -11.172  11.939  68.446  1.00  0.00    -0.312 A  
HETATM    8  C   UNL     1     -10.270  10.866  68.257  1.00  0.00    -0.191 A  
BRANCH   5   9
HETATM    9  C   UNL     1     -12.401  12.517  64.886  1.00  0.00    -0.470 C  
HETATM   10  C   UNL     1     -12.383  11.749  63.591  1.00  0.00    -0.488 C  
BRANCH   9  11
HETATM   11  N   UNL     1     -12.958  13.689  65.012  1.00  0.00    -0.744 NA 
HETATM   12  H   UNL     1     -13.738  13.887  65.639  1.00  0.00     0.000 HD 
BRANCH  11  13
HETATM   13  O   UNL     1     -12.360  14.640  64.186  1.00  0.00    -0.654 OA 
BRANCH  13  14
HETATM   14  C   UNL     1     -10.978  14.694  64.520  1.00  0.00    -0.231 C  
BRANCH  14  15
HETATM   15  C   UNL     1     -10.807  15.755  65.563  1.00  0.00    -0.343 A  
HETATM   16  F   UNL     1     -11.009  16.900  70.303  1.00  0.00    -0.328 F  
HETATM   17  F   UNL     1     -12.215  15.318  69.460  1.00  0.00    -0.325 F  
HETATM   18  C   UNL     1     -10.581  17.074  65.198  1.00  0.00    -0.032 A  
HETATM   19  F   UNL     1     -10.085  15.011  69.741  1.00  0.00    -0.222 F  
HETATM   20  C   UNL     1     -10.377  18.041  66.177  1.00  0.00    -0.368 A  
HETATM   21  C   UNL     1     -10.942  15.448  66.918  1.00  0.00    -0.294 A  
HETATM   22  C   UNL     1     -10.351  17.728  67.552  1.00  0.00    -0.371 A  
HETATM   23  C   UNL     1     -11.003  15.938  69.342  1.00  0.00    -0.309 C  
HETATM   24  C   UNL     1     -10.749  16.420  67.926  1.00  0.00    -0.332 A  
BRANCH  22  25
HETATM   25  C   UNL     1      -9.862  18.769  68.570  1.00  0.00    -0.444 C  
HETATM   26  C   UNL     1      -8.336  18.673  68.812  1.00  0.00    -0.295 C  
HETATM   27  C   UNL     1      -7.536  19.104  67.586  1.00  0.00    -0.266 C  
HETATM   28  C   UNL     1      -7.832  20.553  67.230  1.00  0.00    -0.367 C  
HETATM   29  C   UNL     1      -9.323  20.838  67.093  1.00  0.00    -0.402 C  
HETATM   30  C   UNL     1     -10.164  20.257  68.242  1.00  0.00    -0.373 C  
ENDBRANCH  22  25
ENDBRANCH  14  15
ENDBRANCH  13  14
ENDBRANCH  11  13
ENDBRANCH   9  11
ENDBRANCH   5   9
BRANCH   8  31
HETATM   31  C   UNL     1      -9.433  10.370  69.430  1.00  0.00    -0.183 C  
BRANCH  31  32
HETATM   32  N   UNL     1     -10.153   9.570  70.451  1.00  0.00    -0.254 NA 
HETATM   33  O   UNL     1     -11.603   8.253  72.810  1.00  0.00    -0.395 OA 
HETATM   34  O   UNL     1     -11.550   6.038  72.418  1.00  0.00    -0.301 OA 
HETATM   35  C   UNL     1     -11.197   8.708  69.836  1.00  0.00    -0.041 C  
HETATM   36  C   UNL     1     -11.310   7.177  72.026  1.00  0.00    -0.258 C  
HETATM   37  C   UNL     1      -9.348   8.339  70.722  1.00  0.00    -0.161 C  
HETATM   38  C   UNL     1     -10.655   7.527  70.672  1.00  0.00    -0.231 C  
ENDBRANCH  31  32
ENDBRANCH   8  31
ENDBRANCH   2   3
TORSDOF 9
ENDMDL
MODEL       24
REMARK 921   NORMALIZED FREE ENERGY PREDICTED BY IDOCK:   -7.60 KCAL/MOL
REMARK 922        TOTAL FREE ENERGY PREDICTED BY IDOCK:  -13.03 KCAL/MOL
REMARK 923 INTER-LIGAND FREE ENERGY PREDICTED BY IDOCK:  -11.60 KCAL/MOL
REMARK 924 INTRA-LIGAND FREE ENERGY PREDICTED BY IDOCK:   -1.44 KCAL/MOL
REMARK 927      BINDING AFFINITY PREDICTED BY RF-SCORE:    0.00 PKD
ROOT
HETATM    1  C   UNL     1      -6.818  14.719  69.776  1.00  0.00    -0.173 C  
HETATM    2  C   UNL     1      -6.912  14.382  68.297  1.00  0.00    -0.113 C  
ENDROOT
BRANCH   2   3
HETATM    3  C   UNL     1      -8.049  15.092  67.598  1.00  0.00    -0.184 A  
HETATM    4  C   UNL     1      -9.293  14.450  67.699  1.00  0.00    -0.200 A  
HETATM    5  C   UNL     1     -10.406  14.878  66.971  1.00  0.00    -0.264 A  
HETATM    6  C   UNL     1     -10.296  15.997  66.155  1.00  0.00    -0.340 A  
HETATM    7  C   UNL     1      -9.077  16.693  66.098  1.00  0.00    -0.318 A  
HETATM    8  C   UNL     1      -7.942  16.270  66.829  1.00  0.00    -0.306 A  
BRANCH   5   9
HETATM    9  C   UNL     1     -11.607  13.998  67.024  1.00  0.00    -0.371 C  
HETATM   10  C   UNL     1     -12.516  13.879  65.830  1.00  0.00    -0.519 C  
BRANCH   9  11
HETATM   11  N   UNL     1     -11.810  13.357  68.141  1.00  0.00    -0.358 NA 
HETATM   12  H   UNL     1     -11.746  13.785  69.065  1.00  0.00     0.000 HD 
BRANCH  11  13
HETATM   13  O   UNL     1     -12.125  12.017  67.921  1.00  0.00    -0.531 OA 
BRANCH  13  14
HETATM   14  C   UNL     1     -10.911  11.275  67.963  1.00  0.00    -0.247 C  
BRANCH  14  15
HETATM   15  C   UNL     1     -10.890  10.517  69.255  1.00  0.00    -0.284 A  
HETATM   16  F   UNL     1     -13.382   9.089  73.201  1.00  0.00    -0.404 F  
HETATM   17  F   UNL     1     -13.880  10.900  72.131  1.00  0.00    -0.306 F  
HETATM   18  C   UNL     1      -9.701  10.005  69.753  1.00  0.00    -0.259 A  
HETATM   19  F   UNL     1     -14.369   8.971  71.264  1.00  0.00    -0.412 F  
HETATM   20  C   UNL     1      -9.703   9.263  70.931  1.00  0.00    -0.346 A  
HETATM   21  C   UNL     1     -12.052  10.372  70.014  1.00  0.00    -0.297 A  
HETATM   22  C   UNL     1     -10.889   8.969  71.634  1.00  0.00    -0.437 A  
HETATM   23  C   UNL     1     -13.397   9.633  71.954  1.00  0.00    -0.438 C  
HETATM   24  C   UNL     1     -12.071   9.631  71.217  1.00  0.00    -0.457 A  
BRANCH  22  25
HETATM   25  C   UNL     1     -10.875   7.933  72.768  1.00  0.00    -0.451 C  
HETATM   26  C   UNL     1     -11.533   6.598  72.344  1.00  0.00    -0.300 C  
HETATM   27  C   UNL     1     -10.702   5.858  71.299  1.00  0.00    -0.325 C  
HETATM   28  C   UNL     1      -9.327   5.513  71.849  1.00  0.00    -0.163 C  
HETATM   29  C   UNL     1      -8.602   6.718  72.436  1.00  0.00    -0.126 C  
HETATM   30  C   UNL     1      -9.486   7.571  73.362  1.00  0.00    -0.306 C  
ENDBRANCH  22  25
ENDBRANCH  14  15
ENDBRANCH  13  14
ENDBRANCH  11  13
ENDBRANCH   9  11
ENDBRANCH   5   9
BRANCH   8  31
HETATM   31  C   UNL     1      -6.620  17.009  66.660  1.00  0.00    -0.237 C  
BRANCH  31  32
HETATM   32  N   UNL     1      -6.452  18.237  67.474  1.00  0.00    -0.188 NA 
HETATM   33  O   UNL     1      -5.919  20.942  68.818  1.00  0.00    -0.351 OA 
HETATM   34  O   UNL     1      -6.083  20.582  71.033  1.00  0.00    -0.586 OA 
HETATM   35  C   UNL     1      -7.616  18.465  68.371  1.00  0.00    -0.291 C  
HETATM   36  C   UNL     1      -6.197  20.146  69.890  1.00  0.00    -0.345 C  
HETATM   37  C   UNL     1      -5.639  17.883  68.679  1.00  0.00    -0.166 C  
HETATM   38  C   UNL     1      -6.624  18.707  69.530  1.00  0.00    -0.201 C  
ENDBRANCH  31  32
ENDBRANCH   8  31
ENDBRANCH   2   3
TORSDOF 9
ENDMDL
MODEL       25
REMARK 921   NORMALIZED FREE ENERGY PREDICTED BY IDOCK:   -7.58 KCAL/MOL
REMARK 922        TOTAL FREE ENERGY PREDICTED BY IDOCK:  -13.00 KCAL/MOL
REMARK 923 INTER-LIGAND FREE ENERGY PREDICTED BY IDOCK:  -11.38 KCAL/MOL
REMARK 924 INTRA-LIGAND FREE ENERGY PREDICTED BY IDOCK:   -1.62 KCAL/MOL
REMARK 927      BINDING AFFINITY PREDICTED BY RF-SCORE:    0.00 PKD
ROOT
HETATM    1  C   UNL     1     -12.161  13.118  64.684  1.00  0.00    -0.462 C  
HETATM    2  C   UNL     1     -11.993  13.806  66.029  1.00  0.00    -0.443 C  
ENDROOT
BRANCH   2   3
HETATM    3  C   UNL     1     -11.440  12.890  67.098  1.00  0.00    -0.388 A  
HETATM    4  C   UNL     1     -10.901  11.687  66.620  1.00  0.00    -0.327 A  
HETATM    5  C   UNL     1     -10.508  10.659  67.480  1.00  0.00    -0.272 A  
HETATM    6  C   UNL     1     -10.611  10.845  68.853  1.00  0.00    -0.241 A  
HETATM    7  C   UNL     1     -11.083  12.072  69.350  1.00  0.00    -0.198 A  
HETATM    8  C   UNL     1     -11.485  13.120  68.490  1.00  0.00    -0.338 A  
BRANCH   5   9
HETATM    9  C   UNL     1     -10.132   9.368  66.839  1.00  0.00    -0.248 C  
HETATM   10  C   UNL     1      -8.932   9.290  65.934  1.00  0.00    -0.225 C  
BRANCH   9  11
HETATM   11  N   UNL     1     -10.891   8.342  67.107  1.00  0.00    -0.422 NA 
HETATM   12  H   UNL     1     -11.910   8.373  67.119  1.00  0.00     0.000 HD 
BRANCH  11  13
HETATM   13  O   UNL     1     -10.141   7.198  67.375  1.00  0.00    -0.167 OA 
BRANCH  13  14
HETATM   14  C   UNL     1     -11.022   6.223  67.922  1.00  0.00    -0.327 C  
BRANCH  14  15
HETATM   15  C   UNL     1     -10.582   5.954  69.327  1.00  0.00    -0.379 A  
HETATM   16  F   UNL     1     -10.216   7.642  73.893  1.00  0.00    -0.356 F  
HETATM   17  F   UNL     1     -10.234   8.966  72.185  1.00  0.00    -0.365 F  
HETATM   18  C   UNL     1      -9.859   4.810  69.634  1.00  0.00    -0.292 A  
HETATM   19  F   UNL     1     -12.072   7.996  72.811  1.00  0.00    -0.379 F  
HETATM   20  C   UNL     1      -9.496   4.550  70.952  1.00  0.00    -0.236 A  
HETATM   21  C   UNL     1     -10.829   6.882  70.340  1.00  0.00    -0.297 A  
HETATM   22  C   UNL     1      -9.871   5.394  72.018  1.00  0.00    -0.212 A  
HETATM   23  C   UNL     1     -10.736   7.780  72.643  1.00  0.00    -0.343 C  
HETATM   24  C   UNL     1     -10.459   6.639  71.682  1.00  0.00    -0.232 A  
BRANCH  22  25
HETATM   25  C   UNL     1      -9.681   4.931  73.470  1.00  0.00    -0.151 C  
HETATM   26  C   UNL     1     -11.000   4.417  74.094  1.00  0.00    -0.188 C  
HETATM   27  C   UNL     1     -11.461   3.109  73.458  1.00  0.00    -0.163 C  
HETATM   28  C   UNL     1     -10.425   2.015  73.663  1.00  0.00    -0.204 C  
HETATM   29  C   UNL     1      -9.028   2.429  73.217  1.00  0.00    -0.075 C  
HETATM   30  C   UNL     1      -8.617   3.825  73.714  1.00  0.00    -0.086 C  
ENDBRANCH  22  25
ENDBRANCH  14  15
ENDBRANCH  13  14
ENDBRANCH  11  13
ENDBRANCH   9  11
ENDBRANCH   5   9
BRANCH   8  31
HETATM   31  C   UNL     1     -12.074  14.395  69.081  1.00  0.00    -0.281 C  
BRANCH  31  32
HETATM   32  N   UNL     1     -12.177  14.441  70.560  1.00  0.00    -0.318 NA 
HETATM   33  O   UNL     1     -12.522  14.136  73.591  1.00  0.00    -0.203 OA 
HETATM   34  O   UNL     1     -12.616  16.224  74.422  1.00  0.00    -0.717 OA 
HETATM   35  C   UNL     1     -11.087  15.254  71.161  1.00  0.00    -0.278 C  
HETATM   36  C   UNL     1     -12.443  15.490  73.454  1.00  0.00    -0.511 C  
HETATM   37  C   UNL     1     -13.138  15.529  70.921  1.00  0.00    -0.448 C  
HETATM   38  C   UNL     1     -12.152  15.974  72.017  1.00  0.00    -0.606 C  
ENDBRANCH  31  32
ENDBRANCH   8  31
ENDBRANCH   2   3
TORSDOF 9
ENDMDL
MODEL       26
REMARK 921   NORMALIZED FREE ENERGY PREDICTED BY IDOCK:   -7.55 KCAL/MOL
REMARK 922        TOTAL FREE ENERGY PREDICTED BY IDOCK:  -12.94 KCAL/MOL
REMARK 923 INTER-LIGAND FREE ENERGY PREDICTED BY IDOCK:  -10.24 KCAL/MOL
REMARK 924 INTRA-LIGAND FREE ENERGY PREDICTED BY IDOCK:   -2.70 KCAL/MOL
REMARK 927      BINDING AFFINITY PREDICTED BY RF-SCORE:    0.00 PKD
ROOT
HETATM    1  C   UNL     1      -6.408   7.200  69.533  1.00  0.00    -0.035 C  
HETATM    2  C   UNL     1      -7.824   6.956  70.028  1.00  0.00    -0.110 C  
ENDROOT
BRANCH   2   3
HETATM    3  C   UNL     1      -8.770   6.527  68.929  1.00  0.00    -0.127 A  
HETATM    4  C   UNL     1      -8.181   6.406  67.661  1.00  0.00    -0.118 A  
HETATM    5  C   UNL     1      -8.943   6.189  66.510  1.00  0.00    -0.143 A  
HETATM    6  C   UNL     1     -10.320   6.046  66.623  1.00  0.00    -0.264 A  
HETATM    7  C   UNL     1     -10.918   6.094  67.894  1.00  0.00    -0.399 A  
HETATM    8  C   UNL     1     -10.159   6.314  69.067  1.00  0.00    -0.206 A  
BRANCH   5   9
HETATM    9  C   UNL     1      -8.216   6.269  65.213  1.00  0.00    -0.138 C  
HETATM   10  C   UNL     1      -7.047   5.361  64.938  1.00  0.00    -0.058 C  
BRANCH   9  11
HETATM   11  N   UNL     1      -8.648   7.153  64.357  1.00  0.00    -0.330 NA 
HETATM   12  H   UNL     1      -9.354   6.962  63.646  1.00  0.00     0.000 HD 
BRANCH  11  13
HETATM   13  O   UNL     1      -8.029   8.390  64.529  1.00  0.00    -0.131 OA 
BRANCH  13  14
HETATM   14  C   UNL     1      -8.535   9.269  63.532  1.00  0.00    -0.197 C  
BRANCH  14  15
HETATM   15  C   UNL     1      -9.498  10.203  64.198  1.00  0.00    -0.353 A  
HETATM   16  F   UNL     1     -11.884  11.382  68.289  1.00  0.00    -0.354 F  
HETATM   17  F   UNL     1     -11.267   9.353  67.873  1.00  0.00    -0.238 F  
HETATM   18  C   UNL     1     -10.181  11.157  63.459  1.00  0.00    -0.446 A  
HETATM   19  F   UNL     1      -9.784  10.830  68.447  1.00  0.00    -0.152 F  
HETATM   20  C   UNL     1     -11.039  12.048  64.098  1.00  0.00    -0.431 A  
HETATM   21  C   UNL     1      -9.778  10.082  65.560  1.00  0.00    -0.355 A  
HETATM   22  C   UNL     1     -11.218  12.049  65.497  1.00  0.00    -0.372 A  
HETATM   23  C   UNL     1     -10.903  10.657  67.687  1.00  0.00    -0.292 C  
HETATM   24  C   UNL     1     -10.654  10.971  66.224  1.00  0.00    -0.295 A  
BRANCH  22  25
HETATM   25  C   UNL     1     -11.958  13.211  66.177  1.00  0.00    -0.478 C  
HETATM   26  C   UNL     1     -10.998  14.119  66.984  1.00  0.00    -0.303 C  
HETATM   27  C   UNL     1     -10.055  14.902  66.075  1.00  0.00    -0.331 C  
HETATM   28  C   UNL     1     -10.838  15.812  65.141  1.00  0.00    -0.444 C  
HETATM   29  C   UNL     1     -11.927  15.077  64.370  1.00  0.00    -0.366 C  
HETATM   30  C   UNL     1     -12.779  14.149  65.251  1.00  0.00    -0.425 C  
ENDBRANCH  22  25
ENDBRANCH  14  15
ENDBRANCH  13  14
ENDBRANCH  11  13
ENDBRANCH   9  11
ENDBRANCH   5   9
BRANCH   8  31
HETATM   31  C   UNL     1     -10.868   6.447  70.409  1.00  0.00    -0.286 C  
BRANCH  31  32
HETATM   32  N   UNL     1     -11.760   7.622  70.560  1.00  0.00    -0.190 NA 
HETATM   33  O   UNL     1     -13.701   9.994  70.467  1.00  0.00    -0.014 OA 
HETATM   34  O   UNL     1     -13.205  11.278  72.246  1.00  0.00    -0.402 OA 
HETATM   35  C   UNL     1     -12.409   7.650  71.898  1.00  0.00    -0.306 C  
HETATM   36  C   UNL     1     -13.015  10.239  71.619  1.00  0.00    -0.465 C  
HETATM   37  C   UNL     1     -10.921   8.786  70.983  1.00  0.00    -0.268 C  
HETATM   38  C   UNL     1     -12.009   9.137  72.015  1.00  0.00    -0.421 C  
ENDBRANCH  31  32
ENDBRANCH   8  31
ENDBRANCH   2   3
TORSDOF 9
ENDMDL
MODEL       27
REMARK 921   NORMALIZED FREE ENERGY PREDICTED BY IDOCK:   -7.52 KCAL/MOL
REMARK 922        TOTAL FREE ENERGY PREDICTED BY IDOCK:  -12.91 KCAL/MOL
REMARK 923 INTER-LIGAND FREE ENERGY PREDICTED BY IDOCK:  -11.23 KCAL/MOL
REMARK 924 INTRA-LIGAND FREE ENERGY PREDICTED BY IDOCK:   -1.68 KCAL/MOL
REMARK 927      BINDING AFFINITY PREDICTED BY RF-SCORE:    0.00 PKD
ROOT
HETATM    1  C   UNL     1      -7.112  14.118  67.538  1.00  0.00    -0.184 C  
HETATM    2  C   UNL     1      -6.834  15.612  67.567  1.00  0.00    -0.221 C  
ENDROOT
BRANCH   2   3
HETATM    3  C   UNL     1      -8.028  16.428  68.009  1.00  0.00    -0.159 A  
HETATM    4  C   UNL     1      -9.201  15.688  68.218  1.00  0.00    -0.188 A  
HETATM    5  C   UNL     1     -10.431  16.305  68.458  1.00  0.00    -0.278 A  
HETATM    6  C   UNL     1     -10.493  17.691  68.539  1.00  0.00    -0.337 A  
HETATM    7  C   UNL     1      -9.315  18.443  68.403  1.00  0.00    -0.347 A  
HETATM    8  C   UNL     1      -8.063  17.832  68.157  1.00  0.00    -0.265 A  
BRANCH   5   9
HETATM    9  C   UNL     1     -11.625  15.414  68.473  1.00  0.00    -0.359 C  
HETATM   10  C   UNL     1     -11.950  14.557  67.279  1.00  0.00    -0.375 C  
BRANCH   9  11
HETATM   11  N   UNL     1     -12.347  15.426  69.559  1.00  0.00    -0.586 NA 
HETATM   12  H   UNL     1     -13.223  15.939  69.657  1.00  0.00     0.000 HD 
BRANCH  11  13
HETATM   13  O   UNL     1     -11.777  14.655  70.571  1.00  0.00    -0.271 OA 
BRANCH  13  14
HETATM   14  C   UNL     1     -12.816  13.885  71.164  1.00  0.00    -0.351 C  
BRANCH  14  15
HETATM   15  C   UNL     1     -12.507  12.441  70.915  1.00  0.00    -0.367 A  
HETATM   16  F   UNL     1     -10.608   9.130  67.872  1.00  0.00    -0.261 F  
HETATM   17  F   UNL     1     -11.446  10.989  67.156  1.00  0.00    -0.361 F  
HETATM   18  C   UNL     1     -12.972  11.460  71.779  1.00  0.00    -0.519 A  
HETATM   19  F   UNL     1      -9.525  10.996  68.167  1.00  0.00    -0.152 F  
HETATM   20  C   UNL     1     -12.639  10.127  71.561  1.00  0.00    -0.537 A  
HETATM   21  C   UNL     1     -11.806  12.050  69.773  1.00  0.00    -0.401 A  
HETATM   22  C   UNL     1     -11.800   9.723  70.502  1.00  0.00    -0.316 A  
HETATM   23  C   UNL     1     -10.769  10.438  68.208  1.00  0.00    -0.235 C  
HETATM   24  C   UNL     1     -11.468  10.700  69.530  1.00  0.00    -0.360 A  
BRANCH  22  25
HETATM   25  C   UNL     1     -11.248   8.290  70.460  1.00  0.00    -0.247 C  
HETATM   26  C   UNL     1      -9.720   8.248  70.699  1.00  0.00    -0.191 C  
HETATM   27  C   UNL     1      -9.356   8.630  72.131  1.00  0.00    -0.343 C  
HETATM   28  C   UNL     1      -9.981   7.662  73.123  1.00  0.00    -0.363 C  
HETATM   29  C   UNL     1     -11.481   7.490  72.921  1.00  0.00    -0.311 C  
HETATM   30  C   UNL     1     -11.878   7.273  71.451  1.00  0.00    -0.338 C  
ENDBRANCH  22  25
ENDBRANCH  14  15
ENDBRANCH  13  14
ENDBRANCH  11  13
ENDBRANCH   9  11
ENDBRANCH   5   9
BRANCH   8  31
HETATM   31  C   UNL     1      -6.833  18.700  67.927  1.00  0.00    -0.212 C  
BRANCH  31  32
HETATM   32  N   UNL     1      -6.491  18.986  66.513  1.00  0.00    -0.187 NA 
HETATM   33  O   UNL     1      -5.682  19.170  63.561  1.00  0.00    -0.391 OA 
HETATM   34  O   UNL     1      -5.346  21.354  63.140  1.00  0.00    -0.208 OA 
HETATM   35  C   UNL     1      -7.427  19.973  65.911  1.00  0.00    -0.304 C  
HETATM   36  C   UNL     1      -5.710  20.483  63.925  1.00  0.00    -0.259 C  
HETATM   37  C   UNL     1      -5.429  20.039  66.499  1.00  0.00    -0.170 C  
HETATM   38  C   UNL     1      -6.202  20.740  65.366  1.00  0.00    -0.276 C  
ENDBRANCH  31  32
ENDBRANCH   8  31
ENDBRANCH   2   3
TORSDOF 9
ENDMDL
MODEL       28
REMARK 921   NORMALIZED FREE ENERGY PREDICTED BY IDOCK:   -7.52 KCAL/MOL
REMARK 922        TOTAL FREE ENERGY PREDICTED BY IDOCK:  -12.90 KCAL/MOL
REMARK 923 INTER-LIGAND FREE ENERGY PREDICTED BY IDOCK:   -9.78 KCAL/MOL
REMARK 924 INTRA-LIGAND FREE ENERGY PREDICTED BY IDOCK:   -3.12 KCAL/MOL
REMARK 927      BINDING AFFINITY PREDICTED BY RF-SCORE:    0.00 PKD
ROOT
HETATM    1  C   UNL     1     -13.175  15.354  71.230  1.00  0.00    -0.585 C  
HETATM    2  C   UNL     1     -12.608  13.985  71.569  1.00  0.00    -0.432 C  
ENDROOT
BRANCH   2   3
HETATM    3  C   UNL     1     -12.264  13.167  70.345  1.00  0.00    -0.389 A  
HETATM    4  C   UNL     1     -12.032  13.917  69.182  1.00  0.00    -0.404 A  
HETATM    5  C   UNL     1     -11.874  13.314  67.933  1.00  0.00    -0.388 A  
HETATM    6  C   UNL     1     -11.903  11.928  67.837  1.00  0.00    -0.308 A  
HETATM    7  C   UNL     1     -12.064  11.159  69.003  1.00  0.00    -0.315 A  
HETATM    8  C   UNL     1     -12.226  11.757  70.274  1.00  0.00    -0.381 A  
BRANCH   5   9
HETATM    9  C   UNL     1     -11.824  14.230  66.759  1.00  0.00    -0.426 C  
HETATM   10  C   UNL     1     -12.783  14.052  65.613  1.00  0.00    -0.515 C  
BRANCH   9  11
HETATM   11  N   UNL     1     -10.919  15.168  66.791  1.00  0.00    -0.321 NA 
HETATM   12  H   UNL     1     -10.981  16.002  67.376  1.00  0.00     0.000 HD 
BRANCH  11  13
HETATM   13  O   UNL     1      -9.856  14.895  65.931  1.00  0.00    -0.295 OA 
BRANCH  13  14
HETATM   14  C   UNL     1      -8.701  14.669  66.729  1.00  0.00    -0.203 C  
BRANCH  14  15
HETATM   15  C   UNL     1      -8.640  13.204  67.032  1.00  0.00    -0.168 A  
HETATM   16  F   UNL     1      -9.437   8.661  65.434  1.00  0.00    -0.235 F  
HETATM   17  F   UNL     1     -10.563  10.347  64.686  1.00  0.00    -0.401 F  
HETATM   18  C   UNL     1      -8.334  12.759  68.310  1.00  0.00    -0.161 A  
HETATM   19  F   UNL     1      -8.497  10.079  64.075  1.00  0.00    -0.137 F  
HETATM   20  C   UNL     1      -8.236  11.395  68.566  1.00  0.00    -0.153 A  
HETATM   21  C   UNL     1      -8.961  12.262  66.053  1.00  0.00     0.060 A  
HETATM   22  C   UNL     1      -8.400  10.425  67.556  1.00  0.00    -0.114 A  
HETATM   23  C   UNL     1      -9.329   9.988  65.152  1.00  0.00    -0.245 C  
HETATM   24  C   UNL     1      -8.878  10.872  66.299  1.00  0.00    -0.187 A  
BRANCH  22  25
HETATM   25  C   UNL     1      -8.022   8.960  67.826  1.00  0.00    -0.102 C  
HETATM   26  C   UNL     1      -6.633   8.602  67.247  1.00  0.00    -0.058 C  
HETATM   27  C   UNL     1      -5.505   9.309  67.992  1.00  0.00    -0.037 C  
HETATM   28  C   UNL     1      -5.486   8.900  69.457  1.00  0.00    -0.034 C  
HETATM   29  C   UNL     1      -6.840   9.067  70.137  1.00  0.00    -0.045 C  
HETATM   30  C   UNL     1      -8.011   8.508  69.312  1.00  0.00    -0.111 C  
ENDBRANCH  22  25
ENDBRANCH  14  15
ENDBRANCH  13  14
ENDBRANCH  11  13
ENDBRANCH   9  11
ENDBRANCH   5   9
BRANCH   8  31
HETATM   31  C   UNL     1     -12.487  10.879  71.492  1.00  0.00    -0.314 C  
BRANCH  31  32
HETATM   32  N   UNL     1     -12.229   9.429  71.316  1.00  0.00    -0.327 NA 
HETATM   33  O   UNL     1     -11.909   6.466  70.593  1.00  0.00    -0.367 OA 
HETATM   34  O   UNL     1     -11.367   5.412  72.505  1.00  0.00    -0.264 OA 
HETATM   35  C   UNL     1     -10.883   9.047  71.819  1.00  0.00    -0.367 C  
HETATM   36  C   UNL     1     -11.583   6.468  71.917  1.00  0.00    -0.312 C  
HETATM   37  C   UNL     1     -12.829   8.711  72.483  1.00  0.00    -0.292 C  
HETATM   38  C   UNL     1     -11.543   7.868  72.568  1.00  0.00    -0.443 C  
ENDBRANCH  31  32
ENDBRANCH   8  31
ENDBRANCH   2   3
TORSDOF 9
ENDMDL
MODEL       29
REMARK 921   NORMALIZED FREE ENERGY PREDICTED BY IDOCK:   -7.51 KCAL/MOL
REMARK 922        TOTAL FREE ENERGY PREDICTED BY IDOCK:  -12.89 KCAL/MOL
REMARK 923 INTER-LIGAND FREE ENERGY PREDICTED BY IDOCK:  -11.26 KCAL/MOL
REMARK 924 INTRA-LIGAND FREE ENERGY PREDICTED BY IDOCK:   -1.63 KCAL/MOL
REMARK 927      BINDING AFFINITY PREDICTED BY RF-SCORE:    0.00 PKD
ROOT
HETATM    1  C   UNL     1     -11.903  15.425  69.822  1.00  0.00    -0.367 C  
HETATM    2  C   UNL     1     -12.303  14.004  70.182  1.00  0.00    -0.409 C  
ENDROOT
BRANCH   2   3
HETATM    3  C   UNL     1     -11.888  12.990  69.140  1.00  0.00    -0.360 A  
HETATM    4  C   UNL     1     -11.523  13.536  67.900  1.00  0.00    -0.353 A  
HETATM    5  C   UNL     1     -11.282  12.734  66.782  1.00  0.00    -0.338 A  
HETATM    6  C   UNL     1     -11.360  11.353  66.905  1.00  0.00    -0.284 A  
HETATM    7  C   UNL     1     -11.654  10.787  68.157  1.00  0.00    -0.276 A  
HETATM    8  C   UNL     1     -11.902  11.587  69.298  1.00  0.00    -0.414 A  
BRANCH   5   9
HETATM    9  C   UNL     1     -11.091  13.447  65.488  1.00  0.00    -0.282 C  
HETATM   10  C   UNL     1     -12.128  13.343  64.402  1.00  0.00    -0.468 C  
BRANCH   9  11
HETATM   11  N   UNL     1      -9.998  14.147  65.365  1.00  0.00    -0.522 NA 
HETATM   12  H   UNL     1      -9.081  13.836  65.686  1.00  0.00     0.000 HD 
BRANCH  11  13
HETATM   13  O   UNL     1     -10.233  15.371  64.740  1.00  0.00    -0.301 OA 
BRANCH  13  14
HETATM   14  C   UNL     1     -10.893  16.214  65.676  1.00  0.00    -0.238 C  
BRANCH  14  15
HETATM   15  C   UNL     1      -9.838  16.929  66.463  1.00  0.00    -0.307 A  
HETATM   16  F   UNL     1      -6.457  16.646  69.972  1.00  0.00    -0.219 F  
HETATM   17  F   UNL     1      -8.192  15.358  69.954  1.00  0.00    -0.228 F  
HETATM   18  C   UNL     1      -9.673  18.301  66.338  1.00  0.00    -0.334 A  
HETATM   19  F   UNL     1      -6.586  15.016  68.535  1.00  0.00    -0.087 F  
HETATM   20  C   UNL     1      -8.659  18.946  67.041  1.00  0.00    -0.301 A  
HETATM   21  C   UNL     1      -9.051  16.240  67.388  1.00  0.00    -0.203 A  
HETATM   22  C   UNL     1      -7.749  18.247  67.861  1.00  0.00    -0.249 A  
HETATM   23  C   UNL     1      -7.312  16.004  69.131  1.00  0.00    -0.209 C  
HETATM   24  C   UNL     1      -8.024  16.880  68.117  1.00  0.00    -0.195 A  
BRANCH  22  25
HETATM   25  C   UNL     1      -6.496  18.955  68.398  1.00  0.00    -0.248 C  
HETATM   26  C   UNL     1      -5.217  18.531  67.637  1.00  0.00    -0.159 C  
HETATM   27  C   UNL     1      -5.213  19.040  66.198  1.00  0.00    -0.171 C  
HETATM   28  C   UNL     1      -5.258  20.560  66.164  1.00  0.00    -0.201 C  
HETATM   29  C   UNL     1      -6.398  21.139  66.993  1.00  0.00    -0.404 C  
HETATM   30  C   UNL     1      -6.518  20.509  68.390  1.00  0.00    -0.324 C  
ENDBRANCH  22  25
ENDBRANCH  14  15
ENDBRANCH  13  14
ENDBRANCH  11  13
ENDBRANCH   9  11
ENDBRANCH   5   9
BRANCH   8  31
HETATM   31  C   UNL     1     -12.305  10.924  70.609  1.00  0.00    -0.376 C  
BRANCH  31  32
HETATM   32  N   UNL     1     -12.026   9.471  70.717  1.00  0.00    -0.273 NA 
HETATM   33  O   UNL     1     -11.544   6.449  70.533  1.00  0.00    -0.369 OA 
HETATM   34  O   UNL     1     -11.616   5.674  72.643  1.00  0.00    -0.307 OA 
HETATM   35  C   UNL     1     -10.898   9.197  71.648  1.00  0.00    -0.372 C  
HETATM   36  C   UNL     1     -11.631   6.636  71.880  1.00  0.00    -0.303 C  
HETATM   37  C   UNL     1     -12.959   8.898  71.737  1.00  0.00    -0.367 C  
HETATM   38  C   UNL     1     -11.769   8.110  72.317  1.00  0.00    -0.439 C  
ENDBRANCH  31  32
ENDBRANCH   8  31
ENDBRANCH   2   3
TORSDOF 9
ENDMDL
MODEL       30
REMARK 921   NORMALIZED FREE ENERGY PREDICTED BY IDOCK:   -7.49 KCAL/MOL
REMARK 922        TOTAL FREE ENERGY PREDICTED BY IDOCK:  -12.86 KCAL/MOL
REMARK 923 INTER-LIGAND FREE ENERGY PREDICTED BY IDOCK:  -11.35 KCAL/MOL
REMARK 924 INTRA-LIGAND FREE ENERGY PREDICTED BY IDOCK:   -1.51 KCAL/MOL
REMARK 927      BINDING AFFINITY PREDICTED BY RF-SCORE:    0.00 PKD
ROOT
HETATM    1  C   UNL     1     -10.950  11.109  67.319  1.00  0.00    -0.354 C  
HETATM    2  C   UNL     1     -10.412  10.802  68.707  1.00  0.00    -0.221 C  
ENDROOT
BRANCH   2   3
HETATM    3  C   UNL     1     -11.460  10.933  69.790  1.00  0.00    -0.390 A  
HETATM    4  C   UNL     1     -11.917  12.240  70.011  1.00  0.00    -0.379 A  
HETATM    5  C   UNL     1     -12.751  12.560  71.085  1.00  0.00    -0.340 A  
HETATM    6  C   UNL     1     -13.179  11.550  71.938  1.00  0.00    -0.479 A  
HETATM    7  C   UNL     1     -12.788  10.224  71.689  1.00  0.00    -0.568 A  
HETATM    8  C   UNL     1     -11.942   9.886  70.606  1.00  0.00    -0.361 A  
BRANCH   5   9
HETATM    9  C   UNL     1     -13.007  14.009  71.314  1.00  0.00    -0.347 C  
HETATM   10  C   UNL     1     -13.051  14.563  72.713  1.00  0.00    -0.589 C  
BRANCH   9  11
HETATM   11  N   UNL     1     -13.185  14.743  70.251  1.00  0.00    -0.568 NA 
HETATM   12  H   UNL     1     -13.947  14.612  69.586  1.00  0.00     0.000 HD 
BRANCH  11  13
HETATM   13  O   UNL     1     -12.208  15.731  70.132  1.00  0.00    -0.374 OA 
BRANCH  13  14
HETATM   14  C   UNL     1     -11.730  15.706  68.792  1.00  0.00    -0.370 C  
BRANCH  14  15
HETATM   15  C   UNL     1     -10.414  16.422  68.768  1.00  0.00    -0.300 A  
HETATM   16  F   UNL     1      -5.579  16.112  69.355  1.00  0.00    -0.110 F  
HETATM   17  F   UNL     1      -6.939  14.784  70.382  1.00  0.00    -0.178 F  
HETATM   18  C   UNL     1     -10.363  17.800  68.621  1.00  0.00    -0.351 A  
HETATM   19  F   UNL     1      -6.585  14.524  68.256  1.00  0.00    -0.087 F  
HETATM   20  C   UNL     1      -9.133  18.447  68.555  1.00  0.00    -0.345 A  
HETATM   21  C   UNL     1      -9.221  15.724  68.964  1.00  0.00    -0.243 A  
HETATM   22  C   UNL     1      -7.910  17.745  68.591  1.00  0.00    -0.278 A  
HETATM   23  C   UNL     1      -6.773  15.476  69.215  1.00  0.00    -0.154 C  
HETATM   24  C   UNL     1      -7.963  16.365  68.910  1.00  0.00    -0.236 A  
BRANCH  22  25
HETATM   25  C   UNL     1      -6.598  18.467  68.248  1.00  0.00    -0.225 C  
HETATM   26  C   UNL     1      -6.030  18.022  66.879  1.00  0.00    -0.173 C  
HETATM   27  C   UNL     1      -6.903  18.492  65.719  1.00  0.00    -0.310 C  
HETATM   28  C   UNL     1      -6.983  20.011  65.686  1.00  0.00    -0.334 C  
HETATM   29  C   UNL     1      -7.401  20.612  67.022  1.00  0.00    -0.370 C  
HETATM   30  C   UNL     1      -6.645  20.020  68.222  1.00  0.00    -0.322 C  
ENDBRANCH  22  25
ENDBRANCH  14  15
ENDBRANCH  13  14
ENDBRANCH  11  13
ENDBRANCH   9  11
ENDBRANCH   5   9
BRANCH   8  31
HETATM   31  C   UNL     1     -11.476   8.446  70.435  1.00  0.00    -0.125 C  
BRANCH  31  32
HETATM   32  N   UNL     1     -11.205   7.697  71.686  1.00  0.00    -0.243 NA 
HETATM   33  O   UNL     1     -10.514   6.514  74.430  1.00  0.00    -0.313 OA 
HETATM   34  O   UNL     1     -10.350   4.291  74.128  1.00  0.00    -0.183 OA 
HETATM   35  C   UNL     1     -12.229   6.646  71.928  1.00  0.00    -0.335 C  
HETATM   36  C   UNL     1     -10.623   5.393  73.661  1.00  0.00    -0.279 C  
HETATM   37  C   UNL     1     -10.222   6.615  71.371  1.00  0.00    -0.199 C  
HETATM   38  C   UNL     1     -11.081   5.651  72.209  1.00  0.00    -0.318 C  
ENDBRANCH  31  32
ENDBRANCH   8  31
ENDBRANCH   2   3
TORSDOF 9
ENDMDL
MODEL       31
REMARK 921   NORMALIZED FREE ENERGY PREDICTED BY IDOCK:   -7.49 KCAL/MOL
REMARK 922        TOTAL FREE ENERGY PREDICTED BY IDOCK:  -12.85 KCAL/MOL
REMARK 923 INTER-LIGAND FREE ENERGY PREDICTED BY IDOCK:   -9.62 KCAL/MOL
REMARK 924 INTRA-LIGAND FREE ENERGY PREDICTED BY IDOCK:   -3.23 KCAL/MOL
REMARK 927      BINDING AFFINITY PREDICTED BY RF-SCORE:    0.00 PKD
ROOT
HETATM    1  C   UNL     1     -12.657  12.720  65.165  1.00  0.00    -0.513 C  
HETATM    2  C   UNL     1     -11.398  12.356  65.935  1.00  0.00    -0.399 C  
ENDROOT
BRANCH   2   3
HETATM    3  C   UNL     1     -11.454  12.765  67.390  1.00  0.00    -0.396 A  
HETATM    4  C   UNL     1     -11.723  11.719  68.285  1.00  0.00    -0.377 A  
HETATM    5  C   UNL     1     -11.979  11.952  69.639  1.00  0.00    -0.365 A  
HETATM    6  C   UNL     1     -11.924  13.252  70.127  1.00  0.00    -0.388 A  
HETATM    7  C   UNL     1     -11.586  14.303  69.258  1.00  0.00    -0.350 A  
HETATM    8  C   UNL     1     -11.326  14.081  67.885  1.00  0.00    -0.317 A  
BRANCH   5   9
HETATM    9  C   UNL     1     -12.435  10.779  70.436  1.00  0.00    -0.347 C  
HETATM   10  C   UNL     1     -13.189  10.981  71.722  1.00  0.00    -0.505 C  
BRANCH   9  11
HETATM   11  N   UNL     1     -12.144   9.602  69.957  1.00  0.00    -0.454 NA 
HETATM   12  H   UNL     1     -12.664   9.146  69.208  1.00  0.00     0.000 HD 
BRANCH  11  13
HETATM   13  O   UNL     1     -11.036   9.042  70.592  1.00  0.00    -0.245 OA 
BRANCH  13  14
HETATM   14  C   UNL     1     -10.502   8.045  69.729  1.00  0.00    -0.227 C  
BRANCH  14  15
HETATM   15  C   UNL     1      -9.943   8.742  68.526  1.00  0.00    -0.200 A  
HETATM   16  F   UNL     1      -7.300  12.475  66.823  1.00  0.00    -0.078 F  
HETATM   17  F   UNL     1      -8.372  12.597  68.695  1.00  0.00    -0.147 F  
HETATM   18  C   UNL     1     -10.308   8.345  67.248  1.00  0.00    -0.369 A  
HETATM   19  F   UNL     1      -6.562  11.406  68.569  1.00  0.00    -0.055 F  
HETATM   20  C   UNL     1      -9.746   8.971  66.139  1.00  0.00    -0.354 A  
HETATM   21  C   UNL     1      -9.102   9.846  68.671  1.00  0.00    -0.132 A  
HETATM   22  C   UNL     1      -8.773   9.985  66.259  1.00  0.00    -0.148 A  
HETATM   23  C   UNL     1      -7.698  11.726  67.886  1.00  0.00    -0.125 C  
HETATM   24  C   UNL     1      -8.530  10.501  67.557  1.00  0.00    -0.118 A  
BRANCH  22  25
HETATM   25  C   UNL     1      -7.993  10.454  65.021  1.00  0.00    -0.126 C  
HETATM   26  C   UNL     1      -6.512  10.007  65.063  1.00  0.00    -0.117 C  
HETATM   27  C   UNL     1      -6.368   8.496  64.910  1.00  0.00    -0.064 C  
HETATM   28  C   UNL     1      -6.927   8.032  63.574  1.00  0.00    -0.077 C  
HETATM   29  C   UNL     1      -8.350   8.518  63.325  1.00  0.00    -0.107 C  
HETATM   30  C   UNL     1      -8.549  10.010  63.640  1.00  0.00    -0.204 C  
ENDBRANCH  22  25
ENDBRANCH  14  15
ENDBRANCH  13  14
ENDBRANCH  11  13
ENDBRANCH   9  11
ENDBRANCH   5   9
BRANCH   8  31
HETATM   31  C   UNL     1     -11.054  15.267  66.969  1.00  0.00    -0.305 C  
BRANCH  31  32
HETATM   32  N   UNL     1     -10.033  16.234  67.442  1.00  0.00    -0.245 NA 
HETATM   33  O   UNL     1      -7.866  17.971  68.743  1.00  0.00    -0.301 OA 
HETATM   34  O   UNL     1      -8.081  20.019  67.837  1.00  0.00    -0.299 OA 
HETATM   35  C   UNL     1      -9.280  16.835  66.309  1.00  0.00    -0.279 C  
HETATM   36  C   UNL     1      -8.428  18.842  67.857  1.00  0.00    -0.292 C  
HETATM   37  C   UNL     1     -10.708  17.554  67.645  1.00  0.00    -0.306 C  
HETATM   38  C   UNL     1      -9.510  18.223  66.946  1.00  0.00    -0.290 C  
ENDBRANCH  31  32
ENDBRANCH   8  31
ENDBRANCH   2   3
TORSDOF 9
ENDMDL
MODEL       32
REMARK 921   NORMALIZED FREE ENERGY PREDICTED BY IDOCK:   -7.48 KCAL/MOL
REMARK 922        TOTAL FREE ENERGY PREDICTED BY IDOCK:  -12.84 KCAL/MOL
REMARK 923 INTER-LIGAND FREE ENERGY PREDICTED BY IDOCK:  -11.03 KCAL/MOL
REMARK 924 INTRA-LIGAND FREE ENERGY PREDICTED BY IDOCK:   -1.81 KCAL/MOL
REMARK 927      BINDING AFFINITY PREDICTED BY RF-SCORE:    0.00 PKD
ROOT
HETATM    1  C   UNL     1     -13.572   7.555  71.426  1.00  0.00    -0.397 C  
HETATM    2  C   UNL     1     -13.159   8.939  71.899  1.00  0.00    -0.436 C  
ENDROOT
BRANCH   2   3
HETATM    3  C   UNL     1     -12.300   9.676  70.896  1.00  0.00    -0.346 A  
HETATM    4  C   UNL     1     -11.256   8.917  70.346  1.00  0.00    -0.259 A  
HETATM    5  C   UNL     1     -10.270   9.491  69.540  1.00  0.00    -0.225 A  
HETATM    6  C   UNL     1     -10.345  10.844  69.233  1.00  0.00    -0.211 A  
HETATM    7  C   UNL     1     -11.423  11.603  69.717  1.00  0.00    -0.339 A  
HETATM    8  C   UNL     1     -12.428  11.035  70.536  1.00  0.00    -0.432 A  
BRANCH   5   9
HETATM    9  C   UNL     1      -9.120   8.616  69.179  1.00  0.00    -0.142 C  
HETATM   10  C   UNL     1      -8.768   7.431  70.038  1.00  0.00    -0.140 C  
BRANCH   9  11
HETATM   11  N   UNL     1      -8.459   8.937  68.103  1.00  0.00    -0.129 NA 
HETATM   12  H   UNL     1      -7.465   9.169  68.089  1.00  0.00     0.000 HD 
BRANCH  11  13
HETATM   13  O   UNL     1      -9.273   8.926  66.970  1.00  0.00    -0.131 OA 
BRANCH  13  14
HETATM   14  C   UNL     1      -8.592   9.636  65.942  1.00  0.00    -0.134 C  
BRANCH  14  15
HETATM   15  C   UNL     1      -9.146  11.027  65.911  1.00  0.00    -0.214 A  
HETATM   16  F   UNL     1     -12.379  14.099  63.926  1.00  0.00    -0.498 F  
HETATM   17  F   UNL     1     -11.616  12.390  62.845  1.00  0.00    -0.382 F  
HETATM   18  C   UNL     1      -8.536  12.046  66.629  1.00  0.00    -0.143 A  
HETATM   19  F   UNL     1     -13.050  12.094  64.447  1.00  0.00    -0.538 F  
HETATM   20  C   UNL     1      -9.088  13.324  66.627  1.00  0.00    -0.181 A  
HETATM   21  C   UNL     1     -10.242  11.339  65.104  1.00  0.00    -0.344 A  
HETATM   22  C   UNL     1     -10.285  13.627  65.946  1.00  0.00    -0.318 A  
HETATM   23  C   UNL     1     -11.949  12.820  64.099  1.00  0.00    -0.427 C  
HETATM   24  C   UNL     1     -10.809  12.633  65.082  1.00  0.00    -0.321 A  
BRANCH  22  25
HETATM   25  C   UNL     1     -10.991  14.969  66.191  1.00  0.00    -0.334 C  
HETATM   26  C   UNL     1     -11.573  15.067  67.622  1.00  0.00    -0.327 C  
HETATM   27  C   UNL     1     -10.476  15.148  68.680  1.00  0.00    -0.234 C  
HETATM   28  C   UNL     1      -9.616  16.385  68.471  1.00  0.00    -0.229 C  
HETATM   29  C   UNL     1      -9.077  16.501  67.050  1.00  0.00    -0.228 C  
HETATM   30  C   UNL     1     -10.143  16.251  65.971  1.00  0.00    -0.377 C  
ENDBRANCH  22  25
ENDBRANCH  14  15
ENDBRANCH  13  14
ENDBRANCH  11  13
ENDBRANCH   9  11
ENDBRANCH   5   9
BRANCH   8  31
HETATM   31  C   UNL     1     -13.525  11.923  71.108  1.00  0.00     0.580 C  
BRANCH  31  32
HETATM   32  N   UNL     1     -13.089  12.951  72.084  1.00  0.00    -0.391 NA 
HETATM   33  O   UNL     1     -12.091  14.752  74.356  1.00  0.00    -0.508 OA 
HETATM   34  O   UNL     1     -12.942  16.795  73.953  1.00  0.00    -0.442 OA 
HETATM   35  C   UNL     1     -12.446  14.111  71.411  1.00  0.00    -0.359 C  
HETATM   36  C   UNL     1     -12.782  15.636  73.581  1.00  0.00    -0.596 C  
HETATM   37  C   UNL     1     -14.264  13.825  72.389  1.00  0.00    -0.402 C  
HETATM   38  C   UNL     1     -13.332  15.044  72.266  1.00  0.00    -0.497 C  
ENDBRANCH  31  32
ENDBRANCH   8  31
ENDBRANCH   2   3
TORSDOF 9
ENDMDL
MODEL       33
REMARK 921   NORMALIZED FREE ENERGY PREDICTED BY IDOCK:   -7.48 KCAL/MOL
REMARK 922        TOTAL FREE ENERGY PREDICTED BY IDOCK:  -12.84 KCAL/MOL
REMARK 923 INTER-LIGAND FREE ENERGY PREDICTED BY IDOCK:  -11.56 KCAL/MOL
REMARK 924 INTRA-LIGAND FREE ENERGY PREDICTED BY IDOCK:   -1.27 KCAL/MOL
REMARK 927      BINDING AFFINITY PREDICTED BY RF-SCORE:    0.00 PKD
ROOT
HETATM    1  C   UNL     1     -11.338  11.281  67.492  1.00  0.00    -0.360 C  
HETATM    2  C   UNL     1     -11.138  10.536  68.802  1.00  0.00    -0.315 C  
ENDROOT
BRANCH   2   3
HETATM    3  C   UNL     1     -11.995  11.074  69.926  1.00  0.00    -0.427 A  
HETATM    4  C   UNL     1     -12.031  12.473  70.021  1.00  0.00    -0.372 A  
HETATM    5  C   UNL     1     -12.630  13.126  71.101  1.00  0.00    -0.403 A  
HETATM    6  C   UNL     1     -13.250  12.374  72.091  1.00  0.00    -0.491 A  
HETATM    7  C   UNL     1     -13.285  10.974  71.975  1.00  0.00    -0.447 A  
HETATM    8  C   UNL     1     -12.681  10.300  70.888  1.00  0.00    -0.462 A  
BRANCH   5   9
HETATM    9  C   UNL     1     -12.432  14.600  71.173  1.00  0.00    -0.332 C  
HETATM   10  C   UNL     1     -11.740  15.217  72.359  1.00  0.00    -0.538 C  
BRANCH   9  11
HETATM   11  N   UNL     1     -12.885  15.298  70.170  1.00  0.00    -0.650 NA 
HETATM   12  H   UNL     1     -13.850  15.268  69.841  1.00  0.00     0.000 HD 
BRANCH  11  13
HETATM   13  O   UNL     1     -11.891  16.093  69.598  1.00  0.00    -0.271 OA 
BRANCH  13  14
HETATM   14  C   UNL     1     -11.644  15.598  68.287  1.00  0.00    -0.319 C  
BRANCH  14  15
HETATM   15  C   UNL     1     -10.470  16.346  67.736  1.00  0.00    -0.300 A  
HETATM   16  F   UNL     1      -8.858  20.430  65.603  1.00  0.00    -0.215 F  
HETATM   17  F   UNL     1     -10.889  19.737  65.352  1.00  0.00    -0.595 F  
HETATM   18  C   UNL     1      -9.234  15.728  67.611  1.00  0.00    -0.200 A  
HETATM   19  F   UNL     1     -10.280  20.618  67.240  1.00  0.00    -0.552 F  
HETATM   20  C   UNL     1      -8.141  16.448  67.140  1.00  0.00    -0.212 A  
HETATM   21  C   UNL     1     -10.615  17.655  67.272  1.00  0.00    -0.297 A  
HETATM   22  C   UNL     1      -8.225  17.818  66.814  1.00  0.00    -0.275 A  
HETATM   23  C   UNL     1      -9.861  19.778  66.250  1.00  0.00    -0.455 C  
HETATM   24  C   UNL     1      -9.518  18.398  66.781  1.00  0.00    -0.297 A  
BRANCH  22  25
HETATM   25  C   UNL     1      -6.945  18.628  66.557  1.00  0.00    -0.240 C  
HETATM   26  C   UNL     1      -6.766  19.772  67.584  1.00  0.00    -0.268 C  
HETATM   27  C   UNL     1      -6.467  19.242  68.983  1.00  0.00    -0.324 C  
HETATM   28  C   UNL     1      -5.174  18.439  68.991  1.00  0.00    -0.192 C  
HETATM   29  C   UNL     1      -5.146  17.349  67.926  1.00  0.00    -0.122 C  
HETATM   30  C   UNL     1      -5.610  17.834  66.543  1.00  0.00    -0.214 C  
ENDBRANCH  22  25
ENDBRANCH  14  15
ENDBRANCH  13  14
ENDBRANCH  11  13
ENDBRANCH   9  11
ENDBRANCH   5   9
BRANCH   8  31
HETATM   31  C   UNL     1     -12.670   8.777  70.858  1.00  0.00     0.079 C  
BRANCH  31  32
HETATM   32  N   UNL     1     -11.404   8.126  71.275  1.00  0.00    -0.259 NA 
HETATM   33  O   UNL     1      -8.598   7.135  72.013  1.00  0.00    -0.112 OA 
HETATM   34  O   UNL     1      -8.749   4.896  72.177  1.00  0.00    -0.125 OA 
HETATM   35  C   UNL     1     -11.591   7.293  72.492  1.00  0.00    -0.245 C  
HETATM   36  C   UNL     1      -9.314   5.975  72.015  1.00  0.00    -0.149 C  
HETATM   37  C   UNL     1     -11.250   6.868  70.481  1.00  0.00    -0.307 C  
HETATM   38  C   UNL     1     -10.829   6.154  71.778  1.00  0.00    -0.303 C  
ENDBRANCH  31  32
ENDBRANCH   8  31
ENDBRANCH   2   3
TORSDOF 9
ENDMDL
MODEL       34
REMARK 921   NORMALIZED FREE ENERGY PREDICTED BY IDOCK:   -7.46 KCAL/MOL
REMARK 922        TOTAL FREE ENERGY PREDICTED BY IDOCK:  -12.81 KCAL/MOL
REMARK 923 INTER-LIGAND FREE ENERGY PREDICTED BY IDOCK:  -11.00 KCAL/MOL
REMARK 924 INTRA-LIGAND FREE ENERGY PREDICTED BY IDOCK:   -1.81 KCAL/MOL
REMARK 927      BINDING AFFINITY PREDICTED BY RF-SCORE:    0.00 PKD
ROOT
HETATM    1  C   UNL     1     -13.927   7.495  71.650  1.00  0.00    -0.523 C  
HETATM    2  C   UNL     1     -13.134   8.515  72.450  1.00  0.00    -0.338 C  
ENDROOT
BRANCH   2   3
HETATM    3  C   UNL     1     -11.791   8.837  71.834  1.00  0.00    -0.437 A  
HETATM    4  C   UNL     1     -11.848   9.638  70.683  1.00  0.00    -0.331 A  
HETATM    5  C   UNL     1     -10.721   9.883  69.896  1.00  0.00    -0.318 A  
HETATM    6  C   UNL     1      -9.495   9.356  70.281  1.00  0.00    -0.294 A  
HETATM    7  C   UNL     1      -9.406   8.611  71.469  1.00  0.00    -0.319 A  
HETATM    8  C   UNL     1     -10.540   8.354  72.275  1.00  0.00    -0.412 A  
BRANCH   5   9
HETATM    9  C   UNL     1     -10.958  10.588  68.605  1.00  0.00    -0.248 C  
HETATM   10  C   UNL     1      -9.862  10.683  67.578  1.00  0.00    -0.194 C  
BRANCH   9  11
HETATM   11  N   UNL     1     -12.143  11.102  68.432  1.00  0.00    -0.727 NA 
HETATM   12  H   UNL     1     -13.013  10.573  68.509  1.00  0.00     0.000 HD 
BRANCH  11  13
HETATM   13  O   UNL     1     -12.081  12.462  68.131  1.00  0.00    -0.362 OA 
BRANCH  13  14
HETATM   14  C   UNL     1     -12.051  13.177  69.361  1.00  0.00    -0.231 C  
BRANCH  14  15
HETATM   15  C   UNL     1     -11.111  14.330  69.190  1.00  0.00    -0.291 A  
HETATM   16  F   UNL     1      -6.561  15.785  68.187  1.00  0.00    -0.106 F  
HETATM   17  F   UNL     1      -6.973  13.854  69.065  1.00  0.00    -0.097 F  
HETATM   18  C   UNL     1     -11.513  15.620  69.503  1.00  0.00    -0.349 A  
HETATM   19  F   UNL     1      -7.425  14.200  66.970  1.00  0.00    -0.167 F  
HETATM   20  C   UNL     1     -10.645  16.688  69.297  1.00  0.00    -0.343 A  
HETATM   21  C   UNL     1      -9.793  14.119  68.781  1.00  0.00    -0.168 A  
HETATM   22  C   UNL     1      -9.362  16.519  68.735  1.00  0.00    -0.247 A  
HETATM   23  C   UNL     1      -7.482  14.784  68.202  1.00  0.00    -0.117 C  
HETATM   24  C   UNL     1      -8.894  15.191  68.576  1.00  0.00    -0.185 A  
BRANCH  22  25
HETATM   25  C   UNL     1      -8.553  17.744  68.282  1.00  0.00    -0.277 C  
HETATM   26  C   UNL     1      -8.617  17.948  66.749  1.00  0.00    -0.271 C  
HETATM   27  C   UNL     1     -10.009  18.365  66.287  1.00  0.00    -0.378 C  
HETATM   28  C   UNL     1     -10.415  19.687  66.922  1.00  0.00    -0.606 C  
HETATM   29  C   UNL     1     -10.272  19.685  68.439  1.00  0.00    -0.553 C  
HETATM   30  C   UNL     1      -8.933  19.105  68.925  1.00  0.00    -0.327 C  
ENDBRANCH  22  25
ENDBRANCH  14  15
ENDBRANCH  13  14
ENDBRANCH  11  13
ENDBRANCH   9  11
ENDBRANCH   5   9
BRANCH   8  31
HETATM   31  C   UNL     1     -10.404   7.464  73.504  1.00  0.00    -0.353 C  
BRANCH  31  32
HETATM   32  N   UNL     1     -10.079   6.041  73.245  1.00  0.00    -0.183 NA 
HETATM   33  O   UNL     1      -9.139   3.241  72.419  1.00  0.00    -0.093 OA 
HETATM   34  O   UNL     1     -10.708   1.811  73.162  1.00  0.00    -0.119 OA 
HETATM   35  C   UNL     1     -10.089   5.238  74.497  1.00  0.00    -0.262 C  
HETATM   36  C   UNL     1     -10.279   2.960  73.110  1.00  0.00    -0.140 C  
HETATM   37  C   UNL     1     -11.339   5.348  72.834  1.00  0.00    -0.303 C  
HETATM   38  C   UNL     1     -10.952   4.185  73.766  1.00  0.00    -0.331 C  
ENDBRANCH  31  32
ENDBRANCH   8  31
ENDBRANCH   2   3
TORSDOF 9
ENDMDL
MODEL       35
REMARK 921   NORMALIZED FREE ENERGY PREDICTED BY IDOCK:   -7.44 KCAL/MOL
REMARK 922        TOTAL FREE ENERGY PREDICTED BY IDOCK:  -12.79 KCAL/MOL
REMARK 923 INTER-LIGAND FREE ENERGY PREDICTED BY IDOCK:  -10.99 KCAL/MOL
REMARK 924 INTRA-LIGAND FREE ENERGY PREDICTED BY IDOCK:   -1.80 KCAL/MOL
REMARK 927      BINDING AFFINITY PREDICTED BY RF-SCORE:    0.00 PKD
ROOT
HETATM    1  C   UNL     1      -8.178  12.799  68.374  1.00  0.00    -0.128 C  
HETATM    2  C   UNL     1      -8.078  14.302  68.576  1.00  0.00    -0.147 C  
ENDROOT
BRANCH   2   3
HETATM    3  C   UNL     1      -9.427  14.978  68.678  1.00  0.00    -0.212 A  
HETATM    4  C   UNL     1      -9.968  15.021  69.972  1.00  0.00     0.033 A  
HETATM    5  C   UNL     1     -11.274  15.451  70.213  1.00  0.00    -0.328 A  
HETATM    6  C   UNL     1     -12.052  15.893  69.150  1.00  0.00    -0.158 A  
HETATM    7  C   UNL     1     -11.502  15.923  67.858  1.00  0.00    -0.187 A  
HETATM    8  C   UNL     1     -10.181  15.489  67.599  1.00  0.00    -0.255 A  
BRANCH   5   9
HETATM    9  C   UNL     1     -11.784  15.268  71.601  1.00  0.00    -0.399 C  
HETATM   10  C   UNL     1     -11.983  16.457  72.501  1.00  0.00    -0.579 C  
BRANCH   9  11
HETATM   11  N   UNL     1     -12.037  14.044  71.971  1.00  0.00    -0.109 NA 
HETATM   12  H   UNL     1     -11.636  13.602  72.798  1.00  0.00     0.000 HD 
BRANCH  11  13
HETATM   13  O   UNL     1     -12.924  13.411  71.100  1.00  0.00    -0.304 OA 
BRANCH  13  14
HETATM   14  C   UNL     1     -13.251  12.145  71.662  1.00  0.00    -0.258 C  
BRANCH  14  15
HETATM   15  C   UNL     1     -12.386  11.119  70.999  1.00  0.00    -0.487 A  
HETATM   16  F   UNL     1     -10.502   6.620  71.189  1.00  0.00    -0.222 F  
HETATM   17  F   UNL     1     -11.036   7.709  72.977  1.00  0.00    -0.343 F  
HETATM   18  C   UNL     1     -11.637  11.444  69.878  1.00  0.00    -0.402 A  
HETATM   19  F   UNL     1     -12.597   6.880  71.718  1.00  0.00    -0.353 F  
HETATM   20  C   UNL     1     -10.873  10.468  69.245  1.00  0.00    -0.284 A  
HETATM   21  C   UNL     1     -12.261   9.838  71.540  1.00  0.00    -0.493 A  
HETATM   22  C   UNL     1     -10.855   9.127  69.679  1.00  0.00    -0.210 A  
HETATM   23  C   UNL     1     -11.396   7.524  71.672  1.00  0.00    -0.252 C  
HETATM   24  C   UNL     1     -11.482   8.837  70.917  1.00  0.00    -0.330 A  
BRANCH  22  25
HETATM   25  C   UNL     1     -10.215   8.042  68.799  1.00  0.00    -0.220 C  
HETATM   26  C   UNL     1     -10.621   8.185  67.313  1.00  0.00    -0.344 C  
HETATM   27  C   UNL     1     -10.018   9.433  66.674  1.00  0.00    -0.326 C  
HETATM   28  C   UNL     1      -8.499   9.376  66.709  1.00  0.00    -0.129 C  
HETATM   29  C   UNL     1      -7.947   9.099  68.103  1.00  0.00    -0.100 C  
HETATM   30  C   UNL     1      -8.665   7.948  68.826  1.00  0.00    -0.128 C  
ENDBRANCH  22  25
ENDBRANCH  14  15
ENDBRANCH  13  14
ENDBRANCH  11  13
ENDBRANCH   9  11
ENDBRANCH   5   9
BRANCH   8  31
HETATM   31  C   UNL     1      -9.665  15.458  66.166  1.00  0.00    -0.318 C  
BRANCH  31  32
HETATM   32  N   UNL     1     -10.171  14.354  65.315  1.00  0.00    -0.380 NA 
HETATM   33  O   UNL     1     -10.856  12.108  63.343  1.00  0.00    -0.431 OA 
HETATM   34  O   UNL     1     -13.083  11.819  63.474  1.00  0.00    -0.617 OA 
HETATM   35  C   UNL     1     -10.936  13.355  66.109  1.00  0.00    -0.276 C  
HETATM   36  C   UNL     1     -12.073  12.375  63.897  1.00  0.00    -0.499 C  
HETATM   37  C   UNL     1     -11.461  14.799  64.701  1.00  0.00    -0.381 C  
HETATM   38  C   UNL     1     -12.046  13.415  65.037  1.00  0.00    -0.436 C  
ENDBRANCH  31  32
ENDBRANCH   8  31
ENDBRANCH   2   3
TORSDOF 9
ENDMDL
MODEL       36
REMARK 921   NORMALIZED FREE ENERGY PREDICTED BY IDOCK:   -7.41 KCAL/MOL
REMARK 922        TOTAL FREE ENERGY PREDICTED BY IDOCK:  -12.74 KCAL/MOL
REMARK 923 INTER-LIGAND FREE ENERGY PREDICTED BY IDOCK:  -10.46 KCAL/MOL
REMARK 924 INTRA-LIGAND FREE ENERGY PREDICTED BY IDOCK:   -2.28 KCAL/MOL
REMARK 927      BINDING AFFINITY PREDICTED BY RF-SCORE:    0.00 PKD
ROOT
HETATM    1  C   UNL     1      -9.086  17.232  66.168  1.00  0.00    -0.193 C  
HETATM    2  C   UNL     1      -9.455  15.914  65.506  1.00  0.00    -0.089 C  
ENDROOT
BRANCH   2   3
HETATM    3  C   UNL     1     -10.625  15.224  66.171  1.00  0.00    -0.318 A  
HETATM    4  C   UNL     1     -10.876  15.632  67.489  1.00  0.00    -0.316 A  
HETATM    5  C   UNL     1     -11.804  14.976  68.302  1.00  0.00    -0.295 A  
HETATM    6  C   UNL     1     -12.534  13.916  67.781  1.00  0.00     0.188 A  
HETATM    7  C   UNL     1     -12.346  13.540  66.440  1.00  0.00    -0.413 A  
HETATM    8  C   UNL     1     -11.408  14.194  65.607  1.00  0.00    -0.319 A  
BRANCH   5   9
HETATM    9  C   UNL     1     -11.836  15.389  69.733  1.00  0.00    -0.347 C  
HETATM   10  C   UNL     1     -10.805  16.343  70.273  1.00  0.00    -0.218 C  
BRANCH   9  11
HETATM   11  N   UNL     1     -12.790  14.883  70.463  1.00  0.00    -0.513 NA 
HETATM   12  H   UNL     1     -13.777  15.123  70.361  1.00  0.00     0.000 HD 
BRANCH  11  13
HETATM   13  O   UNL     1     -12.301  13.973  71.400  1.00  0.00    -0.350 OA 
BRANCH  13  14
HETATM   14  C   UNL     1     -13.328  13.023  71.656  1.00  0.00    -0.292 C  
BRANCH  14  15
HETATM   15  C   UNL     1     -12.779  11.667  71.336  1.00  0.00    -0.445 A  
HETATM   16  F   UNL     1     -10.322   8.897  68.154  1.00  0.00    -0.206 F  
HETATM   17  F   UNL     1     -11.452  10.629  67.525  1.00  0.00    -0.377 F  
HETATM   18  C   UNL     1     -13.083  10.575  72.135  1.00  0.00    -0.413 A  
HETATM   19  F   UNL     1      -9.570  10.897  68.572  1.00  0.00    -0.157 F  
HETATM   20  C   UNL     1     -12.529   9.330  71.852  1.00  0.00    -0.457 A  
HETATM   21  C   UNL     1     -12.011  11.464  70.187  1.00  0.00    -0.460 A  
HETATM   22  C   UNL     1     -11.624   9.133  70.788  1.00  0.00    -0.329 A  
HETATM   23  C   UNL     1     -10.704  10.139  68.558  1.00  0.00    -0.230 C  
HETATM   24  C   UNL     1     -11.450  10.204  69.878  1.00  0.00    -0.317 A  
BRANCH  22  25
HETATM   25  C   UNL     1     -10.840   7.816  70.680  1.00  0.00    -0.241 C  
HETATM   26  C   UNL     1      -9.381   7.965  71.174  1.00  0.00    -0.171 C  
HETATM   27  C   UNL     1      -9.309   8.192  72.681  1.00  0.00    -0.342 C  
HETATM   28  C   UNL     1      -9.907   7.013  73.433  1.00  0.00    -0.273 C  
HETATM   29  C   UNL     1     -11.309   6.653  72.955  1.00  0.00    -0.172 C  
HETATM   30  C   UNL     1     -11.434   6.589  71.424  1.00  0.00    -0.360 C  
ENDBRANCH  22  25
ENDBRANCH  14  15
ENDBRANCH  13  14
ENDBRANCH  11  13
ENDBRANCH   9  11
ENDBRANCH   5   9
BRANCH   8  31
HETATM   31  C   UNL     1     -11.179  13.687  64.189  1.00  0.00    -0.272 C  
BRANCH  31  32
HETATM   32  N   UNL     1     -10.185  12.597  64.039  1.00  0.00    -0.386 NA 
HETATM   33  O   UNL     1      -7.986  10.559  63.398  1.00  0.00    -0.138 OA 
HETATM   34  O   UNL     1      -8.568   8.659  64.454  1.00  0.00    -0.144 OA 
HETATM   35  C   UNL     1      -9.726  12.088  65.359  1.00  0.00    -0.184 C  
HETATM   36  C   UNL     1      -8.790   9.848  64.238  1.00  0.00    -0.225 C  
HETATM   37  C   UNL     1     -10.932  11.316  63.844  1.00  0.00    -0.305 C  
HETATM   38  C   UNL     1      -9.962  10.652  64.840  1.00  0.00    -0.382 C  
ENDBRANCH  31  32
ENDBRANCH   8  31
ENDBRANCH   2   3
TORSDOF 9
ENDMDL
MODEL       37
REMARK 921   NORMALIZED FREE ENERGY PREDICTED BY IDOCK:   -7.40 KCAL/MOL
REMARK 922        TOTAL FREE ENERGY PREDICTED BY IDOCK:  -12.73 KCAL/MOL
REMARK 923 INTER-LIGAND FREE ENERGY PREDICTED BY IDOCK:  -10.38 KCAL/MOL
REMARK 924 INTRA-LIGAND FREE ENERGY PREDICTED BY IDOCK:   -2.35 KCAL/MOL
REMARK 927      BINDING AFFINITY PREDICTED BY RF-SCORE:    0.00 PKD
ROOT
HETATM    1  C   UNL     1     -11.920  12.429  64.256  1.00  0.00    -0.489 C  
HETATM    2  C   UNL     1     -12.045  12.987  65.664  1.00  0.00    -0.507 C  
ENDROOT
BRANCH   2   3
HETATM    3  C   UNL     1     -11.425  12.092  66.713  1.00  0.00    -0.410 A  
HETATM    4  C   UNL     1     -10.766  10.961  66.207  1.00  0.00    -0.241 A  
HETATM    5  C   UNL     1     -10.292   9.946  67.041  1.00  0.00    -0.303 A  
HETATM    6  C   UNL     1     -10.434  10.075  68.417  1.00  0.00    -0.235 A  
HETATM    7  C   UNL     1     -11.027  11.234  68.944  1.00  0.00    -0.274 A  
HETATM    8  C   UNL     1     -11.513  12.269  68.111  1.00  0.00    -0.371 A  
BRANCH   5   9
HETATM    9  C   UNL     1      -9.785   8.719  66.365  1.00  0.00    -0.265 C  
HETATM   10  C   UNL     1      -8.474   8.744  65.627  1.00  0.00    -0.174 C  
BRANCH   9  11
HETATM   11  N   UNL     1     -10.533   7.655  66.455  1.00  0.00    -0.486 NA 
HETATM   12  H   UNL     1     -11.534   7.641  66.261  1.00  0.00     0.000 HD 
BRANCH  11  13
HETATM   13  O   UNL     1      -9.799   6.536  66.849  1.00  0.00    -0.149 OA 
BRANCH  13  14
HETATM   14  C   UNL     1     -10.594   5.801  67.771  1.00  0.00    -0.237 C  
BRANCH  14  15
HETATM   15  C   UNL     1     -10.395   6.409  69.125  1.00  0.00    -0.248 A  
HETATM   16  F   UNL     1     -12.453   8.625  72.957  1.00  0.00    -0.394 F  
HETATM   17  F   UNL     1     -13.286   8.777  70.969  1.00  0.00    -0.253 F  
HETATM   18  C   UNL     1      -9.118   6.592  69.636  1.00  0.00    -0.141 A  
HETATM   19  F   UNL     1     -13.485   6.922  72.077  1.00  0.00    -0.349 F  
HETATM   20  C   UNL     1      -8.949   7.116  70.914  1.00  0.00    -0.151 A  
HETATM   21  C   UNL     1     -11.485   6.869  69.866  1.00  0.00    -0.294 A  
HETATM   22  C   UNL     1     -10.041   7.441  71.746  1.00  0.00    -0.197 A  
HETATM   23  C   UNL     1     -12.608   7.929  71.799  1.00  0.00    -0.328 C  
HETATM   24  C   UNL     1     -11.332   7.413  71.161  1.00  0.00    -0.291 A  
BRANCH  22  25
HETATM   25  C   UNL     1      -9.809   7.760  73.230  1.00  0.00    -0.362 C  
HETATM   26  C   UNL     1     -10.254   6.598  74.151  1.00  0.00    -0.390 C  
HETATM   27  C   UNL     1      -9.355   5.375  74.000  1.00  0.00    -0.133 C  
HETATM   28  C   UNL     1      -7.920   5.709  74.379  1.00  0.00    -0.104 C  
HETATM   29  C   UNL     1      -7.382   6.932  73.646  1.00  0.00    -0.083 C  
HETATM   30  C   UNL     1      -8.356   8.121  73.646  1.00  0.00    -0.305 C  
ENDBRANCH  22  25
ENDBRANCH  14  15
ENDBRANCH  13  14
ENDBRANCH  11  13
ENDBRANCH   9  11
ENDBRANCH   5   9
BRANCH   8  31
HETATM   31  C   UNL     1     -12.229  13.462  68.732  1.00  0.00    -0.115 C  
BRANCH  31  32
HETATM   32  N   UNL     1     -11.666  14.797  68.413  1.00  0.00    -0.318 NA 
HETATM   33  O   UNL     1     -10.684  17.512  67.379  1.00  0.00    -0.333 OA 
HETATM   34  O   UNL     1      -8.982  18.113  68.721  1.00  0.00    -0.295 OA 
HETATM   35  C   UNL     1     -11.686  15.697  69.597  1.00  0.00    -0.361 C  
HETATM   36  C   UNL     1      -9.887  17.323  68.469  1.00  0.00    -0.307 C  
HETATM   37  C   UNL     1     -10.179  14.713  68.548  1.00  0.00    -0.240 C  
HETATM   38  C   UNL     1     -10.215  16.060  69.294  1.00  0.00    -0.249 C  
ENDBRANCH  31  32
ENDBRANCH   8  31
ENDBRANCH   2   3
TORSDOF 9
ENDMDL
MODEL       38
REMARK 921   NORMALIZED FREE ENERGY PREDICTED BY IDOCK:   -7.40 KCAL/MOL
REMARK 922        TOTAL FREE ENERGY PREDICTED BY IDOCK:  -12.72 KCAL/MOL
REMARK 923 INTER-LIGAND FREE ENERGY PREDICTED BY IDOCK:  -10.60 KCAL/MOL
REMARK 924 INTRA-LIGAND FREE ENERGY PREDICTED BY IDOCK:   -2.12 KCAL/MOL
REMARK 927      BINDING AFFINITY PREDICTED BY RF-SCORE:    0.00 PKD
ROOT
HETATM    1  C   UNL     1     -11.983  13.381  64.869  1.00  0.00    -0.414 C  
HETATM    2  C   UNL     1     -11.717  13.962  66.248  1.00  0.00    -0.402 C  
ENDROOT
BRANCH   2   3
HETATM    3  C   UNL     1     -11.454  12.904  67.296  1.00  0.00    -0.388 A  
HETATM    4  C   UNL     1     -10.794  11.760  66.823  1.00  0.00    -0.312 A  
HETATM    5  C   UNL     1     -10.629  10.621  67.616  1.00  0.00    -0.288 A  
HETATM    6  C   UNL     1     -11.091  10.632  68.926  1.00  0.00    -0.314 A  
HETATM    7  C   UNL     1     -11.690  11.795  69.438  1.00  0.00    -0.405 A  
HETATM    8  C   UNL     1     -11.864  12.954  68.646  1.00  0.00    -0.347 A  
BRANCH   5   9
HETATM    9  C   UNL     1     -10.084   9.415  66.933  1.00  0.00    -0.248 C  
HETATM   10  C   UNL     1      -8.655   9.390  66.458  1.00  0.00    -0.142 C  
BRANCH   9  11
HETATM   11  N   UNL     1     -10.903   8.413  66.779  1.00  0.00    -0.255 NA 
HETATM   12  H   UNL     1     -11.912   8.511  66.666  1.00  0.00     0.000 HD 
BRANCH  11  13
HETATM   13  O   UNL     1     -10.234   7.189  66.787  1.00  0.00    -0.235 OA 
BRANCH  13  14
HETATM   14  C   UNL     1     -10.974   6.298  67.614  1.00  0.00    -0.342 C  
BRANCH  14  15
HETATM   15  C   UNL     1     -10.776   6.730  69.034  1.00  0.00    -0.280 A  
HETATM   16  F   UNL     1     -12.738   8.820  72.985  1.00  0.00    -0.405 F  
HETATM   17  F   UNL     1     -13.416   9.294  70.988  1.00  0.00    -0.338 F  
HETATM   18  C   UNL     1      -9.521   6.671  69.621  1.00  0.00    -0.144 A  
HETATM   19  F   UNL     1     -13.942   7.385  71.876  1.00  0.00    -0.392 F  
HETATM   20  C   UNL     1      -9.360   7.032  70.955  1.00  0.00    -0.159 A  
HETATM   21  C   UNL     1     -11.835   7.265  69.769  1.00  0.00     0.231 A  
HETATM   22  C   UNL     1     -10.445   7.426  71.766  1.00  0.00    -0.221 A  
HETATM   23  C   UNL     1     -12.917   8.276  71.751  1.00  0.00    -0.344 C  
HETATM   24  C   UNL     1     -11.688   7.647  71.122  1.00  0.00    -0.311 A  
BRANCH  22  25
HETATM   25  C   UNL     1     -10.263   7.555  73.286  1.00  0.00    -0.398 C  
HETATM   26  C   UNL     1     -10.185   6.174  73.981  1.00  0.00    -0.309 C  
HETATM   27  C   UNL     1      -8.902   5.428  73.624  1.00  0.00    -0.125 C  
HETATM   28  C   UNL     1      -7.679   6.214  74.070  1.00  0.00    -0.089 C  
HETATM   29  C   UNL     1      -7.683   7.654  73.572  1.00  0.00    -0.153 C  
HETATM   30  C   UNL     1      -9.031   8.365  73.773  1.00  0.00     0.029 C  
ENDBRANCH  22  25
ENDBRANCH  14  15
ENDBRANCH  13  14
ENDBRANCH  11  13
ENDBRANCH   9  11
ENDBRANCH   5   9
BRANCH   8  31
HETATM   31  C   UNL     1     -12.602  14.156  69.223  1.00  0.00     0.174 C  
BRANCH  31  32
HETATM   32  N   UNL     1     -12.543  14.311  70.697  1.00  0.00    -0.340 NA 
HETATM   33  O   UNL     1     -12.548  14.229  73.762  1.00  0.00    -0.292 OA 
HETATM   34  O   UNL     1     -12.581  16.373  74.444  1.00  0.00    -0.730 OA 
HETATM   35  C   UNL     1     -11.405  15.173  71.113  1.00  0.00    -0.318 C  
HETATM   36  C   UNL     1     -12.505  15.570  73.518  1.00  0.00    -0.553 C  
HETATM   37  C   UNL     1     -13.474  15.416  71.081  1.00  0.00    -0.493 C  
HETATM   38  C   UNL     1     -12.381  15.948  72.026  1.00  0.00    -0.550 C  
ENDBRANCH  31  32
ENDBRANCH   8  31
ENDBRANCH   2   3
TORSDOF 9
ENDMDL
MODEL       39
REMARK 921   NORMALIZED FREE ENERGY PREDICTED BY IDOCK:   -7.40 KCAL/MOL
REMARK 922        TOTAL FREE ENERGY PREDICTED BY IDOCK:  -12.72 KCAL/MOL
REMARK 923 INTER-LIGAND FREE ENERGY PREDICTED BY IDOCK:  -11.13 KCAL/MOL
REMARK 924 INTRA-LIGAND FREE ENERGY PREDICTED BY IDOCK:   -1.58 KCAL/MOL
REMARK 927      BINDING AFFINITY PREDICTED BY RF-SCORE:    0.00 PKD
ROOT
HETATM    1  C   UNL     1     -12.062  13.890  69.690  1.00  0.00    -0.404 C  
HETATM    2  C   UNL     1     -11.823  15.298  69.168  1.00  0.00    -0.345 C  
ENDROOT
BRANCH   2   3
HETATM    3  C   UNL     1     -11.466  15.332  67.699  1.00  0.00    -0.287 A  
HETATM    4  C   UNL     1     -11.821  14.180  66.981  1.00  0.00    -0.458 A  
HETATM    5  C   UNL     1     -11.411  13.977  65.661  1.00  0.00    -0.319 A  
HETATM    6  C   UNL     1     -10.669  14.960  65.020  1.00  0.00    -0.451 A  
HETATM    7  C   UNL     1     -10.366  16.151  65.701  1.00  0.00    -0.405 A  
HETATM    8  C   UNL     1     -10.773  16.369  67.039  1.00  0.00    -0.217 A  
BRANCH   5   9
HETATM    9  C   UNL     1     -11.694  12.634  65.081  1.00  0.00    -0.367 C  
HETATM   10  C   UNL     1     -12.155  12.502  63.655  1.00  0.00    -0.642 C  
BRANCH   9  11
HETATM   11  N   UNL     1     -11.520  11.611  65.871  1.00  0.00    -0.294 NA 
HETATM   12  H   UNL     1     -12.225  11.265  66.522  1.00  0.00     0.000 HD 
BRANCH  11  13
HETATM   13  O   UNL     1     -10.254  11.046  65.719  1.00  0.00    -0.244 OA 
BRANCH  13  14
HETATM   14  C   UNL     1      -9.589  11.132  66.973  1.00  0.00    -0.181 C  
BRANCH  14  15
HETATM   15  C   UNL     1     -10.078  10.000  67.823  1.00  0.00    -0.222 A  
HETATM   16  F   UNL     1     -11.029   5.221  68.115  1.00  0.00    -0.166 F  
HETATM   17  F   UNL     1     -11.103   6.286  66.236  1.00  0.00    -0.247 F  
HETATM   18  C   UNL     1     -10.627  10.242  69.073  1.00  0.00    -0.247 A  
HETATM   19  F   UNL     1      -9.182   5.844  67.145  1.00  0.00    -0.117 F  
HETATM   20  C   UNL     1     -11.036   9.177  69.871  1.00  0.00    -0.218 A  
HETATM   21  C   UNL     1     -10.054   8.689  67.343  1.00  0.00    -0.292 A  
HETATM   22  C   UNL     1     -10.876   7.833  69.473  1.00  0.00    -0.157 A  
HETATM   23  C   UNL     1     -10.451   6.249  67.437  1.00  0.00    -0.248 C  
HETATM   24  C   UNL     1     -10.474   7.597  68.135  1.00  0.00    -0.233 A  
BRANCH  22  25
HETATM   25  C   UNL     1     -11.092   6.699  70.487  1.00  0.00    -0.359 C  
HETATM   26  C   UNL     1      -9.766   6.251  71.148  1.00  0.00    -0.194 C  
HETATM   27  C   UNL     1      -9.196   7.325  72.069  1.00  0.00    -0.149 C  
HETATM   28  C   UNL     1     -10.164   7.637  73.199  1.00  0.00    -0.401 C  
HETATM   29  C   UNL     1     -11.568   7.966  72.705  1.00  0.00    -0.435 C  
HETATM   30  C   UNL     1     -12.088   6.982  71.645  1.00  0.00    -0.384 C  
ENDBRANCH  22  25
ENDBRANCH  14  15
ENDBRANCH  13  14
ENDBRANCH  11  13
ENDBRANCH   9  11
ENDBRANCH   5   9
BRANCH   8  31
HETATM   31  C   UNL     1     -10.340  17.640  67.759  1.00  0.00    -0.365 C  
BRANCH  31  32
HETATM   32  N   UNL     1      -9.286  18.441  67.092  1.00  0.00    -0.260 NA 
HETATM   33  O   UNL     1      -7.091  19.788  65.426  1.00  0.00    -0.305 OA 
HETATM   34  O   UNL     1      -6.133  21.314  66.773  1.00  0.00    -0.280 OA 
HETATM   35  C   UNL     1      -9.559  19.899  67.190  1.00  0.00    -0.381 C  
HETATM   36  C   UNL     1      -7.017  20.479  66.599  1.00  0.00    -0.256 C  
HETATM   37  C   UNL     1      -8.163  18.623  68.063  1.00  0.00    -0.272 C  
HETATM   38  C   UNL     1      -8.095  20.102  67.638  1.00  0.00    -0.334 C  
ENDBRANCH  31  32
ENDBRANCH   8  31
ENDBRANCH   2   3
TORSDOF 9
ENDMDL
MODEL       40
REMARK 921   NORMALIZED FREE ENERGY PREDICTED BY IDOCK:   -7.38 KCAL/MOL
REMARK 922        TOTAL FREE ENERGY PREDICTED BY IDOCK:  -12.69 KCAL/MOL
REMARK 923 INTER-LIGAND FREE ENERGY PREDICTED BY IDOCK:  -11.48 KCAL/MOL
REMARK 924 INTRA-LIGAND FREE ENERGY PREDICTED BY IDOCK:   -1.21 KCAL/MOL
REMARK 927      BINDING AFFINITY PREDICTED BY RF-SCORE:    0.00 PKD
ROOT
HETATM    1  C   UNL     1     -14.398   8.563  71.580  1.00  0.00    -0.497 C  
HETATM    2  C   UNL     1     -13.345   9.401  72.287  1.00  0.00    -0.539 C  
ENDROOT
BRANCH   2   3
HETATM    3  C   UNL     1     -12.244   9.870  71.362  1.00  0.00    -0.499 A  
HETATM    4  C   UNL     1     -12.416  11.167  70.854  1.00  0.00    -0.509 A  
HETATM    5  C   UNL     1     -11.587  11.686  69.857  1.00  0.00    -0.366 A  
HETATM    6  C   UNL     1     -10.532  10.918  69.382  1.00  0.00    -0.205 A  
HETATM    7  C   UNL     1     -10.302   9.645  69.930  1.00  0.00    -0.282 A  
HETATM    8  C   UNL     1     -11.135   9.106  70.939  1.00  0.00    -0.356 A  
BRANCH   5   9
HETATM    9  C   UNL     1     -11.994  12.995  69.275  1.00  0.00    -0.278 C  
HETATM   10  C   UNL     1     -12.525  14.090  70.162  1.00  0.00    -0.380 C  
BRANCH   9  11
HETATM   11  N   UNL     1     -11.863  13.125  67.985  1.00  0.00    -0.362 NA 
HETATM   12  H   UNL     1     -11.662  12.352  67.350  1.00  0.00     0.000 HD 
BRANCH  11  13
HETATM   13  O   UNL     1     -12.031  14.447  67.576  1.00  0.00    -0.384 OA 
BRANCH  13  14
HETATM   14  C   UNL     1     -11.474  14.569  66.272  1.00  0.00    -0.358 C  
BRANCH  14  15
HETATM   15  C   UNL     1     -10.425  15.637  66.326  1.00  0.00    -0.313 A  
HETATM   16  F   UNL     1      -9.457  20.420  66.375  1.00  0.00    -0.441 F  
HETATM   17  F   UNL     1     -11.238  19.627  65.443  1.00  0.00    -0.432 F  
HETATM   18  C   UNL     1      -9.080  15.310  66.235  1.00  0.00    -0.337 A  
HETATM   19  F   UNL     1     -11.097  19.691  67.608  1.00  0.00    -0.538 F  
HETATM   20  C   UNL     1      -8.114  16.307  66.332  1.00  0.00    -0.334 A  
HETATM   21  C   UNL     1     -10.785  16.984  66.396  1.00  0.00    -0.075 A  
HETATM   22  C   UNL     1      -8.447  17.658  66.563  1.00  0.00    -0.294 A  
HETATM   23  C   UNL     1     -10.374  19.422  66.482  1.00  0.00    -0.469 C  
HETATM   24  C   UNL     1      -9.818  18.011  66.486  1.00  0.00    -0.353 A  
BRANCH  22  25
HETATM   25  C   UNL     1      -7.350  18.669  66.927  1.00  0.00    -0.222 C  
HETATM   26  C   UNL     1      -7.199  18.838  68.458  1.00  0.00    -0.318 C  
HETATM   27  C   UNL     1      -6.633  17.583  69.117  1.00  0.00    -0.246 C  
HETATM   28  C   UNL     1      -5.248  17.267  68.574  1.00  0.00    -0.137 C  
HETATM   29  C   UNL     1      -5.207  17.205  67.052  1.00  0.00    -0.188 C  
HETATM   30  C   UNL     1      -5.927  18.382  66.373  1.00  0.00    -0.195 C  
ENDBRANCH  22  25
ENDBRANCH  14  15
ENDBRANCH  13  14
ENDBRANCH  11  13
ENDBRANCH   9  11
ENDBRANCH   5   9
BRANCH   8  31
HETATM   31  C   UNL     1     -10.895   7.685  71.435  1.00  0.00    -0.225 C  
BRANCH  31  32
HETATM   32  N   UNL     1     -10.037   6.833  70.577  1.00  0.00    -0.183 NA 
HETATM   33  O   UNL     1      -8.066   5.424  68.697  1.00  0.00    -0.090 OA 
HETATM   34  O   UNL     1      -8.973   3.420  68.228  1.00  0.00    -0.110 OA 
HETATM   35  C   UNL     1      -9.764   5.515  71.211  1.00  0.00    -0.166 C  
HETATM   36  C   UNL     1      -9.024   4.469  68.864  1.00  0.00    -0.110 C  
HETATM   37  C   UNL     1     -10.920   6.134  69.592  1.00  0.00    -0.389 C  
HETATM   38  C   UNL     1     -10.133   4.840  69.872  1.00  0.00    -0.299 C  
ENDBRANCH  31  32
ENDBRANCH   8  31
ENDBRANCH   2   3
TORSDOF 9
ENDMDL
MODEL       41
REMARK 921   NORMALIZED FREE ENERGY PREDICTED BY IDOCK:   -7.37 KCAL/MOL
REMARK 922        TOTAL FREE ENERGY PREDICTED BY IDOCK:  -12.68 KCAL/MOL
REMARK 923 INTER-LIGAND FREE ENERGY PREDICTED BY IDOCK:  -11.05 KCAL/MOL
REMARK 924 INTRA-LIGAND FREE ENERGY PREDICTED BY IDOCK:   -1.63 KCAL/MOL
REMARK 927      BINDING AFFINITY PREDICTED BY RF-SCORE:    0.00 PKD
ROOT
HETATM    1  C   UNL     1     -10.854  19.814  67.328  1.00  0.00    -0.469 C  
HETATM    2  C   UNL     1     -10.215  19.443  66.000  1.00  0.00    -0.540 C  
ENDROOT
BRANCH   2   3
HETATM    3  C   UNL     1      -9.617  18.054  65.999  1.00  0.00    -0.085 A  
HETATM    4  C   UNL     1     -10.529  17.020  65.740  1.00  0.00    -0.261 A  
HETATM    5  C   UNL     1     -10.179  15.675  65.873  1.00  0.00    -0.372 A  
HETATM    6  C   UNL     1      -8.878  15.342  66.228  1.00  0.00    -0.302 A  
HETATM    7  C   UNL     1      -7.933  16.364  66.420  1.00  0.00    -0.329 A  
HETATM    8  C   UNL     1      -8.274  17.730  66.291  1.00  0.00    -0.252 A  
BRANCH   5   9
HETATM    9  C   UNL     1     -11.290  14.689  65.754  1.00  0.00    -0.340 C  
HETATM   10  C   UNL     1     -12.103  14.310  66.963  1.00  0.00    -0.424 C  
BRANCH   9  11
HETATM   11  N   UNL     1     -11.503  14.192  64.568  1.00  0.00    -0.481 NA 
HETATM   12  H   UNL     1     -12.311  14.421  63.989  1.00  0.00     0.000 HD 
BRANCH  11  13
HETATM   13  O   UNL     1     -10.492  13.311  64.184  1.00  0.00    -0.414 OA 
BRANCH  13  14
HETATM   14  C   UNL     1     -11.092  12.043  63.947  1.00  0.00    -0.405 C  
BRANCH  14  15
HETATM   15  C   UNL     1     -10.509  11.076  64.930  1.00  0.00    -0.371 A  
HETATM   16  F   UNL     1      -9.954   9.848  69.622  1.00  0.00    -0.187 F  
HETATM   17  F   UNL     1     -10.262  11.897  69.008  1.00  0.00    -0.205 F  
HETATM   18  C   UNL     1      -9.640  10.079  64.510  1.00  0.00    -0.346 A  
HETATM   19  F   UNL     1     -11.921  10.500  68.955  1.00  0.00    -0.315 F  
HETATM   20  C   UNL     1      -9.142   9.160  65.427  1.00  0.00    -0.271 A  
HETATM   21  C   UNL     1     -10.773  11.204  66.295  1.00  0.00    -0.298 A  
HETATM   22  C   UNL     1      -9.519   9.171  66.787  1.00  0.00    -0.230 A  
HETATM   23  C   UNL     1     -10.588  10.609  68.689  1.00  0.00    -0.203 C  
HETATM   24  C   UNL     1     -10.267  10.285  67.242  1.00  0.00    -0.267 A  
BRANCH  22  25
HETATM   25  C   UNL     1      -9.157   7.986  67.695  1.00  0.00    -0.144 C  
HETATM   26  C   UNL     1     -10.413   7.239  68.204  1.00  0.00    -0.244 C  
HETATM   27  C   UNL     1     -11.132   6.500  67.080  1.00  0.00    -0.411 C  
HETATM   28  C   UNL     1     -10.223   5.453  66.455  1.00  0.00    -0.268 C  
HETATM   29  C   UNL     1      -8.874   6.017  66.024  1.00  0.00    -0.159 C  
HETATM   30  C   UNL     1      -8.216   6.908  67.091  1.00  0.00    -0.118 C  
ENDBRANCH  22  25
ENDBRANCH  14  15
ENDBRANCH  13  14
ENDBRANCH  11  13
ENDBRANCH   9  11
ENDBRANCH   5   9
BRANCH   8  31
HETATM   31  C   UNL     1      -7.233  18.799  66.600  1.00  0.00    -0.217 C  
BRANCH  31  32
HETATM   32  N   UNL     1      -6.667  18.780  67.970  1.00  0.00    -0.221 NA 
HETATM   33  O   UNL     1      -5.494  18.323  70.767  1.00  0.00    -0.249 OA 
HETATM   34  O   UNL     1      -5.840  20.230  71.909  1.00  0.00    -0.539 OA 
HETATM   35  C   UNL     1      -5.731  19.915  68.194  1.00  0.00    -0.216 C  
HETATM   36  C   UNL     1      -5.907  19.620  70.845  1.00  0.00    -0.204 C  
HETATM   37  C   UNL     1      -7.643  19.454  68.881  1.00  0.00    -0.363 C  
HETATM   38  C   UNL     1      -6.460  20.199  69.526  1.00  0.00    -0.332 C  
ENDBRANCH  31  32
ENDBRANCH   8  31
ENDBRANCH   2   3
TORSDOF 9
ENDMDL
MODEL       42
REMARK 921   NORMALIZED FREE ENERGY PREDICTED BY IDOCK:   -7.36 KCAL/MOL
REMARK 922        TOTAL FREE ENERGY PREDICTED BY IDOCK:  -12.66 KCAL/MOL
REMARK 923 INTER-LIGAND FREE ENERGY PREDICTED BY IDOCK:  -10.73 KCAL/MOL
REMARK 924 INTRA-LIGAND FREE ENERGY PREDICTED BY IDOCK:   -1.93 KCAL/MOL
REMARK 927      BINDING AFFINITY PREDICTED BY RF-SCORE:    0.00 PKD
ROOT
HETATM    1  C   UNL     1     -11.269  10.905  69.786  1.00  0.00    -0.351 C  
HETATM    2  C   UNL     1     -11.786  11.778  68.654  1.00  0.00    -0.389 C  
ENDROOT
BRANCH   2   3
HETATM    3  C   UNL     1     -11.289  11.341  67.294  1.00  0.00    -0.329 A  
HETATM    4  C   UNL     1     -10.529  10.161  67.297  1.00  0.00    -0.313 A  
HETATM    5  C   UNL     1      -9.853   9.715  66.159  1.00  0.00    -0.334 A  
HETATM    6  C   UNL     1      -9.967  10.432  64.975  1.00  0.00    -0.399 A  
HETATM    7  C   UNL     1     -10.782  11.576  64.936  1.00  0.00    -0.357 A  
HETATM    8  C   UNL     1     -11.471  12.040  66.081  1.00  0.00    -0.401 A  
BRANCH   5   9
HETATM    9  C   UNL     1      -8.934   8.558  66.349  1.00  0.00    -0.165 C  
HETATM   10  C   UNL     1      -8.000   8.514  67.529  1.00  0.00    -0.106 C  
BRANCH   9  11
HETATM   11  N   UNL     1      -8.992   7.615  65.451  1.00  0.00    -0.378 NA 
HETATM   12  H   UNL     1      -9.263   7.767  64.480  1.00  0.00     0.000 HD 
BRANCH  11  13
HETATM   13  O   UNL     1      -8.639   6.373  65.978  1.00  0.00    -0.138 OA 
BRANCH  13  14
HETATM   14  C   UNL     1      -9.827   5.597  66.085  1.00  0.00    -0.079 C  
BRANCH  14  15
HETATM   15  C   UNL     1     -10.146   5.459  67.542  1.00  0.00    -0.220 A  
HETATM   16  F   UNL     1      -9.668   2.787  71.599  1.00  0.00    -0.189 F  
HETATM   17  F   UNL     1      -9.596   1.896  69.631  1.00  0.00    -0.178 F  
HETATM   18  C   UNL     1     -11.031   6.333  68.156  1.00  0.00    -0.412 A  
HETATM   19  F   UNL     1      -7.914   3.069  70.341  1.00  0.00    -0.043 F  
HETATM   20  C   UNL     1     -11.284   6.221  69.520  1.00  0.00    -0.500 A  
HETATM   21  C   UNL     1      -9.616   4.406  68.290  1.00  0.00    -0.199 A  
HETATM   22  C   UNL     1     -10.638   5.264  70.330  1.00  0.00    -0.278 A  
HETATM   23  C   UNL     1      -9.277   3.033  70.319  1.00  0.00    -0.143 C  
HETATM   24  C   UNL     1      -9.870   4.271  69.673  1.00  0.00    -0.244 A  
BRANCH  22  25
HETATM   25  C   UNL     1     -10.746   5.353  71.860  1.00  0.00    -0.275 C  
HETATM   26  C   UNL     1      -9.433   5.856  72.507  1.00  0.00    -0.155 C  
HETATM   27  C   UNL     1      -9.158   7.319  72.176  1.00  0.00    -0.149 C  
HETATM   28  C   UNL     1     -10.273   8.210  72.701  1.00  0.00    -0.388 C  
HETATM   29  C   UNL     1     -11.657   7.753  72.256  1.00  0.00    -0.390 C  
HETATM   30  C   UNL     1     -11.886   6.243  72.427  1.00  0.00    -0.272 C  
ENDBRANCH  22  25
ENDBRANCH  14  15
ENDBRANCH  13  14
ENDBRANCH  11  13
ENDBRANCH   9  11
ENDBRANCH   5   9
BRANCH   8  31
HETATM   31  C   UNL     1     -12.267  13.337  66.007  1.00  0.00    -0.424 C  
BRANCH  31  32
HETATM   32  N   UNL     1     -11.525  14.577  66.338  1.00  0.00    -0.354 NA 
HETATM   33  O   UNL     1     -10.342  17.266  67.219  1.00  0.00    -0.319 OA 
HETATM   34  O   UNL     1      -8.549  17.618  65.908  1.00  0.00    -0.526 OA 
HETATM   35  C   UNL     1     -10.093  14.299  66.626  1.00  0.00    -0.273 C  
HETATM   36  C   UNL     1      -9.457  16.871  66.261  1.00  0.00    -0.271 C  
HETATM   37  C   UNL     1     -11.105  15.220  65.055  1.00  0.00    -0.426 C  
HETATM   38  C   UNL     1      -9.720  15.464  65.682  1.00  0.00    -0.366 C  
ENDBRANCH  31  32
ENDBRANCH   8  31
ENDBRANCH   2   3
TORSDOF 9
ENDMDL
MODEL       43
REMARK 921   NORMALIZED FREE ENERGY PREDICTED BY IDOCK:   -7.36 KCAL/MOL
REMARK 922        TOTAL FREE ENERGY PREDICTED BY IDOCK:  -12.65 KCAL/MOL
REMARK 923 INTER-LIGAND FREE ENERGY PREDICTED BY IDOCK:  -10.17 KCAL/MOL
REMARK 924 INTRA-LIGAND FREE ENERGY PREDICTED BY IDOCK:   -2.49 KCAL/MOL
REMARK 927      BINDING AFFINITY PREDICTED BY RF-SCORE:    0.00 PKD
ROOT
HETATM    1  C   UNL     1     -10.012  11.750  63.050  1.00  0.00    -0.272 C  
HETATM    2  C   UNL     1     -10.994  11.101  64.012  1.00  0.00    -0.269 C  
ENDROOT
BRANCH   2   3
HETATM    3  C   UNL     1     -10.348  10.646  65.301  1.00  0.00    -0.321 A  
HETATM    4  C   UNL     1      -9.399   9.624  65.155  1.00  0.00    -0.322 A  
HETATM    5  C   UNL     1      -8.839   8.972  66.257  1.00  0.00    -0.180 A  
HETATM    6  C   UNL     1      -9.194   9.374  67.538  1.00  0.00    -0.139 A  
HETATM    7  C   UNL     1     -10.089  10.445  67.702  1.00  0.00    -0.223 A  
HETATM    8  C   UNL     1     -10.666  11.112  66.596  1.00  0.00    -0.322 A  
BRANCH   5   9
HETATM    9  C   UNL     1      -7.992   7.783  65.960  1.00  0.00    -0.108 C  
HETATM   10  C   UNL     1      -6.515   7.810  66.248  1.00  0.00    -0.046 C  
BRANCH   9  11
HETATM   11  N   UNL     1      -8.599   6.749  65.449  1.00  0.00    -0.307 NA 
HETATM   12  H   UNL     1      -9.195   6.787  64.622  1.00  0.00     0.000 HD 
BRANCH  11  13
HETATM   13  O   UNL     1      -8.337   5.584  66.170  1.00  0.00    -0.113 OA 
BRANCH  13  14
HETATM   14  C   UNL     1      -9.576   4.915  66.373  1.00  0.00    -0.172 C  
BRANCH  14  15
HETATM   15  C   UNL     1     -10.092   5.319  67.720  1.00  0.00    -0.205 A  
HETATM   16  F   UNL     1     -10.182   4.393  72.511  1.00  0.00    -0.204 F  
HETATM   17  F   UNL     1      -9.848   2.832  71.054  1.00  0.00    -0.221 F  
HETATM   18  C   UNL     1     -11.048   6.317  67.839  1.00  0.00    -0.360 A  
HETATM   19  F   UNL     1      -8.272   4.264  71.476  1.00  0.00    -0.082 F  
HETATM   20  C   UNL     1     -11.485   6.714  69.100  1.00  0.00    -0.199 A  
HETATM   21  C   UNL     1      -9.673   4.651  68.872  1.00  0.00    -0.236 A  
HETATM   22  C   UNL     1     -10.960   6.163  70.287  1.00  0.00    -0.417 A  
HETATM   23  C   UNL     1      -9.620   4.158  71.295  1.00  0.00    -0.172 C  
HETATM   24  C   UNL     1     -10.114   5.033  70.159  1.00  0.00    -0.338 A  
BRANCH  22  25
HETATM   25  C   UNL     1     -11.275   6.814  71.642  1.00  0.00    -0.293 C  
HETATM   26  C   UNL     1     -10.119   7.718  72.135  1.00  0.00    -0.265 C  
HETATM   27  C   UNL     1      -9.963   8.966  71.271  1.00  0.00    -0.358 C  
HETATM   28  C   UNL     1     -11.228   9.812  71.311  1.00  0.00    -0.417 C  
HETATM   29  C   UNL     1     -12.484   9.016  70.979  1.00  0.00    -0.210 C  
HETATM   30  C   UNL     1     -12.568   7.671  71.719  1.00  0.00    -0.359 C  
ENDBRANCH  22  25
ENDBRANCH  14  15
ENDBRANCH  13  14
ENDBRANCH  11  13
ENDBRANCH   9  11
ENDBRANCH   5   9
BRANCH   8  31
HETATM   31  C   UNL     1     -11.700  12.206  66.831  1.00  0.00    -0.301 C  
BRANCH  31  32
HETATM   32  N   UNL     1     -11.405  13.523  66.217  1.00  0.00    -0.303 NA 
HETATM   33  O   UNL     1     -10.935  16.079  64.589  1.00  0.00    -0.590 OA 
HETATM   34  O   UNL     1      -9.507  17.333  65.794  1.00  0.00    -0.527 OA 
HETATM   35  C   UNL     1     -11.707  14.642  67.149  1.00  0.00    -0.373 C  
HETATM   36  C   UNL     1     -10.204  16.325  65.714  1.00  0.00    -0.367 C  
HETATM   37  C   UNL     1      -9.949  13.805  66.409  1.00  0.00    -0.297 C  
HETATM   38  C   UNL     1     -10.325  15.243  66.809  1.00  0.00    -0.279 C  
ENDBRANCH  31  32
ENDBRANCH   8  31
ENDBRANCH   2   3
TORSDOF 9
ENDMDL
MODEL       44
REMARK 921   NORMALIZED FREE ENERGY PREDICTED BY IDOCK:   -7.34 KCAL/MOL
REMARK 922        TOTAL FREE ENERGY PREDICTED BY IDOCK:  -12.64 KCAL/MOL
REMARK 923 INTER-LIGAND FREE ENERGY PREDICTED BY IDOCK:  -10.69 KCAL/MOL
REMARK 924 INTRA-LIGAND FREE ENERGY PREDICTED BY IDOCK:   -1.94 KCAL/MOL
REMARK 927      BINDING AFFINITY PREDICTED BY RF-SCORE:    0.00 PKD
ROOT
HETATM    1  C   UNL     1     -11.539  12.239  68.981  1.00  0.00    -0.368 C  
HETATM    2  C   UNL     1     -11.382  13.744  68.836  1.00  0.00    -0.328 C  
ENDROOT
BRANCH   2   3
HETATM    3  C   UNL     1     -11.248  14.189  67.397  1.00  0.00    -0.334 A  
HETATM    4  C   UNL     1     -11.540  13.200  66.445  1.00  0.00    -0.394 A  
HETATM    5  C   UNL     1     -11.300  13.391  65.083  1.00  0.00    -0.316 A  
HETATM    6  C   UNL     1     -10.798  14.610  64.645  1.00  0.00    -0.332 A  
HETATM    7  C   UNL     1     -10.566  15.636  65.576  1.00  0.00    -0.422 A  
HETATM    8  C   UNL     1     -10.804  15.455  66.959  1.00  0.00    -0.320 A  
BRANCH   5   9
HETATM    9  C   UNL     1     -11.476  12.198  64.208  1.00  0.00    -0.367 C  
HETATM   10  C   UNL     1     -12.808  11.917  63.564  1.00  0.00    -0.435 C  
BRANCH   9  11
HETATM   11  N   UNL     1     -10.431  11.437  64.043  1.00  0.00    -0.345 NA 
HETATM   12  H   UNL     1      -9.754  11.551  63.288  1.00  0.00     0.000 HD 
BRANCH  11  13
HETATM   13  O   UNL     1     -10.347  10.449  65.023  1.00  0.00    -0.306 OA 
BRANCH  13  14
HETATM   14  C   UNL     1      -9.132  10.648  65.735  1.00  0.00    -0.186 C  
BRANCH  14  15
HETATM   15  C   UNL     1      -9.228   9.881  67.018  1.00  0.00    -0.164 A  
HETATM   16  F   UNL     1      -7.006   8.518  71.144  1.00  0.00    -0.047 F  
HETATM   17  F   UNL     1      -5.894   8.983  69.350  1.00  0.00    -0.034 F  
HETATM   18  C   UNL     1     -10.321   9.066  67.272  1.00  0.00    -0.342 A  
HETATM   19  F   UNL     1      -6.798  10.587  70.500  1.00  0.00    -0.150 F  
HETATM   20  C   UNL     1     -10.420   8.395  68.488  1.00  0.00    -0.201 A  
HETATM   21  C   UNL     1      -8.188   9.918  67.948  1.00  0.00    -0.113 A  
HETATM   22  C   UNL     1      -9.458   8.540  69.509  1.00  0.00    -0.165 A  
HETATM   23  C   UNL     1      -7.022   9.320  70.046  1.00  0.00    -0.060 C  
HETATM   24  C   UNL     1      -8.266   9.235  69.183  1.00  0.00    -0.111 A  
BRANCH  22  25
HETATM   25  C   UNL     1      -9.743   7.998  70.918  1.00  0.00    -0.183 C  
HETATM   26  C   UNL     1     -10.500   9.025  71.793  1.00  0.00    -0.418 C  
HETATM   27  C   UNL     1     -11.927   9.251  71.303  1.00  0.00    -0.414 C  
HETATM   28  C   UNL     1     -12.727   7.958  71.355  1.00  0.00    -0.312 C  
HETATM   29  C   UNL     1     -12.033   6.802  70.644  1.00  0.00    -0.418 C  
HETATM   30  C   UNL     1     -10.544   6.670  71.003  1.00  0.00    -0.263 C  
ENDBRANCH  22  25
ENDBRANCH  14  15
ENDBRANCH  13  14
ENDBRANCH  11  13
ENDBRANCH   9  11
ENDBRANCH   5   9
BRANCH   8  31
HETATM   31  C   UNL     1     -10.450  16.570  67.936  1.00  0.00    -0.313 C  
BRANCH  31  32
HETATM   32  N   UNL     1      -9.709  17.723  67.368  1.00  0.00    -0.277 NA 
HETATM   33  O   UNL     1      -8.123  19.866  65.853  1.00  0.00    -0.356 OA 
HETATM   34  O   UNL     1      -7.410  21.329  67.406  1.00  0.00    -0.484 OA 
HETATM   35  C   UNL     1     -10.315  19.018  67.774  1.00  0.00    -0.417 C  
HETATM   36  C   UNL     1      -8.080  20.337  67.132  1.00  0.00    -0.335 C  
HETATM   37  C   UNL     1      -8.556  18.020  68.274  1.00  0.00    -0.287 C  
HETATM   38  C   UNL     1      -8.901  19.515  68.148  1.00  0.00    -0.378 C  
ENDBRANCH  31  32
ENDBRANCH   8  31
ENDBRANCH   2   3
TORSDOF 9
ENDMDL
MODEL       45
REMARK 921   NORMALIZED FREE ENERGY PREDICTED BY IDOCK:   -7.30 KCAL/MOL
REMARK 922        TOTAL FREE ENERGY PREDICTED BY IDOCK:  -12.57 KCAL/MOL
REMARK 923 INTER-LIGAND FREE ENERGY PREDICTED BY IDOCK:  -10.65 KCAL/MOL
REMARK 924 INTRA-LIGAND FREE ENERGY PREDICTED BY IDOCK:   -1.92 KCAL/MOL
REMARK 927      BINDING AFFINITY PREDICTED BY RF-SCORE:    0.00 PKD
ROOT
HETATM    1  C   UNL     1      -9.198   4.957  73.605  1.00  0.00    -0.122 C  
HETATM    2  C   UNL     1      -9.576   4.204  72.340  1.00  0.00    -0.193 C  
ENDROOT
BRANCH   2   3
HETATM    3  C   UNL     1     -10.202   5.091  71.287  1.00  0.00    -0.273 A  
HETATM    4  C   UNL     1     -10.987   6.138  71.792  1.00  0.00    -0.315 A  
HETATM    5  C   UNL     1     -11.773   6.940  70.961  1.00  0.00    -0.392 A  
HETATM    6  C   UNL     1     -11.746   6.728  69.588  1.00  0.00    -0.164 A  
HETATM    7  C   UNL     1     -10.910   5.730  69.060  1.00  0.00    -0.330 A  
HETATM    8  C   UNL     1     -10.111   4.910  69.890  1.00  0.00    -0.332 A  
BRANCH   5   9
HETATM    9  C   UNL     1     -12.700   7.887  71.641  1.00  0.00    -0.330 C  
HETATM   10  C   UNL     1     -14.190   7.696  71.543  1.00  0.00    -0.564 C  
BRANCH   9  11
HETATM   11  N   UNL     1     -12.149   8.863  72.307  1.00  0.00    -0.349 NA 
HETATM   12  H   UNL     1     -12.304   9.036  73.301  1.00  0.00     0.000 HD 
BRANCH  11  13
HETATM   13  O   UNL     1     -11.322   9.642  71.499  1.00  0.00    -0.381 OA 
BRANCH  13  14
HETATM   14  C   UNL     1     -12.056  10.802  71.122  1.00  0.00    -0.309 C  
BRANCH  14  15
HETATM   15  C   UNL     1     -11.726  11.100  69.692  1.00  0.00    -0.410 A  
HETATM   16  F   UNL     1      -9.698   9.511  65.546  1.00  0.00    -0.302 F  
HETATM   17  F   UNL     1      -9.051   8.795  67.479  1.00  0.00    -0.131 F  
HETATM   18  C   UNL     1     -11.931  12.368  69.169  1.00  0.00    -0.291 A  
HETATM   19  F   UNL     1     -10.953   8.133  66.670  1.00  0.00    -0.310 F  
HETATM   20  C   UNL     1     -11.663  12.619  67.827  1.00  0.00    -0.412 A  
HETATM   21  C   UNL     1     -11.140  10.127  68.879  1.00  0.00    -0.251 A  
HETATM   22  C   UNL     1     -11.220  11.611  66.946  1.00  0.00    -0.376 A  
HETATM   23  C   UNL     1     -10.152   9.230  66.797  1.00  0.00    -0.261 C  
HETATM   24  C   UNL     1     -10.852  10.367  67.517  1.00  0.00    -0.358 A  
BRANCH  22  25
HETATM   25  C   UNL     1     -11.195  11.869  65.432  1.00  0.00    -0.351 C  
HETATM   26  C   UNL     1     -12.520  12.490  64.926  1.00  0.00    -0.524 C  
HETATM   27  C   UNL     1     -12.712  13.916  65.434  1.00  0.00    -0.525 C  
HETATM   28  C   UNL     1     -11.590  14.819  64.944  1.00  0.00    -0.401 C  
HETATM   29  C   UNL     1     -10.204  14.263  65.251  1.00  0.00    -0.408 C  
HETATM   30  C   UNL     1     -10.052  12.774  64.899  1.00  0.00    -0.235 C  
ENDBRANCH  22  25
ENDBRANCH  14  15
ENDBRANCH  13  14
ENDBRANCH  11  13
ENDBRANCH   9  11
ENDBRANCH   5   9
BRANCH   8  31
HETATM   31  C   UNL     1      -9.292   3.783  69.272  1.00  0.00    -0.174 C  
BRANCH  31  32
HETATM   32  N   UNL     1      -9.398   3.633  67.801  1.00  0.00    -0.185 NA 
HETATM   33  O   UNL     1     -10.015   3.446  64.803  1.00  0.00    -0.156 OA 
HETATM   34  O   UNL     1      -8.412   2.141  63.915  1.00  0.00    -0.081 OA 
HETATM   35  C   UNL     1      -8.141   4.037  67.116  1.00  0.00    -0.096 C  
HETATM   36  C   UNL     1      -8.857   2.732  64.895  1.00  0.00    -0.119 C  
HETATM   37  C   UNL     1      -9.083   2.211  67.460  1.00  0.00    -0.157 C  
HETATM   38  C   UNL     1      -8.214   2.728  66.298  1.00  0.00    -0.086 C  
ENDBRANCH  31  32
ENDBRANCH   8  31
ENDBRANCH   2   3
TORSDOF 9
ENDMDL
MODEL       46
REMARK 921   NORMALIZED FREE ENERGY PREDICTED BY IDOCK:   -7.30 KCAL/MOL
REMARK 922        TOTAL FREE ENERGY PREDICTED BY IDOCK:  -12.57 KCAL/MOL
REMARK 923 INTER-LIGAND FREE ENERGY PREDICTED BY IDOCK:   -9.76 KCAL/MOL
REMARK 924 INTRA-LIGAND FREE ENERGY PREDICTED BY IDOCK:   -2.81 KCAL/MOL
REMARK 927      BINDING AFFINITY PREDICTED BY RF-SCORE:    0.00 PKD
ROOT
HETATM    1  C   UNL     1      -9.642  11.348  62.984  1.00  0.00    -0.397 C  
HETATM    2  C   UNL     1     -10.688  11.262  64.084  1.00  0.00    -0.436 C  
ENDROOT
BRANCH   2   3
HETATM    3  C   UNL     1     -10.156  10.654  65.362  1.00  0.00    -0.356 A  
HETATM    4  C   UNL     1      -9.233   9.613  65.178  1.00  0.00    -0.305 A  
HETATM    5  C   UNL     1      -8.779   8.831  66.242  1.00  0.00    -0.169 A  
HETATM    6  C   UNL     1      -9.216   9.115  67.530  1.00  0.00    -0.144 A  
HETATM    7  C   UNL     1     -10.085  10.199  67.741  1.00  0.00    -0.216 A  
HETATM    8  C   UNL     1     -10.555  10.998  66.672  1.00  0.00    -0.315 A  
BRANCH   5   9
HETATM    9  C   UNL     1      -7.952   7.645  65.884  1.00  0.00    -0.116 C  
HETATM   10  C   UNL     1      -6.515   7.559  66.325  1.00  0.00    -0.049 C  
BRANCH   9  11
HETATM   11  N   UNL     1      -8.540   6.716  65.185  1.00  0.00    -0.340 NA 
HETATM   12  H   UNL     1      -9.001   6.879  64.289  1.00  0.00     0.000 HD 
BRANCH  11  13
HETATM   13  O   UNL     1      -8.463   5.470  65.807  1.00  0.00    -0.123 OA 
BRANCH  13  14
HETATM   14  C   UNL     1      -9.792   4.987  65.971  1.00  0.00    -0.188 C  
BRANCH  14  15
HETATM   15  C   UNL     1     -10.226   5.323  67.364  1.00  0.00    -0.240 A  
HETATM   16  F   UNL     1     -10.106   4.108  72.090  1.00  0.00    -0.219 F  
HETATM   17  F   UNL     1      -9.897   2.630  70.527  1.00  0.00    -0.213 F  
HETATM   18  C   UNL     1     -11.141   6.340  67.592  1.00  0.00    -0.368 A  
HETATM   19  F   UNL     1      -8.256   3.986  70.950  1.00  0.00    -0.063 F  
HETATM   20  C   UNL     1     -11.501   6.672  68.895  1.00  0.00    -0.103 A  
HETATM   21  C   UNL     1      -9.772   4.573  68.451  1.00  0.00    -0.188 A  
HETATM   22  C   UNL     1     -10.936   6.034  70.019  1.00  0.00    -0.450 A  
HETATM   23  C   UNL     1      -9.613   3.932  70.834  1.00  0.00    -0.188 C  
HETATM   24  C   UNL     1     -10.135   4.889  69.780  1.00  0.00    -0.319 A  
BRANCH  22  25
HETATM   25  C   UNL     1     -11.160   6.610  71.425  1.00  0.00    -0.306 C  
HETATM   26  C   UNL     1      -9.911   7.355  71.954  1.00  0.00    -0.196 C  
HETATM   27  C   UNL     1      -9.644   8.642  71.180  1.00  0.00    -0.281 C  
HETATM   28  C   UNL     1     -10.816   9.604  71.312  1.00  0.00    -0.366 C  
HETATM   29  C   UNL     1     -12.152   8.964  70.953  1.00  0.00    -0.218 C  
HETATM   30  C   UNL     1     -12.359   7.583  71.595  1.00  0.00    -0.362 C  
ENDBRANCH  22  25
ENDBRANCH  14  15
ENDBRANCH  13  14
ENDBRANCH  11  13
ENDBRANCH   9  11
ENDBRANCH   5   9
BRANCH   8  31
HETATM   31  C   UNL     1     -11.566  12.103  66.946  1.00  0.00    -0.341 C  
BRANCH  31  32
HETATM   32  N   UNL     1     -11.105  13.205  67.824  1.00  0.00    -0.253 NA 
HETATM   33  O   UNL     1      -9.765  15.332  69.580  1.00  0.00    -0.249 OA 
HETATM   34  O   UNL     1     -11.396  16.202  70.863  1.00  0.00    -0.390 OA 
HETATM   35  C   UNL     1     -11.897  14.446  67.610  1.00  0.00    -0.378 C  
HETATM   36  C   UNL     1     -11.073  15.450  69.947  1.00  0.00    -0.293 C  
HETATM   37  C   UNL     1     -11.779  13.049  69.151  1.00  0.00    -0.326 C  
HETATM   38  C   UNL     1     -12.049  14.565  69.143  1.00  0.00    -0.299 C  
ENDBRANCH  31  32
ENDBRANCH   8  31
ENDBRANCH   2   3
TORSDOF 9
ENDMDL
MODEL       47
REMARK 921   NORMALIZED FREE ENERGY PREDICTED BY IDOCK:   -7.29 KCAL/MOL
REMARK 922        TOTAL FREE ENERGY PREDICTED BY IDOCK:  -12.55 KCAL/MOL
REMARK 923 INTER-LIGAND FREE ENERGY PREDICTED BY IDOCK:  -10.88 KCAL/MOL
REMARK 924 INTRA-LIGAND FREE ENERGY PREDICTED BY IDOCK:   -1.67 KCAL/MOL
REMARK 927      BINDING AFFINITY PREDICTED BY RF-SCORE:    0.00 PKD
ROOT
HETATM    1  C   UNL     1     -10.494   6.651  67.153  1.00  0.00    -0.358 C  
HETATM    2  C   UNL     1     -10.737   6.959  68.622  1.00  0.00    -0.256 C  
ENDROOT
BRANCH   2   3
HETATM    3  C   UNL     1     -10.885   8.438  68.900  1.00  0.00     0.002 A  
HETATM    4  C   UNL     1     -10.690   9.268  67.786  1.00  0.00    -0.270 A  
HETATM    5  C   UNL     1     -10.619  10.658  67.903  1.00  0.00    -0.266 A  
HETATM    6  C   UNL     1     -10.790  11.245  69.151  1.00  0.00    -0.269 A  
HETATM    7  C   UNL     1     -11.056  10.432  70.266  1.00  0.00    -0.379 A  
HETATM    8  C   UNL     1     -11.129   9.023  70.161  1.00  0.00    -0.228 A  
BRANCH   5   9
HETATM    9  C   UNL     1     -10.221  11.405  66.677  1.00  0.00    -0.222 C  
HETATM   10  C   UNL     1      -8.884  12.092  66.605  1.00  0.00    -0.191 C  
BRANCH   9  11
HETATM   11  N   UNL     1     -11.084  11.422  65.700  1.00  0.00    -0.199 NA 
HETATM   12  H   UNL     1     -10.904  11.040  64.772  1.00  0.00     0.000 HD 
BRANCH  11  13
HETATM   13  O   UNL     1     -12.284  12.024  66.078  1.00  0.00    -0.546 OA 
BRANCH  13  14
HETATM   14  C   UNL     1     -12.430  13.214  65.312  1.00  0.00    -0.495 C  
BRANCH  14  15
HETATM   15  C   UNL     1     -11.753  14.319  66.061  1.00  0.00    -0.384 A  
HETATM   16  F   UNL     1     -11.188  16.618  70.330  1.00  0.00    -0.369 F  
HETATM   17  F   UNL     1     -13.012  15.572  69.831  1.00  0.00    -0.268 F  
HETATM   18  C   UNL     1     -10.983  15.259  65.391  1.00  0.00    -0.380 A  
HETATM   19  F   UNL     1     -11.229  14.441  70.332  1.00  0.00    -0.265 F  
HETATM   20  C   UNL     1     -10.323  16.254  66.106  1.00  0.00    -0.352 A  
HETATM   21  C   UNL     1     -11.942  14.466  67.437  1.00  0.00    -0.407 A  
HETATM   22  C   UNL     1     -10.370  16.328  67.514  1.00  0.00    -0.288 A  
HETATM   23  C   UNL     1     -11.658  15.540  69.647  1.00  0.00    -0.348 C  
HETATM   24  C   UNL     1     -11.287  15.476  68.177  1.00  0.00    -0.348 A  
BRANCH  22  25
HETATM   25  C   UNL     1      -9.419  17.271  68.267  1.00  0.00    -0.283 C  
HETATM   26  C   UNL     1      -8.050  17.404  67.557  1.00  0.00    -0.205 C  
HETATM   27  C   UNL     1      -8.166  18.150  66.231  1.00  0.00    -0.243 C  
HETATM   28  C   UNL     1      -8.685  19.563  66.449  1.00  0.00    -0.389 C  
HETATM   29  C   UNL     1      -9.972  19.603  67.264  1.00  0.00    -0.518 C  
HETATM   30  C   UNL     1      -9.928  18.716  68.520  1.00  0.00    -0.430 C  
ENDBRANCH  22  25
ENDBRANCH  14  15
ENDBRANCH  13  14
ENDBRANCH  11  13
ENDBRANCH   9  11
ENDBRANCH   5   9
BRANCH   8  31
HETATM   31  C   UNL     1     -11.331   8.185  71.417  1.00  0.00    -0.259 C  
BRANCH  31  32
HETATM   32  N   UNL     1     -10.231   8.224  72.411  1.00  0.00    -0.306 NA 
HETATM   33  O   UNL     1      -8.006   8.724  74.461  1.00  0.00    -0.349 OA 
HETATM   34  O   UNL     1      -6.749   6.859  74.486  1.00  0.00    -0.090 OA 
HETATM   35  C   UNL     1     -10.295   7.071  73.347  1.00  0.00    -0.334 C  
HETATM   36  C   UNL     1      -7.749   7.442  74.077  1.00  0.00    -0.124 C  
HETATM   37  C   UNL     1      -9.022   7.603  71.785  1.00  0.00    -0.119 C  
HETATM   38  C   UNL     1      -8.786   6.842  73.103  1.00  0.00    -0.142 C  
ENDBRANCH  31  32
ENDBRANCH   8  31
ENDBRANCH   2   3
TORSDOF 9
ENDMDL
MODEL       48
REMARK 921   NORMALIZED FREE ENERGY PREDICTED BY IDOCK:   -7.29 KCAL/MOL
REMARK 922        TOTAL FREE ENERGY PREDICTED BY IDOCK:  -12.55 KCAL/MOL
REMARK 923 INTER-LIGAND FREE ENERGY PREDICTED BY IDOCK:   -9.36 KCAL/MOL
REMARK 924 INTRA-LIGAND FREE ENERGY PREDICTED BY IDOCK:   -3.19 KCAL/MOL
REMARK 927      BINDING AFFINITY PREDICTED BY RF-SCORE:    0.00 PKD
ROOT
HETATM    1  C   UNL     1     -13.955  14.753  72.202  1.00  0.00    -0.590 C  
HETATM    2  C   UNL     1     -12.732  14.914  71.315  1.00  0.00    -0.412 C  
ENDROOT
BRANCH   2   3
HETATM    3  C   UNL     1     -12.445  13.691  70.474  1.00  0.00    -0.394 A  
HETATM    4  C   UNL     1     -12.599  12.468  71.142  1.00  0.00    -0.349 A  
HETATM    5  C   UNL     1     -12.210  11.256  70.567  1.00  0.00    -0.474 A  
HETATM    6  C   UNL     1     -11.694  11.250  69.277  1.00  0.00    -0.403 A  
HETATM    7  C   UNL     1     -11.599  12.458  68.566  1.00  0.00    -0.358 A  
HETATM    8  C   UNL     1     -11.988  13.693  69.137  1.00  0.00    -0.394 A  
BRANCH   5   9
HETATM    9  C   UNL     1     -12.252  10.060  71.454  1.00  0.00    -0.416 C  
HETATM   10  C   UNL     1     -13.558   9.591  72.037  1.00  0.00    -0.492 C  
BRANCH   9  11
HETATM   11  N   UNL     1     -11.115   9.465  71.684  1.00  0.00    -0.373 NA 
HETATM   12  H   UNL     1     -10.331   9.900  72.170  1.00  0.00     0.000 HD 
BRANCH  11  13
HETATM   13  O   UNL     1     -11.099   8.163  71.184  1.00  0.00    -0.236 OA 
BRANCH  13  14
HETATM   14  C   UNL     1      -9.744   7.733  71.144  1.00  0.00    -0.158 C  
BRANCH  14  15
HETATM   15  C   UNL     1      -9.057   8.505  70.060  1.00  0.00    -0.147 A  
HETATM   16  F   UNL     1      -8.933   9.680  65.324  1.00  0.00    -0.168 F  
HETATM   17  F   UNL     1      -9.769   7.810  66.014  1.00  0.00    -0.218 F  
HETATM   18  C   UNL     1      -7.859   9.159  70.310  1.00  0.00    -0.129 A  
HETATM   19  F   UNL     1     -10.865   9.657  66.327  1.00  0.00    -0.154 F  
HETATM   20  C   UNL     1      -7.255   9.910  69.306  1.00  0.00    -0.073 A  
HETATM   21  C   UNL     1      -9.572   8.521  68.762  1.00  0.00    -0.150 A  
HETATM   22  C   UNL     1      -7.837  10.072  68.032  1.00  0.00    -0.089 A  
HETATM   23  C   UNL     1      -9.611   9.122  66.363  1.00  0.00    -0.245 C  
HETATM   24  C   UNL     1      -8.966   9.270  67.728  1.00  0.00    -0.131 A  
BRANCH  22  25
HETATM   25  C   UNL     1      -7.276  11.117  67.056  1.00  0.00    -0.128 C  
HETATM   26  C   UNL     1      -8.089  12.433  67.081  1.00  0.00    -0.167 C  
HETATM   27  C   UNL     1      -7.919  13.183  68.399  1.00  0.00    -0.130 C  
HETATM   28  C   UNL     1      -6.463  13.565  68.619  1.00  0.00    -0.094 C  
HETATM   29  C   UNL     1      -5.513  12.381  68.486  1.00  0.00    -0.055 C  
HETATM   30  C   UNL     1      -5.786  11.515  67.245  1.00  0.00    -0.095 C  
ENDBRANCH  22  25
ENDBRANCH  14  15
ENDBRANCH  13  14
ENDBRANCH  11  13
ENDBRANCH   9  11
ENDBRANCH   5   9
BRANCH   8  31
HETATM   31  C   UNL     1     -11.780  14.984  68.356  1.00  0.00    -0.317 C  
BRANCH  31  32
HETATM   32  N   UNL     1     -10.478  15.665  68.559  1.00  0.00    -0.231 NA 
HETATM   33  O   UNL     1      -7.707  16.774  69.263  1.00  0.00    -0.206 OA 
HETATM   34  O   UNL     1      -7.683  18.903  68.536  1.00  0.00    -0.307 OA 
HETATM   35  C   UNL     1      -9.938  16.208  67.284  1.00  0.00    -0.248 C  
HETATM   36  C   UNL     1      -8.272  17.827  68.607  1.00  0.00    -0.271 C  
HETATM   37  C   UNL     1     -10.756  17.068  68.996  1.00  0.00    -0.271 C  
HETATM   38  C   UNL     1      -9.668  17.542  68.014  1.00  0.00    -0.287 C  
ENDBRANCH  31  32
ENDBRANCH   8  31
ENDBRANCH   2   3
TORSDOF 9
ENDMDL
MODEL       49
REMARK 921   NORMALIZED FREE ENERGY PREDICTED BY IDOCK:   -7.29 KCAL/MOL
REMARK 922        TOTAL FREE ENERGY PREDICTED BY IDOCK:  -12.55 KCAL/MOL
REMARK 923 INTER-LIGAND FREE ENERGY PREDICTED BY IDOCK:   -9.76 KCAL/MOL
REMARK 924 INTRA-LIGAND FREE ENERGY PREDICTED BY IDOCK:   -2.78 KCAL/MOL
REMARK 927      BINDING AFFINITY PREDICTED BY RF-SCORE:    0.00 PKD
ROOT
HETATM    1  C   UNL     1      -6.480  10.268  69.079  1.00  0.00    -0.045 C  
HETATM    2  C   UNL     1      -7.829  10.932  68.860  1.00  0.00    -0.142 C  
ENDROOT
BRANCH   2   3
HETATM    3  C   UNL     1      -8.595  10.348  67.695  1.00  0.00    -0.118 A  
HETATM    4  C   UNL     1      -8.140   9.094  67.261  1.00  0.00    -0.106 A  
HETATM    5  C   UNL     1      -8.621   8.496  66.094  1.00  0.00    -0.154 A  
HETATM    6  C   UNL     1      -9.611   9.136  65.359  1.00  0.00    -0.166 A  
HETATM    7  C   UNL     1     -10.128  10.360  65.818  1.00  0.00    -0.329 A  
HETATM    8  C   UNL     1      -9.649  10.977  66.997  1.00  0.00    -0.199 A  
BRANCH   5   9
HETATM    9  C   UNL     1      -7.920   7.259  65.649  1.00  0.00    -0.123 C  
HETATM   10  C   UNL     1      -6.449   7.081  65.914  1.00  0.00    -0.051 C  
BRANCH   9  11
HETATM   11  N   UNL     1      -8.646   6.368  65.033  1.00  0.00    -0.344 NA 
HETATM   12  H   UNL     1      -9.071   6.511  64.117  1.00  0.00     0.000 HD 
BRANCH  11  13
HETATM   13  O   UNL     1      -8.773   5.196  65.778  1.00  0.00    -0.129 OA 
BRANCH  13  14
HETATM   14  C   UNL     1     -10.145   5.052  66.127  1.00  0.00    -0.236 C  
BRANCH  14  15
HETATM   15  C   UNL     1     -10.313   5.569  67.522  1.00  0.00    -0.268 A  
HETATM   16  F   UNL     1      -9.589   4.792  72.286  1.00  0.00    -0.157 F  
HETATM   17  F   UNL     1      -9.797   3.161  70.883  1.00  0.00    -0.233 F  
HETATM   18  C   UNL     1     -11.060   6.712  67.766  1.00  0.00    -0.332 A  
HETATM   19  F   UNL     1      -7.967   4.327  70.911  1.00  0.00    -0.061 F  
HETATM   20  C   UNL     1     -11.170   7.207  69.062  1.00  0.00     0.021 A  
HETATM   21  C   UNL     1      -9.782   4.871  68.608  1.00  0.00    -0.225 A  
HETATM   22  C   UNL     1     -10.511   6.608  70.156  1.00  0.00    -0.248 A  
HETATM   23  C   UNL     1      -9.323   4.438  71.000  1.00  0.00    -0.149 C  
HETATM   24  C   UNL     1      -9.892   5.353  69.932  1.00  0.00    -0.268 A  
BRANCH  22  25
HETATM   25  C   UNL     1     -10.444   7.336  71.507  1.00  0.00    -0.220 C  
HETATM   26  C   UNL     1      -9.845   8.757  71.373  1.00  0.00    -0.353 C  
HETATM   27  C   UNL     1     -10.773   9.698  70.611  1.00  0.00    -0.388 C  
HETATM   28  C   UNL     1     -12.102   9.850  71.336  1.00  0.00    -0.501 C  
HETATM   29  C   UNL     1     -12.755   8.513  71.665  1.00  0.00    -0.365 C  
HETATM   30  C   UNL     1     -11.782   7.493  72.280  1.00  0.00    -0.348 C  
ENDBRANCH  22  25
ENDBRANCH  14  15
ENDBRANCH  13  14
ENDBRANCH  11  13
ENDBRANCH   9  11
ENDBRANCH   5   9
BRANCH   8  31
HETATM   31  C   UNL     1     -10.182  12.347  67.400  1.00  0.00    -0.208 C  
BRANCH  31  32
HETATM   32  N   UNL     1     -10.942  13.081  66.360  1.00  0.00    -0.278 NA 
HETATM   33  O   UNL     1     -12.614  14.222  64.055  1.00  0.00    -0.724 OA 
HETATM   34  O   UNL     1     -11.992  16.373  63.838  1.00  0.00    -1.023 OA 
HETATM   35  C   UNL     1     -11.593  14.299  66.913  1.00  0.00    -0.387 C  
HETATM   36  C   UNL     1     -11.912  15.318  64.462  1.00  0.00    -0.271 C  
HETATM   37  C   UNL     1      -9.985  13.969  65.630  1.00  0.00    -0.286 C  
HETATM   38  C   UNL     1     -11.034  15.093  65.711  1.00  0.00    -0.350 C  
ENDBRANCH  31  32
ENDBRANCH   8  31
ENDBRANCH   2   3
TORSDOF 9
ENDMDL
MODEL       50
REMARK 921   NORMALIZED FREE ENERGY PREDICTED BY IDOCK:   -7.28 KCAL/MOL
REMARK 922        TOTAL FREE ENERGY PREDICTED BY IDOCK:  -12.54 KCAL/MOL
REMARK 923 INTER-LIGAND FREE ENERGY PREDICTED BY IDOCK:   -8.85 KCAL/MOL
REMARK 924 INTRA-LIGAND FREE ENERGY PREDICTED BY IDOCK:   -3.69 KCAL/MOL
REMARK 927      BINDING AFFINITY PREDICTED BY RF-SCORE:    0.00 PKD
ROOT
HETATM    1  C   UNL     1     -14.221   7.593  71.513  1.00  0.00    -0.564 C  
HETATM    2  C   UNL     1     -13.511   8.854  71.980  1.00  0.00    -0.482 C  
ENDROOT
BRANCH   2   3
HETATM    3  C   UNL     1     -12.044   8.876  71.617  1.00  0.00    -0.415 A  
HETATM    4  C   UNL     1     -11.243   7.987  72.350  1.00  0.00    -0.432 A  
HETATM    5  C   UNL     1      -9.849   8.004  72.263  1.00  0.00    -0.301 A  
HETATM    6  C   UNL     1      -9.233   8.895  71.394  1.00  0.00    -0.328 A  
HETATM    7  C   UNL     1     -10.022   9.743  70.600  1.00  0.00    -0.215 A  
HETATM    8  C   UNL     1     -11.435   9.738  70.679  1.00  0.00    -0.397 A  
BRANCH   5   9
HETATM    9  C   UNL     1      -9.117   7.141  73.232  1.00  0.00    -0.148 C  
HETATM   10  C   UNL     1      -9.763   6.736  74.530  1.00  0.00    -0.270 C  
BRANCH   9  11
HETATM   11  N   UNL     1      -7.914   6.772  72.889  1.00  0.00    -0.105 NA 
HETATM   12  H   UNL     1      -7.062   7.230  73.212  1.00  0.00     0.000 HD 
BRANCH  11  13
HETATM   13  O   UNL     1      -7.933   5.676  72.027  1.00  0.00    -0.105 OA 
BRANCH  13  14
HETATM   14  C   UNL     1      -6.883   5.851  71.083  1.00  0.00    -0.066 C  
BRANCH  14  15
HETATM   15  C   UNL     1      -7.492   6.386  69.824  1.00  0.00    -0.085 A  
HETATM   16  F   UNL     1     -11.292   6.299  66.762  1.00  0.00    -0.403 F  
HETATM   17  F   UNL     1     -10.772   4.593  67.982  1.00  0.00     0.015 F  
HETATM   18  C   UNL     1      -6.760   7.207  68.979  1.00  0.00    -0.056 A  
HETATM   19  F   UNL     1     -11.696   6.329  68.901  1.00  0.00    -0.397 F  
HETATM   20  C   UNL     1      -7.353   7.733  67.835  1.00  0.00    -0.102 A  
HETATM   21  C   UNL     1      -8.781   6.009  69.442  1.00  0.00    -0.121 A  
HETATM   22  C   UNL     1      -8.705   7.496  67.510  1.00  0.00    -0.125 A  
HETATM   23  C   UNL     1     -10.769   5.960  67.971  1.00  0.00    -0.252 C  
HETATM   24  C   UNL     1      -9.395   6.526  68.279  1.00  0.00    -0.118 A  
BRANCH  22  25
HETATM   25  C   UNL     1      -9.382   8.306  66.395  1.00  0.00    -0.274 C  
HETATM   26  C   UNL     1      -9.981   9.633  66.921  1.00  0.00    -0.272 C  
HETATM   27  C   UNL     1      -8.897  10.619  67.345  1.00  0.00    -0.132 C  
HETATM   28  C   UNL     1      -8.004  10.980  66.167  1.00  0.00    -0.129 C  
HETATM   29  C   UNL     1      -7.444   9.757  65.451  1.00  0.00    -0.121 C  
HETATM   30  C   UNL     1      -8.501   8.676  65.170  1.00  0.00    -0.197 C  
ENDBRANCH  22  25
ENDBRANCH  14  15
ENDBRANCH  13  14
ENDBRANCH  11  13
ENDBRANCH   9  11
ENDBRANCH   5   9
BRANCH   8  31
HETATM   31  C   UNL     1     -12.239  10.741  69.862  1.00  0.00    -0.313 C  
BRANCH  31  32
HETATM   32  N   UNL     1     -11.533  11.990  69.487  1.00  0.00    -0.291 NA 
HETATM   33  O   UNL     1      -9.731  14.396  68.880  1.00  0.00    -0.210 OA 
HETATM   34  O   UNL     1     -11.112  16.132  68.506  1.00  0.00    -0.322 OA 
HETATM   35  C   UNL     1     -12.022  12.529  68.190  1.00  0.00    -0.219 C  
HETATM   36  C   UNL     1     -10.975  14.931  68.720  1.00  0.00    -0.253 C  
HETATM   37  C   UNL     1     -12.215  13.129  70.175  1.00  0.00    -0.290 C  
HETATM   38  C   UNL     1     -12.133  13.918  68.855  1.00  0.00    -0.355 C  
ENDBRANCH  31  32
ENDBRANCH   8  31
ENDBRANCH   2   3
TORSDOF 9
ENDMDL
MODEL       51
REMARK 921   NORMALIZED FREE ENERGY PREDICTED BY IDOCK:   -7.28 KCAL/MOL
REMARK 922        TOTAL FREE ENERGY PREDICTED BY IDOCK:  -12.54 KCAL/MOL
REMARK 923 INTER-LIGAND FREE ENERGY PREDICTED BY IDOCK:  -10.97 KCAL/MOL
REMARK 924 INTRA-LIGAND FREE ENERGY PREDICTED BY IDOCK:   -1.57 KCAL/MOL
REMARK 927      BINDING AFFINITY PREDICTED BY RF-SCORE:    0.00 PKD
ROOT
HETATM    1  C   UNL     1     -10.850  19.418  67.487  1.00  0.00    -0.521 C  
HETATM    2  C   UNL     1     -10.329  18.933  66.144  1.00  0.00    -0.517 C  
ENDROOT
BRANCH   2   3
HETATM    3  C   UNL     1      -9.717  17.552  66.210  1.00  0.00    -0.271 A  
HETATM    4  C   UNL     1     -10.625  16.497  66.042  1.00  0.00    -0.259 A  
HETATM    5  C   UNL     1     -10.257  15.165  66.246  1.00  0.00    -0.300 A  
HETATM    6  C   UNL     1      -8.943  14.866  66.582  1.00  0.00    -0.301 A  
HETATM    7  C   UNL     1      -8.003  15.906  66.685  1.00  0.00    -0.270 A  
HETATM    8  C   UNL     1      -8.363  17.259  66.483  1.00  0.00    -0.312 A  
BRANCH   5   9
HETATM    9  C   UNL     1     -11.360  14.164  66.220  1.00  0.00    -0.338 C  
HETATM   10  C   UNL     1     -11.579  13.304  65.004  1.00  0.00    -0.342 C  
BRANCH   9  11
HETATM   11  N   UNL     1     -12.100  14.085  67.290  1.00  0.00    -0.488 NA 
HETATM   12  H   UNL     1     -12.501  14.893  67.768  1.00  0.00     0.000 HD 
BRANCH  11  13
HETATM   13  O   UNL     1     -12.278  12.766  67.704  1.00  0.00    -0.321 OA 
BRANCH  13  14
HETATM   14  C   UNL     1     -11.805  12.665  69.042  1.00  0.00    -0.294 C  
BRANCH  14  15
HETATM   15  C   UNL     1     -11.234  11.292  69.217  1.00  0.00    -0.336 A  
HETATM   16  F   UNL     1     -11.307   7.128  71.763  1.00  0.00    -0.249 F  
HETATM   17  F   UNL     1     -11.886   9.014  72.645  1.00  0.00    -0.353 F  
HETATM   18  C   UNL     1     -10.129  10.887  68.482  1.00  0.00    -0.193 A  
HETATM   19  F   UNL     1     -13.210   8.039  71.228  1.00  0.00    -0.319 F  
HETATM   20  C   UNL     1      -9.637   9.593  68.623  1.00  0.00    -0.154 A  
HETATM   21  C   UNL     1     -11.758  10.421  70.174  1.00  0.00    -0.394 A  
HETATM   22  C   UNL     1     -10.247   8.643  69.467  1.00  0.00    -0.209 A  
HETATM   23  C   UNL     1     -11.897   8.318  71.469  1.00  0.00    -0.293 C  
HETATM   24  C   UNL     1     -11.265   9.107  70.338  1.00  0.00    -0.279 A  
BRANCH  22  25
HETATM   25  C   UNL     1      -9.835   7.165  69.387  1.00  0.00    -0.161 C  
HETATM   26  C   UNL     1     -10.855   6.319  68.587  1.00  0.00    -0.401 C  
HETATM   27  C   UNL     1     -10.852   6.676  67.103  1.00  0.00    -0.471 C  
HETATM   28  C   UNL     1      -9.487   6.413  66.487  1.00  0.00    -0.189 C  
HETATM   29  C   UNL     1      -8.351   7.076  67.256  1.00  0.00    -0.122 C  
HETATM   30  C   UNL     1      -8.438   6.865  68.777  1.00  0.00    -0.121 C  
ENDBRANCH  22  25
ENDBRANCH  14  15
ENDBRANCH  13  14
ENDBRANCH  11  13
ENDBRANCH   9  11
ENDBRANCH   5   9
BRANCH   8  31
HETATM   31  C   UNL     1      -7.325  18.354  66.695  1.00  0.00    -0.225 C  
BRANCH  31  32
HETATM   32  N   UNL     1      -6.692  18.400  68.036  1.00  0.00    -0.212 NA 
HETATM   33  O   UNL     1      -5.401  18.075  70.798  1.00  0.00    -0.259 OA 
HETATM   34  O   UNL     1      -5.607  20.067  71.822  1.00  0.00    -0.384 OA 
HETATM   35  C   UNL     1      -5.699  19.502  68.136  1.00  0.00    -0.202 C  
HETATM   36  C   UNL     1      -5.753  19.392  70.807  1.00  0.00    -0.195 C  
HETATM   37  C   UNL     1      -7.592  19.176  68.943  1.00  0.00    -0.336 C  
HETATM   38  C   UNL     1      -6.347  19.908  69.479  1.00  0.00    -0.382 C  
ENDBRANCH  31  32
ENDBRANCH   8  31
ENDBRANCH   2   3
TORSDOF 9
ENDMDL
MODEL       52
REMARK 921   NORMALIZED FREE ENERGY PREDICTED BY IDOCK:   -7.26 KCAL/MOL
REMARK 922        TOTAL FREE ENERGY PREDICTED BY IDOCK:  -12.50 KCAL/MOL
REMARK 923 INTER-LIGAND FREE ENERGY PREDICTED BY IDOCK:   -9.27 KCAL/MOL
REMARK 924 INTRA-LIGAND FREE ENERGY PREDICTED BY IDOCK:   -3.24 KCAL/MOL
REMARK 927      BINDING AFFINITY PREDICTED BY RF-SCORE:    0.00 PKD
ROOT
HETATM    1  C   UNL     1     -11.622  11.136  69.917  1.00  0.00    -0.416 C  
HETATM    2  C   UNL     1     -11.030  10.126  68.946  1.00  0.00    -0.261 C  
ENDROOT
BRANCH   2   3
HETATM    3  C   UNL     1      -9.678  10.541  68.412  1.00  0.00    -0.166 A  
HETATM    4  C   UNL     1      -8.607  10.329  69.293  1.00  0.00    -0.175 A  
HETATM    5  C   UNL     1      -7.324  10.813  69.027  1.00  0.00    -0.109 A  
HETATM    6  C   UNL     1      -7.084  11.485  67.835  1.00  0.00    -0.076 A  
HETATM    7  C   UNL     1      -8.129  11.643  66.909  1.00  0.00    -0.164 A  
HETATM    8  C   UNL     1      -9.434  11.160  67.167  1.00  0.00    -0.187 A  
BRANCH   5   9
HETATM    9  C   UNL     1      -6.329  10.685  70.128  1.00  0.00    -0.139 C  
HETATM   10  C   UNL     1      -5.572   9.398  70.324  1.00  0.00    -0.032 C  
BRANCH   9  11
HETATM   11  N   UNL     1      -6.163  11.732  70.887  1.00  0.00    -0.471 NA 
HETATM   12  H   UNL     1      -6.628  11.866  71.785  1.00  0.00     0.000 HD 
BRANCH  11  13
HETATM   13  O   UNL     1      -5.272  12.646  70.325  1.00  0.00    -0.091 OA 
BRANCH  13  14
HETATM   14  C   UNL     1      -5.546  13.921  70.893  1.00  0.00    -0.192 C  
BRANCH  14  15
HETATM   15  C   UNL     1      -6.255  14.736  69.855  1.00  0.00    -0.150 A  
HETATM   16  F   UNL     1     -10.522  15.950  67.820  1.00  0.00    -0.258 F  
HETATM   17  F   UNL     1     -10.217  14.034  68.772  1.00  0.00    -0.221 F  
HETATM   18  C   UNL     1      -5.537  15.449  68.907  1.00  0.00    -0.098 A  
HETATM   19  F   UNL     1     -10.419  15.819  69.990  1.00  0.00    -0.255 F  
HETATM   20  C   UNL     1      -6.207  16.238  67.977  1.00  0.00    -0.135 A  
HETATM   21  C   UNL     1      -7.649  14.734  69.780  1.00  0.00     0.025 A  
HETATM   22  C   UNL     1      -7.610  16.379  67.980  1.00  0.00    -0.158 A  
HETATM   23  C   UNL     1      -9.853  15.350  68.841  1.00  0.00    -0.216 C  
HETATM   24  C   UNL     1      -8.346  15.522  68.836  1.00  0.00    -0.205 A  
BRANCH  22  25
HETATM   25  C   UNL     1      -8.277  17.459  67.114  1.00  0.00    -0.229 C  
HETATM   26  C   UNL     1      -8.898  18.588  67.971  1.00  0.00    -0.317 C  
HETATM   27  C   UNL     1      -7.832  19.429  68.667  1.00  0.00    -0.399 C  
HETATM   28  C   UNL     1      -6.924  20.101  67.648  1.00  0.00    -0.302 C  
HETATM   29  C   UNL     1      -6.339  19.121  66.637  1.00  0.00    -0.197 C  
HETATM   30  C   UNL     1      -7.380  18.152  66.053  1.00  0.00    -0.290 C  
ENDBRANCH  22  25
ENDBRANCH  14  15
ENDBRANCH  13  14
ENDBRANCH  11  13
ENDBRANCH   9  11
ENDBRANCH   5   9
BRANCH   8  31
HETATM   31  C   UNL     1     -10.550  11.438  66.169  1.00  0.00    -0.265 C  
BRANCH  31  32
HETATM   32  N   UNL     1     -10.626  12.823  65.645  1.00  0.00    -0.270 NA 
HETATM   33  O   UNL     1     -10.476  15.777  64.836  1.00  0.00    -0.499 OA 
HETATM   34  O   UNL     1     -12.402  16.230  63.765  1.00  0.00    -0.828 OA 
HETATM   35  C   UNL     1     -10.896  12.843  64.182  1.00  0.00    -0.416 C  
HETATM   36  C   UNL     1     -11.670  15.400  64.297  1.00  0.00    -0.206 C  
HETATM   37  C   UNL     1     -12.016  13.326  65.871  1.00  0.00    -0.419 C  
HETATM   38  C   UNL     1     -11.995  13.898  64.442  1.00  0.00    -0.480 C  
ENDBRANCH  31  32
ENDBRANCH   8  31
ENDBRANCH   2   3
TORSDOF 9
ENDMDL
MODEL       53
REMARK 921   NORMALIZED FREE ENERGY PREDICTED BY IDOCK:   -7.25 KCAL/MOL
REMARK 922        TOTAL FREE ENERGY PREDICTED BY IDOCK:  -12.50 KCAL/MOL
REMARK 923 INTER-LIGAND FREE ENERGY PREDICTED BY IDOCK:  -11.19 KCAL/MOL
REMARK 924 INTRA-LIGAND FREE ENERGY PREDICTED BY IDOCK:   -1.31 KCAL/MOL
REMARK 927      BINDING AFFINITY PREDICTED BY RF-SCORE:    0.00 PKD
ROOT
HETATM    1  C   UNL     1     -12.353  13.342  64.611  1.00  0.00    -0.447 C  
HETATM    2  C   UNL     1     -12.359  13.943  66.007  1.00  0.00    -0.511 C  
ENDROOT
BRANCH   2   3
HETATM    3  C   UNL     1     -11.765  13.024  67.050  1.00  0.00    -0.441 A  
HETATM    4  C   UNL     1     -11.215  11.836  66.544  1.00  0.00    -0.380 A  
HETATM    5  C   UNL     1     -10.785  10.805  67.381  1.00  0.00    -0.317 A  
HETATM    6  C   UNL     1     -10.859  10.971  68.758  1.00  0.00    -0.253 A  
HETATM    7  C   UNL     1     -11.340  12.182  69.283  1.00  0.00    -0.327 A  
HETATM    8  C   UNL     1     -11.782  13.234  68.446  1.00  0.00    -0.389 A  
BRANCH   5   9
HETATM    9  C   UNL     1     -10.400   9.530  66.714  1.00  0.00    -0.228 C  
HETATM   10  C   UNL     1      -9.413   9.533  65.578  1.00  0.00    -0.334 C  
BRANCH   9  11
HETATM   11  N   UNL     1     -10.961   8.443  67.167  1.00  0.00    -0.374 NA 
HETATM   12  H   UNL     1     -11.950   8.367  67.407  1.00  0.00     0.000 HD 
BRANCH  11  13
HETATM   13  O   UNL     1     -10.046   7.398  67.287  1.00  0.00    -0.183 OA 
BRANCH  13  14
HETATM   14  C   UNL     1     -10.786   6.186  67.383  1.00  0.00    -0.343 C  
BRANCH  14  15
HETATM   15  C   UNL     1     -10.609   5.658  68.773  1.00  0.00    -0.286 A  
HETATM   16  F   UNL     1      -8.829   2.098  71.598  1.00  0.00    -0.082 F  
HETATM   17  F   UNL     1      -9.412   1.742  69.548  1.00  0.00    -0.159 F  
HETATM   18  C   UNL     1     -11.239   6.270  69.847  1.00  0.00    -0.498 A  
HETATM   19  F   UNL     1      -7.586   2.837  69.971  1.00  0.00    -0.043 F  
HETATM   20  C   UNL     1     -11.029   5.795  71.138  1.00  0.00    -0.295 A  
HETATM   21  C   UNL     1      -9.865   4.499  69.004  1.00  0.00    -0.202 A  
HETATM   22  C   UNL     1     -10.156   4.723  71.414  1.00  0.00    -0.259 A  
HETATM   23  C   UNL     1      -8.881   2.692  70.376  1.00  0.00    -0.084 C  
HETATM   24  C   UNL     1      -9.650   3.997  70.307  1.00  0.00    -0.271 A  
BRANCH  22  25
HETATM   25  C   UNL     1      -9.753   4.412  72.864  1.00  0.00    -0.176 C  
HETATM   26  C   UNL     1      -8.276   4.775  73.148  1.00  0.00    -0.101 C  
HETATM   27  C   UNL     1      -8.044   6.283  73.126  1.00  0.00    -0.110 C  
HETATM   28  C   UNL     1      -8.877   6.972  74.196  1.00  0.00    -0.223 C  
HETATM   29  C   UNL     1     -10.353   6.600  74.131  1.00  0.00    -0.347 C  
HETATM   30  C   UNL     1     -10.596   5.089  73.980  1.00  0.00    -0.348 C  
ENDBRANCH  22  25
ENDBRANCH  14  15
ENDBRANCH  13  14
ENDBRANCH  11  13
ENDBRANCH   9  11
ENDBRANCH   5   9
BRANCH   8  31
HETATM   31  C   UNL     1     -12.379  14.490  69.068  1.00  0.00    -0.086 C  
BRANCH  31  32
HETATM   32  N   UNL     1     -12.342  14.566  70.548  1.00  0.00    -0.316 NA 
HETATM   33  O   UNL     1     -12.364  14.313  73.604  1.00  0.00    -0.250 OA 
HETATM   34  O   UNL     1     -12.549  16.407  74.403  1.00  0.00    -0.730 OA 
HETATM   35  C   UNL     1     -11.269  15.479  71.025  1.00  0.00    -0.373 C  
HETATM   36  C   UNL     1     -12.411  15.665  73.435  1.00  0.00    -0.523 C  
HETATM   37  C   UNL     1     -13.350  15.582  70.983  1.00  0.00    -0.428 C  
HETATM   38  C   UNL     1     -12.302  16.133  71.968  1.00  0.00    -0.475 C  
ENDBRANCH  31  32
ENDBRANCH   8  31
ENDBRANCH   2   3
TORSDOF 9
ENDMDL
MODEL       54
REMARK 921   NORMALIZED FREE ENERGY PREDICTED BY IDOCK:   -7.25 KCAL/MOL
REMARK 922        TOTAL FREE ENERGY PREDICTED BY IDOCK:  -12.50 KCAL/MOL
REMARK 923 INTER-LIGAND FREE ENERGY PREDICTED BY IDOCK:   -9.82 KCAL/MOL
REMARK 924 INTRA-LIGAND FREE ENERGY PREDICTED BY IDOCK:   -2.67 KCAL/MOL
REMARK 927      BINDING AFFINITY PREDICTED BY RF-SCORE:    0.00 PKD
ROOT
HETATM    1  C   UNL     1     -12.456  14.203  63.786  1.00  0.00    -0.006 C  
HETATM    2  C   UNL     1     -12.494  13.127  64.860  1.00  0.00    -0.490 C  
ENDROOT
BRANCH   2   3
HETATM    3  C   UNL     1     -11.388  13.271  65.881  1.00  0.00    -0.333 A  
HETATM    4  C   UNL     1     -11.685  14.126  66.953  1.00  0.00    -0.437 A  
HETATM    5  C   UNL     1     -10.718  14.504  67.887  1.00  0.00    -0.245 A  
HETATM    6  C   UNL     1      -9.433  13.987  67.783  1.00  0.00    -0.209 A  
HETATM    7  C   UNL     1      -9.137  13.074  66.757  1.00  0.00    -0.212 A  
HETATM    8  C   UNL     1     -10.107  12.684  65.804  1.00  0.00    -0.284 A  
BRANCH   5   9
HETATM    9  C   UNL     1     -11.116  15.561  68.859  1.00  0.00    -0.282 C  
HETATM   10  C   UNL     1     -11.006  17.016  68.488  1.00  0.00    -0.247 C  
BRANCH   9  11
HETATM   11  N   UNL     1     -11.553  15.152  70.017  1.00  0.00    -0.272 NA 
HETATM   12  H   UNL     1     -11.137  15.415  70.910  1.00  0.00     0.000 HD 
BRANCH  11  13
HETATM   13  O   UNL     1     -12.658  14.311  69.888  1.00  0.00    -0.312 OA 
BRANCH  13  14
HETATM   14  C   UNL     1     -12.875  13.686  71.148  1.00  0.00    -0.323 C  
BRANCH  14  15
HETATM   15  C   UNL     1     -12.572  12.228  70.987  1.00  0.00    -0.352 A  
HETATM   16  F   UNL     1     -10.697   8.729  68.147  1.00  0.00    -0.257 F  
HETATM   17  F   UNL     1     -11.531  10.544  67.321  1.00  0.00    -0.348 F  
HETATM   18  C   UNL     1     -13.038  11.305  71.912  1.00  0.00    -0.510 A  
HETATM   19  F   UNL     1      -9.606  10.605  68.323  1.00  0.00    -0.147 F  
HETATM   20  C   UNL     1     -12.711   9.959  71.775  1.00  0.00    -0.523 A  
HETATM   21  C   UNL     1     -11.877  11.765  69.868  1.00  0.00    -0.423 A  
HETATM   22  C   UNL     1     -11.877   9.488  70.739  1.00  0.00    -0.350 A  
HETATM   23  C   UNL     1     -10.853  10.056  68.403  1.00  0.00    -0.235 C  
HETATM   24  C   UNL     1     -11.545  10.401  69.708  1.00  0.00    -0.339 A  
BRANCH  22  25
HETATM   25  C   UNL     1     -11.331   8.052  70.784  1.00  0.00    -0.282 C  
HETATM   26  C   UNL     1      -9.786   8.020  70.851  1.00  0.00    -0.183 C  
HETATM   27  C   UNL     1      -9.261   8.544  72.184  1.00  0.00    -0.336 C  
HETATM   28  C   UNL     1      -9.767   7.690  73.337  1.00  0.00    -0.363 C  
HETATM   29  C   UNL     1     -11.280   7.513  73.325  1.00  0.00    -0.201 C  
HETATM   30  C   UNL     1     -11.842   7.150  71.941  1.00  0.00    -0.336 C  
ENDBRANCH  22  25
ENDBRANCH  14  15
ENDBRANCH  13  14
ENDBRANCH  11  13
ENDBRANCH   9  11
ENDBRANCH   5   9
BRANCH   8  31
HETATM   31  C   UNL     1      -9.708  11.761  64.659  1.00  0.00    -0.149 C  
BRANCH  31  32
HETATM   32  N   UNL     1      -8.745  10.684  64.995  1.00  0.00    -0.186 NA 
HETATM   33  O   UNL     1      -6.582   8.735  65.957  1.00  0.00    -0.057 OA 
HETATM   34  O   UNL     1      -6.464   7.115  64.400  1.00  0.00    -0.039 OA 
HETATM   35  C   UNL     1      -9.394   9.346  64.993  1.00  0.00    -0.191 C  
HETATM   36  C   UNL     1      -7.021   8.126  64.819  1.00  0.00    -0.074 C  
HETATM   37  C   UNL     1      -8.028  10.299  63.740  1.00  0.00    -0.128 C  
HETATM   38  C   UNL     1      -8.218   8.823  64.138  1.00  0.00    -0.163 C  
ENDBRANCH  31  32
ENDBRANCH   8  31
ENDBRANCH   2   3
TORSDOF 9
ENDMDL
MODEL       55
REMARK 921   NORMALIZED FREE ENERGY PREDICTED BY IDOCK:   -7.24 KCAL/MOL
REMARK 922        TOTAL FREE ENERGY PREDICTED BY IDOCK:  -12.48 KCAL/MOL
REMARK 923 INTER-LIGAND FREE ENERGY PREDICTED BY IDOCK:   -9.73 KCAL/MOL
REMARK 924 INTRA-LIGAND FREE ENERGY PREDICTED BY IDOCK:   -2.75 KCAL/MOL
REMARK 927      BINDING AFFINITY PREDICTED BY RF-SCORE:    0.00 PKD
ROOT
HETATM    1  C   UNL     1     -11.737  12.612  63.595  1.00  0.00    -0.597 C  
HETATM    2  C   UNL     1     -12.162  12.667  65.054  1.00  0.00    -0.535 C  
ENDROOT
BRANCH   2   3
HETATM    3  C   UNL     1     -11.184  11.981  65.981  1.00  0.00    -0.385 A  
HETATM    4  C   UNL     1     -10.500  10.894  65.416  1.00  0.00    -0.291 A  
HETATM    5  C   UNL     1      -9.695  10.048  66.182  1.00  0.00    -0.286 A  
HETATM    6  C   UNL     1      -9.526  10.311  67.536  1.00  0.00    -0.171 A  
HETATM    7  C   UNL     1     -10.147  11.437  68.103  1.00  0.00    -0.200 A  
HETATM    8  C   UNL     1     -10.967  12.301  67.339  1.00  0.00    -0.298 A  
BRANCH   5   9
HETATM    9  C   UNL     1      -9.182   8.828  65.499  1.00  0.00    -0.137 C  
HETATM   10  C   UNL     1      -8.090   8.936  64.468  1.00  0.00    -0.150 C  
BRANCH   9  11
HETATM   11  N   UNL     1      -9.726   7.695  65.845  1.00  0.00    -0.398 NA 
HETATM   12  H   UNL     1     -10.731   7.551  65.945  1.00  0.00     0.000 HD 
BRANCH  11  13
HETATM   13  O   UNL     1      -8.770   6.703  66.060  1.00  0.00    -0.144 OA 
BRANCH  13  14
HETATM   14  C   UNL     1      -9.376   5.683  66.845  1.00  0.00    -0.125 C  
BRANCH  14  15
HETATM   15  C   UNL     1      -9.718   6.278  68.176  1.00  0.00    -0.123 A  
HETATM   16  F   UNL     1      -8.132   8.730  72.087  1.00  0.00    -0.184 F  
HETATM   17  F   UNL     1      -6.810   7.502  70.898  1.00  0.00    -0.045 F  
HETATM   18  C   UNL     1     -10.960   6.054  68.752  1.00  0.00    -0.384 A  
HETATM   19  F   UNL     1      -7.494   9.409  70.120  1.00  0.00    -0.065 F  
HETATM   20  C   UNL     1     -11.280   6.651  69.967  1.00  0.00    -0.425 A  
HETATM   21  C   UNL     1      -8.768   7.009  68.892  1.00  0.00    -0.131 A  
HETATM   22  C   UNL     1     -10.395   7.522  70.635  1.00  0.00    -0.211 A  
HETATM   23  C   UNL     1      -7.909   8.310  70.812  1.00  0.00    -0.091 C  
HETATM   24  C   UNL     1      -9.073   7.614  70.133  1.00  0.00    -0.150 A  
BRANCH  22  25
HETATM   25  C   UNL     1     -10.890   8.359  71.825  1.00  0.00    -0.353 C  
HETATM   26  C   UNL     1     -11.208   9.818  71.417  1.00  0.00    -0.368 C  
HETATM   27  C   UNL     1     -12.430   9.902  70.507  1.00  0.00    -0.191 C  
HETATM   28  C   UNL     1     -13.667   9.365  71.212  1.00  0.00    -0.248 C  
HETATM   29  C   UNL     1     -13.459   7.973  71.796  1.00  0.00    -0.378 C  
HETATM   30  C   UNL     1     -12.142   7.828  72.576  1.00  0.00    -0.251 C  
ENDBRANCH  22  25
ENDBRANCH  14  15
ENDBRANCH  13  14
ENDBRANCH  11  13
ENDBRANCH   9  11
ENDBRANCH   5   9
BRANCH   8  31
HETATM   31  C   UNL     1     -11.688  13.455  68.024  1.00  0.00    -0.356 C  
BRANCH  31  32
HETATM   32  N   UNL     1     -10.870  14.658  68.308  1.00  0.00    -0.239 NA 
HETATM   33  O   UNL     1      -8.953  16.899  69.151  1.00  0.00    -0.207 OA 
HETATM   34  O   UNL     1      -9.982  18.830  68.628  1.00  0.00    -0.367 OA 
HETATM   35  C   UNL     1     -10.700  15.505  67.097  1.00  0.00    -0.315 C  
HETATM   36  C   UNL     1      -9.977  17.603  68.589  1.00  0.00    -0.367 C  
HETATM   37  C   UNL     1     -11.774  15.708  68.871  1.00  0.00    -0.384 C  
HETATM   38  C   UNL     1     -11.083  16.733  67.953  1.00  0.00    -0.178 C  
ENDBRANCH  31  32
ENDBRANCH   8  31
ENDBRANCH   2   3
TORSDOF 9
ENDMDL
MODEL       56
REMARK 921   NORMALIZED FREE ENERGY PREDICTED BY IDOCK:   -7.24 KCAL/MOL
REMARK 922        TOTAL FREE ENERGY PREDICTED BY IDOCK:  -12.48 KCAL/MOL
REMARK 923 INTER-LIGAND FREE ENERGY PREDICTED BY IDOCK:   -9.76 KCAL/MOL
REMARK 924 INTRA-LIGAND FREE ENERGY PREDICTED BY IDOCK:   -2.72 KCAL/MOL
REMARK 927      BINDING AFFINITY PREDICTED BY RF-SCORE:    0.00 PKD
ROOT
HETATM    1  C   UNL     1     -12.709  12.697  64.904  1.00  0.00    -0.450 C  
HETATM    2  C   UNL     1     -12.243  13.576  66.053  1.00  0.00    -0.493 C  
ENDROOT
BRANCH   2   3
HETATM    3  C   UNL     1     -10.786  13.372  66.403  1.00  0.00    -0.294 A  
HETATM    4  C   UNL     1     -10.181  12.270  65.780  1.00  0.00    -0.281 A  
HETATM    5  C   UNL     1      -8.898  11.840  66.125  1.00  0.00    -0.107 A  
HETATM    6  C   UNL     1      -8.177  12.545  67.080  1.00  0.00    -0.125 A  
HETATM    7  C   UNL     1      -8.740  13.693  67.661  1.00  0.00    -0.182 A  
HETATM    8  C   UNL     1     -10.040  14.140  67.323  1.00  0.00    -0.256 A  
BRANCH   5   9
HETATM    9  C   UNL     1      -8.451  10.551  65.526  1.00  0.00    -0.173 C  
HETATM   10  C   UNL     1      -9.269   9.887  64.451  1.00  0.00    -0.317 C  
BRANCH   9  11
HETATM   11  N   UNL     1      -7.337  10.052  65.983  1.00  0.00    -0.106 NA 
HETATM   12  H   UNL     1      -6.410  10.365  65.695  1.00  0.00     0.000 HD 
BRANCH  11  13
HETATM   13  O   UNL     1      -7.564   9.039  66.914  1.00  0.00    -0.092 OA 
BRANCH  13  14
HETATM   14  C   UNL     1      -7.010   9.461  68.155  1.00  0.00    -0.075 C  
BRANCH  14  15
HETATM   15  C   UNL     1      -8.077   9.327  69.196  1.00  0.00    -0.106 A  
HETATM   16  F   UNL     1     -12.390  10.897  70.858  1.00  0.00    -0.371 F  
HETATM   17  F   UNL     1     -11.072  12.176  69.718  1.00  0.00    -0.237 F  
HETATM   18  C   UNL     1      -7.886   8.512  70.303  1.00  0.00    -0.090 A  
HETATM   19  F   UNL     1     -12.164  10.591  68.715  1.00  0.00    -0.249 F  
HETATM   20  C   UNL     1      -8.904   8.361  71.239  1.00  0.00    -0.210 A  
HETATM   21  C   UNL     1      -9.253  10.073  69.109  1.00  0.00    -0.196 A  
HETATM   22  C   UNL     1     -10.162   8.981  71.091  1.00  0.00    -0.363 A  
HETATM   23  C   UNL     1     -11.471  10.876  69.855  1.00  0.00    -0.323 C  
HETATM   24  C   UNL     1     -10.294   9.941  70.056  1.00  0.00    -0.320 A  
BRANCH  22  25
HETATM   25  C   UNL     1     -11.332   8.576  72.000  1.00  0.00    -0.425 C  
HETATM   26  C   UNL     1     -12.356   7.679  71.264  1.00  0.00    -0.334 C  
HETATM   27  C   UNL     1     -11.782   6.302  70.942  1.00  0.00    -0.289 C  
HETATM   28  C   UNL     1     -11.393   5.568  72.217  1.00  0.00    -0.257 C  
HETATM   29  C   UNL     1     -10.485   6.391  73.122  1.00  0.00    -0.265 C  
HETATM   30  C   UNL     1     -10.966   7.838  73.317  1.00  0.00    -0.261 C  
ENDBRANCH  22  25
ENDBRANCH  14  15
ENDBRANCH  13  14
ENDBRANCH  11  13
ENDBRANCH   9  11
ENDBRANCH   5   9
BRANCH   8  31
HETATM   31  C   UNL     1     -10.638  15.337  68.050  1.00  0.00    -0.261 C  
BRANCH  31  32
HETATM   32  N   UNL     1      -9.974  16.642  67.812  1.00  0.00    -0.256 NA 
HETATM   33  O   UNL     1      -8.267  19.172  67.511  1.00  0.00    -0.275 OA 
HETATM   34  O   UNL     1      -9.707  20.851  67.097  1.00  0.00    -0.431 OA 
HETATM   35  C   UNL     1     -10.369  17.228  66.504  1.00  0.00    -0.308 C  
HETATM   36  C   UNL     1      -9.520  19.648  67.260  1.00  0.00    -0.341 C  
HETATM   37  C   UNL     1     -10.784  17.701  68.490  1.00  0.00    -0.190 C  
HETATM   38  C   UNL     1     -10.623  18.569  67.228  1.00  0.00    -0.453 C  
ENDBRANCH  31  32
ENDBRANCH   8  31
ENDBRANCH   2   3
TORSDOF 9
ENDMDL
MODEL       57
REMARK 921   NORMALIZED FREE ENERGY PREDICTED BY IDOCK:   -7.22 KCAL/MOL
REMARK 922        TOTAL FREE ENERGY PREDICTED BY IDOCK:  -12.45 KCAL/MOL
REMARK 923 INTER-LIGAND FREE ENERGY PREDICTED BY IDOCK:  -10.68 KCAL/MOL
REMARK 924 INTRA-LIGAND FREE ENERGY PREDICTED BY IDOCK:   -1.77 KCAL/MOL
REMARK 927      BINDING AFFINITY PREDICTED BY RF-SCORE:    0.00 PKD
ROOT
HETATM    1  C   UNL     1      -6.019   9.487  70.433  1.00  0.00    -0.055 C  
HETATM    2  C   UNL     1      -7.368  10.049  70.016  1.00  0.00    -0.172 C  
ENDROOT
BRANCH   2   3
HETATM    3  C   UNL     1      -8.435   8.986  69.878  1.00  0.00    -0.139 A  
HETATM    4  C   UNL     1      -9.240   8.809  71.013  1.00  0.00    -0.278 A  
HETATM    5  C   UNL     1     -10.153   7.758  71.115  1.00  0.00    -0.206 A  
HETATM    6  C   UNL     1     -10.306   6.883  70.047  1.00  0.00    -0.219 A  
HETATM    7  C   UNL     1      -9.559   7.088  68.875  1.00  0.00    -0.140 A  
HETATM    8  C   UNL     1      -8.629   8.148  68.758  1.00  0.00    -0.127 A  
BRANCH   5   9
HETATM    9  C   UNL     1     -10.804   7.575  72.443  1.00  0.00    -0.276 C  
HETATM   10  C   UNL     1     -10.051   6.934  73.577  1.00  0.00    -0.323 C  
BRANCH   9  11
HETATM   11  N   UNL     1     -12.033   7.996  72.552  1.00  0.00    -0.520 NA 
HETATM   12  H   UNL     1     -12.467   8.272  73.433  1.00  0.00     0.000 HD 
BRANCH  11  13
HETATM   13  O   UNL     1     -12.684   8.024  71.319  1.00  0.00    -0.296 OA 
BRANCH  13  14
HETATM   14  C   UNL     1     -13.832   8.853  71.455  1.00  0.00    -0.336 C  
BRANCH  14  15
HETATM   15  C   UNL     1     -13.375  10.276  71.358  1.00  0.00    -0.395 A  
HETATM   16  F   UNL     1     -10.531  13.511  69.063  1.00  0.00    -0.227 F  
HETATM   17  F   UNL     1     -10.025  11.412  69.156  1.00  0.00    -0.200 F  
HETATM   18  C   UNL     1     -13.752  11.206  72.317  1.00  0.00     0.198 A  
HETATM   19  F   UNL     1     -11.632  12.072  67.856  1.00  0.00    -0.313 F  
HETATM   20  C   UNL     1     -13.359  12.534  72.189  1.00  0.00    -0.540 A  
HETATM   21  C   UNL     1     -12.506  10.676  70.342  1.00  0.00    -0.421 A  
HETATM   22  C   UNL     1     -12.611  12.996  71.086  1.00  0.00    -0.388 A  
HETATM   23  C   UNL     1     -11.087  12.270  69.090  1.00  0.00    -0.203 C  
HETATM   24  C   UNL     1     -12.087  12.019  70.203  1.00  0.00    -0.377 A  
BRANCH  22  25
HETATM   25  C   UNL     1     -12.432  14.504  70.855  1.00  0.00    -0.415 C  
HETATM   26  C   UNL     1     -13.745  15.289  71.092  1.00  0.00    -0.519 C  
HETATM   27  C   UNL     1     -14.149  15.293  72.563  1.00  0.00    -0.567 C  
HETATM   28  C   UNL     1     -13.081  15.960  73.415  1.00  0.00    -0.694 C  
HETATM   29  C   UNL     1     -11.690  15.380  73.186  1.00  0.00    -0.443 C  
HETATM   30  C   UNL     1     -11.336  15.212  71.699  1.00  0.00    -0.394 C  
ENDBRANCH  22  25
ENDBRANCH  14  15
ENDBRANCH  13  14
ENDBRANCH  11  13
ENDBRANCH   9  11
ENDBRANCH   5   9
BRANCH   8  31
HETATM   31  C   UNL     1      -7.780   8.270  67.500  1.00  0.00    -0.099 C  
BRANCH  31  32
HETATM   32  N   UNL     1      -8.422   8.940  66.343  1.00  0.00    -0.114 NA 
HETATM   33  O   UNL     1      -9.551  10.042  63.713  1.00  0.00    -0.280 OA 
HETATM   34  O   UNL     1     -10.277  12.122  64.168  1.00  0.00    -0.311 OA 
HETATM   35  C   UNL     1      -9.800   9.395  66.668  1.00  0.00    -0.245 C  
HETATM   36  C   UNL     1      -9.810  11.063  64.578  1.00  0.00    -0.290 C  
HETATM   37  C   UNL     1      -7.989  10.372  66.341  1.00  0.00    -0.130 C  
HETATM   38  C   UNL     1      -9.449  10.767  66.050  1.00  0.00    -0.230 C  
ENDBRANCH  31  32
ENDBRANCH   8  31
ENDBRANCH   2   3
TORSDOF 9
ENDMDL
MODEL       58
REMARK 921   NORMALIZED FREE ENERGY PREDICTED BY IDOCK:   -7.21 KCAL/MOL
REMARK 922        TOTAL FREE ENERGY PREDICTED BY IDOCK:  -12.43 KCAL/MOL
REMARK 923 INTER-LIGAND FREE ENERGY PREDICTED BY IDOCK:  -10.92 KCAL/MOL
REMARK 924 INTRA-LIGAND FREE ENERGY PREDICTED BY IDOCK:   -1.50 KCAL/MOL
REMARK 927      BINDING AFFINITY PREDICTED BY RF-SCORE:    0.00 PKD
ROOT
HETATM    1  C   UNL     1     -13.535  13.449  72.340  1.00  0.00    -0.685 C  
HETATM    2  C   UNL     1     -13.410  11.948  72.133  1.00  0.00    -0.361 C  
ENDROOT
BRANCH   2   3
HETATM    3  C   UNL     1     -12.406  11.579  71.066  1.00  0.00    -0.434 A  
HETATM    4  C   UNL     1     -12.119  12.601  70.148  1.00  0.00    -0.368 A  
HETATM    5  C   UNL     1     -11.350  12.374  69.005  1.00  0.00    -0.336 A  
HETATM    6  C   UNL     1     -10.812  11.112  68.786  1.00  0.00    -0.256 A  
HETATM    7  C   UNL     1     -11.030  10.095  69.732  1.00  0.00    -0.325 A  
HETATM    8  C   UNL     1     -11.808  10.311  70.893  1.00  0.00    -0.473 A  
BRANCH   5   9
HETATM    9  C   UNL     1     -11.282  13.492  68.022  1.00  0.00    -0.271 C  
HETATM   10  C   UNL     1     -10.288  13.452  66.893  1.00  0.00    -0.257 C  
BRANCH   9  11
HETATM   11  N   UNL     1     -12.117  14.476  68.202  1.00  0.00    -0.573 NA 
HETATM   12  H   UNL     1     -13.052  14.514  67.796  1.00  0.00     0.000 HD 
BRANCH  11  13
HETATM   13  O   UNL     1     -11.579  15.472  69.017  1.00  0.00    -0.322 OA 
BRANCH  13  14
HETATM   14  C   UNL     1     -11.528  16.672  68.255  1.00  0.00     0.008 C  
BRANCH  14  15
HETATM   15  C   UNL     1     -10.157  17.253  68.416  1.00  0.00    -0.333 A  
HETATM   16  F   UNL     1      -5.462  16.422  69.461  1.00  0.00    -0.123 F  
HETATM   17  F   UNL     1      -7.043  15.174  70.245  1.00  0.00    -0.149 F  
HETATM   18  C   UNL     1      -9.962  18.626  68.378  1.00  0.00    -0.428 A  
HETATM   19  F   UNL     1      -6.488  15.017  68.152  1.00  0.00    -0.093 F  
HETATM   20  C   UNL     1      -8.677  19.148  68.484  1.00  0.00    -0.401 A  
HETATM   21  C   UNL     1      -9.062  16.427  68.679  1.00  0.00    -0.233 A  
HETATM   22  C   UNL     1      -7.536  18.327  68.591  1.00  0.00    -0.308 A  
HETATM   23  C   UNL     1      -6.689  15.919  69.155  1.00  0.00    -0.164 C  
HETATM   24  C   UNL     1      -7.751  16.942  68.799  1.00  0.00    -0.247 A  
BRANCH  22  25
HETATM   25  C   UNL     1      -6.133  18.934  68.436  1.00  0.00    -0.228 C  
HETATM   26  C   UNL     1      -5.464  18.518  67.104  1.00  0.00    -0.138 C  
HETATM   27  C   UNL     1      -6.157  19.143  65.897  1.00  0.00    -0.219 C  
HETATM   28  C   UNL     1      -6.093  20.661  65.964  1.00  0.00    -0.260 C  
HETATM   29  C   UNL     1      -6.596  21.219  67.289  1.00  0.00    -0.403 C  
HETATM   30  C   UNL     1      -6.033  20.482  68.515  1.00  0.00    -0.358 C  
ENDBRANCH  22  25
ENDBRANCH  14  15
ENDBRANCH  13  14
ENDBRANCH  11  13
ENDBRANCH   9  11
ENDBRANCH   5   9
BRANCH   8  31
HETATM   31  C   UNL     1     -12.088   9.150  71.839  1.00  0.00    -0.378 C  
BRANCH  31  32
HETATM   32  N   UNL     1     -11.225   7.955  71.675  1.00  0.00    -0.245 NA 
HETATM   33  O   UNL     1      -9.230   5.710  71.054  1.00  0.00    -0.149 OA 
HETATM   34  O   UNL     1     -10.179   3.809  71.792  1.00  0.00    -0.141 OA 
HETATM   35  C   UNL     1     -11.014   7.249  72.967  1.00  0.00    -0.344 C  
HETATM   36  C   UNL     1     -10.221   5.033  71.699  1.00  0.00    -0.208 C  
HETATM   37  C   UNL     1     -12.092   6.817  71.238  1.00  0.00    -0.370 C  
HETATM   38  C   UNL     1     -11.355   5.923  72.252  1.00  0.00    -0.351 C  
ENDBRANCH  31  32
ENDBRANCH   8  31
ENDBRANCH   2   3
TORSDOF 9
ENDMDL
MODEL       59
REMARK 921   NORMALIZED FREE ENERGY PREDICTED BY IDOCK:   -7.20 KCAL/MOL
REMARK 922        TOTAL FREE ENERGY PREDICTED BY IDOCK:  -12.41 KCAL/MOL
REMARK 923 INTER-LIGAND FREE ENERGY PREDICTED BY IDOCK:   -9.93 KCAL/MOL
REMARK 924 INTRA-LIGAND FREE ENERGY PREDICTED BY IDOCK:   -2.49 KCAL/MOL
REMARK 927      BINDING AFFINITY PREDICTED BY RF-SCORE:    0.00 PKD
ROOT
HETATM    1  C   UNL     1      -7.817  10.998  66.473  1.00  0.00    -0.155 C  
HETATM    2  C   UNL     1      -9.093  10.171  66.442  1.00  0.00    -0.176 C  
ENDROOT
BRANCH   2   3
HETATM    3  C   UNL     1     -10.078  10.562  67.520  1.00  0.00    -0.225 A  
HETATM    4  C   UNL     1      -9.798  10.039  68.791  1.00  0.00    -0.173 A  
HETATM    5  C   UNL     1     -10.696  10.159  69.854  1.00  0.00    -0.340 A  
HETATM    6  C   UNL     1     -11.884  10.854  69.667  1.00  0.00    -0.416 A  
HETATM    7  C   UNL     1     -12.148  11.445  68.420  1.00  0.00    -0.118 A  
HETATM    8  C   UNL     1     -11.248  11.330  67.334  1.00  0.00    -0.370 A  
BRANCH   5   9
HETATM    9  C   UNL     1     -10.361   9.398  71.091  1.00  0.00    -0.307 C  
HETATM   10  C   UNL     1      -8.947   8.949  71.348  1.00  0.00    -0.300 C  
BRANCH   9  11
HETATM   11  N   UNL     1     -11.346   9.155  71.909  1.00  0.00    -0.375 NA 
HETATM   12  H   UNL     1     -11.992   9.866  72.253  1.00  0.00     0.000 HD 
BRANCH  11  13
HETATM   13  O   UNL     1     -11.410   7.807  72.259  1.00  0.00    -0.277 OA 
BRANCH  13  14
HETATM   14  C   UNL     1     -12.154   7.134  71.250  1.00  0.00    -0.348 C  
BRANCH  14  15
HETATM   15  C   UNL     1     -11.208   6.239  70.511  1.00  0.00    -0.420 A  
HETATM   16  F   UNL     1      -9.414   4.867  66.184  1.00  0.00    -0.131 F  
HETATM   17  F   UNL     1     -11.403   5.686  66.385  1.00  0.00    -0.227 F  
HETATM   18  C   UNL     1     -10.525   5.232  71.175  1.00  0.00    -0.275 A  
HETATM   19  F   UNL     1      -9.680   6.994  66.558  1.00  0.00    -0.208 F  
HETATM   20  C   UNL     1      -9.615   4.437  70.485  1.00  0.00    -0.269 A  
HETATM   21  C   UNL     1     -11.051   6.358  69.129  1.00  0.00    -0.428 A  
HETATM   22  C   UNL     1      -9.320   4.640  69.121  1.00  0.00    -0.206 A  
HETATM   23  C   UNL     1     -10.142   5.760  66.907  1.00  0.00    -0.192 C  
HETATM   24  C   UNL     1     -10.138   5.553  68.410  1.00  0.00    -0.234 A  
BRANCH  22  25
HETATM   25  C   UNL     1      -8.125   3.921  68.477  1.00  0.00    -0.079 C  
HETATM   26  C   UNL     1      -6.960   4.892  68.167  1.00  0.00    -0.061 C  
HETATM   27  C   UNL     1      -6.300   5.415  69.439  1.00  0.00    -0.034 C  
HETATM   28  C   UNL     1      -5.712   4.272  70.251  1.00  0.00    -0.013 C  
HETATM   29  C   UNL     1      -6.716   3.157  70.521  1.00  0.00    -0.033 C  
HETATM   30  C   UNL     1      -7.512   2.738  69.275  1.00  0.00    -0.044 C  
ENDBRANCH  22  25
ENDBRANCH  14  15
ENDBRANCH  13  14
ENDBRANCH  11  13
ENDBRANCH   9  11
ENDBRANCH   5   9
BRANCH   8  31
HETATM   31  C   UNL     1     -11.626  11.913  65.978  1.00  0.00    -0.227 C  
BRANCH  31  32
HETATM   32  N   UNL     1     -11.164  13.298  65.713  1.00  0.00    -0.292 NA 
HETATM   33  O   UNL     1      -9.952  16.106  65.493  1.00  0.00    -0.450 OA 
HETATM   34  O   UNL     1     -11.391  17.312  64.253  1.00  0.00    -1.027 OA 
HETATM   35  C   UNL     1     -11.119  13.591  64.256  1.00  0.00    -0.351 C  
HETATM   36  C   UNL     1     -11.072  16.223  64.724  1.00  0.00    -0.281 C  
HETATM   37  C   UNL     1     -12.347  14.206  65.822  1.00  0.00    -0.461 C  
HETATM   38  C   UNL     1     -11.867  14.913  64.541  1.00  0.00    -0.404 C  
ENDBRANCH  31  32
ENDBRANCH   8  31
ENDBRANCH   2   3
TORSDOF 9
ENDMDL
MODEL       60
REMARK 921   NORMALIZED FREE ENERGY PREDICTED BY IDOCK:   -7.19 KCAL/MOL
REMARK 922        TOTAL FREE ENERGY PREDICTED BY IDOCK:  -12.40 KCAL/MOL
REMARK 923 INTER-LIGAND FREE ENERGY PREDICTED BY IDOCK:  -11.27 KCAL/MOL
REMARK 924 INTRA-LIGAND FREE ENERGY PREDICTED BY IDOCK:   -1.13 KCAL/MOL
REMARK 927      BINDING AFFINITY PREDICTED BY RF-SCORE:    0.00 PKD
ROOT
HETATM    1  C   UNL     1      -9.510   4.292  73.512  1.00  0.00    -0.127 C  
HETATM    2  C   UNL     1      -9.725   3.808  72.087  1.00  0.00    -0.228 C  
ENDROOT
BRANCH   2   3
HETATM    3  C   UNL     1     -10.280   4.879  71.175  1.00  0.00    -0.261 A  
HETATM    4  C   UNL     1     -11.126   5.805  71.803  1.00  0.00    -0.301 A  
HETATM    5  C   UNL     1     -11.857   6.749  71.078  1.00  0.00    -0.427 A  
HETATM    6  C   UNL     1     -11.712   6.807  69.697  1.00  0.00    -0.164 A  
HETATM    7  C   UNL     1     -10.815   5.933  69.060  1.00  0.00    -0.383 A  
HETATM    8  C   UNL     1     -10.070   4.971  69.782  1.00  0.00    -0.337 A  
BRANCH   5   9
HETATM    9  C   UNL     1     -12.856   7.543  71.846  1.00  0.00    -0.277 C  
HETATM   10  C   UNL     1     -14.329   7.339  71.615  1.00  0.00    -0.583 C  
BRANCH   9  11
HETATM   11  N   UNL     1     -12.382   8.400  72.706  1.00  0.00    -0.564 NA 
HETATM   12  H   UNL     1     -12.422   8.275  73.718  1.00  0.00     0.000 HD 
BRANCH  11  13
HETATM   13  O   UNL     1     -11.812   9.507  72.078  1.00  0.00    -0.341 OA 
BRANCH  13  14
HETATM   14  C   UNL     1     -12.828  10.493  71.936  1.00  0.00    -0.403 C  
BRANCH  14  15
HETATM   15  C   UNL     1     -12.483  11.329  70.743  1.00  0.00    -0.471 A  
HETATM   16  F   UNL     1     -12.001  15.823  68.900  1.00  0.00    -0.370 F  
HETATM   17  F   UNL     1     -13.359  15.397  70.526  1.00  0.00    -0.417 F  
HETATM   18  C   UNL     1     -12.270  10.739  69.505  1.00  0.00    -0.292 A  
HETATM   19  F   UNL     1     -11.221  15.441  70.896  1.00  0.00    -0.294 F  
HETATM   20  C   UNL     1     -11.906  11.524  68.415  1.00  0.00    -0.353 A  
HETATM   21  C   UNL     1     -12.441  12.721  70.838  1.00  0.00    -0.373 A  
HETATM   22  C   UNL     1     -11.702  12.915  68.523  1.00  0.00    -0.374 A  
HETATM   23  C   UNL     1     -12.156  15.028  69.993  1.00  0.00    -0.337 C  
HETATM   24  C   UNL     1     -12.083  13.534  69.739  1.00  0.00    -0.381 A  
BRANCH  22  25
HETATM   25  C   UNL     1     -11.047  13.688  67.368  1.00  0.00    -0.299 C  
HETATM   26  C   UNL     1      -9.797  12.961  66.817  1.00  0.00    -0.241 C  
HETATM   27  C   UNL     1     -10.161  11.667  66.096  1.00  0.00    -0.263 C  
HETATM   28  C   UNL     1     -11.064  11.949  64.904  1.00  0.00    -0.363 C  
HETATM   29  C   UNL     1     -12.284  12.787  65.269  1.00  0.00    -0.535 C  
HETATM   30  C   UNL     1     -11.948  14.006  66.144  1.00  0.00    -0.440 C  
ENDBRANCH  22  25
ENDBRANCH  14  15
ENDBRANCH  13  14
ENDBRANCH  11  13
ENDBRANCH   9  11
ENDBRANCH   5   9
BRANCH   8  31
HETATM   31  C   UNL     1      -9.180   3.989  69.031  1.00  0.00    -0.152 C  
BRANCH  31  32
HETATM   32  N   UNL     1      -9.427   3.869  67.574  1.00  0.00    -0.191 NA 
HETATM   33  O   UNL     1     -10.346   3.631  64.658  1.00  0.00    -0.175 OA 
HETATM   34  O   UNL     1      -8.578   2.848  63.508  1.00  0.00    -0.086 OA 
HETATM   35  C   UNL     1      -8.421   4.627  66.783  1.00  0.00    -0.105 C  
HETATM   36  C   UNL     1      -9.037   3.258  64.570  1.00  0.00    -0.132 C  
HETATM   37  C   UNL     1      -8.789   2.601  67.101  1.00  0.00    -0.138 C  
HETATM   38  C   UNL     1      -8.245   3.380  65.889  1.00  0.00    -0.094 C  
ENDBRANCH  31  32
ENDBRANCH   8  31
ENDBRANCH   2   3
TORSDOF 9
ENDMDL
MODEL       61
REMARK 921   NORMALIZED FREE ENERGY PREDICTED BY IDOCK:   -7.19 KCAL/MOL
REMARK 922        TOTAL FREE ENERGY PREDICTED BY IDOCK:  -12.40 KCAL/MOL
REMARK 923 INTER-LIGAND FREE ENERGY PREDICTED BY IDOCK:   -9.93 KCAL/MOL
REMARK 924 INTRA-LIGAND FREE ENERGY PREDICTED BY IDOCK:   -2.47 KCAL/MOL
REMARK 927      BINDING AFFINITY PREDICTED BY RF-SCORE:    0.00 PKD
ROOT
HETATM    1  C   UNL     1     -10.627  14.161  64.808  1.00  0.00    -0.439 C  
HETATM    2  C   UNL     1     -11.241  14.375  66.182  1.00  0.00    -0.336 C  
ENDROOT
BRANCH   2   3
HETATM    3  C   UNL     1     -10.834  13.318  67.184  1.00  0.00    -0.268 A  
HETATM    4  C   UNL     1      -9.911  12.377  66.704  1.00  0.00    -0.231 A  
HETATM    5  C   UNL     1      -9.564  11.241  67.439  1.00  0.00    -0.182 A  
HETATM    6  C   UNL     1     -10.112  11.054  68.701  1.00  0.00    -0.207 A  
HETATM    7  C   UNL     1     -10.983  12.023  69.226  1.00  0.00    -0.189 A  
HETATM    8  C   UNL     1     -11.345  13.177  68.492  1.00  0.00    -0.321 A  
BRANCH   5   9
HETATM    9  C   UNL     1      -8.722  10.233  66.736  1.00  0.00    -0.126 C  
HETATM   10  C   UNL     1      -7.233  10.427  66.627  1.00  0.00    -0.113 C  
BRANCH   9  11
HETATM   11  N   UNL     1      -9.344   9.201  66.238  1.00  0.00    -0.197 NA 
HETATM   12  H   UNL     1     -10.269   9.244  65.809  1.00  0.00     0.000 HD 
BRANCH  11  13
HETATM   13  O   UNL     1      -8.594   8.032  66.360  1.00  0.00    -0.130 OA 
BRANCH  13  14
HETATM   14  C   UNL     1      -9.503   6.950  66.523  1.00  0.00    -0.153 C  
BRANCH  14  15
HETATM   15  C   UNL     1      -9.974   6.965  67.944  1.00  0.00    -0.174 A  
HETATM   16  F   UNL     1      -8.899   7.968  72.598  1.00  0.00    -0.176 F  
HETATM   17  F   UNL     1      -7.372   7.435  71.164  1.00  0.00    -0.068 F  
HETATM   18  C   UNL     1     -11.191   6.396  68.291  1.00  0.00    -0.276 A  
HETATM   19  F   UNL     1      -8.294   9.398  71.073  1.00  0.00    -0.212 F  
HETATM   20  C   UNL     1     -11.637   6.457  69.607  1.00  0.00    -0.351 A  
HETATM   21  C   UNL     1      -9.166   7.488  68.955  1.00  0.00    -0.146 A  
HETATM   22  C   UNL     1     -10.911   7.120  70.619  1.00  0.00    -0.268 A  
HETATM   23  C   UNL     1      -8.572   8.079  71.283  1.00  0.00    -0.126 C  
HETATM   24  C   UNL     1      -9.598   7.549  70.300  1.00  0.00    -0.165 A  
BRANCH  22  25
HETATM   25  C   UNL     1     -11.563   7.391  71.983  1.00  0.00    -0.321 C  
HETATM   26  C   UNL     1     -11.846   8.896  72.203  1.00  0.00    -0.417 C  
HETATM   27  C   UNL     1     -12.944   9.412  71.278  1.00  0.00    -0.373 C  
HETATM   28  C   UNL     1     -14.253   8.679  71.532  1.00  0.00    -0.412 C  
HETATM   29  C   UNL     1     -14.103   7.163  71.484  1.00  0.00    -0.467 C  
HETATM   30  C   UNL     1     -12.893   6.644  72.278  1.00  0.00     0.034 C  
ENDBRANCH  22  25
ENDBRANCH  14  15
ENDBRANCH  13  14
ENDBRANCH  11  13
ENDBRANCH   9  11
ENDBRANCH   5   9
BRANCH   8  31
HETATM   31  C   UNL     1     -12.364  14.150  69.072  1.00  0.00    -0.110 C  
BRANCH  31  32
HETATM   32  N   UNL     1     -12.421  14.228  70.552  1.00  0.00    -0.342 NA 
HETATM   33  O   UNL     1     -12.666  13.989  73.600  1.00  0.00    -0.214 OA 
HETATM   34  O   UNL     1     -12.755  16.095  74.386  1.00  0.00    -0.702 OA 
HETATM   35  C   UNL     1     -11.320  15.065  71.100  1.00  0.00    -0.270 C  
HETATM   36  C   UNL     1     -12.606  15.341  73.429  1.00  0.00    -0.525 C  
HETATM   37  C   UNL     1     -13.381  15.315  70.919  1.00  0.00    -0.419 C  
HETATM   38  C   UNL     1     -12.366  15.795  71.973  1.00  0.00    -0.534 C  
ENDBRANCH  31  32
ENDBRANCH   8  31
ENDBRANCH   2   3
TORSDOF 9
ENDMDL
MODEL       62
REMARK 921   NORMALIZED FREE ENERGY PREDICTED BY IDOCK:   -7.18 KCAL/MOL
REMARK 922        TOTAL FREE ENERGY PREDICTED BY IDOCK:  -12.38 KCAL/MOL
REMARK 923 INTER-LIGAND FREE ENERGY PREDICTED BY IDOCK:  -10.57 KCAL/MOL
REMARK 924 INTRA-LIGAND FREE ENERGY PREDICTED BY IDOCK:   -1.81 KCAL/MOL
REMARK 927      BINDING AFFINITY PREDICTED BY RF-SCORE:    0.00 PKD
ROOT
HETATM    1  C   UNL     1      -8.878   8.240  72.584  1.00  0.00    -0.304 C  
HETATM    2  C   UNL     1      -8.772   8.135  71.071  1.00  0.00    -0.156 C  
ENDROOT
BRANCH   2   3
HETATM    3  C   UNL     1      -9.695   9.087  70.346  1.00  0.00    -0.245 A  
HETATM    4  C   UNL     1     -10.728   9.620  71.133  1.00  0.00    -0.365 A  
HETATM    5  C   UNL     1     -11.765  10.374  70.580  1.00  0.00    -0.434 A  
HETATM    6  C   UNL     1     -11.756  10.647  69.217  1.00  0.00    -0.336 A  
HETATM    7  C   UNL     1     -10.692  10.181  68.427  1.00  0.00    -0.266 A  
HETATM    8  C   UNL     1      -9.637   9.414  68.973  1.00  0.00    -0.164 A  
BRANCH   5   9
HETATM    9  C   UNL     1     -12.891  10.717  71.492  1.00  0.00    -0.462 C  
HETATM   10  C   UNL     1     -13.657   9.629  72.197  1.00  0.00    -0.471 C  
BRANCH   9  11
HETATM   11  N   UNL     1     -13.160  11.984  71.635  1.00  0.00    -0.397 NA 
HETATM   12  H   UNL     1     -14.035  12.344  72.018  1.00  0.00     0.000 HD 
BRANCH  11  13
HETATM   13  O   UNL     1     -12.109  12.791  71.200  1.00  0.00    -0.139 OA 
BRANCH  13  14
HETATM   14  C   UNL     1     -12.666  14.021  70.751  1.00  0.00    -0.326 C  
BRANCH  14  15
HETATM   15  C   UNL     1     -11.838  14.498  69.598  1.00  0.00    -0.367 A  
HETATM   16  F   UNL     1     -11.040  14.314  64.786  1.00  0.00    -0.337 F  
HETATM   17  F   UNL     1     -11.941  12.667  65.856  1.00  0.00    -0.420 F  
HETATM   18  C   UNL     1     -10.699  15.260  69.813  1.00  0.00    -0.295 A  
HETATM   19  F   UNL     1     -13.097  14.465  65.481  1.00  0.00    -0.489 F  
HETATM   20  C   UNL     1      -9.966  15.734  68.730  1.00  0.00    -0.214 A  
HETATM   21  C   UNL     1     -12.158  14.124  68.291  1.00  0.00    -0.297 A  
HETATM   22  C   UNL     1     -10.358  15.503  67.395  1.00  0.00    -0.266 A  
HETATM   23  C   UNL     1     -11.854  14.031  65.838  1.00  0.00    -0.383 C  
HETATM   24  C   UNL     1     -11.418  14.588  67.180  1.00  0.00    -0.383 A  
BRANCH  22  25
HETATM   25  C   UNL     1      -9.674  16.265  66.249  1.00  0.00    -0.329 C  
HETATM   26  C   UNL     1     -10.396  17.594  65.922  1.00  0.00    -0.261 C  
HETATM   27  C   UNL     1     -10.246  18.616  67.045  1.00  0.00    -0.418 C  
HETATM   28  C   UNL     1      -8.782  18.958  67.273  1.00  0.00    -0.294 C  
HETATM   29  C   UNL     1      -7.909  17.725  67.475  1.00  0.00    -0.214 C  
HETATM   30  C   UNL     1      -8.173  16.614  66.445  1.00  0.00    -0.353 C  
ENDBRANCH  22  25
ENDBRANCH  14  15
ENDBRANCH  13  14
ENDBRANCH  11  13
ENDBRANCH   9  11
ENDBRANCH   5   9
BRANCH   8  31
HETATM   31  C   UNL     1      -8.556   8.858  68.055  1.00  0.00    -0.130 C  
BRANCH  31  32
HETATM   32  N   UNL     1      -8.726   9.133  66.608  1.00  0.00    -0.126 NA 
HETATM   33  O   UNL     1      -9.432   9.902  63.724  1.00  0.00    -0.268 OA 
HETATM   34  O   UNL     1      -8.228   8.536  62.402  1.00  0.00    -0.164 OA 
HETATM   35  C   UNL     1      -7.422   9.394  65.942  1.00  0.00    -0.099 C  
HETATM   36  C   UNL     1      -8.490   8.935  63.533  1.00  0.00    -0.140 C  
HETATM   37  C   UNL     1      -8.787   7.821  65.894  1.00  0.00    -0.142 C  
HETATM   38  C   UNL     1      -7.840   8.406  64.830  1.00  0.00    -0.121 C  
ENDBRANCH  31  32
ENDBRANCH   8  31
ENDBRANCH   2   3
TORSDOF 9
ENDMDL
MODEL       63
REMARK 921   NORMALIZED FREE ENERGY PREDICTED BY IDOCK:   -7.16 KCAL/MOL
REMARK 922        TOTAL FREE ENERGY PREDICTED BY IDOCK:  -12.35 KCAL/MOL
REMARK 923 INTER-LIGAND FREE ENERGY PREDICTED BY IDOCK:  -10.75 KCAL/MOL
REMARK 924 INTRA-LIGAND FREE ENERGY PREDICTED BY IDOCK:   -1.60 KCAL/MOL
REMARK 927      BINDING AFFINITY PREDICTED BY RF-SCORE:    0.00 PKD
ROOT
HETATM    1  C   UNL     1     -10.153  10.512  64.432  1.00  0.00    -0.395 C  
HETATM    2  C   UNL     1      -9.539   9.838  65.648  1.00  0.00    -0.329 C  
ENDROOT
BRANCH   2   3
HETATM    3  C   UNL     1     -10.212  10.228  66.945  1.00  0.00    -0.286 A  
HETATM    4  C   UNL     1     -10.876  11.463  66.914  1.00  0.00    -0.335 A  
HETATM    5  C   UNL     1     -11.400  12.050  68.069  1.00  0.00    -0.358 A  
HETATM    6  C   UNL     1     -11.302  11.375  69.279  1.00  0.00    -0.355 A  
HETATM    7  C   UNL     1     -10.704  10.104  69.314  1.00  0.00    -0.259 A  
HETATM    8  C   UNL     1     -10.168   9.499  68.153  1.00  0.00    -0.231 A  
BRANCH   5   9
HETATM    9  C   UNL     1     -11.909  13.443  67.929  1.00  0.00    -0.357 C  
HETATM   10  C   UNL     1     -11.823  14.155  66.605  1.00  0.00    -0.447 C  
BRANCH   9  11
HETATM   11  N   UNL     1     -12.418  13.987  68.999  1.00  0.00    -0.442 NA 
HETATM   12  H   UNL     1     -13.399  13.910  69.267  1.00  0.00     0.000 HD 
BRANCH  11  13
HETATM   13  O   UNL     1     -11.460  14.686  69.733  1.00  0.00    -0.258 OA 
BRANCH  13  14
HETATM   14  C   UNL     1     -11.722  16.075  69.571  1.00  0.00    -0.272 C  
BRANCH  14  15
HETATM   15  C   UNL     1     -10.524  16.688  68.914  1.00  0.00    -0.322 A  
HETATM   16  F   UNL     1      -8.834  20.076  65.834  1.00  0.00    -0.384 F  
HETATM   17  F   UNL     1     -10.825  19.257  65.648  1.00  0.00    -0.527 F  
HETATM   18  C   UNL     1      -9.270  16.112  69.055  1.00  0.00    -0.252 A  
HETATM   19  F   UNL     1     -10.385  20.655  67.249  1.00  0.00    -0.509 F  
HETATM   20  C   UNL     1      -8.158  16.717  68.478  1.00  0.00    -0.241 A  
HETATM   21  C   UNL     1     -10.659  17.807  68.091  1.00  0.00    -0.350 A  
HETATM   22  C   UNL     1      -8.245  17.936  67.773  1.00  0.00    -0.233 A  
HETATM   23  C   UNL     1      -9.871  19.590  66.568  1.00  0.00    -0.404 C  
HETATM   24  C   UNL     1      -9.542  18.429  67.488  1.00  0.00    -0.293 A  
BRANCH  22  25
HETATM   25  C   UNL     1      -6.966  18.695  67.389  1.00  0.00    -0.208 C  
HETATM   26  C   UNL     1      -6.808  20.011  68.187  1.00  0.00    -0.329 C  
HETATM   27  C   UNL     1      -6.528  19.752  69.665  1.00  0.00    -0.389 C  
HETATM   28  C   UNL     1      -5.231  18.976  69.840  1.00  0.00    -0.213 C  
HETATM   29  C   UNL     1      -5.180  17.708  68.996  1.00  0.00    -0.170 C  
HETATM   30  C   UNL     1      -5.626  17.923  67.541  1.00  0.00    -0.147 C  
ENDBRANCH  22  25
ENDBRANCH  14  15
ENDBRANCH  13  14
ENDBRANCH  11  13
ENDBRANCH   9  11
ENDBRANCH   5   9
BRANCH   8  31
HETATM   31  C   UNL     1      -9.449   8.160  68.265  1.00  0.00    -0.141 C  
BRANCH  31  32
HETATM   32  N   UNL     1      -9.722   7.375  69.493  1.00  0.00    -0.159 NA 
HETATM   33  O   UNL     1     -10.314   6.122  72.228  1.00  0.00    -0.188 OA 
HETATM   34  O   UNL     1      -9.656   3.975  72.087  1.00  0.00    -0.133 OA 
HETATM   35  C   UNL     1     -10.540   6.168  69.202  1.00  0.00    -0.282 C  
HETATM   36  C   UNL     1      -9.837   5.053  71.528  1.00  0.00    -0.180 C  
HETATM   37  C   UNL     1      -8.550   6.478  69.735  1.00  0.00    -0.136 C  
HETATM   38  C   UNL     1      -9.541   5.340  70.040  1.00  0.00    -0.238 C  
ENDBRANCH  31  32
ENDBRANCH   8  31
ENDBRANCH   2   3
TORSDOF 9
ENDMDL
MODEL       64
REMARK 921   NORMALIZED FREE ENERGY PREDICTED BY IDOCK:   -7.15 KCAL/MOL
REMARK 922        TOTAL FREE ENERGY PREDICTED BY IDOCK:  -12.35 KCAL/MOL
REMARK 923 INTER-LIGAND FREE ENERGY PREDICTED BY IDOCK:  -11.83 KCAL/MOL
REMARK 924 INTRA-LIGAND FREE ENERGY PREDICTED BY IDOCK:   -0.52 KCAL/MOL
REMARK 927      BINDING AFFINITY PREDICTED BY RF-SCORE:    0.00 PKD
ROOT
HETATM    1  C   UNL     1     -11.865  12.344  69.063  1.00  0.00    -0.349 C  
HETATM    2  C   UNL     1     -11.415  10.911  68.832  1.00  0.00    -0.369 C  
ENDROOT
BRANCH   2   3
HETATM    3  C   UNL     1     -10.779  10.701  67.477  1.00  0.00    -0.321 A  
HETATM    4  C   UNL     1     -11.163  11.627  66.496  1.00  0.00    -0.356 A  
HETATM    5  C   UNL     1     -10.806  11.475  65.155  1.00  0.00    -0.326 A  
HETATM    6  C   UNL     1     -10.008  10.401  64.781  1.00  0.00    -0.409 A  
HETATM    7  C   UNL     1      -9.556   9.503  65.762  1.00  0.00    -0.337 A  
HETATM    8  C   UNL     1      -9.912   9.644  67.124  1.00  0.00    -0.249 A  
BRANCH   5   9
HETATM    9  C   UNL     1     -11.435  12.422  64.192  1.00  0.00    -0.381 C  
HETATM   10  C   UNL     1     -12.603  11.985  63.349  1.00  0.00    -0.592 C  
BRANCH   9  11
HETATM   11  N   UNL     1     -10.921  13.618  64.132  1.00  0.00    -0.572 NA 
HETATM   12  H   UNL     1      -9.982  13.820  63.791  1.00  0.00     0.000 HD 
BRANCH  11  13
HETATM   13  O   UNL     1     -11.811  14.590  64.591  1.00  0.00    -0.413 OA 
BRANCH  13  14
HETATM   14  C   UNL     1     -11.607  14.735  65.991  1.00  0.00    -0.286 C  
BRANCH  14  15
HETATM   15  C   UNL     1     -10.523  15.750  66.187  1.00  0.00    -0.326 A  
HETATM   16  F   UNL     1      -9.346  20.481  66.422  1.00  0.00    -0.394 F  
HETATM   17  F   UNL     1     -11.035  19.783  65.269  1.00  0.00    -0.581 F  
HETATM   18  C   UNL     1      -9.194  15.360  66.255  1.00  0.00    -0.354 A  
HETATM   19  F   UNL     1     -11.155  19.821  67.436  1.00  0.00    -0.538 F  
HETATM   20  C   UNL     1      -8.201  16.308  66.483  1.00  0.00    -0.344 A  
HETATM   21  C   UNL     1     -10.825  17.113  66.233  1.00  0.00     0.048 A  
HETATM   22  C   UNL     1      -8.496  17.672  66.691  1.00  0.00    -0.285 A  
HETATM   23  C   UNL     1     -10.315  19.527  66.403  1.00  0.00    -0.496 C  
HETATM   24  C   UNL     1      -9.829  18.091  66.453  1.00  0.00    -0.340 A  
BRANCH  22  25
HETATM   25  C   UNL     1      -7.405  18.626  67.200  1.00  0.00    -0.218 C  
HETATM   26  C   UNL     1      -7.299  18.617  68.744  1.00  0.00    -0.326 C  
HETATM   27  C   UNL     1      -6.757  17.291  69.270  1.00  0.00    -0.230 C  
HETATM   28  C   UNL     1      -5.358  17.028  68.734  1.00  0.00    -0.133 C  
HETATM   29  C   UNL     1      -5.274  17.140  67.216  1.00  0.00    -0.168 C  
HETATM   30  C   UNL     1      -5.968  18.393  66.657  1.00  0.00    -0.180 C  
ENDBRANCH  22  25
ENDBRANCH  14  15
ENDBRANCH  13  14
ENDBRANCH  11  13
ENDBRANCH   9  11
ENDBRANCH   5   9
BRANCH   8  31
HETATM   31  C   UNL     1      -9.467   8.591  68.131  1.00  0.00    -0.141 C  
BRANCH  31  32
HETATM   32  N   UNL     1     -10.489   8.161  69.117  1.00  0.00    -0.220 NA 
HETATM   33  O   UNL     1     -12.764   7.656  71.110  1.00  0.00    -0.290 OA 
HETATM   34  O   UNL     1     -12.137   5.876  72.335  1.00  0.00    -0.270 OA 
HETATM   35  C   UNL     1     -10.856   6.731  68.938  1.00  0.00    -0.243 C  
HETATM   36  C   UNL     1     -11.912   6.629  71.392  1.00  0.00    -0.353 C  
HETATM   37  C   UNL     1      -9.780   7.782  70.379  1.00  0.00    -0.179 C  
HETATM   38  C   UNL     1     -10.684   6.538  70.461  1.00  0.00    -0.305 C  
ENDBRANCH  31  32
ENDBRANCH   8  31
ENDBRANCH   2   3
TORSDOF 9
ENDMDL
MODEL       65
REMARK 921   NORMALIZED FREE ENERGY PREDICTED BY IDOCK:   -7.12 KCAL/MOL
REMARK 922        TOTAL FREE ENERGY PREDICTED BY IDOCK:  -12.29 KCAL/MOL
REMARK 923 INTER-LIGAND FREE ENERGY PREDICTED BY IDOCK:  -10.83 KCAL/MOL
REMARK 924 INTRA-LIGAND FREE ENERGY PREDICTED BY IDOCK:   -1.46 KCAL/MOL
REMARK 927      BINDING AFFINITY PREDICTED BY RF-SCORE:    0.00 PKD
ROOT
HETATM    1  C   UNL     1     -13.475   9.457  72.116  1.00  0.00    -0.543 C  
HETATM    2  C   UNL     1     -12.123   9.393  71.424  1.00  0.00    -0.442 C  
ENDROOT
BRANCH   2   3
HETATM    3  C   UNL     1     -11.822  10.624  70.598  1.00  0.00    -0.463 A  
HETATM    4  C   UNL     1     -12.324  11.823  71.125  1.00  0.00    -0.329 A  
HETATM    5  C   UNL     1     -12.285  13.020  70.407  1.00  0.00    -0.386 A  
HETATM    6  C   UNL     1     -11.693  13.040  69.150  1.00  0.00    -0.378 A  
HETATM    7  C   UNL     1     -11.122  11.863  68.637  1.00  0.00    -0.295 A  
HETATM    8  C   UNL     1     -11.156  10.644  69.354  1.00  0.00    -0.315 A  
BRANCH   5   9
HETATM    9  C   UNL     1     -13.020  14.171  71.002  1.00  0.00    -0.329 C  
HETATM   10  C   UNL     1     -13.571  14.082  72.400  1.00  0.00    -0.658 C  
BRANCH   9  11
HETATM   11  N   UNL     1     -13.149  15.230  70.251  1.00  0.00    -0.678 NA 
HETATM   12  H   UNL     1     -13.995  15.461  69.730  1.00  0.00     0.000 HD 
BRANCH  11  13
HETATM   13  O   UNL     1     -11.992  16.008  70.247  1.00  0.00    -0.328 OA 
BRANCH  13  14
HETATM   14  C   UNL     1     -11.740  16.399  68.902  1.00  0.00    -0.059 C  
BRANCH  14  15
HETATM   15  C   UNL     1     -10.364  16.988  68.854  1.00  0.00    -0.337 A  
HETATM   16  F   UNL     1      -5.564  16.209  69.275  1.00  0.00    -0.109 F  
HETATM   17  F   UNL     1      -7.013  14.986  70.311  1.00  0.00    -0.175 F  
HETATM   18  C   UNL     1     -10.187  18.360  68.740  1.00  0.00    -0.333 A  
HETATM   19  F   UNL     1      -6.748  14.755  68.170  1.00  0.00    -0.091 F  
HETATM   20  C   UNL     1      -8.903  18.889  68.650  1.00  0.00    -0.374 A  
HETATM   21  C   UNL     1      -9.237  16.176  68.993  1.00  0.00    -0.252 A  
HETATM   22  C   UNL     1      -7.752  18.075  68.629  1.00  0.00    -0.304 A  
HETATM   23  C   UNL     1      -6.817  15.692  69.158  1.00  0.00    -0.159 C  
HETATM   24  C   UNL     1      -7.926  16.698  68.914  1.00  0.00    -0.236 A  
BRANCH  22  25
HETATM   25  C   UNL     1      -6.388  18.680  68.262  1.00  0.00    -0.220 C  
HETATM   26  C   UNL     1      -5.911  18.230  66.861  1.00  0.00    -0.171 C  
HETATM   27  C   UNL     1      -6.771  18.821  65.748  1.00  0.00    -0.306 C  
HETATM   28  C   UNL     1      -6.706  20.340  65.764  1.00  0.00    -0.277 C  
HETATM   29  C   UNL     1      -7.020  20.933  67.133  1.00  0.00    -0.426 C  
HETATM   30  C   UNL     1      -6.286  20.230  68.286  1.00  0.00    -0.325 C  
ENDBRANCH  22  25
ENDBRANCH  14  15
ENDBRANCH  13  14
ENDBRANCH  11  13
ENDBRANCH   9  11
ENDBRANCH   5   9
BRANCH   8  31
HETATM   31  C   UNL     1     -10.601   9.378  68.712  1.00  0.00    -0.208 C  
BRANCH  31  32
HETATM   32  N   UNL     1     -10.072   9.524  67.335  1.00  0.00    -0.193 NA 
HETATM   33  O   UNL     1      -9.302  10.083  64.420  1.00  0.00    -0.256 OA 
HETATM   34  O   UNL     1      -7.895   8.434  63.818  1.00  0.00    -0.136 OA 
HETATM   35  C   UNL     1      -8.585   9.530  67.317  1.00  0.00    -0.128 C  
HETATM   36  C   UNL     1      -8.553   8.979  64.700  1.00  0.00    -0.165 C  
HETATM   37  C   UNL     1     -10.038   8.166  66.708  1.00  0.00    -0.295 C  
HETATM   38  C   UNL     1      -8.636   8.500  66.166  1.00  0.00    -0.154 C  
ENDBRANCH  31  32
ENDBRANCH   8  31
ENDBRANCH   2   3
TORSDOF 9
ENDMDL
MODEL       66
REMARK 921   NORMALIZED FREE ENERGY PREDICTED BY IDOCK:   -7.07 KCAL/MOL
REMARK 922        TOTAL FREE ENERGY PREDICTED BY IDOCK:  -12.22 KCAL/MOL
REMARK 923 INTER-LIGAND FREE ENERGY PREDICTED BY IDOCK:   -8.36 KCAL/MOL
REMARK 924 INTRA-LIGAND FREE ENERGY PREDICTED BY IDOCK:   -3.86 KCAL/MOL
REMARK 927      BINDING AFFINITY PREDICTED BY RF-SCORE:    0.00 PKD
ROOT
HETATM    1  C   UNL     1     -10.759   7.099  67.041  1.00  0.00    -0.420 C  
HETATM    2  C   UNL     1     -10.260   8.513  66.795  1.00  0.00    -0.370 C  
ENDROOT
BRANCH   2   3
HETATM    3  C   UNL     1     -10.811   9.516  67.783  1.00  0.00    -0.258 A  
HETATM    4  C   UNL     1     -10.988   9.023  69.085  1.00  0.00    -0.025 A  
HETATM    5  C   UNL     1     -11.646   9.761  70.072  1.00  0.00    -0.185 A  
HETATM    6  C   UNL     1     -12.102  11.039  69.775  1.00  0.00    -0.424 A  
HETATM    7  C   UNL     1     -11.870  11.576  68.497  1.00  0.00    -0.365 A  
HETATM    8  C   UNL     1     -11.207  10.839  67.488  1.00  0.00    -0.346 A  
BRANCH   5   9
HETATM    9  C   UNL     1     -11.932   9.048  71.348  1.00  0.00    -0.332 C  
HETATM   10  C   UNL     1     -12.996   9.558  72.282  1.00  0.00    -0.466 C  
BRANCH   9  11
HETATM   11  N   UNL     1     -11.219   7.985  71.593  1.00  0.00    -0.247 NA 
HETATM   12  H   UNL     1     -11.445   7.052  71.246  1.00  0.00     0.000 HD 
BRANCH  11  13
HETATM   13  O   UNL     1     -10.110   8.274  72.388  1.00  0.00    -0.262 OA 
BRANCH  13  14
HETATM   14  C   UNL     1      -9.053   7.411  71.984  1.00  0.00    -0.128 C  
BRANCH  14  15
HETATM   15  C   UNL     1      -8.285   8.111  70.905  1.00  0.00    -0.110 A  
HETATM   16  F   UNL     1      -5.816   7.695  66.715  1.00  0.00    -0.034 F  
HETATM   17  F   UNL     1      -5.948   6.065  68.128  1.00  0.00    -0.013 F  
HETATM   18  C   UNL     1      -7.953   9.452  71.032  1.00  0.00    -0.025 A  
HETATM   19  F   UNL     1      -7.678   6.586  66.926  1.00  0.00    -0.092 F  
HETATM   20  C   UNL     1      -7.279  10.101  70.002  1.00  0.00    -0.166 A  
HETATM   21  C   UNL     1      -7.829   7.409  69.788  1.00  0.00    -0.116 A  
HETATM   22  C   UNL     1      -6.946   9.453  68.794  1.00  0.00    -0.064 A  
HETATM   23  C   UNL     1      -6.647   7.130  67.633  1.00  0.00    -0.056 C  
HETATM   24  C   UNL     1      -7.134   8.050  68.737  1.00  0.00    -0.071 A  
BRANCH  22  25
HETATM   25  C   UNL     1      -6.447  10.272  67.593  1.00  0.00    -0.058 C  
HETATM   26  C   UNL     1      -7.560  11.170  67.000  1.00  0.00    -0.135 C  
HETATM   27  C   UNL     1      -7.948  12.300  67.949  1.00  0.00    -0.152 C  
HETATM   28  C   UNL     1      -6.757  13.205  68.226  1.00  0.00    -0.101 C  
HETATM   29  C   UNL     1      -5.525  12.438  68.692  1.00  0.00    -0.054 C  
HETATM   30  C   UNL     1      -5.222  11.194  67.841  1.00  0.00    -0.039 C  
ENDBRANCH  22  25
ENDBRANCH  14  15
ENDBRANCH  13  14
ENDBRANCH  11  13
ENDBRANCH   9  11
ENDBRANCH   5   9
BRANCH   8  31
HETATM   31  C   UNL     1     -11.062  11.434  66.093  1.00  0.00    -0.198 C  
BRANCH  31  32
HETATM   32  N   UNL     1     -10.982  12.913  66.021  1.00  0.00    -0.273 NA 
HETATM   33  O   UNL     1     -10.848  15.965  66.291  1.00  0.00    -0.292 OA 
HETATM   34  O   UNL     1     -11.347  16.794  64.261  1.00  0.00    -1.170 OA 
HETATM   35  C   UNL     1     -10.058  13.361  64.945  1.00  0.00    -0.233 C  
HETATM   36  C   UNL     1     -11.125  15.813  64.965  1.00  0.00    -0.370 C  
HETATM   37  C   UNL     1     -12.127  13.396  65.189  1.00  0.00    -0.409 C  
HETATM   38  C   UNL     1     -11.150  14.349  64.476  1.00  0.00    -0.301 C  
ENDBRANCH  31  32
ENDBRANCH   8  31
ENDBRANCH   2   3
TORSDOF 9
ENDMDL
MODEL       67
REMARK 921   NORMALIZED FREE ENERGY PREDICTED BY IDOCK:   -7.07 KCAL/MOL
REMARK 922        TOTAL FREE ENERGY PREDICTED BY IDOCK:  -12.22 KCAL/MOL
REMARK 923 INTER-LIGAND FREE ENERGY PREDICTED BY IDOCK:  -10.83 KCAL/MOL
REMARK 924 INTRA-LIGAND FREE ENERGY PREDICTED BY IDOCK:   -1.38 KCAL/MOL
REMARK 927      BINDING AFFINITY PREDICTED BY RF-SCORE:    0.00 PKD
ROOT
HETATM    1  C   UNL     1     -12.725  13.969  72.583  1.00  0.00    -0.324 C  
HETATM    2  C   UNL     1     -13.588  13.231  71.572  1.00  0.00    -0.154 C  
ENDROOT
BRANCH   2   3
HETATM    3  C   UNL     1     -12.894  12.034  70.962  1.00  0.00    -0.279 A  
HETATM    4  C   UNL     1     -13.246  10.799  71.527  1.00  0.00    -0.434 A  
HETATM    5  C   UNL     1     -12.574   9.619  71.201  1.00  0.00    -0.411 A  
HETATM    6  C   UNL     1     -11.555   9.654  70.258  1.00  0.00    -0.255 A  
HETATM    7  C   UNL     1     -11.238  10.870  69.630  1.00  0.00    -0.348 A  
HETATM    8  C   UNL     1     -11.909  12.074  69.952  1.00  0.00    -0.405 A  
BRANCH   5   9
HETATM    9  C   UNL     1     -12.921   8.417  72.010  1.00  0.00    -0.358 C  
HETATM   10  C   UNL     1     -14.058   7.522  71.594  1.00  0.00    -0.562 C  
BRANCH   9  11
HETATM   11  N   UNL     1     -12.195   8.200  73.071  1.00  0.00    -0.625 NA 
HETATM   12  H   UNL     1     -12.498   8.404  74.023  1.00  0.00     0.000 HD 
BRANCH  11  13
HETATM   13  O   UNL     1     -10.953   7.655  72.747  1.00  0.00    -0.315 OA 
BRANCH  13  14
HETATM   14  C   UNL     1     -10.952   6.298  73.175  1.00  0.00    -0.223 C  
BRANCH  14  15
HETATM   15  C   UNL     1     -10.511   5.458  72.016  1.00  0.00    -0.278 A  
HETATM   16  F   UNL     1     -10.111   5.069  67.167  1.00  0.00    -0.168 F  
HETATM   17  F   UNL     1     -11.642   6.283  68.091  1.00  0.00    -0.352 F  
HETATM   18  C   UNL     1     -10.090   4.151  72.211  1.00  0.00    -0.247 A  
HETATM   19  F   UNL     1      -9.582   6.966  68.093  1.00  0.00    -0.127 F  
HETATM   20  C   UNL     1      -9.640   3.398  71.131  1.00  0.00    -0.234 A  
HETATM   21  C   UNL     1     -10.583   5.952  70.712  1.00  0.00    -0.330 A  
HETATM   22  C   UNL     1      -9.553   3.927  69.826  1.00  0.00    -0.271 A  
HETATM   23  C   UNL     1     -10.354   5.853  68.251  1.00  0.00    -0.214 C  
HETATM   24  C   UNL     1     -10.139   5.198  69.602  1.00  0.00    -0.332 A  
BRANCH  22  25
HETATM   25  C   UNL     1      -8.806   3.153  68.729  1.00  0.00    -0.167 C  
HETATM   26  C   UNL     1      -7.541   3.903  68.248  1.00  0.00    -0.066 C  
HETATM   27  C   UNL     1      -6.460   3.947  69.324  1.00  0.00    -0.033 C  
HETATM   28  C   UNL     1      -6.018   2.542  69.703  1.00  0.00    -0.023 C  
HETATM   29  C   UNL     1      -7.184   1.633  70.073  1.00  0.00    -0.033 C  
HETATM   30  C   UNL     1      -8.356   1.709  69.081  1.00  0.00    -0.071 C  
ENDBRANCH  22  25
ENDBRANCH  14  15
ENDBRANCH  13  14
ENDBRANCH  11  13
ENDBRANCH   9  11
ENDBRANCH   5   9
BRANCH   8  31
HETATM   31  C   UNL     1     -11.463  13.380  69.308  1.00  0.00    -0.290 C  
BRANCH  31  32
HETATM   32  N   UNL     1     -12.015  13.664  67.961  1.00  0.00    -0.366 NA 
HETATM   33  O   UNL     1     -13.522  14.320  65.372  1.00  0.00    -0.581 OA 
HETATM   34  O   UNL     1     -12.277  13.483  63.695  1.00  0.00    -0.625 OA 
HETATM   35  C   UNL     1     -11.026  14.362  67.098  1.00  0.00    -0.303 C  
HETATM   36  C   UNL     1     -12.397  13.715  64.895  1.00  0.00    -0.406 C  
HETATM   37  C   UNL     1     -11.830  12.440  67.120  1.00  0.00    -0.291 C  
HETATM   38  C   UNL     1     -11.355  13.353  65.975  1.00  0.00    -0.329 C  
ENDBRANCH  31  32
ENDBRANCH   8  31
ENDBRANCH   2   3
TORSDOF 9
ENDMDL
MODEL       68
REMARK 921   NORMALIZED FREE ENERGY PREDICTED BY IDOCK:   -7.07 KCAL/MOL
REMARK 922        TOTAL FREE ENERGY PREDICTED BY IDOCK:  -12.21 KCAL/MOL
REMARK 923 INTER-LIGAND FREE ENERGY PREDICTED BY IDOCK:  -10.88 KCAL/MOL
REMARK 924 INTRA-LIGAND FREE ENERGY PREDICTED BY IDOCK:   -1.33 KCAL/MOL
REMARK 927      BINDING AFFINITY PREDICTED BY RF-SCORE:    0.00 PKD
ROOT
HETATM    1  C   UNL     1     -11.672  12.575  66.765  1.00  0.00    -0.453 C  
HETATM    2  C   UNL     1     -12.094  13.980  67.161  1.00  0.00    -0.436 C  
ENDROOT
BRANCH   2   3
HETATM    3  C   UNL     1     -11.627  14.371  68.545  1.00  0.00    -0.347 A  
HETATM    4  C   UNL     1     -12.497  14.008  69.585  1.00  0.00    -0.204 A  
HETATM    5  C   UNL     1     -12.302  14.442  70.898  1.00  0.00    -0.419 A  
HETATM    6  C   UNL     1     -11.192  15.221  71.199  1.00  0.00    -0.378 A  
HETATM    7  C   UNL     1     -10.273  15.535  70.184  1.00  0.00    -0.230 A  
HETATM    8  C   UNL     1     -10.458  15.103  68.850  1.00  0.00    -0.241 A  
BRANCH   5   9
HETATM    9  C   UNL     1     -13.398  14.143  71.861  1.00  0.00    -0.393 C  
HETATM   10  C   UNL     1     -14.285  15.247  72.371  1.00  0.00    -0.579 C  
BRANCH   9  11
HETATM   11  N   UNL     1     -13.532  12.897  72.221  1.00  0.00    -0.576 NA 
HETATM   12  H   UNL     1     -13.866  12.600  73.138  1.00  0.00     0.000 HD 
BRANCH  11  13
HETATM   13  O   UNL     1     -13.166  12.019  71.202  1.00  0.00    -0.130 OA 
BRANCH  13  14
HETATM   14  C   UNL     1     -12.774  10.793  71.808  1.00  0.00    -0.359 C  
BRANCH  14  15
HETATM   15  C   UNL     1     -11.739  10.164  70.927  1.00  0.00    -0.468 A  
HETATM   16  F   UNL     1      -9.675   6.030  69.353  1.00  0.00    -0.140 F  
HETATM   17  F   UNL     1     -10.607   6.171  71.298  1.00  0.00    -0.244 F  
HETATM   18  C   UNL     1     -10.807  10.947  70.262  1.00  0.00     0.061 A  
HETATM   19  F   UNL     1     -11.845   6.098  69.517  1.00  0.00    -0.471 F  
HETATM   20  C   UNL     1      -9.880  10.352  69.411  1.00  0.00    -0.235 A  
HETATM   21  C   UNL     1     -11.649   8.775  70.817  1.00  0.00    -0.288 A  
HETATM   22  C   UNL     1      -9.871   8.964  69.159  1.00  0.00    -0.180 A  
HETATM   23  C   UNL     1     -10.696   6.637  70.017  1.00  0.00    -0.240 C  
HETATM   24  C   UNL     1     -10.708   8.153  69.965  1.00  0.00    -0.243 A  
BRANCH  22  25
HETATM   25  C   UNL     1      -9.012   8.395  68.020  1.00  0.00    -0.138 C  
HETATM   26  C   UNL     1      -9.810   8.263  66.700  1.00  0.00    -0.337 C  
HETATM   27  C   UNL     1     -10.165   9.625  66.110  1.00  0.00    -0.276 C  
HETATM   28  C   UNL     1      -8.908  10.416  65.783  1.00  0.00    -0.186 C  
HETATM   29  C   UNL     1      -7.946  10.515  66.961  1.00  0.00    -0.118 C  
HETATM   30  C   UNL     1      -7.712   9.172  67.673  1.00  0.00    -0.089 C  
ENDBRANCH  22  25
ENDBRANCH  14  15
ENDBRANCH  13  14
ENDBRANCH  11  13
ENDBRANCH   9  11
ENDBRANCH   5   9
BRANCH   8  31
HETATM   31  C   UNL     1      -9.478  15.547  67.771  1.00  0.00    -0.204 C  
BRANCH  31  32
HETATM   32  N   UNL     1      -9.700  16.901  67.207  1.00  0.00    -0.246 NA 
HETATM   33  O   UNL     1     -10.095  19.522  65.665  1.00  0.00    -0.422 OA 
HETATM   34  O   UNL     1      -9.841  21.175  67.168  1.00  0.00    -0.248 OA 
HETATM   35  C   UNL     1     -10.746  17.644  67.959  1.00  0.00    -0.328 C  
HETATM   36  C   UNL     1      -9.914  19.971  66.939  1.00  0.00    -0.449 C  
HETATM   37  C   UNL     1      -8.676  17.818  67.795  1.00  0.00    -0.241 C  
HETATM   38  C   UNL     1      -9.792  18.859  68.002  1.00  0.00    -0.404 C  
ENDBRANCH  31  32
ENDBRANCH   8  31
ENDBRANCH   2   3
TORSDOF 9
ENDMDL
MODEL       69
REMARK 921   NORMALIZED FREE ENERGY PREDICTED BY IDOCK:   -7.06 KCAL/MOL
REMARK 922        TOTAL FREE ENERGY PREDICTED BY IDOCK:  -12.20 KCAL/MOL
REMARK 923 INTER-LIGAND FREE ENERGY PREDICTED BY IDOCK:  -10.01 KCAL/MOL
REMARK 924 INTRA-LIGAND FREE ENERGY PREDICTED BY IDOCK:   -2.19 KCAL/MOL
REMARK 927      BINDING AFFINITY PREDICTED BY RF-SCORE:    0.00 PKD
ROOT
HETATM    1  C   UNL     1      -6.894   9.849  70.683  1.00  0.00    -0.087 C  
HETATM    2  C   UNL     1      -8.028  10.122  69.708  1.00  0.00    -0.172 C  
ENDROOT
BRANCH   2   3
HETATM    3  C   UNL     1      -9.106   9.063  69.742  1.00  0.00    -0.163 A  
HETATM    4  C   UNL     1      -9.777   8.945  70.969  1.00  0.00    -0.320 A  
HETATM    5  C   UNL     1     -10.675   7.907  71.224  1.00  0.00    -0.257 A  
HETATM    6  C   UNL     1     -10.952   6.985  70.222  1.00  0.00    -0.304 A  
HETATM    7  C   UNL     1     -10.343   7.130  68.964  1.00  0.00    -0.204 A  
HETATM    8  C   UNL     1      -9.430   8.176  68.693  1.00  0.00    -0.147 A  
BRANCH   5   9
HETATM    9  C   UNL     1     -11.170   7.790  72.625  1.00  0.00    -0.381 C  
HETATM   10  C   UNL     1     -10.323   7.128  73.678  1.00  0.00    -0.411 C  
BRANCH   9  11
HETATM   11  N   UNL     1     -12.350   8.287  72.868  1.00  0.00    -0.631 NA 
HETATM   12  H   UNL     1     -12.830   8.208  73.765  1.00  0.00     0.000 HD 
BRANCH  11  13
HETATM   13  O   UNL     1     -12.879   8.940  71.755  1.00  0.00    -0.324 OA 
BRANCH  13  14
HETATM   14  C   UNL     1     -13.147  10.286  72.131  1.00  0.00    -0.343 C  
BRANCH  14  15
HETATM   15  C   UNL     1     -12.712  11.166  71.000  1.00  0.00    -0.476 A  
HETATM   16  F   UNL     1     -11.917  15.721  69.437  1.00  0.00    -0.335 F  
HETATM   17  F   UNL     1     -13.357  15.283  70.987  1.00  0.00    -0.425 F  
HETATM   18  C   UNL     1     -12.484  10.635  69.739  1.00  0.00    -0.187 A  
HETATM   19  F   UNL     1     -11.235  15.186  71.434  1.00  0.00    -0.358 F  
HETATM   20  C   UNL     1     -12.036  11.457  68.710  1.00  0.00    -0.353 A  
HETATM   21  C   UNL     1     -12.598  12.546  71.177  1.00  0.00    -0.349 A  
HETATM   22  C   UNL     1     -11.761  12.827  68.904  1.00  0.00    -0.370 A  
HETATM   23  C   UNL     1     -12.156  14.877  70.476  1.00  0.00    -0.320 C  
HETATM   24  C   UNL     1     -12.155  13.398  70.140  1.00  0.00    -0.415 A  
BRANCH  22  25
HETATM   25  C   UNL     1     -11.021  13.625  67.820  1.00  0.00    -0.276 C  
HETATM   26  C   UNL     1      -9.856  12.818  67.197  1.00  0.00    -0.216 C  
HETATM   27  C   UNL     1     -10.358  11.642  66.364  1.00  0.00    -0.266 C  
HETATM   28  C   UNL     1     -11.221  12.127  65.209  1.00  0.00    -0.381 C  
HETATM   29  C   UNL     1     -12.342  13.057  65.656  1.00  0.00    -0.504 C  
HETATM   30  C   UNL     1     -11.878  14.148  66.635  1.00  0.00    -0.447 C  
ENDBRANCH  22  25
ENDBRANCH  14  15
ENDBRANCH  13  14
ENDBRANCH  11  13
ENDBRANCH   9  11
ENDBRANCH   5   9
BRANCH   8  31
HETATM   31  C   UNL     1      -8.730   8.233  67.341  1.00  0.00    -0.124 C  
BRANCH  31  32
HETATM   32  N   UNL     1      -8.372   6.927  66.737  1.00  0.00    -0.113 NA 
HETATM   33  O   UNL     1      -7.816   4.053  65.824  1.00  0.00    -0.089 OA 
HETATM   34  O   UNL     1      -6.181   4.192  64.285  1.00  0.00    -0.024 OA 
HETATM   35  C   UNL     1      -8.489   6.957  65.254  1.00  0.00    -0.055 C  
HETATM   36  C   UNL     1      -6.971   4.768  65.028  1.00  0.00    -0.061 C  
HETATM   37  C   UNL     1      -6.885   6.883  66.583  1.00  0.00    -0.064 C  
HETATM   38  C   UNL     1      -7.093   6.300  65.173  1.00  0.00    -0.061 C  
ENDBRANCH  31  32
ENDBRANCH   8  31
ENDBRANCH   2   3
TORSDOF 9
ENDMDL
MODEL       70
REMARK 921   NORMALIZED FREE ENERGY PREDICTED BY IDOCK:   -7.05 KCAL/MOL
REMARK 922        TOTAL FREE ENERGY PREDICTED BY IDOCK:  -12.19 KCAL/MOL
REMARK 923 INTER-LIGAND FREE ENERGY PREDICTED BY IDOCK:  -10.65 KCAL/MOL
REMARK 924 INTRA-LIGAND FREE ENERGY PREDICTED BY IDOCK:   -1.54 KCAL/MOL
REMARK 927      BINDING AFFINITY PREDICTED BY RF-SCORE:    0.00 PKD
ROOT
HETATM    1  C   UNL     1      -7.965   9.043  70.469  1.00  0.00    -0.150 C  
HETATM    2  C   UNL     1      -8.720   8.574  71.702  1.00  0.00    -0.262 C  
ENDROOT
BRANCH   2   3
HETATM    3  C   UNL     1     -10.200   8.877  71.642  1.00  0.00    -0.415 A  
HETATM    4  C   UNL     1     -10.555   9.894  70.742  1.00  0.00    -0.309 A  
HETATM    5  C   UNL     1     -11.850  10.414  70.690  1.00  0.00    -0.445 A  
HETATM    6  C   UNL     1     -12.831   9.885  71.519  1.00  0.00    -0.522 A  
HETATM    7  C   UNL     1     -12.509   8.818  72.375  1.00  0.00    -0.421 A  
HETATM    8  C   UNL     1     -11.201   8.282  72.440  1.00  0.00    -0.451 A  
BRANCH   5   9
HETATM    9  C   UNL     1     -12.045  11.614  69.828  1.00  0.00    -0.289 C  
HETATM   10  C   UNL     1     -12.382  12.946  70.443  1.00  0.00    -0.333 C  
BRANCH   9  11
HETATM   11  N   UNL     1     -11.907  11.436  68.544  1.00  0.00    -0.498 NA 
HETATM   12  H   UNL     1     -12.564  10.910  67.966  1.00  0.00     0.000 HD 
BRANCH  11  13
HETATM   13  O   UNL     1     -10.756  12.051  68.055  1.00  0.00    -0.199 OA 
BRANCH  13  14
HETATM   14  C   UNL     1     -11.159  13.033  67.108  1.00  0.00    -0.273 C  
BRANCH  14  15
HETATM   15  C   UNL     1     -10.654  14.359  67.588  1.00  0.00    -0.260 A  
HETATM   16  F   UNL     1      -7.000  16.829  69.677  1.00  0.00    -0.233 F  
HETATM   17  F   UNL     1      -7.320  14.727  70.059  1.00  0.00    -0.173 F  
HETATM   18  C   UNL     1     -11.490  15.466  67.613  1.00  0.00    -0.255 A  
HETATM   19  F   UNL     1      -6.505  15.360  68.149  1.00  0.00    -0.095 F  
HETATM   20  C   UNL     1     -10.995  16.701  68.018  1.00  0.00    -0.311 A  
HETATM   21  C   UNL     1      -9.356  14.487  68.086  1.00  0.00    -0.197 A  
HETATM   22  C   UNL     1      -9.643  16.891  68.375  1.00  0.00    -0.255 A  
HETATM   23  C   UNL     1      -7.438  15.683  69.090  1.00  0.00    -0.201 C  
HETATM   24  C   UNL     1      -8.840  15.732  68.511  1.00  0.00    -0.193 A  
BRANCH  22  25
HETATM   25  C   UNL     1      -9.087  18.312  68.555  1.00  0.00    -0.328 C  
HETATM   26  C   UNL     1      -8.059  18.677  67.458  1.00  0.00    -0.262 C  
HETATM   27  C   UNL     1      -8.715  18.821  66.088  1.00  0.00    -0.153 C  
HETATM   28  C   UNL     1      -9.754  19.932  66.100  1.00  0.00    -0.527 C  
HETATM   29  C   UNL     1     -10.768  19.782  67.228  1.00  0.00    -0.532 C  
HETATM   30  C   UNL     1     -10.126  19.466  68.589  1.00  0.00    -0.515 C  
ENDBRANCH  22  25
ENDBRANCH  14  15
ENDBRANCH  13  14
ENDBRANCH  11  13
ENDBRANCH   9  11
ENDBRANCH   5   9
BRANCH   8  31
HETATM   31  C   UNL     1     -10.885   7.187  73.451  1.00  0.00    -0.319 C  
BRANCH  31  32
HETATM   32  N   UNL     1     -10.543   5.859  72.887  1.00  0.00    -0.221 NA 
HETATM   33  O   UNL     1      -9.759   3.317  71.361  1.00  0.00    -0.156 OA 
HETATM   34  O   UNL     1     -10.586   1.595  72.550  1.00  0.00    -0.155 OA 
HETATM   35  C   UNL     1      -9.852   5.000  73.885  1.00  0.00    -0.156 C  
HETATM   36  C   UNL     1     -10.386   2.803  72.458  1.00  0.00    -0.121 C  
HETATM   37  C   UNL     1     -11.746   4.980  73.017  1.00  0.00    -0.143 C  
HETATM   38  C   UNL     1     -10.815   3.854  73.504  1.00  0.00    -0.330 C  
ENDBRANCH  31  32
ENDBRANCH   8  31
ENDBRANCH   2   3
TORSDOF 9
ENDMDL
MODEL       71
REMARK 921   NORMALIZED FREE ENERGY PREDICTED BY IDOCK:   -7.05 KCAL/MOL
REMARK 922        TOTAL FREE ENERGY PREDICTED BY IDOCK:  -12.19 KCAL/MOL
REMARK 923 INTER-LIGAND FREE ENERGY PREDICTED BY IDOCK:  -10.27 KCAL/MOL
REMARK 924 INTRA-LIGAND FREE ENERGY PREDICTED BY IDOCK:   -1.92 KCAL/MOL
REMARK 927      BINDING AFFINITY PREDICTED BY RF-SCORE:    0.00 PKD
ROOT
HETATM    1  C   UNL     1      -6.785   7.795  71.138  1.00  0.00    -0.041 C  
HETATM    2  C   UNL     1      -7.192   6.575  70.329  1.00  0.00    -0.080 C  
ENDROOT
BRANCH   2   3
HETATM    3  C   UNL     1      -8.654   6.579  69.945  1.00  0.00    -0.139 A  
HETATM    4  C   UNL     1      -9.547   6.600  71.028  1.00  0.00    -0.178 A  
HETATM    5  C   UNL     1     -10.923   6.433  70.855  1.00  0.00    -0.335 A  
HETATM    6  C   UNL     1     -11.434   6.286  69.572  1.00  0.00    -0.387 A  
HETATM    7  C   UNL     1     -10.562   6.335  68.471  1.00  0.00    -0.315 A  
HETATM    8  C   UNL     1      -9.167   6.502  68.632  1.00  0.00    -0.127 A  
BRANCH   5   9
HETATM    9  C   UNL     1     -11.731   6.285  72.097  1.00  0.00    -0.319 C  
HETATM   10  C   UNL     1     -11.483   5.133  73.034  1.00  0.00    -0.349 C  
BRANCH   9  11
HETATM   11  N   UNL     1     -12.640   7.195  72.312  1.00  0.00    -0.520 NA 
HETATM   12  H   UNL     1     -13.631   6.992  72.447  1.00  0.00     0.000 HD 
BRANCH  11  13
HETATM   13  O   UNL     1     -12.096   8.478  72.334  1.00  0.00    -0.377 OA 
BRANCH  13  14
HETATM   14  C   UNL     1     -13.176   9.405  72.323  1.00  0.00    -0.446 C  
BRANCH  14  15
HETATM   15  C   UNL     1     -12.793  10.534  71.416  1.00  0.00    -0.551 A  
HETATM   16  F   UNL     1     -12.873  15.349  70.623  1.00  0.00    -0.395 F  
HETATM   17  F   UNL     1     -14.389  14.363  71.805  1.00  0.00    -0.464 F  
HETATM   18  C   UNL     1     -12.252  10.281  70.164  1.00  0.00    -0.251 A  
HETATM   19  F   UNL     1     -12.401  14.645  72.628  1.00  0.00    -0.387 F  
HETATM   20  C   UNL     1     -11.859  11.339  69.350  1.00  0.00    -0.424 A  
HETATM   21  C   UNL     1     -13.040  11.857  71.785  1.00  0.00    -0.465 A  
HETATM   22  C   UNL     1     -11.951  12.684  69.766  1.00  0.00    -0.365 A  
HETATM   23  C   UNL     1     -13.062  14.312  71.483  1.00  0.00    -0.343 C  
HETATM   24  C   UNL     1     -12.656  12.944  70.967  1.00  0.00    -0.376 A  
BRANCH  22  25
HETATM   25  C   UNL     1     -11.264  13.790  68.951  1.00  0.00    -0.309 C  
HETATM   26  C   UNL     1      -9.817  13.408  68.556  1.00  0.00    -0.178 C  
HETATM   27  C   UNL     1      -9.785  12.271  67.539  1.00  0.00    -0.190 C  
HETATM   28  C   UNL     1     -10.497  12.675  66.256  1.00  0.00    -0.270 C  
HETATM   29  C   UNL     1     -11.902  13.210  66.501  1.00  0.00    -0.456 C  
HETATM   30  C   UNL     1     -11.975  14.236  67.644  1.00  0.00    -0.400 C  
ENDBRANCH  22  25
ENDBRANCH  14  15
ENDBRANCH  13  14
ENDBRANCH  11  13
ENDBRANCH   9  11
ENDBRANCH   5   9
BRANCH   8  31
HETATM   31  C   UNL     1      -8.257   6.457  67.410  1.00  0.00    -0.116 C  
BRANCH  31  32
HETATM   32  N   UNL     1      -7.959   7.761  66.772  1.00  0.00    -0.106 NA 
HETATM   33  O   UNL     1      -7.473  10.281  65.093  1.00  0.00    -0.139 OA 
HETATM   34  O   UNL     1      -6.077  11.572  66.295  1.00  0.00    -0.098 OA 
HETATM   35  C   UNL     1      -8.286   8.900  67.671  1.00  0.00    -0.110 C  
HETATM   36  C   UNL     1      -6.766  10.559  66.226  1.00  0.00    -0.123 C  
HETATM   37  C   UNL     1      -6.508   8.057  66.984  1.00  0.00    -0.056 C  
HETATM   38  C   UNL     1      -6.901   9.502  67.343  1.00  0.00    -0.083 C  
ENDBRANCH  31  32
ENDBRANCH   8  31
ENDBRANCH   2   3
TORSDOF 9
ENDMDL
MODEL       72
REMARK 921   NORMALIZED FREE ENERGY PREDICTED BY IDOCK:   -7.01 KCAL/MOL
REMARK 922        TOTAL FREE ENERGY PREDICTED BY IDOCK:  -12.12 KCAL/MOL
REMARK 923 INTER-LIGAND FREE ENERGY PREDICTED BY IDOCK:  -10.47 KCAL/MOL
REMARK 924 INTRA-LIGAND FREE ENERGY PREDICTED BY IDOCK:   -1.65 KCAL/MOL
REMARK 927      BINDING AFFINITY PREDICTED BY RF-SCORE:    0.00 PKD
ROOT
HETATM    1  C   UNL     1     -13.127   9.092  71.218  1.00  0.00    -0.297 C  
HETATM    2  C   UNL     1     -12.337  10.341  71.575  1.00  0.00    -0.488 C  
ENDROOT
BRANCH   2   3
HETATM    3  C   UNL     1     -11.846  11.098  70.363  1.00  0.00    -0.462 A  
HETATM    4  C   UNL     1     -10.832  10.454  69.637  1.00  0.00    -0.320 A  
HETATM    5  C   UNL     1     -10.149  11.088  68.597  1.00  0.00    -0.207 A  
HETATM    6  C   UNL     1     -10.509  12.381  68.236  1.00  0.00    -0.234 A  
HETATM    7  C   UNL     1     -11.570  13.015  68.905  1.00  0.00    -0.355 A  
HETATM    8  C   UNL     1     -12.269  12.384  69.961  1.00  0.00    -0.264 A  
BRANCH   5   9
HETATM    9  C   UNL     1      -8.974  10.362  68.039  1.00  0.00    -0.129 C  
HETATM   10  C   UNL     1      -9.169   9.111  67.226  1.00  0.00    -0.157 C  
BRANCH   9  11
HETATM   11  N   UNL     1      -7.801  10.870  68.296  1.00  0.00    -0.112 NA 
HETATM   12  H   UNL     1      -7.194  10.553  69.052  1.00  0.00     0.000 HD 
BRANCH  11  13
HETATM   13  O   UNL     1      -7.476  11.899  67.413  1.00  0.00    -0.128 OA 
BRANCH  13  14
HETATM   14  C   UNL     1      -6.851  12.932  68.165  1.00  0.00    -0.097 C  
BRANCH  14  15
HETATM   15  C   UNL     1      -7.286  14.242  67.584  1.00  0.00    -0.200 A  
HETATM   16  F   UNL     1     -10.713  16.678  65.106  1.00  0.00    -0.374 F  
HETATM   17  F   UNL     1     -10.418  14.552  64.853  1.00  0.00    -0.377 F  
HETATM   18  C   UNL     1      -6.424  15.328  67.567  1.00  0.00    -0.158 A  
HETATM   19  F   UNL     1     -11.356  15.299  66.662  1.00  0.00    -0.328 F  
HETATM   20  C   UNL     1      -6.857  16.552  67.065  1.00  0.00    -0.248 A  
HETATM   21  C   UNL     1      -8.540  14.371  66.984  1.00  0.00    -0.226 A  
HETATM   22  C   UNL     1      -8.173  16.751  66.598  1.00  0.00    -0.296 A  
HETATM   23  C   UNL     1     -10.348  15.555  65.780  1.00  0.00    -0.363 C  
HETATM   24  C   UNL     1      -8.993  15.603  66.459  1.00  0.00    -0.343 A  
BRANCH  22  25
HETATM   25  C   UNL     1      -8.679  18.172  66.307  1.00  0.00    -0.195 C  
HETATM   26  C   UNL     1      -9.443  18.775  67.510  1.00  0.00    -0.326 C  
HETATM   27  C   UNL     1      -8.518  19.060  68.689  1.00  0.00    -0.394 C  
HETATM   28  C   UNL     1      -7.446  20.068  68.302  1.00  0.00    -0.279 C  
HETATM   29  C   UNL     1      -6.690  19.675  67.038  1.00  0.00    -0.212 C  
HETATM   30  C   UNL     1      -7.610  19.220  65.893  1.00  0.00    -0.266 C  
ENDBRANCH  22  25
ENDBRANCH  14  15
ENDBRANCH  13  14
ENDBRANCH  11  13
ENDBRANCH   9  11
ENDBRANCH   5   9
BRANCH   8  31
HETATM   31  C   UNL     1     -13.350  13.151  70.712  1.00  0.00     0.392 C  
BRANCH  31  32
HETATM   32  N   UNL     1     -12.899  13.918  71.899  1.00  0.00    -0.332 NA 
HETATM   33  O   UNL     1     -11.975  15.137  74.556  1.00  0.00    -0.471 OA 
HETATM   34  O   UNL     1     -12.359  17.348  74.397  1.00  0.00    -0.329 OA 
HETATM   35  C   UNL     1     -11.953  15.003  71.524  1.00  0.00    -0.357 C  
HETATM   36  C   UNL     1     -12.355  16.245  73.858  1.00  0.00    -0.541 C  
HETATM   37  C   UNL     1     -13.928  14.965  72.188  1.00  0.00    -0.496 C  
HETATM   38  C   UNL     1     -12.781  15.970  72.399  1.00  0.00    -0.496 C  
ENDBRANCH  31  32
ENDBRANCH   8  31
ENDBRANCH   2   3
TORSDOF 9
ENDMDL
MODEL       73
REMARK 921   NORMALIZED FREE ENERGY PREDICTED BY IDOCK:   -6.99 KCAL/MOL
REMARK 922        TOTAL FREE ENERGY PREDICTED BY IDOCK:  -12.09 KCAL/MOL
REMARK 923 INTER-LIGAND FREE ENERGY PREDICTED BY IDOCK:   -9.83 KCAL/MOL
REMARK 924 INTRA-LIGAND FREE ENERGY PREDICTED BY IDOCK:   -2.26 KCAL/MOL
REMARK 927      BINDING AFFINITY PREDICTED BY RF-SCORE:    0.00 PKD
ROOT
HETATM    1  C   UNL     1      -6.819  12.573  67.828  1.00  0.00    -0.120 C  
HETATM    2  C   UNL     1      -8.055  13.245  68.403  1.00  0.00    -0.134 C  
ENDROOT
BRANCH   2   3
HETATM    3  C   UNL     1      -9.335  12.807  67.728  1.00  0.00    -0.199 A  
HETATM    4  C   UNL     1      -9.216  11.661  66.928  1.00  0.00    -0.187 A  
HETATM    5  C   UNL     1     -10.254  11.225  66.101  1.00  0.00    -0.291 A  
HETATM    6  C   UNL     1     -11.459  11.916  66.100  1.00  0.00    -0.352 A  
HETATM    7  C   UNL     1     -11.620  13.024  66.949  1.00  0.00    -0.419 A  
HETATM    8  C   UNL     1     -10.576  13.478  67.790  1.00  0.00    -0.252 A  
BRANCH   5   9
HETATM    9  C   UNL     1      -9.930  10.111  65.167  1.00  0.00    -0.309 C  
HETATM   10  C   UNL     1      -9.377  10.403  63.798  1.00  0.00    -0.329 C  
BRANCH   9  11
HETATM   11  N   UNL     1     -10.151   8.902  65.602  1.00  0.00    -0.276 NA 
HETATM   12  H   UNL     1     -11.076   8.474  65.654  1.00  0.00     0.000 HD 
BRANCH  11  13
HETATM   13  O   UNL     1      -8.973   8.265  65.990  1.00  0.00    -0.168 OA 
BRANCH  13  14
HETATM   14  C   UNL     1      -9.314   6.954  66.424  1.00  0.00    -0.141 C  
BRANCH  14  15
HETATM   15  C   UNL     1      -9.733   7.047  67.859  1.00  0.00    -0.141 A  
HETATM   16  F   UNL     1      -8.610   8.577  72.356  1.00  0.00    -0.223 F  
HETATM   17  F   UNL     1      -7.086   8.084  70.906  1.00  0.00    -0.046 F  
HETATM   18  C   UNL     1     -10.866   6.385  68.308  1.00  0.00    -0.384 A  
HETATM   19  F   UNL     1      -8.223   9.920  70.687  1.00  0.00    -0.206 F  
HETATM   20  C   UNL     1     -11.269   6.517  69.633  1.00  0.00    -0.446 A  
HETATM   21  C   UNL     1      -8.952   7.743  68.784  1.00  0.00    -0.141 A  
HETATM   22  C   UNL     1     -10.585   7.343  70.550  1.00  0.00    -0.234 A  
HETATM   23  C   UNL     1      -8.345   8.603  71.022  1.00  0.00    -0.161 C  
HETATM   24  C   UNL     1      -9.341   7.879  70.136  1.00  0.00    -0.156 A  
BRANCH  22  25
HETATM   25  C   UNL     1     -11.215   7.665  71.914  1.00  0.00    -0.299 C  
HETATM   26  C   UNL     1     -11.613   9.155  72.033  1.00  0.00    -0.371 C  
HETATM   27  C   UNL     1     -12.777   9.511  71.113  1.00  0.00    -0.371 C  
HETATM   28  C   UNL     1     -14.013   8.698  71.469  1.00  0.00    -0.405 C  
HETATM   29  C   UNL     1     -13.742   7.200  71.528  1.00  0.00    -0.413 C  
HETATM   30  C   UNL     1     -12.469   6.840  72.313  1.00  0.00    -0.094 C  
ENDBRANCH  22  25
ENDBRANCH  14  15
ENDBRANCH  13  14
ENDBRANCH  11  13
ENDBRANCH   9  11
ENDBRANCH   5   9
BRANCH   8  31
HETATM   31  C   UNL     1     -10.774  14.738  68.623  1.00  0.00    -0.253 C  
BRANCH  31  32
HETATM   32  N   UNL     1     -11.566  14.579  69.867  1.00  0.00    -0.274 NA 
HETATM   33  O   UNL     1     -13.336  13.888  72.273  1.00  0.00    -0.415 OA 
HETATM   34  O   UNL     1     -13.649  15.814  73.392  1.00  0.00    -0.477 OA 
HETATM   35  C   UNL     1     -10.833  15.096  71.053  1.00  0.00    -0.074 C  
HETATM   36  C   UNL     1     -13.094  15.214  72.476  1.00  0.00    -0.394 C  
HETATM   37  C   UNL     1     -12.492  15.748  69.975  1.00  0.00    -0.146 C  
HETATM   38  C   UNL     1     -12.116  15.851  71.465  1.00  0.00    -0.533 C  
ENDBRANCH  31  32
ENDBRANCH   8  31
ENDBRANCH   2   3
TORSDOF 9
ENDMDL
MODEL       74
REMARK 921   NORMALIZED FREE ENERGY PREDICTED BY IDOCK:   -6.99 KCAL/MOL
REMARK 922        TOTAL FREE ENERGY PREDICTED BY IDOCK:  -12.09 KCAL/MOL
REMARK 923 INTER-LIGAND FREE ENERGY PREDICTED BY IDOCK:  -10.88 KCAL/MOL
REMARK 924 INTRA-LIGAND FREE ENERGY PREDICTED BY IDOCK:   -1.21 KCAL/MOL
REMARK 927      BINDING AFFINITY PREDICTED BY RF-SCORE:    0.00 PKD
ROOT
HETATM    1  C   UNL     1     -14.382   8.353  71.647  1.00  0.00    -0.536 C  
HETATM    2  C   UNL     1     -13.300   9.136  72.373  1.00  0.00    -0.527 C  
ENDROOT
BRANCH   2   3
HETATM    3  C   UNL     1     -12.609  10.149  71.489  1.00  0.00    -0.537 A  
HETATM    4  C   UNL     1     -12.965  11.484  71.735  1.00  0.00    -0.500 A  
HETATM    5  C   UNL     1     -12.553  12.525  70.900  1.00  0.00    -0.331 A  
HETATM    6  C   UNL     1     -11.730  12.243  69.816  1.00  0.00    -0.368 A  
HETATM    7  C   UNL     1     -11.306  10.921  69.597  1.00  0.00    -0.362 A  
HETATM    8  C   UNL     1     -11.717   9.857  70.434  1.00  0.00    -0.333 A  
BRANCH   5   9
HETATM    9  C   UNL     1     -13.155  13.861  71.165  1.00  0.00    -0.281 C  
HETATM   10  C   UNL     1     -13.688  14.198  72.532  1.00  0.00    -0.626 C  
BRANCH   9  11
HETATM   11  N   UNL     1     -13.187  14.694  70.162  1.00  0.00    -0.481 NA 
HETATM   12  H   UNL     1     -13.936  14.727  69.470  1.00  0.00     0.000 HD 
BRANCH  11  13
HETATM   13  O   UNL     1     -12.076  15.536  70.150  1.00  0.00    -0.340 OA 
BRANCH  13  14
HETATM   14  C   UNL     1     -11.639  15.654  68.801  1.00  0.00    -0.384 C  
BRANCH  14  15
HETATM   15  C   UNL     1     -10.327  16.377  68.813  1.00  0.00    -0.275 A  
HETATM   16  F   UNL     1      -5.509  16.096  69.543  1.00  0.00    -0.110 F  
HETATM   17  F   UNL     1      -6.893  14.764  70.535  1.00  0.00    -0.167 F  
HETATM   18  C   UNL     1     -10.279  17.755  68.662  1.00  0.00    -0.377 A  
HETATM   19  F   UNL     1      -6.474  14.499  68.422  1.00  0.00    -0.081 F  
HETATM   20  C   UNL     1      -9.051  18.409  68.629  1.00  0.00    -0.317 A  
HETATM   21  C   UNL     1      -9.137  15.687  69.047  1.00  0.00    -0.241 A  
HETATM   22  C   UNL     1      -7.826  17.714  68.705  1.00  0.00    -0.280 A  
HETATM   23  C   UNL     1      -6.695  15.453  69.371  1.00  0.00    -0.166 C  
HETATM   24  C   UNL     1      -7.881  16.335  69.027  1.00  0.00    -0.235 A  
BRANCH  22  25
HETATM   25  C   UNL     1      -6.508  18.442  68.397  1.00  0.00    -0.215 C  
HETATM   26  C   UNL     1      -5.941  18.056  67.010  1.00  0.00    -0.162 C  
HETATM   27  C   UNL     1      -6.808  18.586  65.872  1.00  0.00    -0.318 C  
HETATM   28  C   UNL     1      -6.878  20.105  65.909  1.00  0.00    -0.284 C  
HETATM   29  C   UNL     1      -7.294  20.647  67.271  1.00  0.00    -0.394 C  
HETATM   30  C   UNL     1      -6.544  19.994  68.443  1.00  0.00    -0.331 C  
ENDBRANCH  22  25
ENDBRANCH  14  15
ENDBRANCH  13  14
ENDBRANCH  11  13
ENDBRANCH   9  11
ENDBRANCH   5   9
BRANCH   8  31
HETATM   31  C   UNL     1     -11.301   8.431  70.098  1.00  0.00    -0.065 C  
BRANCH  31  32
HETATM   32  N   UNL     1     -10.101   7.919  70.802  1.00  0.00    -0.192 NA 
HETATM   33  O   UNL     1      -7.525   6.667  71.897  1.00  0.00    -0.089 OA 
HETATM   34  O   UNL     1      -7.692   6.754  74.139  1.00  0.00    -0.102 OA 
HETATM   35  C   UNL     1      -9.541   8.930  71.739  1.00  0.00    -0.282 C  
HETATM   36  C   UNL     1      -8.159   7.048  73.042  1.00  0.00    -0.105 C  
HETATM   37  C   UNL     1     -10.563   7.130  71.986  1.00  0.00    -0.210 C  
HETATM   38  C   UNL     1      -9.472   7.828  72.820  1.00  0.00    -0.274 C  
ENDBRANCH  31  32
ENDBRANCH   8  31
ENDBRANCH   2   3
TORSDOF 9
ENDMDL
MODEL       75
REMARK 921   NORMALIZED FREE ENERGY PREDICTED BY IDOCK:   -6.96 KCAL/MOL
REMARK 922        TOTAL FREE ENERGY PREDICTED BY IDOCK:  -12.04 KCAL/MOL
REMARK 923 INTER-LIGAND FREE ENERGY PREDICTED BY IDOCK:  -10.47 KCAL/MOL
REMARK 924 INTRA-LIGAND FREE ENERGY PREDICTED BY IDOCK:   -1.57 KCAL/MOL
REMARK 927      BINDING AFFINITY PREDICTED BY RF-SCORE:    0.00 PKD
ROOT
HETATM    1  C   UNL     1      -9.762   4.333  69.517  1.00  0.00    -0.272 C  
HETATM    2  C   UNL     1     -10.374   5.629  69.011  1.00  0.00    -0.314 C  
ENDROOT
BRANCH   2   3
HETATM    3  C   UNL     1     -10.391   6.723  70.055  1.00  0.00    -0.225 A  
HETATM    4  C   UNL     1     -11.637   6.933  70.667  1.00  0.00    -0.402 A  
HETATM    5  C   UNL     1     -11.868   8.013  71.522  1.00  0.00    -0.328 A  
HETATM    6  C   UNL     1     -10.826   8.884  71.814  1.00  0.00    -0.436 A  
HETATM    7  C   UNL     1      -9.554   8.648  71.266  1.00  0.00    -0.292 A  
HETATM    8  C   UNL     1      -9.306   7.559  70.398  1.00  0.00    -0.161 A  
BRANCH   5   9
HETATM    9  C   UNL     1     -13.278   8.225  71.950  1.00  0.00    -0.344 C  
HETATM   10  C   UNL     1     -14.307   7.146  71.743  1.00  0.00    -0.515 C  
BRANCH   9  11
HETATM   11  N   UNL     1     -13.553   9.375  72.501  1.00  0.00    -0.679 NA 
HETATM   12  H   UNL     1     -13.598   9.529  73.509  1.00  0.00     0.000 HD 
BRANCH  11  13
HETATM   13  O   UNL     1     -13.777  10.367  71.548  1.00  0.00    -0.139 OA 
BRANCH  13  14
HETATM   14  C   UNL     1     -12.965  11.485  71.890  1.00  0.00    -0.348 C  
BRANCH  14  15
HETATM   15  C   UNL     1     -12.486  12.103  70.613  1.00  0.00    -0.330 A  
HETATM   16  F   UNL     1     -11.263  16.201  68.261  1.00  0.00    -0.318 F  
HETATM   17  F   UNL     1     -12.673  16.204  69.898  1.00  0.00    -0.202 F  
HETATM   18  C   UNL     1     -12.373  11.342  69.459  1.00  0.00    -0.243 A  
HETATM   19  F   UNL     1     -10.557  15.939  70.303  1.00  0.00    -0.283 F  
HETATM   20  C   UNL     1     -11.883  11.919  68.291  1.00  0.00    -0.343 A  
HETATM   21  C   UNL     1     -12.213  13.471  70.544  1.00  0.00    -0.433 A  
HETATM   22  C   UNL     1     -11.451  13.260  68.237  1.00  0.00    -0.351 A  
HETATM   23  C   UNL     1     -11.548  15.580  69.437  1.00  0.00    -0.355 C  
HETATM   24  C   UNL     1     -11.724  14.075  69.363  1.00  0.00    -0.365 A  
BRANCH  22  25
HETATM   25  C   UNL     1     -10.676  13.770  67.012  1.00  0.00    -0.283 C  
HETATM   26  C   UNL     1      -9.839  12.651  66.347  1.00  0.00    -0.263 C  
HETATM   27  C   UNL     1     -10.721  11.598  65.682  1.00  0.00    -0.330 C  
HETATM   28  C   UNL     1     -11.571  12.221  64.585  1.00  0.00    -0.404 C  
HETATM   29  C   UNL     1     -12.358  13.436  65.061  1.00  0.00    -0.481 C  
HETATM   30  C   UNL     1     -11.515  14.426  65.882  1.00  0.00    -0.341 C  
ENDBRANCH  22  25
ENDBRANCH  14  15
ENDBRANCH  13  14
ENDBRANCH  11  13
ENDBRANCH   9  11
ENDBRANCH   5   9
BRANCH   8  31
HETATM   31  C   UNL     1      -7.931   7.402  69.760  1.00  0.00    -0.125 C  
BRANCH  31  32
HETATM   32  N   UNL     1      -7.656   8.263  68.585  1.00  0.00    -0.097 NA 
HETATM   33  O   UNL     1      -7.405  10.282  66.290  1.00  0.00    -0.106 OA 
HETATM   34  O   UNL     1      -6.223   9.251  64.678  1.00  0.00    -0.069 OA 
HETATM   35  C   UNL     1      -6.199   8.350  68.298  1.00  0.00    -0.051 C  
HETATM   36  C   UNL     1      -6.677   9.230  65.818  1.00  0.00    -0.076 C  
HETATM   37  C   UNL     1      -7.811   7.426  67.355  1.00  0.00    -0.111 C  
HETATM   38  C   UNL     1      -6.517   8.061  66.814  1.00  0.00    -0.056 C  
ENDBRANCH  31  32
ENDBRANCH   8  31
ENDBRANCH   2   3
TORSDOF 9
ENDMDL
MODEL       76
REMARK 921   NORMALIZED FREE ENERGY PREDICTED BY IDOCK:   -6.93 KCAL/MOL
REMARK 922        TOTAL FREE ENERGY PREDICTED BY IDOCK:  -12.01 KCAL/MOL
REMARK 923 INTER-LIGAND FREE ENERGY PREDICTED BY IDOCK:   -9.35 KCAL/MOL
REMARK 924 INTRA-LIGAND FREE ENERGY PREDICTED BY IDOCK:   -2.66 KCAL/MOL
REMARK 927      BINDING AFFINITY PREDICTED BY RF-SCORE:    0.00 PKD
ROOT
HETATM    1  C   UNL     1      -5.780   7.219  64.806  1.00  0.00    -0.037 C  
HETATM    2  C   UNL     1      -6.196   7.949  66.072  1.00  0.00    -0.042 C  
ENDROOT
BRANCH   2   3
HETATM    3  C   UNL     1      -7.693   8.131  66.187  1.00  0.00    -0.090 A  
HETATM    4  C   UNL     1      -8.177   9.351  65.692  1.00  0.00    -0.121 A  
HETATM    5  C   UNL     1      -9.503   9.750  65.877  1.00  0.00    -0.285 A  
HETATM    6  C   UNL     1     -10.385   8.899  66.530  1.00  0.00    -0.267 A  
HETATM    7  C   UNL     1      -9.934   7.643  66.969  1.00  0.00    -0.310 A  
HETATM    8  C   UNL     1      -8.594   7.227  66.790  1.00  0.00    -0.127 A  
BRANCH   5   9
HETATM    9  C   UNL     1      -9.835  11.145  65.470  1.00  0.00    -0.235 C  
HETATM   10  C   UNL     1     -10.902  11.403  64.440  1.00  0.00    -0.397 C  
BRANCH   9  11
HETATM   11  N   UNL     1      -9.159  12.097  66.050  1.00  0.00    -0.413 NA 
HETATM   12  H   UNL     1      -8.845  12.944  65.577  1.00  0.00     0.000 HD 
BRANCH  11  13
HETATM   13  O   UNL     1      -8.918  11.818  67.395  1.00  0.00    -0.164 OA 
BRANCH  13  14
HETATM   14  C   UNL     1     -10.080  12.188  68.128  1.00  0.00    -0.206 C  
BRANCH  14  15
HETATM   15  C   UNL     1     -10.295  11.151  69.187  1.00  0.00    -0.186 A  
HETATM   16  F   UNL     1     -13.263   9.384  72.635  1.00  0.00    -0.470 F  
HETATM   17  F   UNL     1     -13.303  11.465  72.053  1.00  0.00    -0.557 F  
HETATM   18  C   UNL     1      -9.273  10.285  69.546  1.00  0.00    -0.191 A  
HETATM   19  F   UNL     1     -14.135   9.962  70.726  1.00  0.00    -0.254 F  
HETATM   20  C   UNL     1      -9.501   9.297  70.499  1.00  0.00    -0.317 A  
HETATM   21  C   UNL     1     -11.505  11.084  69.880  1.00  0.00    -0.400 A  
HETATM   22  C   UNL     1     -10.763   9.107  71.100  1.00  0.00    -0.380 A  
HETATM   23  C   UNL     1     -13.088  10.206  71.566  1.00  0.00    -0.429 C  
HETATM   24  C   UNL     1     -11.751  10.094  70.858  1.00  0.00    -0.468 A  
BRANCH  22  25
HETATM   25  C   UNL     1     -11.035   7.848  71.937  1.00  0.00    -0.308 C  
HETATM   26  C   UNL     1     -12.076   6.919  71.267  1.00  0.00    -0.419 C  
HETATM   27  C   UNL     1     -11.533   6.278  69.994  1.00  0.00    -0.460 C  
HETATM   28  C   UNL     1     -10.313   5.421  70.298  1.00  0.00    -0.357 C  
HETATM   29  C   UNL     1      -9.244   6.169  71.086  1.00  0.00    -0.161 C  
HETATM   30  C   UNL     1      -9.806   6.961  72.278  1.00  0.00    -0.163 C  
ENDBRANCH  22  25
ENDBRANCH  14  15
ENDBRANCH  13  14
ENDBRANCH  11  13
ENDBRANCH   9  11
ENDBRANCH   5   9
BRANCH   8  31
HETATM   31  C   UNL     1      -8.136   5.892  67.366  1.00  0.00    -0.102 C  
BRANCH  31  32
HETATM   32  N   UNL     1      -8.327   4.707  66.495  1.00  0.00    -0.107 NA 
HETATM   33  O   UNL     1      -8.305   2.205  64.722  1.00  0.00    -0.084 OA 
HETATM   34  O   UNL     1     -10.248   2.226  63.589  1.00  0.00    -0.144 OA 
HETATM   35  C   UNL     1      -9.594   3.995  66.807  1.00  0.00    -0.211 C  
HETATM   36  C   UNL     1      -9.535   2.728  64.453  1.00  0.00    -0.145 C  
HETATM   37  C   UNL     1      -8.946   5.172  65.215  1.00  0.00    -0.142 C  
HETATM   38  C   UNL     1      -9.904   3.969  65.294  1.00  0.00    -0.199 C  
ENDBRANCH  31  32
ENDBRANCH   8  31
ENDBRANCH   2   3
TORSDOF 9
ENDMDL
MODEL       77
REMARK 921   NORMALIZED FREE ENERGY PREDICTED BY IDOCK:   -6.92 KCAL/MOL
REMARK 922        TOTAL FREE ENERGY PREDICTED BY IDOCK:  -12.00 KCAL/MOL
REMARK 923 INTER-LIGAND FREE ENERGY PREDICTED BY IDOCK:   -9.68 KCAL/MOL
REMARK 924 INTRA-LIGAND FREE ENERGY PREDICTED BY IDOCK:   -2.32 KCAL/MOL
REMARK 927      BINDING AFFINITY PREDICTED BY RF-SCORE:    0.00 PKD
ROOT
HETATM    1  C   UNL     1      -7.895   8.707  69.876  1.00  0.00    -0.093 C  
HETATM    2  C   UNL     1      -8.412   9.808  68.965  1.00  0.00    -0.137 C  
ENDROOT
BRANCH   2   3
HETATM    3  C   UNL     1      -9.783  10.309  69.360  1.00  0.00    -0.242 A  
HETATM    4  C   UNL     1     -10.354   9.655  70.462  1.00  0.00    -0.359 A  
HETATM    5  C   UNL     1     -11.678   9.873  70.848  1.00  0.00    -0.449 A  
HETATM    6  C   UNL     1     -12.446  10.797  70.151  1.00  0.00    -0.357 A  
HETATM    7  C   UNL     1     -11.869  11.513  69.088  1.00  0.00    -0.406 A  
HETATM    8  C   UNL     1     -10.529  11.300  68.686  1.00  0.00    -0.226 A  
BRANCH   5   9
HETATM    9  C   UNL     1     -12.212   8.978  71.912  1.00  0.00    -0.381 C  
HETATM   10  C   UNL     1     -13.601   9.184  72.454  1.00  0.00    -0.544 C  
BRANCH   9  11
HETATM   11  N   UNL     1     -11.418   8.032  72.330  1.00  0.00    -0.333 NA 
HETATM   12  H   UNL     1     -10.481   8.194  72.700  1.00  0.00     0.000 HD 
BRANCH  11  13
HETATM   13  O   UNL     1     -12.003   6.772  72.211  1.00  0.00    -0.275 OA 
BRANCH  13  14
HETATM   14  C   UNL     1     -12.390   6.603  70.852  1.00  0.00    -0.201 C  
BRANCH  14  15
HETATM   15  C   UNL     1     -11.167   6.220  70.077  1.00  0.00    -0.480 A  
HETATM   16  F   UNL     1      -6.666   4.337  70.209  1.00  0.00    -0.030 F  
HETATM   17  F   UNL     1      -7.532   5.343  71.915  1.00  0.00    -0.082 F  
HETATM   18  C   UNL     1     -11.046   6.557  68.737  1.00  0.00    -0.357 A  
HETATM   19  F   UNL     1      -8.224   3.359  71.373  1.00  0.00    -0.060 F  
HETATM   20  C   UNL     1      -9.924   6.156  68.018  1.00  0.00    -0.156 A  
HETATM   21  C   UNL     1     -10.098   5.581  70.707  1.00  0.00    -0.277 A  
HETATM   22  C   UNL     1      -8.902   5.371  68.592  1.00  0.00    -0.107 A  
HETATM   23  C   UNL     1      -7.849   4.558  70.842  1.00  0.00    -0.068 C  
HETATM   24  C   UNL     1      -8.947   5.174  69.995  1.00  0.00    -0.153 A  
BRANCH  22  25
HETATM   25  C   UNL     1      -7.828   4.733  67.698  1.00  0.00    -0.090 C  
HETATM   26  C   UNL     1      -7.991   3.197  67.601  1.00  0.00    -0.076 C  
HETATM   27  C   UNL     1      -9.246   2.804  66.828  1.00  0.00    -0.128 C  
HETATM   28  C   UNL     1      -9.188   3.329  65.401  1.00  0.00    -0.152 C  
HETATM   29  C   UNL     1      -8.893   4.823  65.330  1.00  0.00    -0.146 C  
HETATM   30  C   UNL     1      -7.733   5.260  66.240  1.00  0.00    -0.088 C  
ENDBRANCH  22  25
ENDBRANCH  14  15
ENDBRANCH  13  14
ENDBRANCH  11  13
ENDBRANCH   9  11
ENDBRANCH   5   9
BRANCH   8  31
HETATM   31  C   UNL     1      -9.982  12.038  67.471  1.00  0.00    -0.192 C  
BRANCH  31  32
HETATM   32  N   UNL     1     -10.970  12.804  66.674  1.00  0.00    -0.264 NA 
HETATM   33  O   UNL     1     -13.273  14.063  65.088  1.00  0.00    -0.768 OA 
HETATM   34  O   UNL     1     -12.350  15.676  63.820  1.00  0.00    -0.644 OA 
HETATM   35  C   UNL     1     -10.880  14.264  66.944  1.00  0.00    -0.298 C  
HETATM   36  C   UNL     1     -12.213  14.826  64.696  1.00  0.00    -0.393 C  
HETATM   37  C   UNL     1     -10.378  13.055  65.323  1.00  0.00    -0.304 C  
HETATM   38  C   UNL     1     -10.887  14.505  65.418  1.00  0.00    -0.362 C  
ENDBRANCH  31  32
ENDBRANCH   8  31
ENDBRANCH   2   3
TORSDOF 9
ENDMDL
MODEL       78
REMARK 921   NORMALIZED FREE ENERGY PREDICTED BY IDOCK:   -6.89 KCAL/MOL
REMARK 922        TOTAL FREE ENERGY PREDICTED BY IDOCK:  -11.94 KCAL/MOL
REMARK 923 INTER-LIGAND FREE ENERGY PREDICTED BY IDOCK:  -10.35 KCAL/MOL
REMARK 924 INTRA-LIGAND FREE ENERGY PREDICTED BY IDOCK:   -1.59 KCAL/MOL
REMARK 927      BINDING AFFINITY PREDICTED BY RF-SCORE:    0.00 PKD
ROOT
HETATM    1  C   UNL     1     -11.688  12.883  66.065  1.00  0.00    -0.456 C  
HETATM    2  C   UNL     1     -10.646  13.039  67.160  1.00  0.00    -0.251 C  
ENDROOT
BRANCH   2   3
HETATM    3  C   UNL     1     -11.101  13.939  68.286  1.00  0.00    -0.280 A  
HETATM    4  C   UNL     1     -11.715  13.275  69.359  1.00  0.00    -0.383 A  
HETATM    5  C   UNL     1     -12.345  13.969  70.395  1.00  0.00    -0.429 A  
HETATM    6  C   UNL     1     -12.328  15.358  70.392  1.00  0.00    -0.443 A  
HETATM    7  C   UNL     1     -11.656  16.038  69.363  1.00  0.00    -0.320 A  
HETATM    8  C   UNL     1     -11.015  15.348  68.307  1.00  0.00    -0.288 A  
BRANCH   5   9
HETATM    9  C   UNL     1     -13.118  13.145  71.366  1.00  0.00    -0.266 C  
HETATM   10  C   UNL     1     -13.747  13.785  72.575  1.00  0.00    -0.667 C  
BRANCH   9  11
HETATM   11  N   UNL     1     -13.209  11.871  71.106  1.00  0.00    -0.023 NA 
HETATM   12  H   UNL     1     -13.774  11.481  70.351  1.00  0.00     0.000 HD 
BRANCH  11  13
HETATM   13  O   UNL     1     -12.442  11.105  71.982  1.00  0.00    -0.061 OA 
BRANCH  13  14
HETATM   14  C   UNL     1     -13.110   9.862  72.168  1.00  0.00    -0.403 C  
BRANCH  14  15
HETATM   15  C   UNL     1     -12.319   8.812  71.452  1.00  0.00    -0.353 A  
HETATM   16  F   UNL     1      -9.353   7.759  67.721  1.00  0.00    -0.140 F  
HETATM   17  F   UNL     1     -10.771   9.387  67.626  1.00  0.00    -0.294 F  
HETATM   18  C   UNL     1     -12.429   7.477  71.813  1.00  0.00    -0.360 A  
HETATM   19  F   UNL     1      -8.985   9.588  68.842  1.00  0.00    -0.130 F  
HETATM   20  C   UNL     1     -11.653   6.517  71.170  1.00  0.00    -0.390 A  
HETATM   21  C   UNL     1     -11.511   9.148  70.364  1.00  0.00    -0.228 A  
HETATM   22  C   UNL     1     -10.712   6.852  70.174  1.00  0.00    -0.270 A  
HETATM   23  C   UNL     1      -9.961   8.704  68.489  1.00  0.00    -0.183 C  
HETATM   24  C   UNL     1     -10.724   8.185  69.693  1.00  0.00    -0.196 A  
BRANCH  22  25
HETATM   25  C   UNL     1      -9.699   5.804  69.688  1.00  0.00    -0.208 C  
HETATM   26  C   UNL     1      -8.266   6.104  70.191  1.00  0.00    -0.120 C  
HETATM   27  C   UNL     1      -8.140   5.915  71.699  1.00  0.00    -0.118 C  
HETATM   28  C   UNL     1      -8.449   4.478  72.091  1.00  0.00    -0.115 C  
HETATM   29  C   UNL     1      -9.784   3.988  71.544  1.00  0.00    -0.246 C  
HETATM   30  C   UNL     1      -9.996   4.325  70.059  1.00  0.00    -0.196 C  
ENDBRANCH  22  25
ENDBRANCH  14  15
ENDBRANCH  13  14
ENDBRANCH  11  13
ENDBRANCH   9  11
ENDBRANCH   5   9
BRANCH   8  31
HETATM   31  C   UNL     1     -10.379  16.137  67.169  1.00  0.00    -0.291 C  
BRANCH  31  32
HETATM   32  N   UNL     1      -9.515  17.274  67.568  1.00  0.00    -0.243 NA 
HETATM   33  O   UNL     1      -7.786  19.494  68.787  1.00  0.00    -0.355 OA 
HETATM   34  O   UNL     1      -7.624  21.094  67.215  1.00  0.00    -0.383 OA 
HETATM   35  C   UNL     1      -8.424  17.506  66.584  1.00  0.00    -0.259 C  
HETATM   36  C   UNL     1      -8.010  19.972  67.531  1.00  0.00    -0.307 C  
HETATM   37  C   UNL     1     -10.164  18.535  67.090  1.00  0.00    -0.378 C  
HETATM   38  C   UNL     1      -8.782  19.009  66.604  1.00  0.00    -0.317 C  
ENDBRANCH  31  32
ENDBRANCH   8  31
ENDBRANCH   2   3
TORSDOF 9
ENDMDL
MODEL       79
REMARK 921   NORMALIZED FREE ENERGY PREDICTED BY IDOCK:   -6.89 KCAL/MOL
REMARK 922        TOTAL FREE ENERGY PREDICTED BY IDOCK:  -11.94 KCAL/MOL
REMARK 923 INTER-LIGAND FREE ENERGY PREDICTED BY IDOCK:  -10.50 KCAL/MOL
REMARK 924 INTRA-LIGAND FREE ENERGY PREDICTED BY IDOCK:   -1.44 KCAL/MOL
REMARK 927      BINDING AFFINITY PREDICTED BY RF-SCORE:    0.00 PKD
ROOT
HETATM    1  C   UNL     1      -9.863  10.490  66.312  1.00  0.00    -0.269 C  
HETATM    2  C   UNL     1      -9.111   9.686  67.361  1.00  0.00    -0.144 C  
ENDROOT
BRANCH   2   3
HETATM    3  C   UNL     1     -10.003   9.186  68.475  1.00  0.00    -0.192 A  
HETATM    4  C   UNL     1     -10.822  10.165  69.058  1.00  0.00    -0.257 A  
HETATM    5  C   UNL     1     -11.575   9.912  70.207  1.00  0.00    -0.319 A  
HETATM    6  C   UNL     1     -11.550   8.642  70.770  1.00  0.00    -0.273 A  
HETATM    7  C   UNL     1     -10.790   7.630  70.158  1.00  0.00    -0.255 A  
HETATM    8  C   UNL     1     -10.022   7.874  68.995  1.00  0.00    -0.188 A  
BRANCH   5   9
HETATM    9  C   UNL     1     -12.249  11.087  70.827  1.00  0.00    -0.380 C  
HETATM   10  C   UNL     1     -13.269  10.891  71.916  1.00  0.00    -0.508 C  
BRANCH   9  11
HETATM   11  N   UNL     1     -11.905  12.260  70.375  1.00  0.00    -0.532 NA 
HETATM   12  H   UNL     1     -11.421  12.413  69.490  1.00  0.00     0.000 HD 
BRANCH  11  13
HETATM   13  O   UNL     1     -12.279  13.282  71.247  1.00  0.00    -0.250 OA 
BRANCH  13  14
HETATM   14  C   UNL     1     -12.998  14.251  70.492  1.00  0.00    -0.201 C  
BRANCH  14  15
HETATM   15  C   UNL     1     -12.028  14.912  69.563  1.00  0.00    -0.347 A  
HETATM   16  F   UNL     1     -10.209  15.146  65.040  1.00  0.00    -0.374 F  
HETATM   17  F   UNL     1     -11.053  13.323  65.837  1.00  0.00    -0.285 F  
HETATM   18  C   UNL     1     -11.092  15.815  70.045  1.00  0.00    -0.348 A  
HETATM   19  F   UNL     1     -12.365  14.957  65.272  1.00  0.00    -0.294 F  
HETATM   20  C   UNL     1     -10.226  16.456  69.164  1.00  0.00    -0.280 A  
HETATM   21  C   UNL     1     -12.002  14.579  68.208  1.00  0.00    -0.303 A  
HETATM   22  C   UNL     1     -10.286  16.255  67.769  1.00  0.00    -0.287 A  
HETATM   23  C   UNL     1     -11.175  14.684  65.879  1.00  0.00    -0.336 C  
HETATM   24  C   UNL     1     -11.124  15.213  67.300  1.00  0.00    -0.332 A  
BRANCH  22  25
HETATM   25  C   UNL     1      -9.500  17.177  66.825  1.00  0.00    -0.278 C  
HETATM   26  C   UNL     1     -10.401  18.262  66.188  1.00  0.00    -0.414 C  
HETATM   27  C   UNL     1     -10.879  19.283  67.217  1.00  0.00    -0.554 C  
HETATM   28  C   UNL     1      -9.699  20.008  67.846  1.00  0.00    -0.517 C  
HETATM   29  C   UNL     1      -8.645  19.057  68.401  1.00  0.00    -0.383 C  
HETATM   30  C   UNL     1      -8.279  17.919  67.434  1.00  0.00    -0.224 C  
ENDBRANCH  22  25
ENDBRANCH  14  15
ENDBRANCH  13  14
ENDBRANCH  11  13
ENDBRANCH   9  11
ENDBRANCH   5   9
BRANCH   8  31
HETATM   31  C   UNL     1      -9.146   6.765  68.426  1.00  0.00    -0.125 C  
BRANCH  31  32
HETATM   32  N   UNL     1      -9.722   5.995  67.296  1.00  0.00    -0.120 NA 
HETATM   33  O   UNL     1     -11.286   4.515  65.114  1.00  0.00    -0.168 OA 
HETATM   34  O   UNL     1      -9.851   3.038  64.209  1.00  0.00    -0.154 OA 
HETATM   35  C   UNL     1      -8.899   6.131  66.064  1.00  0.00    -0.153 C  
HETATM   36  C   UNL     1     -10.044   3.968  64.987  1.00  0.00    -0.195 C  
HETATM   37  C   UNL     1      -9.247   4.582  67.414  1.00  0.00    -0.137 C  
HETATM   38  C   UNL     1      -8.969   4.596  65.899  1.00  0.00    -0.127 C  
ENDBRANCH  31  32
ENDBRANCH   8  31
ENDBRANCH   2   3
TORSDOF 9
ENDMDL
MODEL       80
REMARK 921   NORMALIZED FREE ENERGY PREDICTED BY IDOCK:   -6.88 KCAL/MOL
REMARK 922        TOTAL FREE ENERGY PREDICTED BY IDOCK:  -11.93 KCAL/MOL
REMARK 923 INTER-LIGAND FREE ENERGY PREDICTED BY IDOCK:   -9.23 KCAL/MOL
REMARK 924 INTRA-LIGAND FREE ENERGY PREDICTED BY IDOCK:   -2.70 KCAL/MOL
REMARK 927      BINDING AFFINITY PREDICTED BY RF-SCORE:    0.00 PKD
ROOT
HETATM    1  C   UNL     1     -14.098  14.584  71.619  1.00  0.00    -0.540 C  
HETATM    2  C   UNL     1     -12.654  14.110  71.613  1.00  0.00    -0.420 C  
ENDROOT
BRANCH   2   3
HETATM    3  C   UNL     1     -12.389  13.032  70.587  1.00  0.00    -0.391 A  
HETATM    4  C   UNL     1     -12.528  11.719  71.063  1.00  0.00    -0.411 A  
HETATM    5  C   UNL     1     -12.153  10.612  70.299  1.00  0.00    -0.423 A  
HETATM    6  C   UNL     1     -11.669  10.806  69.011  1.00  0.00    -0.357 A  
HETATM    7  C   UNL     1     -11.590  12.110  68.493  1.00  0.00    -0.366 A  
HETATM    8  C   UNL     1     -11.965  13.240  69.257  1.00  0.00    -0.354 A  
BRANCH   5   9
HETATM    9  C   UNL     1     -12.175   9.293  70.992  1.00  0.00    -0.255 C  
HETATM   10  C   UNL     1     -12.576   9.202  72.439  1.00  0.00    -0.381 C  
BRANCH   9  11
HETATM   11  N   UNL     1     -11.833   8.256  70.280  1.00  0.00    -0.456 NA 
HETATM   12  H   UNL     1     -12.454   7.785  69.622  1.00  0.00     0.000 HD 
BRANCH  11  13
HETATM   13  O   UNL     1     -10.517   7.868  70.526  1.00  0.00    -0.208 OA 
BRANCH  13  14
HETATM   14  C   UNL     1     -10.085   7.081  69.422  1.00  0.00    -0.169 C  
BRANCH  14  15
HETATM   15  C   UNL     1      -9.636   8.020  68.345  1.00  0.00    -0.157 A  
HETATM   16  F   UNL     1      -6.894  11.884  67.171  1.00  0.00    -0.107 F  
HETATM   17  F   UNL     1      -7.668  11.599  69.169  1.00  0.00    -0.118 F  
HETATM   18  C   UNL     1     -10.219   7.983  67.087  1.00  0.00    -0.362 A  
HETATM   19  F   UNL     1      -6.028  10.364  68.466  1.00  0.00    -0.044 F  
HETATM   20  C   UNL     1      -9.761   8.830  66.083  1.00  0.00    -0.320 A  
HETATM   21  C   UNL     1      -8.674   8.996  68.609  1.00  0.00    -0.133 A  
HETATM   22  C   UNL     1      -8.681   9.716  66.280  1.00  0.00    -0.156 A  
HETATM   23  C   UNL     1      -7.211  10.918  68.075  1.00  0.00    -0.086 C  
HETATM   24  C   UNL     1      -8.203   9.872  67.605  1.00  0.00    -0.114 A  
BRANCH  22  25
HETATM   25  C   UNL     1      -8.044  10.430  65.078  1.00  0.00    -0.136 C  
HETATM   26  C   UNL     1      -6.612   9.919  64.791  1.00  0.00    -0.121 C  
HETATM   27  C   UNL     1      -6.612   8.483  64.275  1.00  0.00    -0.071 C  
HETATM   28  C   UNL     1      -7.384   8.378  62.969  1.00  0.00    -0.100 C  
HETATM   29  C   UNL     1      -8.784   8.975  63.058  1.00  0.00    -0.126 C  
HETATM   30  C   UNL     1      -8.817  10.355  63.733  1.00  0.00    -0.222 C  
ENDBRANCH  22  25
ENDBRANCH  14  15
ENDBRANCH  13  14
ENDBRANCH  11  13
ENDBRANCH   9  11
ENDBRANCH   5   9
BRANCH   8  31
HETATM   31  C   UNL     1     -11.774  14.637  68.678  1.00  0.00    -0.329 C  
BRANCH  31  32
HETATM   32  N   UNL     1     -10.425  15.232  68.843  1.00  0.00    -0.232 NA 
HETATM   33  O   UNL     1      -7.573  16.164  69.474  1.00  0.00    -0.207 OA 
HETATM   34  O   UNL     1      -7.418  18.269  68.698  1.00  0.00    -0.281 OA 
HETATM   35  C   UNL     1      -9.873  15.708  67.547  1.00  0.00    -0.228 C  
HETATM   36  C   UNL     1      -8.076  17.238  68.804  1.00  0.00    -0.242 C  
HETATM   37  C   UNL     1     -10.599  16.660  69.253  1.00  0.00    -0.343 C  
HETATM   38  C   UNL     1      -9.500  17.036  68.242  1.00  0.00    -0.265 C  
ENDBRANCH  31  32
ENDBRANCH   8  31
ENDBRANCH   2   3
TORSDOF 9
ENDMDL
MODEL       81
REMARK 921   NORMALIZED FREE ENERGY PREDICTED BY IDOCK:   -6.86 KCAL/MOL
REMARK 922        TOTAL FREE ENERGY PREDICTED BY IDOCK:  -11.91 KCAL/MOL
REMARK 923 INTER-LIGAND FREE ENERGY PREDICTED BY IDOCK:   -8.82 KCAL/MOL
REMARK 924 INTRA-LIGAND FREE ENERGY PREDICTED BY IDOCK:   -3.08 KCAL/MOL
REMARK 927      BINDING AFFINITY PREDICTED BY RF-SCORE:    0.00 PKD
ROOT
HETATM    1  C   UNL     1     -11.181  12.169  63.556  1.00  0.00    -0.536 C  
HETATM    2  C   UNL     1     -10.559  10.975  64.261  1.00  0.00    -0.402 C  
ENDROOT
BRANCH   2   3
HETATM    3  C   UNL     1      -9.839  11.350  65.537  1.00  0.00    -0.271 A  
HETATM    4  C   UNL     1     -10.515  12.279  66.342  1.00  0.00    -0.263 A  
HETATM    5  C   UNL     1      -9.916  12.861  67.462  1.00  0.00    -0.215 A  
HETATM    6  C   UNL     1      -8.628  12.480  67.820  1.00  0.00    -0.178 A  
HETATM    7  C   UNL     1      -7.964  11.498  67.066  1.00  0.00    -0.161 A  
HETATM    8  C   UNL     1      -8.558  10.902  65.928  1.00  0.00    -0.179 A  
BRANCH   5   9
HETATM    9  C   UNL     1     -10.671  13.967  68.115  1.00  0.00    -0.246 C  
HETATM   10  C   UNL     1     -10.891  15.268  67.391  1.00  0.00    -0.304 C  
BRANCH   9  11
HETATM   11  N   UNL     1     -11.114  13.737  69.319  1.00  0.00    -0.358 NA 
HETATM   12  H   UNL     1     -10.813  14.252  70.147  1.00  0.00     0.000 HD 
BRANCH  11  13
HETATM   13  O   UNL     1     -12.050  12.704  69.340  1.00  0.00    -0.264 OA 
BRANCH  13  14
HETATM   14  C   UNL     1     -12.205  12.289  70.692  1.00  0.00    -0.287 C  
BRANCH  14  15
HETATM   15  C   UNL     1     -11.870  10.831  70.760  1.00  0.00    -0.443 A  
HETATM   16  F   UNL     1      -9.842   6.994  68.527  1.00  0.00    -0.141 F  
HETATM   17  F   UNL     1     -10.684   8.645  67.416  1.00  0.00    -0.326 F  
HETATM   18  C   UNL     1     -12.346  10.045  71.798  1.00  0.00    -0.434 A  
HETATM   19  F   UNL     1      -8.793   8.900  68.451  1.00  0.00    -0.131 F  
HETATM   20  C   UNL     1     -11.989   8.702  71.873  1.00  0.00    -0.424 A  
HETATM   21  C   UNL     1     -11.133  10.223  69.742  1.00  0.00    -0.340 A  
HETATM   22  C   UNL     1     -11.115   8.101  70.943  1.00  0.00    -0.280 A  
HETATM   23  C   UNL     1     -10.031   8.340  68.577  1.00  0.00    -0.190 C  
HETATM   24  C   UNL     1     -10.769   8.859  69.796  1.00  0.00    -0.230 A  
BRANCH  22  25
HETATM   25  C   UNL     1     -10.544   6.702  71.217  1.00  0.00    -0.256 C  
HETATM   26  C   UNL     1      -8.998   6.711  71.297  1.00  0.00    -0.144 C  
HETATM   27  C   UNL     1      -8.496   7.449  72.535  1.00  0.00    -0.131 C  
HETATM   28  C   UNL     1      -8.996   6.777  73.804  1.00  0.00    -0.171 C  
HETATM   29  C   UNL     1     -10.506   6.570  73.811  1.00  0.00    -0.335 C  
HETATM   30  C   UNL     1     -11.048   5.983  72.498  1.00  0.00    -0.321 C  
ENDBRANCH  22  25
ENDBRANCH  14  15
ENDBRANCH  13  14
ENDBRANCH  11  13
ENDBRANCH   9  11
ENDBRANCH   5   9
BRANCH   8  31
HETATM   31  C   UNL     1      -7.759   9.910  65.094  1.00  0.00    -0.131 C  
BRANCH  31  32
HETATM   32  N   UNL     1      -8.119   8.481  65.259  1.00  0.00    -0.129 NA 
HETATM   33  O   UNL     1      -9.176   5.663  65.849  1.00  0.00    -0.161 OA 
HETATM   34  O   UNL     1      -7.507   4.248  65.326  1.00  0.00    -0.072 OA 
HETATM   35  C   UNL     1      -7.908   7.713  64.003  1.00  0.00    -0.127 C  
HETATM   36  C   UNL     1      -7.939   5.397  65.340  1.00  0.00    -0.107 C  
HETATM   37  C   UNL     1      -6.940   7.773  65.847  1.00  0.00    -0.061 C  
HETATM   38  C   UNL     1      -7.172   6.638  64.833  1.00  0.00    -0.074 C  
ENDBRANCH  31  32
ENDBRANCH   8  31
ENDBRANCH   2   3
TORSDOF 9
ENDMDL
MODEL       82
REMARK 921   NORMALIZED FREE ENERGY PREDICTED BY IDOCK:   -6.86 KCAL/MOL
REMARK 922        TOTAL FREE ENERGY PREDICTED BY IDOCK:  -11.90 KCAL/MOL
REMARK 923 INTER-LIGAND FREE ENERGY PREDICTED BY IDOCK:  -10.14 KCAL/MOL
REMARK 924 INTRA-LIGAND FREE ENERGY PREDICTED BY IDOCK:   -1.77 KCAL/MOL
REMARK 927      BINDING AFFINITY PREDICTED BY RF-SCORE:    0.00 PKD
ROOT
HETATM    1  C   UNL     1     -12.348  15.963  72.109  1.00  0.00    -0.557 C  
HETATM    2  C   UNL     1     -11.230  15.970  71.078  1.00  0.00    -0.347 C  
ENDROOT
BRANCH   2   3
HETATM    3  C   UNL     1     -11.222  14.735  70.206  1.00  0.00    -0.239 A  
HETATM    4  C   UNL     1     -12.065  13.701  70.641  1.00  0.00    -0.398 A  
HETATM    5  C   UNL     1     -12.047  12.435  70.052  1.00  0.00    -0.335 A  
HETATM    6  C   UNL     1     -11.203  12.199  68.974  1.00  0.00    -0.314 A  
HETATM    7  C   UNL     1     -10.405  13.244  68.480  1.00  0.00    -0.244 A  
HETATM    8  C   UNL     1     -10.412  14.530  69.068  1.00  0.00    -0.241 A  
BRANCH   5   9
HETATM    9  C   UNL     1     -12.850  11.380  70.730  1.00  0.00    -0.167 C  
HETATM   10  C   UNL     1     -13.511  11.660  72.053  1.00  0.00    -0.304 C  
BRANCH   9  11
HETATM   11  N   UNL     1     -12.939  10.233  70.117  1.00  0.00    -0.549 NA 
HETATM   12  H   UNL     1     -13.175  10.129  69.130  1.00  0.00     0.000 HD 
BRANCH  11  13
HETATM   13  O   UNL     1     -12.674   9.164  70.973  1.00  0.00    -0.252 OA 
BRANCH  13  14
HETATM   14  C   UNL     1     -11.267   8.948  70.969  1.00  0.00    -0.281 C  
BRANCH  14  15
HETATM   15  C   UNL     1     -10.926   8.218  69.707  1.00  0.00    -0.132 A  
HETATM   16  F   UNL     1      -9.377   8.540  65.089  1.00  0.00    -0.154 F  
HETATM   17  F   UNL     1     -10.421  10.166  66.058  1.00  0.00    -0.305 F  
HETATM   18  C   UNL     1     -11.189   6.862  69.582  1.00  0.00    -0.289 A  
HETATM   19  F   UNL     1      -8.363   9.736  66.599  1.00  0.00    -0.120 F  
HETATM   20  C   UNL     1     -10.825   6.188  68.420  1.00  0.00    -0.382 A  
HETATM   21  C   UNL     1     -10.403   8.904  68.609  1.00  0.00    -0.228 A  
HETATM   22  C   UNL     1     -10.151   6.826  67.358  1.00  0.00    -0.225 A  
HETATM   23  C   UNL     1      -9.552   9.139  66.298  1.00  0.00    -0.255 C  
HETATM   24  C   UNL     1     -10.037   8.237  67.418  1.00  0.00    -0.298 A  
BRANCH  22  25
HETATM   25  C   UNL     1      -9.537   5.991  66.224  1.00  0.00    -0.136 C  
HETATM   26  C   UNL     1      -7.991   5.971  66.289  1.00  0.00    -0.106 C  
HETATM   27  C   UNL     1      -7.480   5.192  67.497  1.00  0.00    -0.083 C  
HETATM   28  C   UNL     1      -7.934   3.741  67.436  1.00  0.00    -0.090 C  
HETATM   29  C   UNL     1      -9.438   3.598  67.232  1.00  0.00    -0.235 C  
HETATM   30  C   UNL     1      -9.994   4.509  66.125  1.00  0.00    -0.267 C  
ENDBRANCH  22  25
ENDBRANCH  14  15
ENDBRANCH  13  14
ENDBRANCH  11  13
ENDBRANCH   9  11
ENDBRANCH   5   9
BRANCH   8  31
HETATM   31  C   UNL     1      -9.460  15.601  68.549  1.00  0.00    -0.200 C  
BRANCH  31  32
HETATM   32  N   UNL     1      -9.965  16.437  67.433  1.00  0.00    -0.246 NA 
HETATM   33  O   UNL     1     -10.984  17.817  64.892  1.00  0.00    -0.866 OA 
HETATM   34  O   UNL     1     -10.717  20.024  65.229  1.00  0.00    -0.317 OA 
HETATM   35  C   UNL     1     -10.962  17.434  67.903  1.00  0.00    -0.155 C  
HETATM   36  C   UNL     1     -10.655  18.882  65.676  1.00  0.00    -0.177 C  
HETATM   37  C   UNL     1      -8.997  17.557  67.223  1.00  0.00    -0.235 C  
HETATM   38  C   UNL     1     -10.198  18.513  67.103  1.00  0.00    -0.408 C  
ENDBRANCH  31  32
ENDBRANCH   8  31
ENDBRANCH   2   3
TORSDOF 9
ENDMDL
MODEL       83
REMARK 921   NORMALIZED FREE ENERGY PREDICTED BY IDOCK:   -6.86 KCAL/MOL
REMARK 922        TOTAL FREE ENERGY PREDICTED BY IDOCK:  -11.90 KCAL/MOL
REMARK 923 INTER-LIGAND FREE ENERGY PREDICTED BY IDOCK:  -10.15 KCAL/MOL
REMARK 924 INTRA-LIGAND FREE ENERGY PREDICTED BY IDOCK:   -1.75 KCAL/MOL
REMARK 927      BINDING AFFINITY PREDICTED BY RF-SCORE:    0.00 PKD
ROOT
HETATM    1  C   UNL     1     -10.224  17.270  66.014  1.00  0.00    -0.314 C  
HETATM    2  C   UNL     1      -9.733  15.836  65.895  1.00  0.00    -0.389 C  
ENDROOT
BRANCH   2   3
HETATM    3  C   UNL     1     -10.705  14.828  66.466  1.00  0.00    -0.319 A  
HETATM    4  C   UNL     1     -11.043  15.034  67.812  1.00  0.00    -0.312 A  
HETATM    5  C   UNL     1     -11.788  14.101  68.538  1.00  0.00    -0.390 A  
HETATM    6  C   UNL     1     -12.248  12.955  67.902  1.00  0.00    -0.029 A  
HETATM    7  C   UNL     1     -11.980  12.768  66.536  1.00  0.00    -0.428 A  
HETATM    8  C   UNL     1     -11.225  13.704  65.789  1.00  0.00    -0.302 A  
BRANCH   5   9
HETATM    9  C   UNL     1     -11.913  14.351  70.001  1.00  0.00    -0.334 C  
HETATM   10  C   UNL     1     -10.952  15.276  70.700  1.00  0.00    -0.318 C  
BRANCH   9  11
HETATM   11  N   UNL     1     -12.882  13.734  70.617  1.00  0.00    -0.243 NA 
HETATM   12  H   UNL     1     -13.872  13.913  70.448  1.00  0.00     0.000 HD 
BRANCH  11  13
HETATM   13  O   UNL     1     -12.403  12.799  71.533  1.00  0.00    -0.125 OA 
BRANCH  13  14
HETATM   14  C   UNL     1     -13.126  11.589  71.334  1.00  0.00    -0.258 C  
BRANCH  14  15
HETATM   15  C   UNL     1     -12.134  10.522  70.986  1.00  0.00    -0.492 A  
HETATM   16  F   UNL     1     -10.176   6.214  72.182  1.00  0.00    -0.194 F  
HETATM   17  F   UNL     1     -11.025   7.533  73.669  1.00  0.00    -0.420 F  
HETATM   18  C   UNL     1     -11.223  10.713  69.958  1.00  0.00    -0.382 A  
HETATM   19  F   UNL     1     -12.336   6.438  72.330  1.00  0.00    -0.339 F  
HETATM   20  C   UNL     1     -10.337   9.695  69.617  1.00  0.00    -0.245 A  
HETATM   21  C   UNL     1     -12.062   9.347  71.737  1.00  0.00    -0.454 A  
HETATM   22  C   UNL     1     -10.351   8.438  70.256  1.00  0.00    -0.212 A  
HETATM   23  C   UNL     1     -11.163   7.131  72.370  1.00  0.00    -0.272 C  
HETATM   24  C   UNL     1     -11.162   8.307  71.411  1.00  0.00    -0.304 A  
BRANCH  22  25
HETATM   25  C   UNL     1      -9.545   7.268  69.671  1.00  0.00    -0.155 C  
HETATM   26  C   UNL     1     -10.435   6.300  68.856  1.00  0.00    -0.280 C  
HETATM   27  C   UNL     1     -10.944   6.941  67.568  1.00  0.00    -0.340 C  
HETATM   28  C   UNL     1      -9.784   7.334  66.666  1.00  0.00    -0.249 C  
HETATM   29  C   UNL     1      -8.741   8.186  67.378  1.00  0.00    -0.124 C  
HETATM   30  C   UNL     1      -8.344   7.638  68.759  1.00  0.00    -0.129 C  
ENDBRANCH  22  25
ENDBRANCH  14  15
ENDBRANCH  13  14
ENDBRANCH  11  13
ENDBRANCH   9  11
ENDBRANCH   5   9
BRANCH   8  31
HETATM   31  C   UNL     1     -10.887  13.407  64.334  1.00  0.00    -0.406 C  
BRANCH  31  32
HETATM   32  N   UNL     1      -9.849  12.373  64.104  1.00  0.00    -0.182 NA 
HETATM   33  O   UNL     1      -7.443  10.555  63.547  1.00  0.00    -0.080 OA 
HETATM   34  O   UNL     1      -8.287   8.509  63.144  1.00  0.00    -0.176 OA 
HETATM   35  C   UNL     1     -10.000  11.227  65.039  1.00  0.00    -0.274 C  
HETATM   36  C   UNL     1      -8.482   9.674  63.480  1.00  0.00    -0.188 C  
HETATM   37  C   UNL     1     -10.322  11.485  62.997  1.00  0.00    -0.238 C  
HETATM   38  C   UNL     1      -9.859  10.275  63.831  1.00  0.00    -0.251 C  
ENDBRANCH  31  32
ENDBRANCH   8  31
ENDBRANCH   2   3
TORSDOF 9
ENDMDL
MODEL       84
REMARK 921   NORMALIZED FREE ENERGY PREDICTED BY IDOCK:   -6.85 KCAL/MOL
REMARK 922        TOTAL FREE ENERGY PREDICTED BY IDOCK:  -11.88 KCAL/MOL
REMARK 923 INTER-LIGAND FREE ENERGY PREDICTED BY IDOCK:  -10.74 KCAL/MOL
REMARK 924 INTRA-LIGAND FREE ENERGY PREDICTED BY IDOCK:   -1.15 KCAL/MOL
REMARK 927      BINDING AFFINITY PREDICTED BY RF-SCORE:    0.00 PKD
ROOT
HETATM    1  C   UNL     1      -9.954   8.349  72.529  1.00  0.00    -0.356 C  
HETATM    2  C   UNL     1      -8.842   8.506  71.505  1.00  0.00    -0.260 C  
ENDROOT
BRANCH   2   3
HETATM    3  C   UNL     1      -9.334   8.411  70.078  1.00  0.00    -0.159 A  
HETATM    4  C   UNL     1      -9.927   9.582  69.582  1.00  0.00    -0.220 A  
HETATM    5  C   UNL     1     -10.586   9.612  68.350  1.00  0.00    -0.264 A  
HETATM    6  C   UNL     1     -10.619   8.464  67.568  1.00  0.00    -0.285 A  
HETATM    7  C   UNL     1      -9.969   7.303  68.018  1.00  0.00    -0.186 A  
HETATM    8  C   UNL     1      -9.300   7.258  69.264  1.00  0.00    -0.154 A  
BRANCH   5   9
HETATM    9  C   UNL     1     -11.332  10.861  68.031  1.00  0.00    -0.312 C  
HETATM   10  C   UNL     1     -12.004  11.646  69.125  1.00  0.00    -0.378 C  
BRANCH   9  11
HETATM   11  N   UNL     1     -11.362  11.217  66.777  1.00  0.00    -0.379 NA 
HETATM   12  H   UNL     1     -10.866  10.727  66.032  1.00  0.00     0.000 HD 
BRANCH  11  13
HETATM   13  O   UNL     1     -12.152  12.348  66.577  1.00  0.00    -0.599 OA 
BRANCH  13  14
HETATM   14  C   UNL     1     -11.487  13.178  65.632  1.00  0.00    -0.323 C  
BRANCH  14  15
HETATM   15  C   UNL     1     -11.179  14.478  66.309  1.00  0.00    -0.342 A  
HETATM   16  F   UNL     1     -11.255  17.045  70.460  1.00  0.00    -0.214 F  
HETATM   17  F   UNL     1     -12.659  15.446  70.082  1.00  0.00    -0.375 F  
HETATM   18  C   UNL     1     -10.775  15.580  65.570  1.00  0.00    -0.395 A  
HETATM   19  F   UNL     1     -10.592  14.973  70.544  1.00  0.00    -0.254 F  
HETATM   20  C   UNL     1     -10.449  16.769  66.217  1.00  0.00    -0.264 A  
HETATM   21  C   UNL     1     -11.363  14.624  67.685  1.00  0.00    -0.350 A  
HETATM   22  C   UNL     1     -10.474  16.893  67.622  1.00  0.00    -0.332 A  
HETATM   23  C   UNL     1     -11.373  15.840  69.839  1.00  0.00    -0.349 C  
HETATM   24  C   UNL     1     -11.047  15.826  68.357  1.00  0.00    -0.341 A  
BRANCH  22  25
HETATM   25  C   UNL     1      -9.855  18.127  68.296  1.00  0.00    -0.360 C  
HETATM   26  C   UNL     1      -8.313  18.149  68.165  1.00  0.00    -0.285 C  
HETATM   27  C   UNL     1      -7.867  18.383  66.724  1.00  0.00    -0.253 C  
HETATM   28  C   UNL     1      -8.368  19.725  66.215  1.00  0.00    -0.383 C  
HETATM   29  C   UNL     1      -9.869  19.910  66.406  1.00  0.00    -0.572 C  
HETATM   30  C   UNL     1     -10.359  19.513  67.809  1.00  0.00    -0.575 C  
ENDBRANCH  22  25
ENDBRANCH  14  15
ENDBRANCH  13  14
ENDBRANCH  11  13
ENDBRANCH   9  11
ENDBRANCH   5   9
BRANCH   8  31
HETATM   31  C   UNL     1      -8.688   5.948  69.744  1.00  0.00    -0.129 C  
BRANCH  31  32
HETATM   32  N   UNL     1      -9.421   5.244  70.824  1.00  0.00    -0.162 NA 
HETATM   33  O   UNL     1     -11.150   4.148  73.108  1.00  0.00    -0.211 OA 
HETATM   34  O   UNL     1     -10.074   2.333  73.889  1.00  0.00    -0.095 OA 
HETATM   35  C   UNL     1      -9.648   3.812  70.492  1.00  0.00    -0.192 C  
HETATM   36  C   UNL     1     -10.143   3.231  73.054  1.00  0.00    -0.146 C  
HETATM   37  C   UNL     1      -8.423   4.810  71.850  1.00  0.00    -0.119 C  
HETATM   38  C   UNL     1      -9.137   3.447  71.903  1.00  0.00    -0.164 C  
ENDBRANCH  31  32
ENDBRANCH   8  31
ENDBRANCH   2   3
TORSDOF 9
ENDMDL
MODEL       85
REMARK 921   NORMALIZED FREE ENERGY PREDICTED BY IDOCK:   -6.84 KCAL/MOL
REMARK 922        TOTAL FREE ENERGY PREDICTED BY IDOCK:  -11.87 KCAL/MOL
REMARK 923 INTER-LIGAND FREE ENERGY PREDICTED BY IDOCK:  -11.13 KCAL/MOL
REMARK 924 INTRA-LIGAND FREE ENERGY PREDICTED BY IDOCK:   -0.74 KCAL/MOL
REMARK 927      BINDING AFFINITY PREDICTED BY RF-SCORE:    0.00 PKD
ROOT
HETATM    1  C   UNL     1     -12.482  13.513  63.491  1.00  0.00    -0.234 C  
HETATM    2  C   UNL     1     -11.974  14.772  64.175  1.00  0.00    -0.282 C  
ENDROOT
BRANCH   2   3
HETATM    3  C   UNL     1     -10.799  14.515  65.091  1.00  0.00    -0.407 A  
HETATM    4  C   UNL     1     -10.388  13.176  65.160  1.00  0.00    -0.326 A  
HETATM    5  C   UNL     1      -9.435  12.741  66.084  1.00  0.00    -0.169 A  
HETATM    6  C   UNL     1      -8.841  13.665  66.934  1.00  0.00    -0.201 A  
HETATM    7  C   UNL     1      -9.189  15.022  66.830  1.00  0.00    -0.265 A  
HETATM    8  C   UNL     1     -10.153  15.476  65.900  1.00  0.00    -0.374 A  
BRANCH   5   9
HETATM    9  C   UNL     1      -9.231  11.268  66.178  1.00  0.00    -0.206 C  
HETATM   10  C   UNL     1      -8.019  10.627  65.555  1.00  0.00    -0.116 C  
BRANCH   9  11
HETATM   11  N   UNL     1     -10.145  10.593  66.817  1.00  0.00    -0.216 NA 
HETATM   12  H   UNL     1     -10.644   9.795  66.425  1.00  0.00     0.000 HD 
BRANCH  11  13
HETATM   13  O   UNL     1     -10.357  11.093  68.101  1.00  0.00    -0.176 OA 
BRANCH  13  14
HETATM   14  C   UNL     1      -9.220  10.759  68.889  1.00  0.00    -0.173 C  
BRANCH  14  15
HETATM   15  C   UNL     1      -9.701   9.962  70.062  1.00  0.00    -0.274 A  
HETATM   16  F   UNL     1     -13.392   8.977  73.100  1.00  0.00    -0.404 F  
HETATM   17  F   UNL     1     -13.197  10.897  72.127  1.00  0.00    -0.559 F  
HETATM   18  C   UNL     1      -8.821   9.172  70.787  1.00  0.00    -0.291 A  
HETATM   19  F   UNL     1     -13.831   9.169  70.977  1.00  0.00    -0.361 F  
HETATM   20  C   UNL     1      -9.290   8.402  71.847  1.00  0.00    -0.313 A  
HETATM   21  C   UNL     1     -11.026  10.056  70.490  1.00  0.00    -0.392 A  
HETATM   22  C   UNL     1     -10.655   8.357  72.199  1.00  0.00    -0.400 A  
HETATM   23  C   UNL     1     -12.961   9.562  71.950  1.00  0.00    -0.425 C  
HETATM   24  C   UNL     1     -11.518   9.288  71.570  1.00  0.00    -0.454 A  
BRANCH  22  25
HETATM   25  C   UNL     1     -11.159   7.298  73.192  1.00  0.00    -0.336 C  
HETATM   26  C   UNL     1     -11.797   6.085  72.473  1.00  0.00    -0.236 C  
HETATM   27  C   UNL     1     -10.761   5.263  71.712  1.00  0.00    -0.240 C  
HETATM   28  C   UNL     1      -9.711   4.706  72.661  1.00  0.00    -0.184 C  
HETATM   29  C   UNL     1      -9.083   5.777  73.546  1.00  0.00    -0.131 C  
HETATM   30  C   UNL     1     -10.113   6.722  74.185  1.00  0.00    -0.381 C  
ENDBRANCH  22  25
ENDBRANCH  14  15
ENDBRANCH  13  14
ENDBRANCH  11  13
ENDBRANCH   9  11
ENDBRANCH   5   9
BRANCH   8  31
HETATM   31  C   UNL     1     -10.559  16.944  65.892  1.00  0.00    -0.233 C  
BRANCH  31  32
HETATM   32  N   UNL     1      -9.702  17.862  66.681  1.00  0.00    -0.305 NA 
HETATM   33  O   UNL     1      -8.128  19.607  68.651  1.00  0.00    -0.342 OA 
HETATM   34  O   UNL     1      -7.233  21.273  67.433  1.00  0.00    -0.511 OA 
HETATM   35  C   UNL     1      -8.334  17.964  66.107  1.00  0.00    -0.128 C  
HETATM   36  C   UNL     1      -7.867  20.221  67.463  1.00  0.00    -0.305 C  
HETATM   37  C   UNL     1      -9.965  19.257  66.210  1.00  0.00    -0.413 C  
HETATM   38  C   UNL     1      -8.444  19.501  66.225  1.00  0.00    -0.370 C  
ENDBRANCH  31  32
ENDBRANCH   8  31
ENDBRANCH   2   3
TORSDOF 9
ENDMDL
MODEL       86
REMARK 921   NORMALIZED FREE ENERGY PREDICTED BY IDOCK:   -6.83 KCAL/MOL
REMARK 922        TOTAL FREE ENERGY PREDICTED BY IDOCK:  -11.85 KCAL/MOL
REMARK 923 INTER-LIGAND FREE ENERGY PREDICTED BY IDOCK:  -10.78 KCAL/MOL
REMARK 924 INTRA-LIGAND FREE ENERGY PREDICTED BY IDOCK:   -1.07 KCAL/MOL
REMARK 927      BINDING AFFINITY PREDICTED BY RF-SCORE:    0.00 PKD
ROOT
HETATM    1  C   UNL     1     -11.781  15.312  72.339  1.00  0.00    -0.538 C  
HETATM    2  C   UNL     1     -12.530  15.690  71.072  1.00  0.00    -0.501 C  
ENDROOT
BRANCH   2   3
HETATM    3  C   UNL     1     -12.041  14.944  69.851  1.00  0.00    -0.379 A  
HETATM    4  C   UNL     1     -12.283  13.562  69.870  1.00  0.00    -0.356 A  
HETATM    5  C   UNL     1     -11.746  12.705  68.907  1.00  0.00    -0.370 A  
HETATM    6  C   UNL     1     -10.986  13.234  67.872  1.00  0.00    -0.270 A  
HETATM    7  C   UNL     1     -10.793  14.624  67.798  1.00  0.00    -0.268 A  
HETATM    8  C   UNL     1     -11.330  15.504  68.767  1.00  0.00    -0.339 A  
BRANCH   5   9
HETATM    9  C   UNL     1     -11.923  11.246  69.151  1.00  0.00    -0.336 C  
HETATM   10  C   UNL     1     -12.440  10.753  70.476  1.00  0.00    -0.447 C  
BRANCH   9  11
HETATM   11  N   UNL     1     -11.608  10.449  68.168  1.00  0.00    -0.703 NA 
HETATM   12  H   UNL     1     -12.158  10.349  67.315  1.00  0.00     0.000 HD 
BRANCH  11  13
HETATM   13  O   UNL     1     -10.429   9.750  68.423  1.00  0.00    -0.199 OA 
BRANCH  13  14
HETATM   14  C   UNL     1     -10.540   8.475  67.801  1.00  0.00    -0.175 C  
BRANCH  14  15
HETATM   15  C   UNL     1     -10.275   7.437  68.848  1.00  0.00    -0.200 A  
HETATM   16  F   UNL     1     -11.409   5.705  73.268  1.00  0.00    -0.298 F  
HETATM   17  F   UNL     1     -11.671   7.788  72.758  1.00  0.00    -0.363 F  
HETATM   18  C   UNL     1      -9.215   6.553  68.713  1.00  0.00    -0.131 A  
HETATM   19  F   UNL     1     -13.035   6.305  71.951  1.00  0.00    -0.340 F  
HETATM   20  C   UNL     1      -9.008   5.564  69.671  1.00  0.00    -0.134 A  
HETATM   21  C   UNL     1     -11.046   7.387  70.011  1.00  0.00    -0.238 A  
HETATM   22  C   UNL     1      -9.869   5.393  70.775  1.00  0.00    -0.252 A  
HETATM   23  C   UNL     1     -11.719   6.528  72.231  1.00  0.00    -0.281 C  
HETATM   24  C   UNL     1     -10.844   6.397  70.999  1.00  0.00    -0.314 A  
BRANCH  22  25
HETATM   25  C   UNL     1      -9.758   4.135  71.649  1.00  0.00    -0.246 C  
HETATM   26  C   UNL     1      -9.412   2.877  70.816  1.00  0.00    -0.223 C  
HETATM   27  C   UNL     1      -7.994   2.936  70.256  1.00  0.00    -0.051 C  
HETATM   28  C   UNL     1      -6.972   3.011  71.380  1.00  0.00    -0.032 C  
HETATM   29  C   UNL     1      -7.263   4.130  72.373  1.00  0.00    -0.062 C  
HETATM   30  C   UNL     1      -8.734   4.187  72.816  1.00  0.00    -0.108 C  
ENDBRANCH  22  25
ENDBRANCH  14  15
ENDBRANCH  13  14
ENDBRANCH  11  13
ENDBRANCH   9  11
ENDBRANCH   5   9
BRANCH   8  31
HETATM   31  C   UNL     1     -11.014  16.993  68.689  1.00  0.00    -0.217 C  
BRANCH  31  32
HETATM   32  N   UNL     1      -9.996  17.391  67.688  1.00  0.00    -0.289 NA 
HETATM   33  O   UNL     1      -7.782  17.809  65.607  1.00  0.00    -0.545 OA 
HETATM   34  O   UNL     1      -7.300  20.006  65.640  1.00  0.00    -0.323 OA 
HETATM   35  C   UNL     1     -10.497  18.468  66.793  1.00  0.00    -0.394 C  
HETATM   36  C   UNL     1      -8.008  19.083  66.035  1.00  0.00    -0.193 C  
HETATM   37  C   UNL     1      -9.089  18.395  68.327  1.00  0.00    -0.312 C  
HETATM   38  C   UNL     1      -9.174  19.228  67.036  1.00  0.00    -0.357 C  
ENDBRANCH  31  32
ENDBRANCH   8  31
ENDBRANCH   2   3
TORSDOF 9
ENDMDL
MODEL       87
REMARK 921   NORMALIZED FREE ENERGY PREDICTED BY IDOCK:   -6.83 KCAL/MOL
REMARK 922        TOTAL FREE ENERGY PREDICTED BY IDOCK:  -11.85 KCAL/MOL
REMARK 923 INTER-LIGAND FREE ENERGY PREDICTED BY IDOCK:   -8.76 KCAL/MOL
REMARK 924 INTRA-LIGAND FREE ENERGY PREDICTED BY IDOCK:   -3.09 KCAL/MOL
REMARK 927      BINDING AFFINITY PREDICTED BY RF-SCORE:    0.00 PKD
ROOT
HETATM    1  C   UNL     1     -10.939   9.759  67.412  1.00  0.00    -0.176 C  
HETATM    2  C   UNL     1     -10.646  11.202  67.031  1.00  0.00    -0.295 C  
ENDROOT
BRANCH   2   3
HETATM    3  C   UNL     1     -10.842  12.168  68.177  1.00  0.00    -0.256 A  
HETATM    4  C   UNL     1     -11.621  11.676  69.236  1.00  0.00    -0.385 A  
HETATM    5  C   UNL     1     -12.041  12.493  70.287  1.00  0.00    -0.373 A  
HETATM    6  C   UNL     1     -11.642  13.824  70.315  1.00  0.00    -0.187 A  
HETATM    7  C   UNL     1     -10.803  14.315  69.301  1.00  0.00    -0.241 A  
HETATM    8  C   UNL     1     -10.372  13.498  68.229  1.00  0.00    -0.253 A  
BRANCH   5   9
HETATM    9  C   UNL     1     -13.016  11.894  71.241  1.00  0.00    -0.236 C  
HETATM   10  C   UNL     1     -13.646  12.738  72.315  1.00  0.00    -0.563 C  
BRANCH   9  11
HETATM   11  N   UNL     1     -13.278  10.626  71.085  1.00  0.00    -0.300 NA 
HETATM   12  H   UNL     1     -13.590  10.211  70.207  1.00  0.00     0.000 HD 
BRANCH  11  13
HETATM   13  O   UNL     1     -13.079   9.906  72.262  1.00  0.00    -0.418 OA 
BRANCH  13  14
HETATM   14  C   UNL     1     -12.944   8.534  71.911  1.00  0.00    -0.362 C  
BRANCH  14  15
HETATM   15  C   UNL     1     -11.542   8.328  71.426  1.00  0.00    -0.322 A  
HETATM   16  F   UNL     1      -8.579   5.914  68.390  1.00  0.00    -0.112 F  
HETATM   17  F   UNL     1     -10.434   5.058  69.093  1.00  0.00    -0.282 F  
HETATM   18  C   UNL     1     -10.475   8.939  72.069  1.00  0.00    -0.383 A  
HETATM   19  F   UNL     1     -10.476   6.644  67.611  1.00  0.00    -0.173 F  
HETATM   20  C   UNL     1      -9.183   8.775  71.580  1.00  0.00    -0.333 A  
HETATM   21  C   UNL     1     -11.277   7.461  70.365  1.00  0.00    -0.284 A  
HETATM   22  C   UNL     1      -8.907   8.032  70.414  1.00  0.00    -0.141 A  
HETATM   23  C   UNL     1      -9.847   6.245  68.754  1.00  0.00    -0.137 C  
HETATM   24  C   UNL     1      -9.970   7.274  69.862  1.00  0.00    -0.183 A  
BRANCH  22  25
HETATM   25  C   UNL     1      -7.515   8.101  69.769  1.00  0.00    -0.084 C  
HETATM   26  C   UNL     1      -7.485   9.055  68.550  1.00  0.00    -0.085 C  
HETATM   27  C   UNL     1      -7.658  10.513  68.964  1.00  0.00    -0.117 C  
HETATM   28  C   UNL     1      -6.532  10.950  69.888  1.00  0.00    -0.144 C  
HETATM   29  C   UNL     1      -6.345  10.016  71.078  1.00  0.00     0.027 C  
HETATM   30  C   UNL     1      -6.341   8.528  70.692  1.00  0.00    -0.037 C  
ENDBRANCH  22  25
ENDBRANCH  14  15
ENDBRANCH  13  14
ENDBRANCH  11  13
ENDBRANCH   9  11
ENDBRANCH   5   9
BRANCH   8  31
HETATM   31  C   UNL     1      -9.537  14.105  67.108  1.00  0.00    -0.244 C  
BRANCH  31  32
HETATM   32  N   UNL     1      -9.420  15.584  67.111  1.00  0.00    -0.212 NA 
HETATM   33  O   UNL     1      -9.572  18.643  67.260  1.00  0.00    -0.289 OA 
HETATM   34  O   UNL     1      -7.908  19.415  65.958  1.00  0.00    -0.302 OA 
HETATM   35  C   UNL     1      -8.056  16.025  67.507  1.00  0.00    -0.148 C  
HETATM   36  C   UNL     1      -8.474  18.455  66.474  1.00  0.00    -0.270 C  
HETATM   37  C   UNL     1      -9.117  16.024  65.714  1.00  0.00    -0.133 C  
HETATM   38  C   UNL     1      -8.057  16.980  66.293  1.00  0.00    -0.332 C  
ENDBRANCH  31  32
ENDBRANCH   8  31
ENDBRANCH   2   3
TORSDOF 9
ENDMDL
MODEL       88
REMARK 921   NORMALIZED FREE ENERGY PREDICTED BY IDOCK:   -6.82 KCAL/MOL
REMARK 922        TOTAL FREE ENERGY PREDICTED BY IDOCK:  -11.84 KCAL/MOL
REMARK 923 INTER-LIGAND FREE ENERGY PREDICTED BY IDOCK:   -8.92 KCAL/MOL
REMARK 924 INTRA-LIGAND FREE ENERGY PREDICTED BY IDOCK:   -2.93 KCAL/MOL
REMARK 927      BINDING AFFINITY PREDICTED BY RF-SCORE:    0.00 PKD
ROOT
HETATM    1  C   UNL     1     -10.635   8.020  67.388  1.00  0.00    -0.337 C  
HETATM    2  C   UNL     1      -9.953   9.207  68.048  1.00  0.00    -0.213 C  
ENDROOT
BRANCH   2   3
HETATM    3  C   UNL     1     -10.802   9.860  69.116  1.00  0.00    -0.248 A  
HETATM    4  C   UNL     1     -11.300   8.981  70.089  1.00  0.00    -0.139 A  
HETATM    5  C   UNL     1     -12.237   9.387  71.042  1.00  0.00    -0.354 A  
HETATM    6  C   UNL     1     -12.659  10.711  71.060  1.00  0.00    -0.516 A  
HETATM    7  C   UNL     1     -12.116  11.621  70.137  1.00  0.00    -0.414 A  
HETATM    8  C   UNL     1     -11.168  11.222  69.166  1.00  0.00    -0.337 A  
BRANCH   5   9
HETATM    9  C   UNL     1     -12.823   8.313  71.892  1.00  0.00    -0.344 C  
HETATM   10  C   UNL     1     -13.977   7.488  71.387  1.00  0.00    -0.468 C  
BRANCH   9  11
HETATM   11  N   UNL     1     -12.285   8.142  73.066  1.00  0.00    -0.625 NA 
HETATM   12  H   UNL     1     -12.804   8.178  73.944  1.00  0.00     0.000 HD 
BRANCH  11  13
HETATM   13  O   UNL     1     -10.914   7.904  72.980  1.00  0.00    -0.393 OA 
BRANCH  13  14
HETATM   14  C   UNL     1     -10.726   6.498  72.871  1.00  0.00    -0.251 C  
BRANCH  14  15
HETATM   15  C   UNL     1     -10.045   6.232  71.564  1.00  0.00    -0.218 A  
HETATM   16  F   UNL     1      -6.367   7.370  68.564  1.00  0.00    -0.031 F  
HETATM   17  F   UNL     1      -7.178   8.799  69.967  1.00  0.00    -0.046 F  
HETATM   18  C   UNL     1     -10.624   5.391  70.624  1.00  0.00    -0.302 A  
HETATM   19  F   UNL     1      -5.937   7.172  70.689  1.00  0.00    -0.026 F  
HETATM   20  C   UNL     1      -9.958   5.118  69.433  1.00  0.00    -0.292 A  
HETATM   21  C   UNL     1      -8.853   6.882  71.238  1.00  0.00    -0.135 A  
HETATM   22  C   UNL     1      -8.678   5.637  69.149  1.00  0.00    -0.108 A  
HETATM   23  C   UNL     1      -6.928   7.466  69.799  1.00  0.00    -0.056 C  
HETATM   24  C   UNL     1      -8.169   6.624  70.029  1.00  0.00    -0.130 A  
BRANCH  22  25
HETATM   25  C   UNL     1      -7.877   5.099  67.953  1.00  0.00    -0.091 C  
HETATM   26  C   UNL     1      -6.941   3.935  68.358  1.00  0.00    -0.051 C  
HETATM   27  C   UNL     1      -7.721   2.681  68.741  1.00  0.00    -0.047 C  
HETATM   28  C   UNL     1      -8.554   2.185  67.568  1.00  0.00    -0.115 C  
HETATM   29  C   UNL     1      -9.437   3.271  66.966  1.00  0.00    -0.161 C  
HETATM   30  C   UNL     1      -8.699   4.599  66.734  1.00  0.00    -0.111 C  
ENDBRANCH  22  25
ENDBRANCH  14  15
ENDBRANCH  13  14
ENDBRANCH  11  13
ENDBRANCH   9  11
ENDBRANCH   5   9
BRANCH   8  31
HETATM   31  C   UNL     1     -10.679  12.230  68.132  1.00  0.00    -0.216 C  
BRANCH  31  32
HETATM   32  N   UNL     1     -10.633  13.645  68.573  1.00  0.00    -0.246 NA 
HETATM   33  O   UNL     1     -10.694  16.433  69.849  1.00  0.00    -0.330 OA 
HETATM   34  O   UNL     1     -10.581  17.901  68.148  1.00  0.00    -0.387 OA 
HETATM   35  C   UNL     1      -9.442  14.350  68.030  1.00  0.00    -0.209 C  
HETATM   36  C   UNL     1     -10.549  16.733  68.527  1.00  0.00    -0.354 C  
HETATM   37  C   UNL     1     -11.487  14.445  67.641  1.00  0.00    -0.346 C  
HETATM   38  C   UNL     1     -10.373  15.508  67.605  1.00  0.00    -0.269 C  
ENDBRANCH  31  32
ENDBRANCH   8  31
ENDBRANCH   2   3
TORSDOF 9
ENDMDL
MODEL       89
REMARK 921   NORMALIZED FREE ENERGY PREDICTED BY IDOCK:   -6.78 KCAL/MOL
REMARK 922        TOTAL FREE ENERGY PREDICTED BY IDOCK:  -11.78 KCAL/MOL
REMARK 923 INTER-LIGAND FREE ENERGY PREDICTED BY IDOCK:   -8.81 KCAL/MOL
REMARK 924 INTRA-LIGAND FREE ENERGY PREDICTED BY IDOCK:   -2.97 KCAL/MOL
REMARK 927      BINDING AFFINITY PREDICTED BY RF-SCORE:    0.00 PKD
ROOT
HETATM    1  C   UNL     1     -10.723  12.040  64.993  1.00  0.00    -0.341 C  
HETATM    2  C   UNL     1     -11.318  12.118  66.389  1.00  0.00    -0.411 C  
ENDROOT
BRANCH   2   3
HETATM    3  C   UNL     1     -10.485  11.402  67.429  1.00  0.00    -0.239 A  
HETATM    4  C   UNL     1      -9.301  10.829  66.941  1.00  0.00    -0.179 A  
HETATM    5  C   UNL     1      -8.508   9.990  67.727  1.00  0.00    -0.114 A  
HETATM    6  C   UNL     1      -8.873   9.747  69.045  1.00  0.00    -0.153 A  
HETATM    7  C   UNL     1     -10.017  10.370  69.570  1.00  0.00    -0.229 A  
HETATM    8  C   UNL     1     -10.831  11.220  68.785  1.00  0.00    -0.252 A  
BRANCH   5   9
HETATM    9  C   UNL     1      -7.386   9.300  67.031  1.00  0.00    -0.091 C  
HETATM   10  C   UNL     1      -5.960   9.689  67.317  1.00  0.00    -0.052 C  
BRANCH   9  11
HETATM   11  N   UNL     1      -7.713   8.365  66.183  1.00  0.00    -0.095 NA 
HETATM   12  H   UNL     1      -7.952   8.538  65.207  1.00  0.00     0.000 HD 
BRANCH  11  13
HETATM   13  O   UNL     1      -7.698   7.101  66.772  1.00  0.00    -0.094 OA 
BRANCH  13  14
HETATM   14  C   UNL     1      -8.998   6.542  66.628  1.00  0.00    -0.138 C  
BRANCH  14  15
HETATM   15  C   UNL     1      -9.604   6.449  67.994  1.00  0.00    -0.118 A  
HETATM   16  F   UNL     1      -8.859   5.657  72.752  1.00  0.00    -0.122 F  
HETATM   17  F   UNL     1      -7.576   4.800  71.239  1.00  0.00    -0.070 F  
HETATM   18  C   UNL     1     -10.981   6.488  68.160  1.00  0.00    -0.365 A  
HETATM   19  F   UNL     1      -7.443   6.920  71.687  1.00  0.00    -0.080 F  
HETATM   20  C   UNL     1     -11.528   6.446  69.439  1.00  0.00    -0.374 A  
HETATM   21  C   UNL     1      -8.799   6.250  69.117  1.00  0.00    -0.128 A  
HETATM   22  C   UNL     1     -10.728   6.404  70.600  1.00  0.00    -0.310 A  
HETATM   23  C   UNL     1      -8.335   5.902  71.522  1.00  0.00    -0.127 C  
HETATM   24  C   UNL     1      -9.338   6.195  70.422  1.00  0.00    -0.173 A  
BRANCH  22  25
HETATM   25  C   UNL     1     -11.364   6.628  71.980  1.00  0.00    -0.317 C  
HETATM   26  C   UNL     1     -11.070   8.044  72.533  1.00  0.00    -0.440 C  
HETATM   27  C   UNL     1     -11.785   9.128  71.733  1.00  0.00    -0.456 C  
HETATM   28  C   UNL     1     -13.293   8.939  71.795  1.00  0.00    -0.436 C  
HETATM   29  C   UNL     1     -13.731   7.532  71.407  1.00  0.00    -0.414 C  
HETATM   30  C   UNL     1     -12.901   6.427  72.079  1.00  0.00     0.004 C  
ENDBRANCH  22  25
ENDBRANCH  14  15
ENDBRANCH  13  14
ENDBRANCH  11  13
ENDBRANCH   9  11
ENDBRANCH   5   9
BRANCH   8  31
HETATM   31  C   UNL     1     -12.110  11.798  69.379  1.00  0.00    -0.238 C  
BRANCH  31  32
HETATM   32  N   UNL     1     -11.937  12.919  70.334  1.00  0.00    -0.303 NA 
HETATM   33  O   UNL     1     -11.198  15.076  72.384  1.00  0.00    -0.273 OA 
HETATM   34  O   UNL     1     -13.137  16.019  73.025  1.00  0.00    -0.493 OA 
HETATM   35  C   UNL     1     -12.575  14.167  69.836  1.00  0.00    -0.154 C  
HETATM   36  C   UNL     1     -12.549  15.231  72.289  1.00  0.00    -0.357 C  
HETATM   37  C   UNL     1     -13.018  12.819  71.362  1.00  0.00    -0.266 C  
HETATM   38  C   UNL     1     -13.226  14.339  71.227  1.00  0.00    -0.412 C  
ENDBRANCH  31  32
ENDBRANCH   8  31
ENDBRANCH   2   3
TORSDOF 9
ENDMDL
MODEL       90
REMARK 921   NORMALIZED FREE ENERGY PREDICTED BY IDOCK:   -6.78 KCAL/MOL
REMARK 922        TOTAL FREE ENERGY PREDICTED BY IDOCK:  -11.78 KCAL/MOL
REMARK 923 INTER-LIGAND FREE ENERGY PREDICTED BY IDOCK:  -10.17 KCAL/MOL
REMARK 924 INTRA-LIGAND FREE ENERGY PREDICTED BY IDOCK:   -1.61 KCAL/MOL
REMARK 927      BINDING AFFINITY PREDICTED BY RF-SCORE:    0.00 PKD
ROOT
HETATM    1  C   UNL     1      -6.288  10.084  70.544  1.00  0.00    -0.116 C  
HETATM    2  C   UNL     1      -7.679  10.206  69.942  1.00  0.00    -0.171 C  
ENDROOT
BRANCH   2   3
HETATM    3  C   UNL     1      -8.454   8.909  69.976  1.00  0.00    -0.141 A  
HETATM    4  C   UNL     1      -9.330   8.775  71.064  1.00  0.00    -0.280 A  
HETATM    5  C   UNL     1      -9.989   7.574  71.339  1.00  0.00    -0.200 A  
HETATM    6  C   UNL     1      -9.810   6.490  70.490  1.00  0.00    -0.197 A  
HETATM    7  C   UNL     1      -8.993   6.629  69.356  1.00  0.00    -0.133 A  
HETATM    8  C   UNL     1      -8.318   7.838  69.065  1.00  0.00    -0.131 A  
BRANCH   5   9
HETATM    9  C   UNL     1     -10.737   7.512  72.626  1.00  0.00    -0.303 C  
HETATM   10  C   UNL     1     -10.114   6.871  73.838  1.00  0.00    -0.391 C  
BRANCH   9  11
HETATM   11  N   UNL     1     -11.931   8.035  72.631  1.00  0.00    -0.578 NA 
HETATM   12  H   UNL     1     -12.396   8.390  73.467  1.00  0.00     0.000 HD 
BRANCH  11  13
HETATM   13  O   UNL     1     -12.496   8.052  71.356  1.00  0.00    -0.311 OA 
BRANCH  13  14
HETATM   14  C   UNL     1     -13.669   8.854  71.415  1.00  0.00    -0.272 C  
BRANCH  14  15
HETATM   15  C   UNL     1     -13.246  10.285  71.285  1.00  0.00    -0.447 A  
HETATM   16  F   UNL     1     -10.721  13.586  68.726  1.00  0.00    -0.235 F  
HETATM   17  F   UNL     1     -10.181  11.494  68.735  1.00  0.00    -0.198 F  
HETATM   18  C   UNL     1     -13.524  11.198  72.292  1.00  0.00    -0.031 A  
HETATM   19  F   UNL     1     -11.933  12.146  67.633  1.00  0.00    -0.398 F  
HETATM   20  C   UNL     1     -13.165  12.533  72.138  1.00  0.00    -0.508 A  
HETATM   21  C   UNL     1     -12.502  10.709  70.183  1.00  0.00    -0.342 A  
HETATM   22  C   UNL     1     -12.553  13.018  70.964  1.00  0.00    -0.386 A  
HETATM   23  C   UNL     1     -11.255  12.337  68.800  1.00  0.00    -0.265 C  
HETATM   24  C   UNL     1     -12.120  12.059  70.015  1.00  0.00    -0.355 A  
BRANCH  22  25
HETATM   25  C   UNL     1     -12.421  14.532  70.734  1.00  0.00    -0.420 C  
HETATM   26  C   UNL     1     -13.784  15.256  70.834  1.00  0.00    -0.363 C  
HETATM   27  C   UNL     1     -14.329  15.252  72.259  1.00  0.00    -0.586 C  
HETATM   28  C   UNL     1     -13.379  15.974  73.203  1.00  0.00    -0.624 C  
HETATM   29  C   UNL     1     -11.948  15.458  73.115  1.00  0.00    -0.559 C  
HETATM   30  C   UNL     1     -11.445  15.295  71.671  1.00  0.00    -0.471 C  
ENDBRANCH  22  25
ENDBRANCH  14  15
ENDBRANCH  13  14
ENDBRANCH  11  13
ENDBRANCH   9  11
ENDBRANCH   5   9
BRANCH   8  31
HETATM   31  C   UNL     1      -7.373   7.906  67.873  1.00  0.00    -0.092 C  
BRANCH  31  32
HETATM   32  N   UNL     1      -7.730   7.058  66.709  1.00  0.00    -0.097 NA 
HETATM   33  O   UNL     1      -8.615   5.031  64.586  1.00  0.00    -0.144 OA 
HETATM   34  O   UNL     1      -7.509   5.574  62.704  1.00  0.00    -0.048 OA 
HETATM   35  C   UNL     1      -8.197   7.875  65.558  1.00  0.00    -0.140 C  
HETATM   36  C   UNL     1      -7.788   5.843  63.869  1.00  0.00    -0.119 C  
HETATM   37  C   UNL     1      -6.476   6.769  65.948  1.00  0.00    -0.050 C  
HETATM   38  C   UNL     1      -7.249   7.062  64.649  1.00  0.00    -0.073 C  
ENDBRANCH  31  32
ENDBRANCH   8  31
ENDBRANCH   2   3
TORSDOF 9
ENDMDL
MODEL       91
REMARK 921   NORMALIZED FREE ENERGY PREDICTED BY IDOCK:   -6.75 KCAL/MOL
REMARK 922        TOTAL FREE ENERGY PREDICTED BY IDOCK:  -11.73 KCAL/MOL
REMARK 923 INTER-LIGAND FREE ENERGY PREDICTED BY IDOCK:  -10.45 KCAL/MOL
REMARK 924 INTRA-LIGAND FREE ENERGY PREDICTED BY IDOCK:   -1.28 KCAL/MOL
REMARK 927      BINDING AFFINITY PREDICTED BY RF-SCORE:    0.00 PKD
ROOT
HETATM    1  C   UNL     1     -11.152  11.982  69.255  1.00  0.00    -0.246 C  
HETATM    2  C   UNL     1     -11.148  10.537  68.786  1.00  0.00    -0.315 C  
ENDROOT
BRANCH   2   3
HETATM    3  C   UNL     1     -10.540  10.361  67.413  1.00  0.00    -0.321 A  
HETATM    4  C   UNL     1     -10.827  11.393  66.506  1.00  0.00    -0.334 A  
HETATM    5  C   UNL     1     -10.489  11.303  65.153  1.00  0.00    -0.351 A  
HETATM    6  C   UNL     1      -9.810  10.181  64.695  1.00  0.00    -0.361 A  
HETATM    7  C   UNL     1      -9.452   9.171  65.603  1.00  0.00    -0.309 A  
HETATM    8  C   UNL     1      -9.789   9.248  66.975  1.00  0.00    -0.257 A  
BRANCH   5   9
HETATM    9  C   UNL     1     -11.018  12.378  64.269  1.00  0.00    -0.351 C  
HETATM   10  C   UNL     1     -12.229  12.130  63.410  1.00  0.00    -0.635 C  
BRANCH   9  11
HETATM   11  N   UNL     1     -10.380  13.515  64.289  1.00  0.00    -0.671 NA 
HETATM   12  H   UNL     1      -9.368  13.604  64.191  1.00  0.00     0.000 HD 
BRANCH  11  13
HETATM   13  O   UNL     1     -11.246  14.594  64.460  1.00  0.00    -0.353 OA 
BRANCH  13  14
HETATM   14  C   UNL     1     -11.494  14.732  65.854  1.00  0.00    -0.319 C  
BRANCH  14  15
HETATM   15  C   UNL     1     -10.484  15.693  66.401  1.00  0.00    -0.309 A  
HETATM   16  F   UNL     1      -6.992  16.514  69.711  1.00  0.00    -0.226 F  
HETATM   17  F   UNL     1      -8.607  15.126  70.077  1.00  0.00    -0.162 F  
HETATM   18  C   UNL     1     -10.443  17.005  65.952  1.00  0.00    -0.282 A  
HETATM   19  F   UNL     1      -7.018  14.585  68.701  1.00  0.00    -0.086 F  
HETATM   20  C   UNL     1      -9.470  17.875  66.435  1.00  0.00    -0.278 A  
HETATM   21  C   UNL     1      -9.613  15.306  67.421  1.00  0.00    -0.207 A  
HETATM   22  C   UNL     1      -8.479  17.464  67.350  1.00  0.00    -0.215 A  
HETATM   23  C   UNL     1      -7.811  15.626  69.085  1.00  0.00    -0.220 C  
HETATM   24  C   UNL     1      -8.626  16.179  67.931  1.00  0.00    -0.169 A  
BRANCH  22  25
HETATM   25  C   UNL     1      -7.278  18.375  67.646  1.00  0.00    -0.216 C  
HETATM   26  C   UNL     1      -5.985  17.874  66.959  1.00  0.00    -0.167 C  
HETATM   27  C   UNL     1      -6.055  18.012  65.441  1.00  0.00    -0.145 C  
HETATM   28  C   UNL     1      -6.228  19.469  65.039  1.00  0.00    -0.312 C  
HETATM   29  C   UNL     1      -7.394  20.146  65.748  1.00  0.00    -0.287 C  
HETATM   30  C   UNL     1      -7.431  19.873  67.261  1.00  0.00    -0.297 C  
ENDBRANCH  22  25
ENDBRANCH  14  15
ENDBRANCH  13  14
ENDBRANCH  11  13
ENDBRANCH   9  11
ENDBRANCH   5   9
BRANCH   8  31
HETATM   31  C   UNL     1      -9.456   8.084  67.899  1.00  0.00    -0.145 C  
BRANCH  31  32
HETATM   32  N   UNL     1     -10.433   7.811  68.981  1.00  0.00    -0.217 NA 
HETATM   33  O   UNL     1     -12.550   7.654  71.194  1.00  0.00    -0.301 OA 
HETATM   34  O   UNL     1     -12.124   5.761  72.333  1.00  0.00    -0.249 OA 
HETATM   35  C   UNL     1     -11.061   6.471  68.829  1.00  0.00    -0.283 C  
HETATM   36  C   UNL     1     -11.866   6.489  71.378  1.00  0.00    -0.329 C  
HETATM   37  C   UNL     1      -9.678   7.282  70.160  1.00  0.00    -0.172 C  
HETATM   38  C   UNL     1     -10.773   6.212  70.324  1.00  0.00    -0.355 C  
ENDBRANCH  31  32
ENDBRANCH   8  31
ENDBRANCH   2   3
TORSDOF 9
ENDMDL
MODEL       92
REMARK 921   NORMALIZED FREE ENERGY PREDICTED BY IDOCK:   -6.75 KCAL/MOL
REMARK 922        TOTAL FREE ENERGY PREDICTED BY IDOCK:  -11.73 KCAL/MOL
REMARK 923 INTER-LIGAND FREE ENERGY PREDICTED BY IDOCK:   -8.16 KCAL/MOL
REMARK 924 INTRA-LIGAND FREE ENERGY PREDICTED BY IDOCK:   -3.57 KCAL/MOL
REMARK 927      BINDING AFFINITY PREDICTED BY RF-SCORE:    0.00 PKD
ROOT
HETATM    1  C   UNL     1      -5.535   7.975  68.670  1.00  0.00    -0.031 C  
HETATM    2  C   UNL     1      -6.823   8.476  69.304  1.00  0.00    -0.050 C  
ENDROOT
BRANCH   2   3
HETATM    3  C   UNL     1      -8.060   8.051  68.545  1.00  0.00    -0.125 A  
HETATM    4  C   UNL     1      -7.817   7.220  67.441  1.00  0.00    -0.112 A  
HETATM    5  C   UNL     1      -8.824   6.881  66.535  1.00  0.00    -0.148 A  
HETATM    6  C   UNL     1     -10.117   7.339  66.753  1.00  0.00    -0.291 A  
HETATM    7  C   UNL     1     -10.393   8.112  67.893  1.00  0.00    -0.280 A  
HETATM    8  C   UNL     1      -9.382   8.466  68.817  1.00  0.00    -0.143 A  
BRANCH   5   9
HETATM    9  C   UNL     1      -8.392   6.153  65.309  1.00  0.00    -0.144 C  
HETATM   10  C   UNL     1      -8.923   4.775  65.016  1.00  0.00    -0.153 C  
BRANCH   9  11
HETATM   11  N   UNL     1      -7.549   6.772  64.532  1.00  0.00    -0.096 NA 
HETATM   12  H   UNL     1      -6.590   6.463  64.367  1.00  0.00     0.000 HD 
BRANCH  11  13
HETATM   13  O   UNL     1      -8.114   7.907  63.952  1.00  0.00    -0.145 OA 
BRANCH  13  14
HETATM   14  C   UNL     1      -7.302   9.021  64.303  1.00  0.00    -0.103 C  
BRANCH  14  15
HETATM   15  C   UNL     1      -8.165   9.993  65.047  1.00  0.00    -0.148 A  
HETATM   16  F   UNL     1      -8.494  13.197  68.714  1.00  0.00    -0.120 F  
HETATM   17  F   UNL     1      -7.111  11.537  68.770  1.00  0.00    -0.078 F  
HETATM   18  C   UNL     1      -9.521  10.090  64.768  1.00  0.00    -0.366 A  
HETATM   19  F   UNL     1      -6.703  13.232  67.476  1.00  0.00    -0.130 F  
HETATM   20  C   UNL     1     -10.302  11.029  65.434  1.00  0.00    -0.330 A  
HETATM   21  C   UNL     1      -7.637  10.767  66.081  1.00  0.00    -0.139 A  
HETATM   22  C   UNL     1      -9.759  11.932  66.372  1.00  0.00    -0.238 A  
HETATM   23  C   UNL     1      -7.709  12.422  67.918  1.00  0.00    -0.135 C  
HETATM   24  C   UNL     1      -8.417  11.718  66.776  1.00  0.00    -0.177 A  
BRANCH  22  25
HETATM   25  C   UNL     1     -10.599  13.115  66.877  1.00  0.00    -0.265 C  
HETATM   26  C   UNL     1     -10.179  14.450  66.217  1.00  0.00    -0.307 C  
HETATM   27  C   UNL     1     -10.532  14.489  64.733  1.00  0.00    -0.365 C  
HETATM   28  C   UNL     1     -12.034  14.355  64.532  1.00  0.00    -0.487 C  
HETATM   29  C   UNL     1     -12.623  13.146  65.249  1.00  0.00    -0.531 C  
HETATM   30  C   UNL     1     -12.138  13.001  66.700  1.00  0.00    -0.386 C  
ENDBRANCH  22  25
ENDBRANCH  14  15
ENDBRANCH  13  14
ENDBRANCH  11  13
ENDBRANCH   9  11
ENDBRANCH   5   9
BRANCH   8  31
HETATM   31  C   UNL     1      -9.717   9.382  69.987  1.00  0.00    -0.224 C  
BRANCH  31  32
HETATM   32  N   UNL     1      -9.653   8.767  71.335  1.00  0.00    -0.240 NA 
HETATM   33  O   UNL     1      -9.135   7.660  74.148  1.00  0.00    -0.246 OA 
HETATM   34  O   UNL     1     -10.632   6.009  74.455  1.00  0.00    -0.212 OA 
HETATM   35  C   UNL     1     -10.970   8.819  72.026  1.00  0.00    -0.368 C  
HETATM   36  C   UNL     1     -10.211   6.923  73.751  1.00  0.00    -0.363 C  
HETATM   37  C   UNL     1      -9.836   7.291  71.177  1.00  0.00    -0.182 C  
HETATM   38  C   UNL     1     -10.797   7.326  72.380  1.00  0.00    -0.293 C  
ENDBRANCH  31  32
ENDBRANCH   8  31
ENDBRANCH   2   3
TORSDOF 9
ENDMDL
MODEL       93
REMARK 921   NORMALIZED FREE ENERGY PREDICTED BY IDOCK:   -6.74 KCAL/MOL
REMARK 922        TOTAL FREE ENERGY PREDICTED BY IDOCK:  -11.71 KCAL/MOL
REMARK 923 INTER-LIGAND FREE ENERGY PREDICTED BY IDOCK:  -10.35 KCAL/MOL
REMARK 924 INTRA-LIGAND FREE ENERGY PREDICTED BY IDOCK:   -1.36 KCAL/MOL
REMARK 927      BINDING AFFINITY PREDICTED BY RF-SCORE:    0.00 PKD
ROOT
HETATM    1  C   UNL     1     -12.155  13.765  64.154  1.00  0.00    -0.478 C  
HETATM    2  C   UNL     1     -12.378  12.948  65.416  1.00  0.00    -0.538 C  
ENDROOT
BRANCH   2   3
HETATM    3  C   UNL     1     -11.102  12.679  66.181  1.00  0.00    -0.327 A  
HETATM    4  C   UNL     1     -10.560  11.399  65.991  1.00  0.00    -0.319 A  
HETATM    5  C   UNL     1      -9.487  10.929  66.751  1.00  0.00    -0.200 A  
HETATM    6  C   UNL     1      -8.905  11.766  67.695  1.00  0.00    -0.162 A  
HETATM    7  C   UNL     1      -9.388  13.076  67.849  1.00  0.00    -0.212 A  
HETATM    8  C   UNL     1     -10.476  13.564  67.087  1.00  0.00    -0.256 A  
BRANCH   5   9
HETATM    9  C   UNL     1      -9.136   9.492  66.580  1.00  0.00    -0.151 C  
HETATM   10  C   UNL     1      -7.755   9.000  66.922  1.00  0.00    -0.098 C  
BRANCH   9  11
HETATM   11  N   UNL     1     -10.078   8.712  66.127  1.00  0.00    -0.441 NA 
HETATM   12  H   UNL     1     -10.203   8.480  65.142  1.00  0.00     0.000 HD 
BRANCH  11  13
HETATM   13  O   UNL     1     -10.893   8.233  67.152  1.00  0.00    -0.244 OA 
BRANCH  13  14
HETATM   14  C   UNL     1     -10.656   6.836  67.274  1.00  0.00    -0.320 C  
BRANCH  14  15
HETATM   15  C   UNL     1     -10.190   6.577  68.674  1.00  0.00    -0.192 A  
HETATM   16  F   UNL     1      -9.069   8.478  73.028  1.00  0.00    -0.305 F  
HETATM   17  F   UNL     1      -8.890   9.622  71.203  1.00  0.00    -0.200 F  
HETATM   18  C   UNL     1      -9.751   5.316  69.050  1.00  0.00    -0.217 A  
HETATM   19  F   UNL     1     -10.857   9.203  72.019  1.00  0.00    -0.410 F  
HETATM   20  C   UNL     1      -9.364   5.079  70.366  1.00  0.00    -0.216 A  
HETATM   21  C   UNL     1     -10.121   7.616  69.604  1.00  0.00    -0.194 A  
HETATM   22  C   UNL     1      -9.436   6.073  71.363  1.00  0.00    -0.172 A  
HETATM   23  C   UNL     1      -9.632   8.643  71.801  1.00  0.00    -0.290 C  
HETATM   24  C   UNL     1      -9.721   7.396  70.941  1.00  0.00    -0.169 A  
BRANCH  22  25
HETATM   25  C   UNL     1      -9.255   5.695  72.841  1.00  0.00    -0.135 C  
HETATM   26  C   UNL     1     -10.578   5.806  73.636  1.00  0.00    -0.302 C  
HETATM   27  C   UNL     1     -11.589   4.744  73.213  1.00  0.00    -0.286 C  
HETATM   28  C   UNL     1     -11.042   3.348  73.467  1.00  0.00    -0.317 C  
HETATM   29  C   UNL     1      -9.664   3.130  72.855  1.00  0.00    -0.173 C  
HETATM   30  C   UNL     1      -8.683   4.281  73.132  1.00  0.00    -0.100 C  
ENDBRANCH  22  25
ENDBRANCH  14  15
ENDBRANCH  13  14
ENDBRANCH  11  13
ENDBRANCH   9  11
ENDBRANCH   5   9
BRANCH   8  31
HETATM   31  C   UNL     1     -11.018  14.961  67.357  1.00  0.00    -0.314 C  
BRANCH  31  32
HETATM   32  N   UNL     1     -11.811  15.123  68.600  1.00  0.00    -0.329 NA 
HETATM   33  O   UNL     1     -13.774  15.553  70.917  1.00  0.00    -0.524 OA 
HETATM   34  O   UNL     1     -12.513  15.854  72.755  1.00  0.00    -0.388 OA 
HETATM   35  C   UNL     1     -11.420  14.128  69.634  1.00  0.00    -0.273 C  
HETATM   36  C   UNL     1     -12.572  15.584  71.559  1.00  0.00    -0.418 C  
HETATM   37  C   UNL     1     -11.160  16.185  69.427  1.00  0.00    -0.335 C  
HETATM   38  C   UNL     1     -11.354  15.282  70.659  1.00  0.00    -0.345 C  
ENDBRANCH  31  32
ENDBRANCH   8  31
ENDBRANCH   2   3
TORSDOF 9
ENDMDL
MODEL       94
REMARK 921   NORMALIZED FREE ENERGY PREDICTED BY IDOCK:   -6.73 KCAL/MOL
REMARK 922        TOTAL FREE ENERGY PREDICTED BY IDOCK:  -11.69 KCAL/MOL
REMARK 923 INTER-LIGAND FREE ENERGY PREDICTED BY IDOCK:  -10.80 KCAL/MOL
REMARK 924 INTRA-LIGAND FREE ENERGY PREDICTED BY IDOCK:   -0.90 KCAL/MOL
REMARK 927      BINDING AFFINITY PREDICTED BY RF-SCORE:    0.00 PKD
ROOT
HETATM    1  C   UNL     1      -6.661  12.947  67.408  1.00  0.00    -0.131 C  
HETATM    2  C   UNL     1      -6.983  14.402  67.705  1.00  0.00    -0.191 C  
ENDROOT
BRANCH   2   3
HETATM    3  C   UNL     1      -8.450  14.731  67.538  1.00  0.00    -0.204 A  
HETATM    4  C   UNL     1      -9.201  13.747  66.877  1.00  0.00    -0.263 A  
HETATM    5  C   UNL     1     -10.525  13.965  66.489  1.00  0.00    -0.282 A  
HETATM    6  C   UNL     1     -11.136  15.173  66.803  1.00  0.00    -0.307 A  
HETATM    7  C   UNL     1     -10.421  16.141  67.527  1.00  0.00    -0.302 A  
HETATM    8  C   UNL     1      -9.079  15.934  67.925  1.00  0.00    -0.190 A  
BRANCH   5   9
HETATM    9  C   UNL     1     -11.143  12.915  65.632  1.00  0.00    -0.279 C  
HETATM   10  C   UNL     1     -10.573  12.611  64.272  1.00  0.00    -0.408 C  
BRANCH   9  11
HETATM   11  N   UNL     1     -12.179  12.296  66.125  1.00  0.00    -0.585 NA 
HETATM   12  H   UNL     1     -13.045  12.133  65.611  1.00  0.00     0.000 HD 
BRANCH  11  13
HETATM   13  O   UNL     1     -11.961  11.884  67.439  1.00  0.00    -0.603 OA 
BRANCH  13  14
HETATM   14  C   UNL     1     -11.052  10.790  67.403  1.00  0.00    -0.296 C  
BRANCH  14  15
HETATM   15  C   UNL     1     -10.952  10.240  68.792  1.00  0.00    -0.285 A  
HETATM   16  F   UNL     1     -13.204   9.448  73.050  1.00  0.00    -0.358 F  
HETATM   17  F   UNL     1     -13.771  11.074  71.744  1.00  0.00    -0.293 F  
HETATM   18  C   UNL     1      -9.733   9.806  69.294  1.00  0.00    -0.204 A  
HETATM   19  F   UNL     1     -14.300   9.037  71.215  1.00  0.00    -0.412 F  
HETATM   20  C   UNL     1      -9.663   9.255  70.570  1.00  0.00    -0.316 A  
HETATM   21  C   UNL     1     -12.067  10.219  69.631  1.00  0.00    -0.080 A  
HETATM   22  C   UNL     1     -10.805   9.078  71.378  1.00  0.00    -0.400 A  
HETATM   23  C   UNL     1     -13.293   9.794  71.737  1.00  0.00    -0.413 C  
HETATM   24  C   UNL     1     -12.012   9.672  70.933  1.00  0.00    -0.391 A  
BRANCH  22  25
HETATM   25  C   UNL     1     -10.720   8.229  72.655  1.00  0.00    -0.384 C  
HETATM   26  C   UNL     1     -11.466   6.881  72.509  1.00  0.00    -0.268 C  
HETATM   27  C   UNL     1     -10.769   5.947  71.524  1.00  0.00    -0.313 C  
HETATM   28  C   UNL     1      -9.360   5.619  71.995  1.00  0.00    -0.165 C  
HETATM   29  C   UNL     1      -8.537   6.860  72.317  1.00  0.00    -0.123 C  
HETATM   30  C   UNL     1      -9.294   7.890  73.172  1.00  0.00    -0.337 C  
ENDBRANCH  22  25
ENDBRANCH  14  15
ENDBRANCH  13  14
ENDBRANCH  11  13
ENDBRANCH   9  11
ENDBRANCH   5   9
BRANCH   8  31
HETATM   31  C   UNL     1      -8.321  17.053  68.629  1.00  0.00    -0.264 C  
BRANCH  31  32
HETATM   32  N   UNL     1      -7.833  18.154  67.764  1.00  0.00    -0.232 NA 
HETATM   33  O   UNL     1      -7.035  20.688  66.232  1.00  0.00    -0.240 OA 
HETATM   34  O   UNL     1      -6.362  20.003  64.198  1.00  0.00    -0.271 OA 
HETATM   35  C   UNL     1      -6.451  17.899  67.278  1.00  0.00    -0.164 C  
HETATM   36  C   UNL     1      -6.735  19.710  65.331  1.00  0.00    -0.288 C  
HETATM   37  C   UNL     1      -8.329  17.903  66.375  1.00  0.00    -0.242 C  
HETATM   38  C   UNL     1      -6.927  18.271  65.856  1.00  0.00    -0.312 C  
ENDBRANCH  31  32
ENDBRANCH   8  31
ENDBRANCH   2   3
TORSDOF 9
ENDMDL
MODEL       95
REMARK 921   NORMALIZED FREE ENERGY PREDICTED BY IDOCK:   -6.72 KCAL/MOL
REMARK 922        TOTAL FREE ENERGY PREDICTED BY IDOCK:  -11.69 KCAL/MOL
REMARK 923 INTER-LIGAND FREE ENERGY PREDICTED BY IDOCK:   -8.48 KCAL/MOL
REMARK 924 INTRA-LIGAND FREE ENERGY PREDICTED BY IDOCK:   -3.21 KCAL/MOL
REMARK 927      BINDING AFFINITY PREDICTED BY RF-SCORE:    0.00 PKD
ROOT
HETATM    1  C   UNL     1     -13.360  15.424  71.942  1.00  0.00    -0.554 C  
HETATM    2  C   UNL     1     -13.214  13.912  71.993  1.00  0.00    -0.503 C  
ENDROOT
BRANCH   2   3
HETATM    3  C   UNL     1     -12.334  13.364  70.893  1.00  0.00    -0.436 A  
HETATM    4  C   UNL     1     -11.592  14.330  70.197  1.00  0.00    -0.312 A  
HETATM    5  C   UNL     1     -10.866  14.017  69.045  1.00  0.00    -0.268 A  
HETATM    6  C   UNL     1     -10.838  12.702  68.596  1.00  0.00    -0.281 A  
HETATM    7  C   UNL     1     -11.518  11.710  69.321  1.00  0.00    -0.364 A  
HETATM    8  C   UNL     1     -12.258  12.013  70.488  1.00  0.00    -0.414 A  
BRANCH   5   9
HETATM    9  C   UNL     1     -10.282  15.166  68.300  1.00  0.00    -0.223 C  
HETATM   10  C   UNL     1     -10.732  15.472  66.897  1.00  0.00    -0.317 C  
BRANCH   9  11
HETATM   11  N   UNL     1      -9.380  15.869  68.928  1.00  0.00    -0.218 NA 
HETATM   12  H   UNL     1      -9.579  16.471  69.727  1.00  0.00     0.000 HD 
BRANCH  11  13
HETATM   13  O   UNL     1      -8.111  15.697  68.377  1.00  0.00    -0.131 OA 
BRANCH  13  14
HETATM   14  C   UNL     1      -7.374  14.846  69.247  1.00  0.00    -0.175 C  
BRANCH  14  15
HETATM   15  C   UNL     1      -7.365  13.477  68.640  1.00  0.00    -0.112 A  
HETATM   16  F   UNL     1      -7.119   8.664  69.411  1.00  0.00    -0.050 F  
HETATM   17  F   UNL     1      -6.231  10.084  70.776  1.00  0.00    -0.075 F  
HETATM   18  C   UNL     1      -7.301  13.315  67.264  1.00  0.00    -0.050 A  
HETATM   19  F   UNL     1      -8.388   9.851  70.722  1.00  0.00    -0.175 F  
HETATM   20  C   UNL     1      -7.340  12.038  66.712  1.00  0.00     0.031 A  
HETATM   21  C   UNL     1      -7.350  12.340  69.450  1.00  0.00     0.288 A  
HETATM   22  C   UNL     1      -7.484  10.879  67.503  1.00  0.00    -0.097 A  
HETATM   23  C   UNL     1      -7.285   9.913  69.923  1.00  0.00    -0.129 C  
HETATM   24  C   UNL     1      -7.379  11.036  68.907  1.00  0.00    -0.111 A  
BRANCH  22  25
HETATM   25  C   UNL     1      -7.788   9.528  66.839  1.00  0.00    -0.101 C  
HETATM   26  C   UNL     1      -9.288   9.157  66.937  1.00  0.00    -0.199 C  
HETATM   27  C   UNL     1     -10.159  10.073  66.084  1.00  0.00    -0.317 C  
HETATM   28  C   UNL     1      -9.778   9.967  64.616  1.00  0.00    -0.339 C  
HETATM   29  C   UNL     1      -8.288  10.174  64.373  1.00  0.00    -0.171 C  
HETATM   30  C   UNL     1      -7.396   9.383  65.343  1.00  0.00    -0.096 C  
ENDBRANCH  22  25
ENDBRANCH  14  15
ENDBRANCH  13  14
ENDBRANCH  11  13
ENDBRANCH   9  11
ENDBRANCH   5   9
BRANCH   8  31
HETATM   31  C   UNL     1     -13.050  10.914  71.185  1.00  0.00    -0.257 C  
BRANCH  31  32
HETATM   32  N   UNL     1     -12.562   9.529  70.978  1.00  0.00    -0.286 NA 
HETATM   33  O   UNL     1     -11.673   6.713  70.151  1.00  0.00    -0.394 OA 
HETATM   34  O   UNL     1     -11.485   5.533  72.057  1.00  0.00    -0.186 OA 
HETATM   35  C   UNL     1     -11.344   9.250  71.784  1.00  0.00    -0.367 C  
HETATM   36  C   UNL     1     -11.690   6.613  71.511  1.00  0.00    -0.321 C  
HETATM   37  C   UNL     1     -13.330   8.629  71.894  1.00  0.00    -0.382 C  
HETATM   38  C   UNL     1     -12.003   7.932  72.249  1.00  0.00    -0.387 C  
ENDBRANCH  31  32
ENDBRANCH   8  31
ENDBRANCH   2   3
TORSDOF 9
ENDMDL
MODEL       96
REMARK 921   NORMALIZED FREE ENERGY PREDICTED BY IDOCK:   -6.72 KCAL/MOL
REMARK 922        TOTAL FREE ENERGY PREDICTED BY IDOCK:  -11.69 KCAL/MOL
REMARK 923 INTER-LIGAND FREE ENERGY PREDICTED BY IDOCK:   -9.44 KCAL/MOL
REMARK 924 INTRA-LIGAND FREE ENERGY PREDICTED BY IDOCK:   -2.25 KCAL/MOL
REMARK 927      BINDING AFFINITY PREDICTED BY RF-SCORE:    0.00 PKD
ROOT
HETATM    1  C   UNL     1     -10.840  19.604  67.302  1.00  0.00    -0.519 C  
HETATM    2  C   UNL     1     -10.010  19.179  66.102  1.00  0.00    -0.441 C  
ENDROOT
BRANCH   2   3
HETATM    3  C   UNL     1      -9.439  17.786  66.240  1.00  0.00    -0.232 A  
HETATM    4  C   UNL     1     -10.382  16.751  66.138  1.00  0.00    -0.338 A  
HETATM    5  C   UNL     1     -10.053  15.422  66.413  1.00  0.00    -0.292 A  
HETATM    6  C   UNL     1      -8.745  15.101  66.755  1.00  0.00    -0.307 A  
HETATM    7  C   UNL     1      -7.773  16.115  66.792  1.00  0.00    -0.288 A  
HETATM    8  C   UNL     1      -8.092  17.465  66.517  1.00  0.00    -0.312 A  
BRANCH   5   9
HETATM    9  C   UNL     1     -11.186  14.456  66.452  1.00  0.00    -0.345 C  
HETATM   10  C   UNL     1     -11.869  14.136  67.754  1.00  0.00    -0.414 C  
BRANCH   9  11
HETATM   11  N   UNL     1     -11.536  13.923  65.314  1.00  0.00    -0.317 NA 
HETATM   12  H   UNL     1     -12.425  14.104  64.848  1.00  0.00     0.000 HD 
BRANCH  11  13
HETATM   13  O   UNL     1     -10.549  13.077  64.812  1.00  0.00    -0.323 OA 
BRANCH  13  14
HETATM   14  C   UNL     1     -11.060  11.749  64.846  1.00  0.00    -0.285 C  
BRANCH  14  15
HETATM   15  C   UNL     1     -10.232  10.971  65.822  1.00  0.00    -0.316 A  
HETATM   16  F   UNL     1      -6.194  10.830  68.559  1.00  0.00    -0.047 F  
HETATM   17  F   UNL     1      -6.298  11.991  66.740  1.00  0.00    -0.150 F  
HETATM   18  C   UNL     1     -10.552   9.657  66.128  1.00  0.00     0.015 A  
HETATM   19  F   UNL     1      -7.341  12.680  68.514  1.00  0.00    -0.093 F  
HETATM   20  C   UNL     1      -9.802   8.961  67.071  1.00  0.00    -0.277 A  
HETATM   21  C   UNL     1      -9.084  11.531  66.385  1.00  0.00    -0.206 A  
HETATM   22  C   UNL     1      -8.732   9.556  67.772  1.00  0.00    -0.115 A  
HETATM   23  C   UNL     1      -7.051  11.558  67.794  1.00  0.00    -0.079 C  
HETATM   24  C   UNL     1      -8.304  10.835  67.336  1.00  0.00    -0.119 A  
BRANCH  22  25
HETATM   25  C   UNL     1      -8.112   8.841  68.981  1.00  0.00    -0.116 C  
HETATM   26  C   UNL     1      -8.391   9.592  70.306  1.00  0.00    -0.221 C  
HETATM   27  C   UNL     1      -9.865   9.536  70.693  1.00  0.00    -0.328 C  
HETATM   28  C   UNL     1     -10.315   8.098  70.902  1.00  0.00    -0.218 C  
HETATM   29  C   UNL     1      -9.979   7.194  69.722  1.00  0.00    -0.180 C  
HETATM   30  C   UNL     1      -8.539   7.366  69.212  1.00  0.00    -0.137 C  
ENDBRANCH  22  25
ENDBRANCH  14  15
ENDBRANCH  13  14
ENDBRANCH  11  13
ENDBRANCH   9  11
ENDBRANCH   5   9
BRANCH   8  31
HETATM   31  C   UNL     1      -7.019  18.537  66.660  1.00  0.00    -0.204 C  
BRANCH  31  32
HETATM   32  N   UNL     1      -6.478  18.739  68.026  1.00  0.00    -0.215 NA 
HETATM   33  O   UNL     1      -5.404  18.741  70.898  1.00  0.00    -0.241 OA 
HETATM   34  O   UNL     1      -5.545  20.868  71.616  1.00  0.00    -0.579 OA 
HETATM   35  C   UNL     1      -5.422  19.786  68.049  1.00  0.00    -0.194 C  
HETATM   36  C   UNL     1      -5.666  20.064  70.697  1.00  0.00    -0.301 C  
HETATM   37  C   UNL     1      -7.383  19.688  68.744  1.00  0.00    -0.336 C  
HETATM   38  C   UNL     1      -6.131  20.416  69.267  1.00  0.00    -0.367 C  
ENDBRANCH  31  32
ENDBRANCH   8  31
ENDBRANCH   2   3
TORSDOF 9
ENDMDL
MODEL       97
REMARK 921   NORMALIZED FREE ENERGY PREDICTED BY IDOCK:   -6.72 KCAL/MOL
REMARK 922        TOTAL FREE ENERGY PREDICTED BY IDOCK:  -11.69 KCAL/MOL
REMARK 923 INTER-LIGAND FREE ENERGY PREDICTED BY IDOCK:  -10.35 KCAL/MOL
REMARK 924 INTRA-LIGAND FREE ENERGY PREDICTED BY IDOCK:   -1.34 KCAL/MOL
REMARK 927      BINDING AFFINITY PREDICTED BY RF-SCORE:    0.00 PKD
ROOT
HETATM    1  C   UNL     1     -12.017  14.093  64.735  1.00  0.00    -0.441 C  
HETATM    2  C   UNL     1     -12.009  13.659  66.192  1.00  0.00    -0.453 C  
ENDROOT
BRANCH   2   3
HETATM    3  C   UNL     1     -10.636  13.729  66.823  1.00  0.00    -0.273 A  
HETATM    4  C   UNL     1      -9.814  12.621  66.567  1.00  0.00    -0.258 A  
HETATM    5  C   UNL     1      -8.588  12.446  67.212  1.00  0.00    -0.185 A  
HETATM    6  C   UNL     1      -8.142  13.415  68.102  1.00  0.00    -0.155 A  
HETATM    7  C   UNL     1      -8.920  14.565  68.316  1.00  0.00    -0.184 A  
HETATM    8  C   UNL     1     -10.165  14.755  67.671  1.00  0.00    -0.232 A  
BRANCH   5   9
HETATM    9  C   UNL     1      -7.907  11.139  66.992  1.00  0.00    -0.142 C  
HETATM   10  C   UNL     1      -6.536  11.090  66.372  1.00  0.00    -0.126 C  
BRANCH   9  11
HETATM   11  N   UNL     1      -8.560  10.073  67.362  1.00  0.00    -0.125 NA 
HETATM   12  H   UNL     1      -9.461   9.792  66.976  1.00  0.00     0.000 HD 
BRANCH  11  13
HETATM   13  O   UNL     1      -7.878   9.363  68.350  1.00  0.00    -0.089 OA 
BRANCH  13  14
HETATM   14  C   UNL     1      -7.881  10.155  69.532  1.00  0.00    -0.162 C  
BRANCH  14  15
HETATM   15  C   UNL     1      -8.622   9.391  70.585  1.00  0.00    -0.247 A  
HETATM   16  F   UNL     1     -12.858   8.683  72.906  1.00  0.00    -0.424 F  
HETATM   17  F   UNL     1     -12.346  10.587  72.022  1.00  0.00    -0.415 F  
HETATM   18  C   UNL     1      -7.948   8.529  71.438  1.00  0.00    -0.168 A  
HETATM   19  F   UNL     1     -12.898   8.923  70.743  1.00  0.00    -0.173 F  
HETATM   20  C   UNL     1      -8.656   7.791  72.382  1.00  0.00    -0.176 A  
HETATM   21  C   UNL     1      -9.991   9.587  70.775  1.00  0.00    -0.334 A  
HETATM   22  C   UNL     1     -10.061   7.853  72.488  1.00  0.00    -0.325 A  
HETATM   23  C   UNL     1     -12.186   9.240  71.862  1.00  0.00    -0.378 C  
HETATM   24  C   UNL     1     -10.724   8.854  71.736  1.00  0.00    -0.432 A  
BRANCH  22  25
HETATM   25  C   UNL     1     -10.813   6.831  73.354  1.00  0.00    -0.282 C  
HETATM   26  C   UNL     1     -11.465   5.715  72.503  1.00  0.00    -0.335 C  
HETATM   27  C   UNL     1     -10.422   4.803  71.863  1.00  0.00    -0.201 C  
HETATM   28  C   UNL     1      -9.586   4.109  72.927  1.00  0.00    -0.166 C  
HETATM   29  C   UNL     1      -8.983   5.081  73.935  1.00  0.00    -0.113 C  
HETATM   30  C   UNL     1      -9.989   6.117  74.461  1.00  0.00    -0.343 C  
ENDBRANCH  22  25
ENDBRANCH  14  15
ENDBRANCH  13  14
ENDBRANCH  11  13
ENDBRANCH   9  11
ENDBRANCH   5   9
BRANCH   8  31
HETATM   31  C   UNL     1     -11.010  15.977  68.008  1.00  0.00    -0.341 C  
BRANCH  31  32
HETATM   32  N   UNL     1     -11.971  15.816  69.126  1.00  0.00    -0.361 NA 
HETATM   33  O   UNL     1     -14.221  15.716  71.207  1.00  0.00    -0.540 OA 
HETATM   34  O   UNL     1     -13.251  15.121  73.148  1.00  0.00    -0.470 OA 
HETATM   35  C   UNL     1     -11.874  14.466  69.743  1.00  0.00    -0.320 C  
HETATM   36  C   UNL     1     -13.145  15.311  71.939  1.00  0.00    -0.395 C  
HETATM   37  C   UNL     1     -11.342  16.385  70.359  1.00  0.00    -0.191 C  
HETATM   38  C   UNL     1     -11.840  15.148  71.129  1.00  0.00    -0.393 C  
ENDBRANCH  31  32
ENDBRANCH   8  31
ENDBRANCH   2   3
TORSDOF 9
ENDMDL
MODEL       98
REMARK 921   NORMALIZED FREE ENERGY PREDICTED BY IDOCK:   -6.72 KCAL/MOL
REMARK 922        TOTAL FREE ENERGY PREDICTED BY IDOCK:  -11.68 KCAL/MOL
REMARK 923 INTER-LIGAND FREE ENERGY PREDICTED BY IDOCK:   -9.21 KCAL/MOL
REMARK 924 INTRA-LIGAND FREE ENERGY PREDICTED BY IDOCK:   -2.47 KCAL/MOL
REMARK 927      BINDING AFFINITY PREDICTED BY RF-SCORE:    0.00 PKD
ROOT
HETATM    1  C   UNL     1     -14.145  14.598  71.656  1.00  0.00    -0.571 C  
HETATM    2  C   UNL     1     -12.793  13.956  71.921  1.00  0.00    -0.411 C  
ENDROOT
BRANCH   2   3
HETATM    3  C   UNL     1     -12.506  12.783  71.011  1.00  0.00    -0.369 A  
HETATM    4  C   UNL     1     -13.029  11.557  71.448  1.00  0.00    -0.450 A  
HETATM    5  C   UNL     1     -12.711  10.351  70.819  1.00  0.00    -0.460 A  
HETATM    6  C   UNL     1     -11.887  10.364  69.700  1.00  0.00    -0.252 A  
HETATM    7  C   UNL     1     -11.412  11.590  69.207  1.00  0.00    -0.370 A  
HETATM    8  C   UNL     1     -11.726  12.819  69.834  1.00  0.00    -0.321 A  
BRANCH   5   9
HETATM    9  C   UNL     1     -13.179   9.110  71.496  1.00  0.00    -0.352 C  
HETATM   10  C   UNL     1     -13.887   9.188  72.823  1.00  0.00    -0.282 C  
BRANCH   9  11
HETATM   11  N   UNL     1     -12.942   7.986  70.880  1.00  0.00    -0.503 NA 
HETATM   12  H   UNL     1     -13.472   7.652  70.075  1.00  0.00     0.000 HD 
BRANCH  11  13
HETATM   13  O   UNL     1     -11.876   7.294  71.453  1.00  0.00    -0.277 OA 
BRANCH  13  14
HETATM   14  C   UNL     1     -11.480   6.277  70.540  1.00  0.00    -0.338 C  
BRANCH  14  15
HETATM   15  C   UNL     1     -10.606   6.915  69.505  1.00  0.00    -0.261 A  
HETATM   16  F   UNL     1      -6.929   9.992  68.590  1.00  0.00    -0.064 F  
HETATM   17  F   UNL     1      -8.193  10.211  70.328  1.00  0.00    -0.196 F  
HETATM   18  C   UNL     1     -10.871   6.743  68.154  1.00  0.00    -0.296 A  
HETATM   19  F   UNL     1      -6.724   8.614  70.263  1.00  0.00    -0.037 F  
HETATM   20  C   UNL     1     -10.024   7.304  67.203  1.00  0.00    -0.279 A  
HETATM   21  C   UNL     1      -9.553   7.751  69.880  1.00  0.00    -0.164 A  
HETATM   22  C   UNL     1      -8.862   8.021  67.557  1.00  0.00    -0.129 A  
HETATM   23  C   UNL     1      -7.642   9.274  69.499  1.00  0.00    -0.081 C  
HETATM   24  C   UNL     1      -8.689   8.337  68.928  1.00  0.00    -0.137 A  
BRANCH  22  25
HETATM   25  C   UNL     1      -7.826   8.387  66.484  1.00  0.00    -0.092 C  
HETATM   26  C   UNL     1      -6.501   7.609  66.667  1.00  0.00    -0.053 C  
HETATM   27  C   UNL     1      -6.668   6.121  66.376  1.00  0.00    -0.060 C  
HETATM   28  C   UNL     1      -7.112   5.898  64.938  1.00  0.00    -0.060 C  
HETATM   29  C   UNL     1      -8.342   6.716  64.563  1.00  0.00     0.059 C  
HETATM   30  C   UNL     1      -8.256   8.186  65.005  1.00  0.00    -0.157 C  
ENDBRANCH  22  25
ENDBRANCH  14  15
ENDBRANCH  13  14
ENDBRANCH  11  13
ENDBRANCH   9  11
ENDBRANCH   5   9
BRANCH   8  31
HETATM   31  C   UNL     1     -11.110  14.111  69.311  1.00  0.00    -0.250 C  
BRANCH  31  32
HETATM   32  N   UNL     1     -11.460  14.481  67.918  1.00  0.00    -0.309 NA 
HETATM   33  O   UNL     1     -12.410  14.893  65.032  1.00  0.00    -0.253 OA 
HETATM   34  O   UNL     1     -10.996  16.384  64.116  1.00  0.00    -0.717 OA 
HETATM   35  C   UNL     1     -11.627  15.951  67.767  1.00  0.00    -0.044 C  
HETATM   36  C   UNL     1     -11.369  15.770  65.112  1.00  0.00    -0.154 C  
HETATM   37  C   UNL     1     -10.189  14.581  67.136  1.00  0.00    -0.260 C  
HETATM   38  C   UNL     1     -10.728  15.882  66.512  1.00  0.00    -0.258 C  
ENDBRANCH  31  32
ENDBRANCH   8  31
ENDBRANCH   2   3
TORSDOF 9
ENDMDL
MODEL       99
REMARK 921   NORMALIZED FREE ENERGY PREDICTED BY IDOCK:   -6.67 KCAL/MOL
REMARK 922        TOTAL FREE ENERGY PREDICTED BY IDOCK:  -11.61 KCAL/MOL
REMARK 923 INTER-LIGAND FREE ENERGY PREDICTED BY IDOCK:  -11.36 KCAL/MOL
REMARK 924 INTRA-LIGAND FREE ENERGY PREDICTED BY IDOCK:   -0.25 KCAL/MOL
REMARK 927      BINDING AFFINITY PREDICTED BY RF-SCORE:    0.00 PKD
ROOT
HETATM    1  C   UNL     1      -8.717   9.229  68.170  1.00  0.00    -0.125 C  
HETATM    2  C   UNL     1     -10.219   9.056  68.015  1.00  0.00    -0.260 C  
ENDROOT
BRANCH   2   3
HETATM    3  C   UNL     1     -10.953  10.370  67.865  1.00  0.00    -0.354 A  
HETATM    4  C   UNL     1     -11.001  10.870  66.555  1.00  0.00    -0.187 A  
HETATM    5  C   UNL     1     -11.486  12.148  66.269  1.00  0.00    -0.433 A  
HETATM    6  C   UNL     1     -11.979  12.936  67.302  1.00  0.00    -0.371 A  
HETATM    7  C   UNL     1     -12.005  12.422  68.609  1.00  0.00    -0.272 A  
HETATM    8  C   UNL     1     -11.515  11.130  68.913  1.00  0.00    -0.363 A  
BRANCH   5   9
HETATM    9  C   UNL     1     -11.305  12.626  64.869  1.00  0.00    -0.311 C  
HETATM   10  C   UNL     1     -12.310  12.268  63.808  1.00  0.00    -0.637 C  
BRANCH   9  11
HETATM   11  N   UNL     1     -10.248  13.352  64.635  1.00  0.00    -0.581 NA 
HETATM   12  H   UNL     1      -9.451  13.039  64.080  1.00  0.00     0.000 HD 
BRANCH  11  13
HETATM   13  O   UNL     1     -10.338  14.609  65.233  1.00  0.00    -0.349 OA 
BRANCH  13  14
HETATM   14  C   UNL     1      -9.312  14.694  66.215  1.00  0.00    -0.262 C  
BRANCH  14  15
HETATM   15  C   UNL     1      -8.854  16.118  66.268  1.00  0.00    -0.371 A  
HETATM   16  F   UNL     1     -10.117  20.830  66.089  1.00  0.00    -0.371 F  
HETATM   17  F   UNL     1     -11.279  19.299  65.100  1.00  0.00    -0.315 F  
HETATM   18  C   UNL     1      -7.501  16.425  66.279  1.00  0.00     0.002 A  
HETATM   19  F   UNL     1     -11.356  19.477  67.262  1.00  0.00    -0.543 F  
HETATM   20  C   UNL     1      -7.090  17.751  66.375  1.00  0.00    -0.299 A  
HETATM   21  C   UNL     1      -9.778  17.164  66.236  1.00  0.00    -0.296 A  
HETATM   22  C   UNL     1      -8.005  18.816  66.503  1.00  0.00    -0.294 A  
HETATM   23  C   UNL     1     -10.501  19.529  66.200  1.00  0.00    -0.518 C  
HETATM   24  C   UNL     1      -9.378  18.517  66.322  1.00  0.00    -0.243 A  
BRANCH  22  25
HETATM   25  C   UNL     1      -7.504  20.221  66.872  1.00  0.00    -0.337 C  
HETATM   26  C   UNL     1      -7.911  20.624  68.310  1.00  0.00     0.213 C  
HETATM   27  C   UNL     1      -7.179  19.797  69.363  1.00  0.00    -0.253 C  
HETATM   28  C   UNL     1      -5.675  20.001  69.260  1.00  0.00    -0.292 C  
HETATM   29  C   UNL     1      -5.140  19.772  67.852  1.00  0.00    -0.178 C  
HETATM   30  C   UNL     1      -5.974  20.465  66.761  1.00  0.00    -0.215 C  
ENDBRANCH  22  25
ENDBRANCH  14  15
ENDBRANCH  13  14
ENDBRANCH  11  13
ENDBRANCH   9  11
ENDBRANCH   5   9
BRANCH   8  31
HETATM   31  C   UNL     1     -11.483  10.658  70.362  1.00  0.00    -0.334 C  
BRANCH  31  32
HETATM   32  N   UNL     1     -11.434   9.190  70.567  1.00  0.00    -0.255 NA 
HETATM   33  O   UNL     1     -11.471   6.124  70.597  1.00  0.00    -0.338 OA 
HETATM   34  O   UNL     1     -11.446   5.520  72.764  1.00  0.00    -0.303 OA 
HETATM   35  C   UNL     1     -10.275   8.793  71.410  1.00  0.00    -0.280 C  
HETATM   36  C   UNL     1     -11.385   6.416  71.926  1.00  0.00    -0.293 C  
HETATM   37  C   UNL     1     -12.335   8.856  71.713  1.00  0.00    -0.357 C  
HETATM   38  C   UNL     1     -11.236   7.919  72.246  1.00  0.00    -0.389 C  
ENDBRANCH  31  32
ENDBRANCH   8  31
ENDBRANCH   2   3
TORSDOF 9
ENDMDL
MODEL      100
REMARK 921   NORMALIZED FREE ENERGY PREDICTED BY IDOCK:   -6.66 KCAL/MOL
REMARK 922        TOTAL FREE ENERGY PREDICTED BY IDOCK:  -11.60 KCAL/MOL
REMARK 923 INTER-LIGAND FREE ENERGY PREDICTED BY IDOCK:  -10.73 KCAL/MOL
REMARK 924 INTRA-LIGAND FREE ENERGY PREDICTED BY IDOCK:   -0.87 KCAL/MOL
REMARK 927      BINDING AFFINITY PREDICTED BY RF-SCORE:    0.00 PKD
ROOT
HETATM    1  C   UNL     1     -10.642  19.503  67.318  1.00  0.00    -0.610 C  
HETATM    2  C   UNL     1     -10.145  18.929  66.001  1.00  0.00    -0.372 C  
ENDROOT
BRANCH   2   3
HETATM    3  C   UNL     1      -9.457  17.592  66.159  1.00  0.00    -0.178 A  
HETATM    4  C   UNL     1     -10.297  16.478  66.019  1.00  0.00    -0.358 A  
HETATM    5  C   UNL     1      -9.861  15.182  66.305  1.00  0.00    -0.317 A  
HETATM    6  C   UNL     1      -8.544  14.979  66.699  1.00  0.00    -0.246 A  
HETATM    7  C   UNL     1      -7.670  16.076  66.776  1.00  0.00    -0.270 A  
HETATM    8  C   UNL     1      -8.099  17.394  66.490  1.00  0.00    -0.312 A  
BRANCH   5   9
HETATM    9  C   UNL     1     -10.903  14.118  66.297  1.00  0.00    -0.300 C  
HETATM   10  C   UNL     1     -11.961  14.081  67.367  1.00  0.00    -0.439 C  
BRANCH   9  11
HETATM   11  N   UNL     1     -10.838  13.247  65.330  1.00  0.00    -0.293 NA 
HETATM   12  H   UNL     1     -11.434  13.266  64.502  1.00  0.00     0.000 HD 
BRANCH  11  13
HETATM   13  O   UNL     1      -9.856  12.284  65.562  1.00  0.00    -0.243 OA 
BRANCH  13  14
HETATM   14  C   UNL     1     -10.385  11.024  65.168  1.00  0.00    -0.283 C  
BRANCH  14  15
HETATM   15  C   UNL     1     -10.369  10.131  66.371  1.00  0.00    -0.258 A  
HETATM   16  F   UNL     1      -9.174   5.772  68.212  1.00  0.00    -0.117 F  
HETATM   17  F   UNL     1      -9.629   6.039  66.117  1.00  0.00    -0.176 F  
HETATM   18  C   UNL     1     -11.017  10.508  67.538  1.00  0.00    -0.365 A  
HETATM   19  F   UNL     1      -7.742   6.764  66.907  1.00  0.00    -0.094 F  
HETATM   20  C   UNL     1     -10.956   9.690  68.662  1.00  0.00    -0.152 A  
HETATM   21  C   UNL     1      -9.764   8.875  66.315  1.00  0.00    -0.345 A  
HETATM   22  C   UNL     1     -10.217   8.489  68.680  1.00  0.00    -0.217 A  
HETATM   23  C   UNL     1      -9.072   6.668  67.194  1.00  0.00    -0.128 C  
HETATM   24  C   UNL     1      -9.701   8.026  67.444  1.00  0.00    -0.216 A  
BRANCH  22  25
HETATM   25  C   UNL     1      -9.960   7.763  70.010  1.00  0.00    -0.187 C  
HETATM   26  C   UNL     1      -9.878   8.747  71.202  1.00  0.00    -0.313 C  
HETATM   27  C   UNL     1     -11.228   9.388  71.507  1.00  0.00    -0.457 C  
HETATM   28  C   UNL     1     -12.256   8.331  71.882  1.00  0.00    -0.383 C  
HETATM   29  C   UNL     1     -12.353   7.208  70.857  1.00  0.00    -0.335 C  
HETATM   30  C   UNL     1     -10.984   6.666  70.412  1.00  0.00    -0.341 C  
ENDBRANCH  22  25
ENDBRANCH  14  15
ENDBRANCH  13  14
ENDBRANCH  11  13
ENDBRANCH   9  11
ENDBRANCH   5   9
BRANCH   8  31
HETATM   31  C   UNL     1      -7.133  18.557  66.677  1.00  0.00    -0.208 C  
BRANCH  31  32
HETATM   32  N   UNL     1      -6.565  18.720  68.037  1.00  0.00    -0.217 NA 
HETATM   33  O   UNL     1      -5.435  18.641  70.887  1.00  0.00    -0.243 OA 
HETATM   34  O   UNL     1      -5.568  20.746  71.670  1.00  0.00    -0.589 OA 
HETATM   35  C   UNL     1      -5.512  19.770  68.070  1.00  0.00    -0.194 C  
HETATM   36  C   UNL     1      -5.705  19.968  70.730  1.00  0.00    -0.308 C  
HETATM   37  C   UNL     1      -7.459  19.645  68.801  1.00  0.00    -0.329 C  
HETATM   38  C   UNL     1      -6.199  20.362  69.321  1.00  0.00    -0.335 C  
ENDBRANCH  31  32
ENDBRANCH   8  31
ENDBRANCH   2   3
TORSDOF 9
ENDMDL
MODEL      101
REMARK 921   NORMALIZED FREE ENERGY PREDICTED BY IDOCK:   -6.66 KCAL/MOL
REMARK 922        TOTAL FREE ENERGY PREDICTED BY IDOCK:  -11.59 KCAL/MOL
REMARK 923 INTER-LIGAND FREE ENERGY PREDICTED BY IDOCK:   -8.21 KCAL/MOL
REMARK 924 INTRA-LIGAND FREE ENERGY PREDICTED BY IDOCK:   -3.38 KCAL/MOL
REMARK 927      BINDING AFFINITY PREDICTED BY RF-SCORE:    0.00 PKD
ROOT
HETATM    1  C   UNL     1      -8.043  11.540  66.397  1.00  0.00    -0.069 C  
HETATM    2  C   UNL     1      -6.960  11.389  67.453  1.00  0.00    -0.106 C  
ENDROOT
BRANCH   2   3
HETATM    3  C   UNL     1      -6.931  12.535  68.439  1.00  0.00    -0.096 A  
HETATM    4  C   UNL     1      -7.592  13.696  68.012  1.00  0.00    -0.139 A  
HETATM    5  C   UNL     1      -7.513  14.896  68.723  1.00  0.00    -0.132 A  
HETATM    6  C   UNL     1      -6.797  14.936  69.912  1.00  0.00    -0.167 A  
HETATM    7  C   UNL     1      -6.188  13.764  70.391  1.00  0.00    -0.078 A  
HETATM    8  C   UNL     1      -6.259  12.542  69.681  1.00  0.00    -0.126 A  
BRANCH   5   9
HETATM    9  C   UNL     1      -8.102  16.094  68.062  1.00  0.00    -0.146 C  
HETATM   10  C   UNL     1      -8.088  16.220  66.562  1.00  0.00    -0.337 C  
BRANCH   9  11
HETATM   11  N   UNL     1      -8.616  16.998  68.848  1.00  0.00    -0.236 NA 
HETATM   12  H   UNL     1      -8.084  17.514  69.550  1.00  0.00     0.000 HD 
BRANCH  11  13
HETATM   13  O   UNL     1      -9.979  17.177  68.615  1.00  0.00    -0.278 OA 
BRANCH  13  14
HETATM   14  C   UNL     1     -10.676  16.746  69.778  1.00  0.00    -0.186 C  
BRANCH  14  15
HETATM   15  C   UNL     1     -11.162  15.353  69.524  1.00  0.00    -0.289 A  
HETATM   16  F   UNL     1     -12.361  11.983  66.203  1.00  0.00    -0.298 F  
HETATM   17  F   UNL     1     -12.519  14.098  65.789  1.00  0.00    -0.419 F  
HETATM   18  C   UNL     1     -11.599  14.555  70.571  1.00  0.00    -0.295 A  
HETATM   19  F   UNL     1     -10.562  13.162  65.868  1.00  0.00    -0.267 F  
HETATM   20  C   UNL     1     -12.005  13.247  70.326  1.00  0.00    -0.372 A  
HETATM   21  C   UNL     1     -11.251  14.858  68.222  1.00  0.00    -0.306 A  
HETATM   22  C   UNL     1     -11.954  12.671  69.040  1.00  0.00    -0.282 A  
HETATM   23  C   UNL     1     -11.779  13.180  66.482  1.00  0.00    -0.382 C  
HETATM   24  C   UNL     1     -11.671  13.535  67.953  1.00  0.00    -0.392 A  
BRANCH  22  25
HETATM   25  C   UNL     1     -12.156  11.158  68.866  1.00  0.00    -0.276 C  
HETATM   26  C   UNL     1     -10.851  10.442  68.443  1.00  0.00    -0.289 C  
HETATM   27  C   UNL     1      -9.811  10.444  69.560  1.00  0.00    -0.211 C  
HETATM   28  C   UNL     1     -10.335   9.711  70.785  1.00  0.00    -0.356 C  
HETATM   29  C   UNL     1     -11.696  10.218  71.244  1.00  0.00    -0.378 C  
HETATM   30  C   UNL     1     -12.705  10.383  70.095  1.00  0.00    -0.146 C  
ENDBRANCH  22  25
ENDBRANCH  14  15
ENDBRANCH  13  14
ENDBRANCH  11  13
ENDBRANCH   9  11
ENDBRANCH   5   9
BRANCH   8  31
HETATM   31  C   UNL     1      -5.504  11.325  70.199  1.00  0.00    -0.097 C  
BRANCH  31  32
HETATM   32  N   UNL     1      -6.289  10.376  71.027  1.00  0.00    -0.341 NA 
HETATM   33  O   UNL     1      -8.123   8.753  72.872  1.00  0.00    -0.404 OA 
HETATM   34  O   UNL     1      -7.097   6.777  73.192  1.00  0.00    -0.076 OA 
HETATM   35  C   UNL     1      -6.512   9.086  70.321  1.00  0.00    -0.043 C  
HETATM   36  C   UNL     1      -7.122   7.863  72.619  1.00  0.00    -0.083 C  
HETATM   37  C   UNL     1      -5.340   9.670  71.942  1.00  0.00    -0.068 C  
HETATM   38  C   UNL     1      -6.065   8.354  71.606  1.00  0.00    -0.046 C  
ENDBRANCH  31  32
ENDBRANCH   8  31
ENDBRANCH   2   3
TORSDOF 9
ENDMDL
MODEL      102
REMARK 921   NORMALIZED FREE ENERGY PREDICTED BY IDOCK:   -6.65 KCAL/MOL
REMARK 922        TOTAL FREE ENERGY PREDICTED BY IDOCK:  -11.58 KCAL/MOL
REMARK 923 INTER-LIGAND FREE ENERGY PREDICTED BY IDOCK:  -10.19 KCAL/MOL
REMARK 924 INTRA-LIGAND FREE ENERGY PREDICTED BY IDOCK:   -1.39 KCAL/MOL
REMARK 927      BINDING AFFINITY PREDICTED BY RF-SCORE:    0.00 PKD
ROOT
HETATM    1  C   UNL     1      -7.738   8.365  70.072  1.00  0.00    -0.090 C  
HETATM    2  C   UNL     1      -8.258   8.484  71.495  1.00  0.00    -0.199 C  
ENDROOT
BRANCH   2   3
HETATM    3  C   UNL     1      -9.765   8.579  71.569  1.00  0.00    -0.303 A  
HETATM    4  C   UNL     1     -10.334   9.563  70.747  1.00  0.00    -0.377 A  
HETATM    5  C   UNL     1     -11.688   9.898  70.824  1.00  0.00    -0.424 A  
HETATM    6  C   UNL     1     -12.510   9.209  71.706  1.00  0.00    -0.447 A  
HETATM    7  C   UNL     1     -11.972   8.172  72.485  1.00  0.00    -0.410 A  
HETATM    8  C   UNL     1     -10.602   7.823  72.419  1.00  0.00    -0.336 A  
BRANCH   5   9
HETATM    9  C   UNL     1     -12.119  11.086  70.034  1.00  0.00    -0.364 C  
HETATM   10  C   UNL     1     -12.404  12.394  70.722  1.00  0.00    -0.377 C  
BRANCH   9  11
HETATM   11  N   UNL     1     -12.230  10.919  68.746  1.00  0.00    -0.793 NA 
HETATM   12  H   UNL     1     -13.053  10.525  68.289  1.00  0.00     0.000 HD 
BRANCH  11  13
HETATM   13  O   UNL     1     -11.089  11.345  68.067  1.00  0.00    -0.219 OA 
BRANCH  13  14
HETATM   14  C   UNL     1     -11.512  12.146  66.971  1.00  0.00    -0.350 C  
BRANCH  14  15
HETATM   15  C   UNL     1     -10.966  13.525  67.181  1.00  0.00    -0.302 A  
HETATM   16  F   UNL     1     -10.768  17.446  70.080  1.00  0.00    -0.187 F  
HETATM   17  F   UNL     1     -12.470  16.115  70.078  1.00  0.00    -0.275 F  
HETATM   18  C   UNL     1     -10.262  14.166  66.173  1.00  0.00    -0.313 A  
HETATM   19  F   UNL     1     -10.611  15.480  70.999  1.00  0.00    -0.338 F  
HETATM   20  C   UNL     1      -9.721  15.429  66.398  1.00  0.00    -0.311 A  
HETATM   21  C   UNL     1     -11.218  14.215  68.367  1.00  0.00    -0.289 A  
HETATM   22  C   UNL     1      -9.826  16.082  67.643  1.00  0.00    -0.235 A  
HETATM   23  C   UNL     1     -11.113  16.141  69.917  1.00  0.00    -0.357 C  
HETATM   24  C   UNL     1     -10.685  15.502  68.609  1.00  0.00    -0.252 A  
BRANCH  22  25
HETATM   25  C   UNL     1      -8.993  17.342  67.924  1.00  0.00    -0.235 C  
HETATM   26  C   UNL     1      -7.776  17.044  68.833  1.00  0.00    -0.231 C  
HETATM   27  C   UNL     1      -6.731  16.187  68.124  1.00  0.00    -0.133 C  
HETATM   28  C   UNL     1      -6.193  16.901  66.893  1.00  0.00    -0.226 C  
HETATM   29  C   UNL     1      -7.295  17.384  65.958  1.00  0.00    -0.265 C  
HETATM   30  C   UNL     1      -8.443  18.102  66.686  1.00  0.00    -0.282 C  
ENDBRANCH  22  25
ENDBRANCH  14  15
ENDBRANCH  13  14
ENDBRANCH  11  13
ENDBRANCH   9  11
ENDBRANCH   5   9
BRANCH   8  31
HETATM   31  C   UNL     1     -10.052   6.751  73.351  1.00  0.00    -0.240 C  
BRANCH  31  32
HETATM   32  N   UNL     1     -10.179   5.351  72.881  1.00  0.00    -0.179 NA 
HETATM   33  O   UNL     1     -10.630   2.379  72.274  1.00  0.00    -0.082 OA 
HETATM   34  O   UNL     1      -9.213   1.859  70.607  1.00  0.00    -0.088 OA 
HETATM   35  C   UNL     1     -10.445   5.285  71.419  1.00  0.00    -0.203 C  
HETATM   36  C   UNL     1      -9.702   2.718  71.336  1.00  0.00    -0.147 C  
HETATM   37  C   UNL     1      -8.803   4.827  72.617  1.00  0.00    -0.114 C  
HETATM   38  C   UNL     1      -9.334   4.217  71.307  1.00  0.00    -0.218 C  
ENDBRANCH  31  32
ENDBRANCH   8  31
ENDBRANCH   2   3
TORSDOF 9
ENDMDL
MODEL      103
REMARK 921   NORMALIZED FREE ENERGY PREDICTED BY IDOCK:   -6.64 KCAL/MOL
REMARK 922        TOTAL FREE ENERGY PREDICTED BY IDOCK:  -11.57 KCAL/MOL
REMARK 923 INTER-LIGAND FREE ENERGY PREDICTED BY IDOCK:   -9.06 KCAL/MOL
REMARK 924 INTRA-LIGAND FREE ENERGY PREDICTED BY IDOCK:   -2.51 KCAL/MOL
REMARK 927      BINDING AFFINITY PREDICTED BY RF-SCORE:    0.00 PKD
ROOT
HETATM    1  C   UNL     1     -11.284  10.471  67.831  1.00  0.00    -0.358 C  
HETATM    2  C   UNL     1     -10.202  11.328  67.193  1.00  0.00    -0.235 C  
ENDROOT
BRANCH   2   3
HETATM    3  C   UNL     1     -10.051  11.083  65.709  1.00  0.00    -0.305 A  
HETATM    4  C   UNL     1      -9.300   9.946  65.373  1.00  0.00    -0.297 A  
HETATM    5  C   UNL     1      -8.920   9.673  64.058  1.00  0.00    -0.261 A  
HETATM    6  C   UNL     1      -9.332  10.524  63.040  1.00  0.00    -0.343 A  
HETATM    7  C   UNL     1     -10.145  11.627  63.349  1.00  0.00    -0.468 A  
HETATM    8  C   UNL     1     -10.535  11.917  64.678  1.00  0.00    -0.340 A  
BRANCH   5   9
HETATM    9  C   UNL     1      -7.969   8.542  63.866  1.00  0.00    -0.160 C  
HETATM   10  C   UNL     1      -6.594   8.791  63.305  1.00  0.00    -0.090 C  
BRANCH   9  11
HETATM   11  N   UNL     1      -8.395   7.359  64.208  1.00  0.00    -0.366 NA 
HETATM   12  H   UNL     1      -9.080   6.822  63.675  1.00  0.00     0.000 HD 
BRANCH  11  13
HETATM   13  O   UNL     1      -7.803   6.913  65.389  1.00  0.00    -0.100 OA 
BRANCH  13  14
HETATM   14  C   UNL     1      -8.793   6.212  66.131  1.00  0.00    -0.152 C  
BRANCH  14  15
HETATM   15  C   UNL     1      -8.903   6.869  67.472  1.00  0.00    -0.118 A  
HETATM   16  F   UNL     1      -7.197  10.298  70.498  1.00  0.00    -0.156 F  
HETATM   17  F   UNL     1      -5.952   9.393  68.982  1.00  0.00    -0.041 F  
HETATM   18  C   UNL     1      -9.741   6.348  68.447  1.00  0.00    -0.131 A  
HETATM   19  F   UNL     1      -7.479  10.823  68.404  1.00  0.00    -0.082 F  
HETATM   20  C   UNL     1      -9.868   6.995  69.672  1.00  0.00    -0.166 A  
HETATM   21  C   UNL     1      -8.111   7.974  67.789  1.00  0.00    -0.128 A  
HETATM   22  C   UNL     1      -9.199   8.202  69.960  1.00  0.00    -0.155 A  
HETATM   23  C   UNL     1      -7.238   9.775  69.243  1.00  0.00    -0.072 C  
HETATM   24  C   UNL     1      -8.219   8.637  69.033  1.00  0.00    -0.122 A  
BRANCH  22  25
HETATM   25  C   UNL     1      -9.574   9.011  71.211  1.00  0.00    -0.361 C  
HETATM   26  C   UNL     1     -11.039   9.508  71.164  1.00  0.00    -0.450 C  
HETATM   27  C   UNL     1     -12.035   8.358  71.283  1.00  0.00    -0.323 C  
HETATM   28  C   UNL     1     -11.863   7.630  72.607  1.00  0.00    -0.269 C  
HETATM   29  C   UNL     1     -10.424   7.195  72.862  1.00  0.00    -0.303 C  
HETATM   30  C   UNL     1      -9.393   8.300  72.580  1.00  0.00    -0.350 C  
ENDBRANCH  22  25
ENDBRANCH  14  15
ENDBRANCH  13  14
ENDBRANCH  11  13
ENDBRANCH   9  11
ENDBRANCH   5   9
BRANCH   8  31
HETATM   31  C   UNL     1     -11.341  13.177  64.968  1.00  0.00    -0.299 C  
BRANCH  31  32
HETATM   32  N   UNL     1     -10.555  14.404  65.245  1.00  0.00    -0.356 NA 
HETATM   33  O   UNL     1      -8.589  16.695  65.783  1.00  0.00    -0.464 OA 
HETATM   34  O   UNL     1      -9.790  18.334  66.749  1.00  0.00    -0.308 OA 
HETATM   35  C   UNL     1     -11.169  15.603  64.615  1.00  0.00    -0.369 C  
HETATM   36  C   UNL     1      -9.768  17.233  66.206  1.00  0.00    -0.266 C  
HETATM   37  C   UNL     1     -10.979  14.932  66.578  1.00  0.00    -0.327 C  
HETATM   38  C   UNL     1     -11.005  16.342  65.961  1.00  0.00     0.029 C  
ENDBRANCH  31  32
ENDBRANCH   8  31
ENDBRANCH   2   3
TORSDOF 9
ENDMDL
MODEL      104
REMARK 921   NORMALIZED FREE ENERGY PREDICTED BY IDOCK:   -6.63 KCAL/MOL
REMARK 922        TOTAL FREE ENERGY PREDICTED BY IDOCK:  -11.55 KCAL/MOL
REMARK 923 INTER-LIGAND FREE ENERGY PREDICTED BY IDOCK:  -10.37 KCAL/MOL
REMARK 924 INTRA-LIGAND FREE ENERGY PREDICTED BY IDOCK:   -1.18 KCAL/MOL
REMARK 927      BINDING AFFINITY PREDICTED BY RF-SCORE:    0.00 PKD
ROOT
HETATM    1  C   UNL     1     -14.411   7.969  72.239  1.00  0.00    -0.360 C  
HETATM    2  C   UNL     1     -13.567   9.092  72.820  1.00  0.00    -0.271 C  
ENDROOT
BRANCH   2   3
HETATM    3  C   UNL     1     -12.772   9.838  71.773  1.00  0.00    -0.519 A  
HETATM    4  C   UNL     1     -12.962  11.228  71.769  1.00  0.00    -0.519 A  
HETATM    5  C   UNL     1     -12.441  12.043  70.762  1.00  0.00    -0.372 A  
HETATM    6  C   UNL     1     -11.672  11.473  69.755  1.00  0.00    -0.426 A  
HETATM    7  C   UNL     1     -11.412  10.092  69.784  1.00  0.00    -0.288 A  
HETATM    8  C   UNL     1     -11.935   9.255  70.797  1.00  0.00    -0.269 A  
BRANCH   5   9
HETATM    9  C   UNL     1     -12.875  13.468  70.774  1.00  0.00    -0.173 C  
HETATM   10  C   UNL     1     -13.597  14.033  71.968  1.00  0.00    -0.552 C  
BRANCH   9  11
HETATM   11  N   UNL     1     -12.596  14.171  69.713  1.00  0.00    -0.455 NA 
HETATM   12  H   UNL     1     -13.174  14.192  68.872  1.00  0.00     0.000 HD 
BRANCH  11  13
HETATM   13  O   UNL     1     -11.411  14.891  69.863  1.00  0.00    -0.256 OA 
BRANCH  13  14
HETATM   14  C   UNL     1     -11.026  15.362  68.576  1.00  0.00    -0.278 C  
BRANCH  14  15
HETATM   15  C   UNL     1     -10.569  14.178  67.780  1.00  0.00    -0.243 A  
HETATM   16  F   UNL     1     -11.340  11.312  63.905  1.00  0.00    -0.451 F  
HETATM   17  F   UNL     1     -12.952  12.371  64.879  1.00  0.00    -0.560 F  
HETATM   18  C   UNL     1      -9.549  13.364  68.249  1.00  0.00    -0.220 A  
HETATM   19  F   UNL     1     -11.539  13.464  63.648  1.00  0.00    -0.424 F  
HETATM   20  C   UNL     1      -9.104  12.294  67.477  1.00  0.00    -0.182 A  
HETATM   21  C   UNL     1     -11.209  13.834  66.588  1.00  0.00    -0.327 A  
HETATM   22  C   UNL     1      -9.627  12.020  66.197  1.00  0.00    -0.252 A  
HETATM   23  C   UNL     1     -11.624  12.464  64.571  1.00  0.00    -0.348 C  
HETATM   24  C   UNL     1     -10.776  12.745  65.797  1.00  0.00    -0.296 A  
BRANCH  22  25
HETATM   25  C   UNL     1      -8.926  11.005  65.281  1.00  0.00    -0.177 C  
HETATM   26  C   UNL     1      -7.436  10.817  65.654  1.00  0.00    -0.034 C  
HETATM   27  C   UNL     1      -7.268  10.119  67.000  1.00  0.00    -0.091 C  
HETATM   28  C   UNL     1      -7.889   8.731  66.969  1.00  0.00    -0.095 C  
HETATM   29  C   UNL     1      -9.333   8.737  66.482  1.00  0.00    -0.260 C  
HETATM   30  C   UNL     1      -9.547   9.582  65.216  1.00  0.00    -0.314 C  
ENDBRANCH  22  25
ENDBRANCH  14  15
ENDBRANCH  13  14
ENDBRANCH  11  13
ENDBRANCH   9  11
ENDBRANCH   5   9
BRANCH   8  31
HETATM   31  C   UNL     1     -11.697   7.752  70.729  1.00  0.00    -0.225 C  
BRANCH  31  32
HETATM   32  N   UNL     1     -10.876   7.173  71.819  1.00  0.00    -0.224 NA 
HETATM   33  O   UNL     1      -9.340   6.276  74.318  1.00  0.00    -0.146 OA 
HETATM   34  O   UNL     1      -7.643   4.996  73.582  1.00  0.00    -0.089 OA 
HETATM   35  C   UNL     1     -10.801   5.690  71.723  1.00  0.00    -0.239 C  
HETATM   36  C   UNL     1      -8.663   5.630  73.327  1.00  0.00    -0.118 C  
HETATM   37  C   UNL     1      -9.442   7.235  71.399  1.00  0.00    -0.160 C  
HETATM   38  C   UNL     1      -9.273   5.796  71.918  1.00  0.00    -0.155 C  
ENDBRANCH  31  32
ENDBRANCH   8  31
ENDBRANCH   2   3
TORSDOF 9
ENDMDL
MODEL      105
REMARK 921   NORMALIZED FREE ENERGY PREDICTED BY IDOCK:   -6.63 KCAL/MOL
REMARK 922        TOTAL FREE ENERGY PREDICTED BY IDOCK:  -11.55 KCAL/MOL
REMARK 923 INTER-LIGAND FREE ENERGY PREDICTED BY IDOCK:  -10.07 KCAL/MOL
REMARK 924 INTRA-LIGAND FREE ENERGY PREDICTED BY IDOCK:   -1.48 KCAL/MOL
REMARK 927      BINDING AFFINITY PREDICTED BY RF-SCORE:    0.00 PKD
ROOT
HETATM    1  C   UNL     1     -11.707  15.897  71.847  1.00  0.00    -0.590 C  
HETATM    2  C   UNL     1     -12.656  15.384  70.776  1.00  0.00    -0.497 C  
ENDROOT
BRANCH   2   3
HETATM    3  C   UNL     1     -11.944  14.684  69.641  1.00  0.00    -0.368 A  
HETATM    4  C   UNL     1     -12.114  13.291  69.609  1.00  0.00    -0.331 A  
HETATM    5  C   UNL     1     -11.389  12.478  68.735  1.00  0.00    -0.337 A  
HETATM    6  C   UNL     1     -10.504  13.062  67.838  1.00  0.00    -0.234 A  
HETATM    7  C   UNL     1     -10.374  14.461  67.808  1.00  0.00    -0.238 A  
HETATM    8  C   UNL     1     -11.101  15.297  68.688  1.00  0.00    -0.282 A  
BRANCH   5   9
HETATM    9  C   UNL     1     -11.526  11.008  68.935  1.00  0.00    -0.296 C  
HETATM   10  C   UNL     1     -11.506  10.424  70.322  1.00  0.00    -0.406 C  
BRANCH   9  11
HETATM   11  N   UNL     1     -11.661  10.284  67.859  1.00  0.00    -0.670 NA 
HETATM   12  H   UNL     1     -12.558  10.073  67.421  1.00  0.00     0.000 HD 
BRANCH  11  13
HETATM   13  O   UNL     1     -10.432   9.833  67.378  1.00  0.00    -0.227 OA 
BRANCH  13  14
HETATM   14  C   UNL     1     -10.573   8.453  67.062  1.00  0.00    -0.246 C  
BRANCH  14  15
HETATM   15  C   UNL     1     -10.025   7.668  68.214  1.00  0.00    -0.198 A  
HETATM   16  F   UNL     1      -6.296   6.973  71.286  1.00  0.00    -0.039 F  
HETATM   17  F   UNL     1      -6.007   7.797  69.309  1.00  0.00    -0.030 F  
HETATM   18  C   UNL     1     -10.695   6.549  68.687  1.00  0.00    -0.323 A  
HETATM   19  F   UNL     1      -6.910   9.017  70.860  1.00  0.00    -0.054 F  
HETATM   20  C   UNL     1     -10.199   5.855  69.786  1.00  0.00    -0.281 A  
HETATM   21  C   UNL     1      -8.797   8.005  68.784  1.00  0.00    -0.138 A  
HETATM   22  C   UNL     1      -9.043   6.270  70.480  1.00  0.00    -0.157 A  
HETATM   23  C   UNL     1      -6.895   7.754  70.347  1.00  0.00    -0.046 C  
HETATM   24  C   UNL     1      -8.273   7.305  69.895  1.00  0.00    -0.133 A  
BRANCH  22  25
HETATM   25  C   UNL     1      -8.690   5.636  71.834  1.00  0.00    -0.135 C  
HETATM   26  C   UNL     1      -9.257   6.450  73.022  1.00  0.00    -0.137 C  
HETATM   27  C   UNL     1     -10.779   6.379  73.087  1.00  0.00    -0.294 C  
HETATM   28  C   UNL     1     -11.246   4.944  73.277  1.00  0.00    -0.423 C  
HETATM   29  C   UNL     1     -10.652   3.986  72.251  1.00  0.00    -0.046 C  
HETATM   30  C   UNL     1      -9.138   4.165  72.052  1.00  0.00    -0.160 C  
ENDBRANCH  22  25
ENDBRANCH  14  15
ENDBRANCH  13  14
ENDBRANCH  11  13
ENDBRANCH   9  11
ENDBRANCH   5   9
BRANCH   8  31
HETATM   31  C   UNL     1     -10.854  16.800  68.675  1.00  0.00    -0.336 C  
BRANCH  31  32
HETATM   32  N   UNL     1      -9.839  17.285  67.709  1.00  0.00    -0.272 NA 
HETATM   33  O   UNL     1      -7.608  17.889  65.693  1.00  0.00    -0.546 OA 
HETATM   34  O   UNL     1      -7.264  20.110  65.789  1.00  0.00    -0.295 OA 
HETATM   35  C   UNL     1     -10.386  18.351  66.827  1.00  0.00    -0.394 C  
HETATM   36  C   UNL     1      -7.923  19.136  66.145  1.00  0.00    -0.276 C  
HETATM   37  C   UNL     1      -9.012  18.326  68.393  1.00  0.00    -0.309 C  
HETATM   38  C   UNL     1      -9.119  19.185  67.120  1.00  0.00    -0.324 C  
ENDBRANCH  31  32
ENDBRANCH   8  31
ENDBRANCH   2   3
TORSDOF 9
ENDMDL
MODEL      106
REMARK 921   NORMALIZED FREE ENERGY PREDICTED BY IDOCK:   -6.63 KCAL/MOL
REMARK 922        TOTAL FREE ENERGY PREDICTED BY IDOCK:  -11.54 KCAL/MOL
REMARK 923 INTER-LIGAND FREE ENERGY PREDICTED BY IDOCK:   -8.69 KCAL/MOL
REMARK 924 INTRA-LIGAND FREE ENERGY PREDICTED BY IDOCK:   -2.85 KCAL/MOL
REMARK 927      BINDING AFFINITY PREDICTED BY RF-SCORE:    0.00 PKD
ROOT
HETATM    1  C   UNL     1      -6.114   6.339  65.574  1.00  0.00    -0.030 C  
HETATM    2  C   UNL     1      -7.452   5.863  65.033  1.00  0.00    -0.080 C  
ENDROOT
BRANCH   2   3
HETATM    3  C   UNL     1      -8.631   6.573  65.659  1.00  0.00    -0.132 A  
HETATM    4  C   UNL     1      -8.698   7.949  65.394  1.00  0.00    -0.078 A  
HETATM    5  C   UNL     1      -9.619   8.782  66.034  1.00  0.00    -0.297 A  
HETATM    6  C   UNL     1     -10.529   8.230  66.927  1.00  0.00    -0.365 A  
HETATM    7  C   UNL     1     -10.522   6.843  67.150  1.00  0.00    -0.373 A  
HETATM    8  C   UNL     1      -9.594   5.988  66.510  1.00  0.00    -0.182 A  
BRANCH   5   9
HETATM    9  C   UNL     1      -9.457  10.245  65.804  1.00  0.00    -0.203 C  
HETATM   10  C   UNL     1     -10.499  11.014  65.037  1.00  0.00    -0.344 C  
BRANCH   9  11
HETATM   11  N   UNL     1      -8.384  10.796  66.298  1.00  0.00    -0.155 NA 
HETATM   12  H   UNL     1      -7.751  11.393  65.765  1.00  0.00     0.000 HD 
BRANCH  11  13
HETATM   13  O   UNL     1      -8.206  10.473  67.643  1.00  0.00    -0.110 OA 
BRANCH  13  14
HETATM   14  C   UNL     1      -9.033  11.342  68.409  1.00  0.00    -0.172 C  
BRANCH  14  15
HETATM   15  C   UNL     1      -9.594  10.546  69.546  1.00  0.00    -0.125 A  
HETATM   16  F   UNL     1     -13.417   9.720  72.466  1.00  0.00    -0.469 F  
HETATM   17  F   UNL     1     -13.075  11.649  71.554  1.00  0.00    -0.472 F  
HETATM   18  C   UNL     1      -8.785   9.681  70.269  1.00  0.00    -0.248 A  
HETATM   19  F   UNL     1     -13.789   9.998  70.339  1.00  0.00    -0.240 F  
HETATM   20  C   UNL     1      -9.330   8.914  71.294  1.00  0.00    -0.336 A  
HETATM   21  C   UNL     1     -10.921  10.714  69.945  1.00  0.00    -0.337 A  
HETATM   22  C   UNL     1     -10.704   8.948  71.613  1.00  0.00    -0.418 A  
HETATM   23  C   UNL     1     -12.920  10.307  71.344  1.00  0.00    -0.440 C  
HETATM   24  C   UNL     1     -11.489   9.951  70.990  1.00  0.00    -0.466 A  
BRANCH  22  25
HETATM   25  C   UNL     1     -11.300   7.897  72.561  1.00  0.00    -0.449 C  
HETATM   26  C   UNL     1     -12.194   6.879  71.813  1.00  0.00    -0.396 C  
HETATM   27  C   UNL     1     -11.380   5.973  70.894  1.00  0.00    -0.299 C  
HETATM   28  C   UNL     1     -10.368   5.165  71.690  1.00  0.00    -0.274 C  
HETATM   29  C   UNL     1      -9.495   6.029  72.593  1.00  0.00    -0.150 C  
HETATM   30  C   UNL     1     -10.292   7.066  73.401  1.00  0.00    -0.370 C  
ENDBRANCH  22  25
ENDBRANCH  14  15
ENDBRANCH  13  14
ENDBRANCH  11  13
ENDBRANCH   9  11
ENDBRANCH   5   9
BRANCH   8  31
HETATM   31  C   UNL     1      -9.572   4.505  66.857  1.00  0.00    -0.190 C  
BRANCH  31  32
HETATM   32  N   UNL     1      -8.745   4.122  68.027  1.00  0.00    -0.096 NA 
HETATM   33  O   UNL     1      -6.939   3.738  70.476  1.00  0.00    -0.033 OA 
HETATM   34  O   UNL     1      -6.413   1.551  70.527  1.00  0.00    -0.023 OA 
HETATM   35  C   UNL     1      -9.378   3.030  68.813  1.00  0.00    -0.168 C  
HETATM   36  C   UNL     1      -7.057   2.461  70.012  1.00  0.00    -0.033 C  
HETATM   37  C   UNL     1      -7.716   3.140  67.562  1.00  0.00    -0.076 C  
HETATM   38  C   UNL     1      -8.018   2.298  68.815  1.00  0.00    -0.062 C  
ENDBRANCH  31  32
ENDBRANCH   8  31
ENDBRANCH   2   3
TORSDOF 9
ENDMDL
MODEL      107
REMARK 921   NORMALIZED FREE ENERGY PREDICTED BY IDOCK:   -6.59 KCAL/MOL
REMARK 922        TOTAL FREE ENERGY PREDICTED BY IDOCK:  -11.48 KCAL/MOL
REMARK 923 INTER-LIGAND FREE ENERGY PREDICTED BY IDOCK:  -10.06 KCAL/MOL
REMARK 924 INTRA-LIGAND FREE ENERGY PREDICTED BY IDOCK:   -1.42 KCAL/MOL
REMARK 927      BINDING AFFINITY PREDICTED BY RF-SCORE:    0.00 PKD
ROOT
HETATM    1  C   UNL     1     -10.312  10.754  68.226  1.00  0.00    -0.195 C  
HETATM    2  C   UNL     1      -9.859   9.582  67.370  1.00  0.00    -0.218 C  
ENDROOT
BRANCH   2   3
HETATM    3  C   UNL     1      -9.678   9.947  65.914  1.00  0.00    -0.326 A  
HETATM    4  C   UNL     1     -10.500  10.992  65.463  1.00  0.00    -0.302 A  
HETATM    5  C   UNL     1     -10.583  11.336  64.112  1.00  0.00    -0.437 A  
HETATM    6  C   UNL     1      -9.799  10.657  63.187  1.00  0.00    -0.351 A  
HETATM    7  C   UNL     1      -8.919   9.656  63.631  1.00  0.00    -0.248 A  
HETATM    8  C   UNL     1      -8.825   9.297  64.996  1.00  0.00    -0.238 A  
BRANCH   5   9
HETATM    9  C   UNL     1     -11.630  12.331  63.747  1.00  0.00    -0.471 C  
HETATM   10  C   UNL     1     -13.027  11.879  63.415  1.00  0.00    -0.258 C  
BRANCH   9  11
HETATM   11  N   UNL     1     -11.265  13.582  63.737  1.00  0.00    -0.551 NA 
HETATM   12  H   UNL     1     -10.373  13.914  63.369  1.00  0.00     0.000 HD 
BRANCH  11  13
HETATM   13  O   UNL     1     -12.240  14.413  64.289  1.00  0.00    -0.518 OA 
BRANCH  13  14
HETATM   14  C   UNL     1     -12.047  14.427  65.698  1.00  0.00    -0.354 C  
BRANCH  14  15
HETATM   15  C   UNL     1     -10.871  15.309  65.985  1.00  0.00    -0.331 A  
HETATM   16  F   UNL     1      -9.204  19.870  66.481  1.00  0.00    -0.359 F  
HETATM   17  F   UNL     1     -10.903  19.407  65.228  1.00  0.00    -0.533 F  
HETATM   18  C   UNL     1      -9.596  14.773  66.091  1.00  0.00    -0.338 A  
HETATM   19  F   UNL     1     -11.120  19.371  67.387  1.00  0.00    -0.561 F  
HETATM   20  C   UNL     1      -8.519  15.598  66.403  1.00  0.00    -0.271 A  
HETATM   21  C   UNL     1     -11.026  16.693  66.079  1.00  0.00     0.085 A  
HETATM   22  C   UNL     1      -8.675  16.976  66.659  1.00  0.00    -0.282 A  
HETATM   23  C   UNL     1     -10.268  19.029  66.378  1.00  0.00    -0.437 C  
HETATM   24  C   UNL     1      -9.943  17.547  66.384  1.00  0.00    -0.330 A  
BRANCH  22  25
HETATM   25  C   UNL     1      -7.512  17.784  67.256  1.00  0.00    -0.214 C  
HETATM   26  C   UNL     1      -7.567  17.827  68.802  1.00  0.00    -0.260 C  
HETATM   27  C   UNL     1      -7.285  16.461  69.420  1.00  0.00    -0.172 C  
HETATM   28  C   UNL     1      -5.893  15.976  69.045  1.00  0.00    -0.120 C  
HETATM   29  C   UNL     1      -5.638  16.009  67.543  1.00  0.00    -0.146 C  
HETATM   30  C   UNL     1      -6.078  17.323  66.877  1.00  0.00    -0.221 C  
ENDBRANCH  22  25
ENDBRANCH  14  15
ENDBRANCH  13  14
ENDBRANCH  11  13
ENDBRANCH   9  11
ENDBRANCH   5   9
BRANCH   8  31
HETATM   31  C   UNL     1      -7.920   8.143  65.411  1.00  0.00    -0.126 C  
BRANCH  31  32
HETATM   32  N   UNL     1      -8.592   6.844  65.656  1.00  0.00    -0.138 NA 
HETATM   33  O   UNL     1     -10.321   4.385  66.262  1.00  0.00    -0.235 OA 
HETATM   34  O   UNL     1      -8.890   2.680  66.585  1.00  0.00    -0.118 OA 
HETATM   35  C   UNL     1      -8.148   5.805  64.689  1.00  0.00    -0.132 C  
HETATM   36  C   UNL     1      -9.066   3.853  66.269  1.00  0.00    -0.148 C  
HETATM   37  C   UNL     1      -7.829   6.125  66.723  1.00  0.00    -0.104 C  
HETATM   38  C   UNL     1      -7.946   4.842  65.880  1.00  0.00    -0.107 C  
ENDBRANCH  31  32
ENDBRANCH   8  31
ENDBRANCH   2   3
TORSDOF 9
ENDMDL
MODEL      108
REMARK 921   NORMALIZED FREE ENERGY PREDICTED BY IDOCK:   -6.54 KCAL/MOL
REMARK 922        TOTAL FREE ENERGY PREDICTED BY IDOCK:  -11.41 KCAL/MOL
REMARK 923 INTER-LIGAND FREE ENERGY PREDICTED BY IDOCK:   -9.71 KCAL/MOL
REMARK 924 INTRA-LIGAND FREE ENERGY PREDICTED BY IDOCK:   -1.70 KCAL/MOL
REMARK 927      BINDING AFFINITY PREDICTED BY RF-SCORE:    0.00 PKD
ROOT
HETATM    1  C   UNL     1      -8.797   6.464  66.116  1.00  0.00    -0.158 C  
HETATM    2  C   UNL     1     -10.024   6.204  66.975  1.00  0.00    -0.200 C  
ENDROOT
BRANCH   2   3
HETATM    3  C   UNL     1     -10.455   7.414  67.773  1.00  0.00    -0.298 A  
HETATM    4  C   UNL     1     -10.262   8.644  67.128  1.00  0.00    -0.353 A  
HETATM    5  C   UNL     1     -10.443   9.862  67.788  1.00  0.00    -0.292 A  
HETATM    6  C   UNL     1     -10.870   9.862  69.110  1.00  0.00    -0.248 A  
HETATM    7  C   UNL     1     -11.137   8.640  69.749  1.00  0.00    -0.073 A  
HETATM    8  C   UNL     1     -10.956   7.400  69.093  1.00  0.00    -0.057 A  
BRANCH   5   9
HETATM    9  C   UNL     1     -10.022  11.083  67.046  1.00  0.00    -0.190 C  
HETATM   10  C   UNL     1      -8.820  11.870  67.496  1.00  0.00    -0.169 C  
BRANCH   9  11
HETATM   11  N   UNL     1     -10.744  11.414  66.013  1.00  0.00    -0.271 NA 
HETATM   12  H   UNL     1     -10.414  11.376  65.048  1.00  0.00     0.000 HD 
BRANCH  11  13
HETATM   13  O   UNL     1     -12.023  11.827  66.383  1.00  0.00    -0.515 OA 
BRANCH  13  14
HETATM   14  C   UNL     1     -12.376  12.932  65.558  1.00  0.00    -0.461 C  
BRANCH  14  15
HETATM   15  C   UNL     1     -11.706  14.148  66.119  1.00  0.00    -0.402 A  
HETATM   16  F   UNL     1     -10.923  16.941  70.044  1.00  0.00    -0.329 F  
HETATM   17  F   UNL     1     -12.717  15.756  69.827  1.00  0.00    -0.327 F  
HETATM   18  C   UNL     1     -11.053  15.042  65.284  1.00  0.00    -0.391 A  
HETATM   19  F   UNL     1     -10.833  14.780  70.286  1.00  0.00    -0.250 F  
HETATM   20  C   UNL     1     -10.396  16.144  65.823  1.00  0.00    -0.398 A  
HETATM   21  C   UNL     1     -11.787  14.439  67.481  1.00  0.00    -0.418 A  
HETATM   22  C   UNL     1     -10.329  16.375  67.213  1.00  0.00    -0.287 A  
HETATM   23  C   UNL     1     -11.383  15.771  69.527  1.00  0.00    -0.328 C  
HETATM   24  C   UNL     1     -11.134  15.559  68.045  1.00  0.00    -0.322 A  
BRANCH  22  25
HETATM   25  C   UNL     1      -9.375  17.443  67.770  1.00  0.00    -0.255 C  
HETATM   26  C   UNL     1      -8.379  16.854  68.797  1.00  0.00    -0.240 C  
HETATM   27  C   UNL     1      -7.370  15.916  68.141  1.00  0.00    -0.133 C  
HETATM   28  C   UNL     1      -6.542  16.657  67.102  1.00  0.00    -0.222 C  
HETATM   29  C   UNL     1      -7.395  17.411  66.089  1.00  0.00    -0.331 C  
HETATM   30  C   UNL     1      -8.527  18.228  66.733  1.00  0.00    -0.272 C  
ENDBRANCH  22  25
ENDBRANCH  14  15
ENDBRANCH  13  14
ENDBRANCH  11  13
ENDBRANCH   9  11
ENDBRANCH   5   9
BRANCH   8  31
HETATM   31  C   UNL     1     -11.173   6.103  69.862  1.00  0.00    -0.414 C  
BRANCH  31  32
HETATM   32  N   UNL     1     -10.058   5.671  70.740  1.00  0.00    -0.197 NA 
HETATM   33  O   UNL     1      -7.526   5.078  72.365  1.00  0.00    -0.089 OA 
HETATM   34  O   UNL     1      -7.800   3.014  73.217  1.00  0.00    -0.061 OA 
HETATM   35  C   UNL     1     -10.542   5.277  72.090  1.00  0.00    -0.221 C  
HETATM   36  C   UNL     1      -8.271   3.958  72.589  1.00  0.00    -0.094 C  
HETATM   37  C   UNL     1      -9.783   4.228  70.458  1.00  0.00    -0.212 C  
HETATM   38  C   UNL     1      -9.688   3.995  71.977  1.00  0.00    -0.232 C  
ENDBRANCH  31  32
ENDBRANCH   8  31
ENDBRANCH   2   3
TORSDOF 9
ENDMDL
MODEL      109
REMARK 921   NORMALIZED FREE ENERGY PREDICTED BY IDOCK:   -6.54 KCAL/MOL
REMARK 922        TOTAL FREE ENERGY PREDICTED BY IDOCK:  -11.41 KCAL/MOL
REMARK 923 INTER-LIGAND FREE ENERGY PREDICTED BY IDOCK:  -10.25 KCAL/MOL
REMARK 924 INTRA-LIGAND FREE ENERGY PREDICTED BY IDOCK:   -1.16 KCAL/MOL
REMARK 927      BINDING AFFINITY PREDICTED BY RF-SCORE:    0.00 PKD
ROOT
HETATM    1  C   UNL     1     -10.356  19.150  67.424  1.00  0.00    -0.522 C  
HETATM    2  C   UNL     1      -9.756  18.537  66.170  1.00  0.00    -0.241 C  
ENDROOT
BRANCH   2   3
HETATM    3  C   UNL     1      -9.380  17.082  66.343  1.00  0.00    -0.295 A  
HETATM    4  C   UNL     1     -10.455  16.184  66.270  1.00  0.00    -0.321 A  
HETATM    5  C   UNL     1     -10.309  14.830  66.580  1.00  0.00    -0.287 A  
HETATM    6  C   UNL     1      -9.055  14.343  66.927  1.00  0.00    -0.269 A  
HETATM    7  C   UNL     1      -7.954  15.215  66.936  1.00  0.00    -0.155 A  
HETATM    8  C   UNL     1      -8.088  16.589  66.626  1.00  0.00    -0.314 A  
BRANCH   5   9
HETATM    9  C   UNL     1     -11.563  14.029  66.646  1.00  0.00    -0.382 C  
HETATM   10  C   UNL     1     -12.089  13.336  65.418  1.00  0.00    -0.464 C  
BRANCH   9  11
HETATM   11  N   UNL     1     -12.156  13.971  67.805  1.00  0.00    -0.509 NA 
HETATM   12  H   UNL     1     -12.462  14.790  68.332  1.00  0.00     0.000 HD 
BRANCH  11  13
HETATM   13  O   UNL     1     -12.323  12.657  68.239  1.00  0.00    -0.085 OA 
BRANCH  13  14
HETATM   14  C   UNL     1     -11.992  12.614  69.622  1.00  0.00    -0.286 C  
BRANCH  14  15
HETATM   15  C   UNL     1     -11.552  11.218  69.939  1.00  0.00    -0.413 A  
HETATM   16  F   UNL     1      -9.455   7.123  68.308  1.00  0.00    -0.134 F  
HETATM   17  F   UNL     1     -10.499   8.475  66.984  1.00  0.00    -0.316 F  
HETATM   18  C   UNL     1     -11.885  10.630  71.150  1.00  0.00    -0.339 A  
HETATM   19  F   UNL     1      -8.551   9.028  67.765  1.00  0.00    -0.118 F  
HETATM   20  C   UNL     1     -11.431   9.349  71.449  1.00  0.00    -0.449 A  
HETATM   21  C   UNL     1     -10.861  10.459  68.992  1.00  0.00    -0.273 A  
HETATM   22  C   UNL     1     -10.597   8.621  70.574  1.00  0.00    -0.248 A  
HETATM   23  C   UNL     1      -9.731   8.441  68.114  1.00  0.00    -0.155 C  
HETATM   24  C   UNL     1     -10.401   9.153  69.275  1.00  0.00    -0.223 A  
BRANCH  22  25
HETATM   25  C   UNL     1      -9.909   7.336  71.058  1.00  0.00    -0.183 C  
HETATM   26  C   UNL     1      -8.561   7.627  71.760  1.00  0.00    -0.130 C  
HETATM   27  C   UNL     1      -8.756   8.341  73.094  1.00  0.00    -0.291 C  
HETATM   28  C   UNL     1      -9.572   7.485  74.051  1.00  0.00    -0.175 C  
HETATM   29  C   UNL     1     -10.882   7.000  73.443  1.00  0.00    -0.332 C  
HETATM   30  C   UNL     1     -10.723   6.432  72.023  1.00  0.00    -0.261 C  
ENDBRANCH  22  25
ENDBRANCH  14  15
ENDBRANCH  13  14
ENDBRANCH  11  13
ENDBRANCH   9  11
ENDBRANCH   5   9
BRANCH   8  31
HETATM   31  C   UNL     1      -6.878  17.507  66.739  1.00  0.00    -0.201 C  
BRANCH  31  32
HETATM   32  N   UNL     1      -6.672  18.155  68.057  1.00  0.00    -0.202 NA 
HETATM   33  O   UNL     1      -6.344  19.856  70.588  1.00  0.00    -0.280 OA 
HETATM   34  O   UNL     1      -5.129  18.617  72.019  1.00  0.00    -0.769 OA 
HETATM   35  C   UNL     1      -7.143  17.292  69.172  1.00  0.00    -0.204 C  
HETATM   36  C   UNL     1      -5.718  18.698  70.945  1.00  0.00    -0.023 C  
HETATM   37  C   UNL     1      -5.266  17.885  68.489  1.00  0.00    -0.149 C  
HETATM   38  C   UNL     1      -5.806  17.569  69.896  1.00  0.00    -0.249 C  
ENDBRANCH  31  32
ENDBRANCH   8  31
ENDBRANCH   2   3
TORSDOF 9
ENDMDL
MODEL      110
REMARK 921   NORMALIZED FREE ENERGY PREDICTED BY IDOCK:   -6.51 KCAL/MOL
REMARK 922        TOTAL FREE ENERGY PREDICTED BY IDOCK:  -11.36 KCAL/MOL
REMARK 923 INTER-LIGAND FREE ENERGY PREDICTED BY IDOCK:   -9.94 KCAL/MOL
REMARK 924 INTRA-LIGAND FREE ENERGY PREDICTED BY IDOCK:   -1.42 KCAL/MOL
REMARK 927      BINDING AFFINITY PREDICTED BY RF-SCORE:    0.00 PKD
ROOT
HETATM    1  C   UNL     1      -6.921   8.552  70.724  1.00  0.00    -0.050 C  
HETATM    2  C   UNL     1      -7.184   7.552  69.610  1.00  0.00    -0.077 C  
ENDROOT
BRANCH   2   3
HETATM    3  C   UNL     1      -8.620   7.082  69.563  1.00  0.00    -0.134 A  
HETATM    4  C   UNL     1      -9.384   7.410  70.693  1.00  0.00    -0.160 A  
HETATM    5  C   UNL     1     -10.672   6.905  70.886  1.00  0.00    -0.258 A  
HETATM    6  C   UNL     1     -11.237   6.090  69.913  1.00  0.00    -0.438 A  
HETATM    7  C   UNL     1     -10.513   5.810  68.742  1.00  0.00    -0.312 A  
HETATM    8  C   UNL     1      -9.207   6.313  68.534  1.00  0.00    -0.123 A  
BRANCH   5   9
HETATM    9  C   UNL     1     -11.296   7.177  72.211  1.00  0.00    -0.265 C  
HETATM   10  C   UNL     1     -10.783   6.490  73.449  1.00  0.00    -0.295 C  
BRANCH   9  11
HETATM   11  N   UNL     1     -12.286   8.025  72.226  1.00  0.00    -0.433 NA 
HETATM   12  H   UNL     1     -13.263   7.761  72.352  1.00  0.00     0.000 HD 
BRANCH  11  13
HETATM   13  O   UNL     1     -11.849   9.337  72.047  1.00  0.00    -0.363 OA 
BRANCH  13  14
HETATM   14  C   UNL     1     -12.996  10.179  72.050  1.00  0.00    -0.409 C  
BRANCH  14  15
HETATM   15  C   UNL     1     -12.708  11.338  71.147  1.00  0.00    -0.492 A  
HETATM   16  F   UNL     1     -12.838  16.180  70.542  1.00  0.00    -0.318 F  
HETATM   17  F   UNL     1     -14.221  15.157  71.850  1.00  0.00    -0.456 F  
HETATM   18  C   UNL     1     -12.313  11.130  69.834  1.00  0.00    -0.330 A  
HETATM   19  F   UNL     1     -12.151  15.401  72.455  1.00  0.00    -0.377 F  
HETATM   20  C   UNL     1     -12.005  12.216  69.020  1.00  0.00    -0.302 A  
HETATM   21  C   UNL     1     -12.902  12.648  71.589  1.00  0.00    -0.367 A  
HETATM   22  C   UNL     1     -12.039  13.545  69.491  1.00  0.00    -0.352 A  
HETATM   23  C   UNL     1     -12.938  15.113  71.379  1.00  0.00    -0.403 C  
HETATM   24  C   UNL     1     -12.604  13.763  70.773  1.00  0.00    -0.410 A  
BRANCH  22  25
HETATM   25  C   UNL     1     -11.439  14.677  68.645  1.00  0.00    -0.326 C  
HETATM   26  C   UNL     1      -9.953  14.936  68.992  1.00  0.00    -0.235 C  
HETATM   27  C   UNL     1      -9.056  13.779  68.560  1.00  0.00    -0.133 C  
HETATM   28  C   UNL     1      -9.126  13.576  67.054  1.00  0.00    -0.248 C  
HETATM   29  C   UNL     1     -10.554  13.442  66.538  1.00  0.00    -0.287 C  
HETATM   30  C   UNL     1     -11.509  14.506  67.103  1.00  0.00    -0.383 C  
ENDBRANCH  22  25
ENDBRANCH  14  15
ENDBRANCH  13  14
ENDBRANCH  11  13
ENDBRANCH   9  11
ENDBRANCH   5   9
BRANCH   8  31
HETATM   31  C   UNL     1      -8.432   5.904  67.288  1.00  0.00    -0.103 C  
BRANCH  31  32
HETATM   32  N   UNL     1      -9.206   5.186  66.246  1.00  0.00    -0.141 NA 
HETATM   33  O   UNL     1     -11.146   3.794  64.321  1.00  0.00    -0.322 OA 
HETATM   34  O   UNL     1      -9.894   2.410  63.066  1.00  0.00    -0.093 OA 
HETATM   35  C   UNL     1      -8.642   5.414  64.889  1.00  0.00    -0.131 C  
HETATM   36  C   UNL     1      -9.944   3.288  63.923  1.00  0.00    -0.176 C  
HETATM   37  C   UNL     1      -8.698   3.781  66.182  1.00  0.00    -0.117 C  
HETATM   38  C   UNL     1      -8.721   3.890  64.646  1.00  0.00    -0.116 C  
ENDBRANCH  31  32
ENDBRANCH   8  31
ENDBRANCH   2   3
TORSDOF 9
ENDMDL
MODEL      111
REMARK 921   NORMALIZED FREE ENERGY PREDICTED BY IDOCK:   -6.46 KCAL/MOL
REMARK 922        TOTAL FREE ENERGY PREDICTED BY IDOCK:  -11.29 KCAL/MOL
REMARK 923 INTER-LIGAND FREE ENERGY PREDICTED BY IDOCK:   -8.78 KCAL/MOL
REMARK 924 INTRA-LIGAND FREE ENERGY PREDICTED BY IDOCK:   -2.51 KCAL/MOL
REMARK 927      BINDING AFFINITY PREDICTED BY RF-SCORE:    0.00 PKD
ROOT
HETATM    1  C   UNL     1      -6.191   8.358  70.141  1.00  0.00    -0.031 C  
HETATM    2  C   UNL     1      -7.574   7.743  70.284  1.00  0.00    -0.087 C  
ENDROOT
BRANCH   2   3
HETATM    3  C   UNL     1      -8.344   7.708  68.983  1.00  0.00    -0.128 A  
HETATM    4  C   UNL     1      -7.622   8.141  67.860  1.00  0.00    -0.102 A  
HETATM    5  C   UNL     1      -8.231   8.335  66.619  1.00  0.00    -0.106 A  
HETATM    6  C   UNL     1      -9.583   8.050  66.473  1.00  0.00    -0.295 A  
HETATM    7  C   UNL     1     -10.305   7.548  67.569  1.00  0.00    -0.321 A  
HETATM    8  C   UNL     1      -9.701   7.349  68.832  1.00  0.00    -0.150 A  
BRANCH   5   9
HETATM    9  C   UNL     1      -7.395   8.975  65.566  1.00  0.00    -0.085 C  
HETATM   10  C   UNL     1      -7.808   8.906  64.120  1.00  0.00    -0.135 C  
BRANCH   9  11
HETATM   11  N   UNL     1      -6.314   9.582  65.970  1.00  0.00    -0.067 NA 
HETATM   12  H   UNL     1      -5.510   9.105  66.378  1.00  0.00     0.000 HD 
BRANCH  11  13
HETATM   13  O   UNL     1      -6.389  10.961  65.777  1.00  0.00    -0.116 OA 
BRANCH  13  14
HETATM   14  C   UNL     1      -6.470  11.573  67.059  1.00  0.00    -0.134 C  
BRANCH  14  15
HETATM   15  C   UNL     1      -7.688  12.444  67.068  1.00  0.00    -0.065 A  
HETATM   16  F   UNL     1     -12.469  12.799  66.147  1.00  0.00    -0.463 F  
HETATM   17  F   UNL     1     -11.204  11.405  65.087  1.00  0.00    -0.328 F  
HETATM   18  C   UNL     1      -7.585  13.799  67.343  1.00  0.00    -0.153 A  
HETATM   19  F   UNL     1     -11.746  11.008  67.151  1.00  0.00    -0.301 F  
HETATM   20  C   UNL     1      -8.730  14.588  67.392  1.00  0.00    -0.210 A  
HETATM   21  C   UNL     1      -8.938  11.922  66.730  1.00  0.00    -0.196 A  
HETATM   22  C   UNL     1     -10.022  14.052  67.211  1.00  0.00    -0.242 A  
HETATM   23  C   UNL     1     -11.373  12.008  66.301  1.00  0.00    -0.357 C  
HETATM   24  C   UNL     1     -10.111  12.710  66.766  1.00  0.00    -0.243 A  
BRANCH  22  25
HETATM   25  C   UNL     1     -11.260  14.901  67.538  1.00  0.00    -0.334 C  
HETATM   26  C   UNL     1     -12.102  14.286  68.681  1.00  0.00    -0.295 C  
HETATM   27  C   UNL     1     -11.376  14.350  70.022  1.00  0.00    -0.253 C  
HETATM   28  C   UNL     1     -11.093  15.792  70.414  1.00  0.00    -0.380 C  
HETATM   29  C   UNL     1     -10.381  16.576  69.319  1.00  0.00    -0.318 C  
HETATM   30  C   UNL     1     -11.004  16.383  67.926  1.00  0.00    -0.298 C  
ENDBRANCH  22  25
ENDBRANCH  14  15
ENDBRANCH  13  14
ENDBRANCH  11  13
ENDBRANCH   9  11
ENDBRANCH   5   9
BRANCH   8  31
HETATM   31  C   UNL     1     -10.551   6.888  70.010  1.00  0.00    -0.226 C  
BRANCH  31  32
HETATM   32  N   UNL     1     -11.600   7.832  70.464  1.00  0.00    -0.214 NA 
HETATM   33  O   UNL     1     -14.031   9.572  71.150  1.00  0.00    -0.206 OA 
HETATM   34  O   UNL     1     -13.211  11.464  72.048  1.00  0.00    -0.503 OA 
HETATM   35  C   UNL     1     -11.436   8.186  71.899  1.00  0.00    -0.299 C  
HETATM   36  C   UNL     1     -13.000  10.336  71.612  1.00  0.00    -0.465 C  
HETATM   37  C   UNL     1     -11.160   9.216  70.109  1.00  0.00    -0.222 C  
HETATM   38  C   UNL     1     -11.611   9.671  71.509  1.00  0.00    -0.451 C  
ENDBRANCH  31  32
ENDBRANCH   8  31
ENDBRANCH   2   3
TORSDOF 9
ENDMDL
MODEL      112
REMARK 921   NORMALIZED FREE ENERGY PREDICTED BY IDOCK:   -6.46 KCAL/MOL
REMARK 922        TOTAL FREE ENERGY PREDICTED BY IDOCK:  -11.28 KCAL/MOL
REMARK 923 INTER-LIGAND FREE ENERGY PREDICTED BY IDOCK:  -10.22 KCAL/MOL
REMARK 924 INTRA-LIGAND FREE ENERGY PREDICTED BY IDOCK:   -1.06 KCAL/MOL
REMARK 927      BINDING AFFINITY PREDICTED BY RF-SCORE:    0.00 PKD
ROOT
HETATM    1  C   UNL     1     -12.110   7.305  71.753  1.00  0.00    -0.353 C  
HETATM    2  C   UNL     1     -10.966   8.289  71.937  1.00  0.00    -0.354 C  
ENDROOT
BRANCH   2   3
HETATM    3  C   UNL     1     -10.356   8.739  70.629  1.00  0.00    -0.253 A  
HETATM    4  C   UNL     1     -10.952   9.876  70.062  1.00  0.00    -0.338 A  
HETATM    5  C   UNL     1     -10.627  10.319  68.778  1.00  0.00    -0.231 A  
HETATM    6  C   UNL     1      -9.653   9.645  68.052  1.00  0.00    -0.161 A  
HETATM    7  C   UNL     1      -8.995   8.548  68.632  1.00  0.00    -0.139 A  
HETATM    8  C   UNL     1      -9.316   8.087  69.931  1.00  0.00    -0.156 A  
BRANCH   5   9
HETATM    9  C   UNL     1     -11.466  11.420  68.227  1.00  0.00    -0.299 C  
HETATM   10  C   UNL     1     -12.263  12.303  69.149  1.00  0.00    -0.075 C  
BRANCH   9  11
HETATM   11  N   UNL     1     -11.463  11.561  66.931  1.00  0.00    -0.483 NA 
HETATM   12  H   UNL     1     -10.977  10.935  66.289  1.00  0.00     0.000 HD 
BRANCH  11  13
HETATM   13  O   UNL     1     -12.205  12.670  66.528  1.00  0.00    -0.538 OA 
BRANCH  13  14
HETATM   14  C   UNL     1     -11.424  13.392  65.582  1.00  0.00    -0.316 C  
BRANCH  14  15
HETATM   15  C   UNL     1     -11.052  14.700  66.208  1.00  0.00    -0.336 A  
HETATM   16  F   UNL     1     -10.964  17.416  70.263  1.00  0.00    -0.028 F  
HETATM   17  F   UNL     1     -12.440  15.868  69.959  1.00  0.00    -0.381 F  
HETATM   18  C   UNL     1     -10.609  15.757  65.425  1.00  0.00    -0.441 A  
HETATM   19  F   UNL     1     -10.390  15.321  70.416  1.00  0.00    -0.287 F  
HETATM   20  C   UNL     1     -10.224  16.952  66.025  1.00  0.00    -0.350 A  
HETATM   21  C   UNL     1     -11.212  14.904  67.580  1.00  0.00    -0.334 A  
HETATM   22  C   UNL     1     -10.226  17.128  67.424  1.00  0.00    -0.321 A  
HETATM   23  C   UNL     1     -11.142  16.196  69.688  1.00  0.00    -0.344 C  
HETATM   24  C   UNL     1     -10.835  16.114  68.204  1.00  0.00    -0.329 A  
BRANCH  22  25
HETATM   25  C   UNL     1      -9.545  18.357  68.046  1.00  0.00    -0.316 C  
HETATM   26  C   UNL     1      -8.006  18.306  67.897  1.00  0.00    -0.261 C  
HETATM   27  C   UNL     1      -7.567  18.468  66.445  1.00  0.00    -0.287 C  
HETATM   28  C   UNL     1      -8.016  19.812  65.892  1.00  0.00    -0.289 C  
HETATM   29  C   UNL     1      -9.505  20.069  66.092  1.00  0.00    -0.447 C  
HETATM   30  C   UNL     1      -9.994  19.745  67.513  1.00  0.00    -0.540 C  
ENDBRANCH  22  25
ENDBRANCH  14  15
ENDBRANCH  13  14
ENDBRANCH  11  13
ENDBRANCH   9  11
ENDBRANCH   5   9
BRANCH   8  31
HETATM   31  C   UNL     1      -8.636   6.837  70.476  1.00  0.00    -0.142 C  
BRANCH  31  32
HETATM   32  N   UNL     1      -8.745   5.618  69.638  1.00  0.00    -0.109 NA 
HETATM   33  O   UNL     1      -8.953   3.358  67.576  1.00  0.00    -0.119 OA 
HETATM   34  O   UNL     1      -9.770   1.577  68.682  1.00  0.00    -0.160 OA 
HETATM   35  C   UNL     1      -8.006   4.474  70.235  1.00  0.00    -0.063 C  
HETATM   36  C   UNL     1      -9.354   2.732  68.719  1.00  0.00    -0.168 C  
HETATM   37  C   UNL     1     -10.025   4.929  69.992  1.00  0.00    -0.253 C  
HETATM   38  C   UNL     1      -9.254   3.596  69.994  1.00  0.00    -0.223 C  
ENDBRANCH  31  32
ENDBRANCH   8  31
ENDBRANCH   2   3
TORSDOF 9
ENDMDL
MODEL      113
REMARK 921   NORMALIZED FREE ENERGY PREDICTED BY IDOCK:   -6.45 KCAL/MOL
REMARK 922        TOTAL FREE ENERGY PREDICTED BY IDOCK:  -11.28 KCAL/MOL
REMARK 923 INTER-LIGAND FREE ENERGY PREDICTED BY IDOCK:   -9.12 KCAL/MOL
REMARK 924 INTRA-LIGAND FREE ENERGY PREDICTED BY IDOCK:   -2.16 KCAL/MOL
REMARK 927      BINDING AFFINITY PREDICTED BY RF-SCORE:    0.00 PKD
ROOT
HETATM    1  C   UNL     1     -10.495   7.493  67.338  1.00  0.00    -0.367 C  
HETATM    2  C   UNL     1     -10.835   8.863  67.902  1.00  0.00    -0.096 C  
ENDROOT
BRANCH   2   3
HETATM    3  C   UNL     1     -10.132   9.991  67.181  1.00  0.00    -0.265 A  
HETATM    4  C   UNL     1     -10.506  10.154  65.838  1.00  0.00    -0.141 A  
HETATM    5  C   UNL     1      -9.832  11.031  64.985  1.00  0.00    -0.321 A  
HETATM    6  C   UNL     1      -8.790  11.800  65.485  1.00  0.00     0.187 A  
HETATM    7  C   UNL     1      -8.449  11.702  66.844  1.00  0.00    -0.168 A  
HETATM    8  C   UNL     1      -9.121  10.817  67.720  1.00  0.00    -0.151 A  
BRANCH   5   9
HETATM    9  C   UNL     1     -10.207  10.967  63.544  1.00  0.00    -0.365 C  
HETATM   10  C   UNL     1      -9.414  10.115  62.589  1.00  0.00    -0.277 C  
BRANCH   9  11
HETATM   11  N   UNL     1     -11.236  11.678  63.178  1.00  0.00    -0.795 NA 
HETATM   12  H   UNL     1     -11.468  11.892  62.208  1.00  0.00     0.000 HD 
BRANCH  11  13
HETATM   13  O   UNL     1     -11.983  12.113  64.273  1.00  0.00    -0.380 OA 
BRANCH  13  14
HETATM   14  C   UNL     1     -12.374  13.457  64.022  1.00  0.00    -0.337 C  
BRANCH  14  15
HETATM   15  C   UNL     1     -11.739  14.316  65.072  1.00  0.00    -0.383 A  
HETATM   16  F   UNL     1     -11.008  15.081  69.837  1.00  0.00    -0.241 F  
HETATM   17  F   UNL     1     -12.763  14.056  69.103  1.00  0.00    -0.260 F  
HETATM   18  C   UNL     1     -11.126  15.512  64.730  1.00  0.00    -0.421 A  
HETATM   19  F   UNL     1     -10.843  13.044  69.086  1.00  0.00    -0.256 F  
HETATM   20  C   UNL     1     -10.501  16.278  65.709  1.00  0.00    -0.379 A  
HETATM   21  C   UNL     1     -11.816  13.963  66.420  1.00  0.00    -0.436 A  
HETATM   22  C   UNL     1     -10.426  15.864  67.056  1.00  0.00    -0.306 A  
HETATM   23  C   UNL     1     -11.435  14.250  68.848  1.00  0.00    -0.286 C  
HETATM   24  C   UNL     1     -11.195  14.733  67.430  1.00  0.00    -0.346 A  
BRANCH  22  25
HETATM   25  C   UNL     1      -9.504  16.602  68.038  1.00  0.00    -0.224 C  
HETATM   26  C   UNL     1      -8.028  16.583  67.574  1.00  0.00    -0.176 C  
HETATM   27  C   UNL     1      -7.812  17.429  66.323  1.00  0.00    -0.330 C  
HETATM   28  C   UNL     1      -8.170  18.884  66.586  1.00  0.00    -0.295 C  
HETATM   29  C   UNL     1      -9.562  19.054  67.182  1.00  0.00    -0.360 C  
HETATM   30  C   UNL     1      -9.853  18.085  68.339  1.00  0.00    -0.369 C  
ENDBRANCH  22  25
ENDBRANCH  14  15
ENDBRANCH  13  14
ENDBRANCH  11  13
ENDBRANCH   9  11
ENDBRANCH   5   9
BRANCH   8  31
HETATM   31  C   UNL     1      -8.652  10.684  69.163  1.00  0.00    -0.128 C  
BRANCH  31  32
HETATM   32  N   UNL     1      -7.544   9.727  69.402  1.00  0.00    -0.093 NA 
HETATM   33  O   UNL     1      -5.234   7.712  69.478  1.00  0.00    -0.018 OA 
HETATM   34  O   UNL     1      -5.203   6.876  71.566  1.00  0.00    -0.026 OA 
HETATM   35  C   UNL     1      -6.703  10.139  70.557  1.00  0.00    -0.096 C  
HETATM   36  C   UNL     1      -5.677   7.679  70.767  1.00  0.00    -0.030 C  
HETATM   37  C   UNL     1      -8.076   8.605  70.236  1.00  0.00    -0.109 C  
HETATM   38  C   UNL     1      -6.797   8.691  71.088  1.00  0.00    -0.071 C  
ENDBRANCH  31  32
ENDBRANCH   8  31
ENDBRANCH   2   3
TORSDOF 9
ENDMDL
MODEL      114
REMARK 921   NORMALIZED FREE ENERGY PREDICTED BY IDOCK:   -6.39 KCAL/MOL
REMARK 922        TOTAL FREE ENERGY PREDICTED BY IDOCK:  -11.18 KCAL/MOL
REMARK 923 INTER-LIGAND FREE ENERGY PREDICTED BY IDOCK:   -9.58 KCAL/MOL
REMARK 924 INTRA-LIGAND FREE ENERGY PREDICTED BY IDOCK:   -1.61 KCAL/MOL
REMARK 927      BINDING AFFINITY PREDICTED BY RF-SCORE:    0.00 PKD
ROOT
HETATM    1  C   UNL     1     -12.002  12.165  69.349  1.00  0.00    -0.329 C  
HETATM    2  C   UNL     1     -10.715  12.789  68.834  1.00  0.00    -0.199 C  
ENDROOT
BRANCH   2   3
HETATM    3  C   UNL     1     -10.781  13.158  67.369  1.00  0.00    -0.262 A  
HETATM    4  C   UNL     1     -10.648  12.078  66.483  1.00  0.00    -0.269 A  
HETATM    5  C   UNL     1     -10.513  12.264  65.106  1.00  0.00    -0.320 A  
HETATM    6  C   UNL     1     -10.556  13.552  64.585  1.00  0.00    -0.441 A  
HETATM    7  C   UNL     1     -10.761  14.639  65.451  1.00  0.00    -0.382 A  
HETATM    8  C   UNL     1     -10.897  14.466  66.848  1.00  0.00    -0.301 A  
BRANCH   5   9
HETATM    9  C   UNL     1     -10.189  11.051  64.305  1.00  0.00    -0.352 C  
HETATM   10  C   UNL     1      -9.917  11.164  62.828  1.00  0.00    -0.205 C  
BRANCH   9  11
HETATM   11  N   UNL     1     -10.158   9.918  64.950  1.00  0.00    -0.352 NA 
HETATM   12  H   UNL     1     -10.920   9.572  65.534  1.00  0.00     0.000 HD 
BRANCH  11  13
HETATM   13  O   UNL     1      -8.958   9.237  64.747  1.00  0.00    -0.205 OA 
BRANCH  13  14
HETATM   14  C   UNL     1      -8.137   9.459  65.888  1.00  0.00    -0.114 C  
BRANCH  14  15
HETATM   15  C   UNL     1      -8.777   8.761  67.048  1.00  0.00    -0.131 A  
HETATM   16  F   UNL     1     -10.651   4.605  68.792  1.00  0.00    -0.096 F  
HETATM   17  F   UNL     1     -10.657   5.060  66.679  1.00  0.00    -0.265 F  
HETATM   18  C   UNL     1      -9.165   9.473  68.173  1.00  0.00    -0.134 A  
HETATM   19  F   UNL     1      -8.799   4.499  67.652  1.00  0.00    -0.103 F  
HETATM   20  C   UNL     1      -9.717   8.804  69.262  1.00  0.00    -0.172 A  
HETATM   21  C   UNL     1      -9.058   7.395  66.988  1.00  0.00    -0.155 A  
HETATM   22  C   UNL     1      -9.865   7.402  69.289  1.00  0.00    -0.168 A  
HETATM   23  C   UNL     1      -9.933   5.238  67.825  1.00  0.00    -0.162 C  
HETATM   24  C   UNL     1      -9.626   6.701  68.081  1.00  0.00    -0.120 A  
BRANCH  22  25
HETATM   25  C   UNL     1     -10.225   6.691  70.603  1.00  0.00    -0.215 C  
HETATM   26  C   UNL     1      -9.630   7.413  71.836  1.00  0.00    -0.174 C  
HETATM   27  C   UNL     1     -10.291   8.767  72.078  1.00  0.00    -0.411 C  
HETATM   28  C   UNL     1     -11.780   8.601  72.343  1.00  0.00    -0.393 C  
HETATM   29  C   UNL     1     -12.487   7.781  71.270  1.00  0.00    -0.301 C  
HETATM   30  C   UNL     1     -11.737   6.492  70.895  1.00  0.00    -0.416 C  
ENDBRANCH  22  25
ENDBRANCH  14  15
ENDBRANCH  13  14
ENDBRANCH  11  13
ENDBRANCH   9  11
ENDBRANCH   5   9
BRANCH   8  31
HETATM   31  C   UNL     1     -11.027  15.687  67.750  1.00  0.00    -0.316 C  
BRANCH  31  32
HETATM   32  N   UNL     1     -10.280  16.895  67.322  1.00  0.00    -0.291 NA 
HETATM   33  O   UNL     1      -8.709  19.206  66.061  1.00  0.00    -0.450 OA 
HETATM   34  O   UNL     1      -7.867  20.397  67.773  1.00  0.00    -0.279 OA 
HETATM   35  C   UNL     1     -10.822  18.127  67.954  1.00  0.00    -0.202 C  
HETATM   36  C   UNL     1      -8.582  19.475  67.391  1.00  0.00    -0.304 C  
HETATM   37  C   UNL     1      -9.072  17.022  68.194  1.00  0.00    -0.237 C  
HETATM   38  C   UNL     1      -9.374  18.527  68.317  1.00  0.00    -0.350 C  
ENDBRANCH  31  32
ENDBRANCH   8  31
ENDBRANCH   2   3
TORSDOF 9
ENDMDL
MODEL      115
REMARK 921   NORMALIZED FREE ENERGY PREDICTED BY IDOCK:   -6.39 KCAL/MOL
REMARK 922        TOTAL FREE ENERGY PREDICTED BY IDOCK:  -11.18 KCAL/MOL
REMARK 923 INTER-LIGAND FREE ENERGY PREDICTED BY IDOCK:   -8.89 KCAL/MOL
REMARK 924 INTRA-LIGAND FREE ENERGY PREDICTED BY IDOCK:   -2.29 KCAL/MOL
REMARK 927      BINDING AFFINITY PREDICTED BY RF-SCORE:    0.00 PKD
ROOT
HETATM    1  C   UNL     1     -13.986   7.100  71.565  1.00  0.00    -0.440 C  
HETATM    2  C   UNL     1     -13.561   8.537  71.822  1.00  0.00    -0.419 C  
ENDROOT
BRANCH   2   3
HETATM    3  C   UNL     1     -12.337   8.942  71.032  1.00  0.00    -0.214 A  
HETATM    4  C   UNL     1     -11.367   7.939  70.894  1.00  0.00    -0.290 A  
HETATM    5  C   UNL     1     -10.108   8.198  70.346  1.00  0.00    -0.196 A  
HETATM    6  C   UNL     1      -9.818   9.474  69.882  1.00  0.00    -0.254 A  
HETATM    7  C   UNL     1     -10.803  10.473  69.948  1.00  0.00    -0.334 A  
HETATM    8  C   UNL     1     -12.082  10.226  70.501  1.00  0.00    -0.401 A  
BRANCH   5   9
HETATM    9  C   UNL     1      -9.111   7.094  70.432  1.00  0.00    -0.156 C  
HETATM   10  C   UNL     1      -8.967   6.296  71.700  1.00  0.00    -0.144 C  
BRANCH   9  11
HETATM   11  N   UNL     1      -8.395   6.873  69.366  1.00  0.00    -0.131 NA 
HETATM   12  H   UNL     1      -7.375   6.882  69.350  1.00  0.00     0.000 HD 
BRANCH  11  13
HETATM   13  O   UNL     1      -9.190   6.621  68.248  1.00  0.00    -0.124 OA 
BRANCH  13  14
HETATM   14  C   UNL     1      -8.454   7.018  67.097  1.00  0.00    -0.121 C  
BRANCH  14  15
HETATM   15  C   UNL     1      -8.766   8.459  66.835  1.00  0.00    -0.137 A  
HETATM   16  F   UNL     1      -7.264  13.092  67.160  1.00  0.00    -0.148 F  
HETATM   17  F   UNL     1      -6.575  11.571  68.532  1.00  0.00    -0.055 F  
HETATM   18  C   UNL     1     -10.025   8.841  66.395  1.00  0.00    -0.346 A  
HETATM   19  F   UNL     1      -5.834  11.592  66.492  1.00  0.00    -0.132 F  
HETATM   20  C   UNL     1     -10.287  10.178  66.113  1.00  0.00    -0.237 A  
HETATM   21  C   UNL     1      -7.819   9.450  67.098  1.00  0.00    -0.098 A  
HETATM   22  C   UNL     1      -9.298  11.178  66.219  1.00  0.00    -0.216 A  
HETATM   23  C   UNL     1      -6.963  11.767  67.237  1.00  0.00    -0.138 C  
HETATM   24  C   UNL     1      -8.070  10.814  66.827  1.00  0.00    -0.137 A  
BRANCH  22  25
HETATM   25  C   UNL     1      -9.556  12.580  65.645  1.00  0.00    -0.099 C  
HETATM   26  C   UNL     1     -10.041  12.526  64.176  1.00  0.00    -0.311 C  
HETATM   27  C   UNL     1     -11.440  11.930  64.059  1.00  0.00    -0.480 C  
HETATM   28  C   UNL     1     -12.451  12.771  64.823  1.00  0.00    -0.539 C  
HETATM   29  C   UNL     1     -12.038  13.029  66.267  1.00  0.00    -0.453 C  
HETATM   30  C   UNL     1     -10.572  13.469  66.413  1.00  0.00    -0.283 C  
ENDBRANCH  22  25
ENDBRANCH  14  15
ENDBRANCH  13  14
ENDBRANCH  11  13
ENDBRANCH   9  11
ENDBRANCH   5   9
BRANCH   8  31
HETATM   31  C   UNL     1     -13.081  11.368  70.631  1.00  0.00     0.176 C  
BRANCH  31  32
HETATM   32  N   UNL     1     -12.662  12.506  71.484  1.00  0.00    -0.282 NA 
HETATM   33  O   UNL     1     -11.591  14.574  73.480  1.00  0.00     0.181 OA 
HETATM   34  O   UNL     1     -12.885  16.398  73.244  1.00  0.00    -0.419 OA 
HETATM   35  C   UNL     1     -12.407  13.731  70.680  1.00  0.00    -0.375 C  
HETATM   36  C   UNL     1     -12.582  15.273  72.858  1.00  0.00    -0.408 C  
HETATM   37  C   UNL     1     -13.897  13.159  72.020  1.00  0.00    -0.303 C  
HETATM   38  C   UNL     1     -13.264  14.524  71.693  1.00  0.00    -0.424 C  
ENDBRANCH  31  32
ENDBRANCH   8  31
ENDBRANCH   2   3
TORSDOF 9
ENDMDL
MODEL      116
REMARK 921   NORMALIZED FREE ENERGY PREDICTED BY IDOCK:   -6.39 KCAL/MOL
REMARK 922        TOTAL FREE ENERGY PREDICTED BY IDOCK:  -11.18 KCAL/MOL
REMARK 923 INTER-LIGAND FREE ENERGY PREDICTED BY IDOCK:   -9.90 KCAL/MOL
REMARK 924 INTRA-LIGAND FREE ENERGY PREDICTED BY IDOCK:   -1.28 KCAL/MOL
REMARK 927      BINDING AFFINITY PREDICTED BY RF-SCORE:    0.00 PKD
ROOT
HETATM    1  C   UNL     1     -10.435   5.082  72.430  1.00  0.00    -0.275 C  
HETATM    2  C   UNL     1     -11.114   5.775  71.261  1.00  0.00    -0.267 C  
ENDROOT
BRANCH   2   3
HETATM    3  C   UNL     1     -10.465   7.090  70.893  1.00  0.00    -0.233 A  
HETATM    4  C   UNL     1     -11.233   8.228  71.185  1.00  0.00    -0.296 A  
HETATM    5  C   UNL     1     -10.858   9.503  70.754  1.00  0.00    -0.386 A  
HETATM    6  C   UNL     1      -9.669   9.663  70.054  1.00  0.00    -0.280 A  
HETATM    7  C   UNL     1      -8.853   8.544  69.816  1.00  0.00    -0.137 A  
HETATM    8  C   UNL     1      -9.220   7.247  70.245  1.00  0.00    -0.155 A  
BRANCH   5   9
HETATM    9  C   UNL     1     -11.855  10.590  70.966  1.00  0.00    -0.340 C  
HETATM   10  C   UNL     1     -12.986  10.406  71.942  1.00  0.00    -0.555 C  
BRANCH   9  11
HETATM   11  N   UNL     1     -11.685  11.679  70.269  1.00  0.00    -0.492 NA 
HETATM   12  H   UNL     1     -11.411  11.692  69.286  1.00  0.00     0.000 HD 
BRANCH  11  13
HETATM   13  O   UNL     1     -11.923  12.824  71.028  1.00  0.00    -0.096 OA 
BRANCH  13  14
HETATM   14  C   UNL     1     -12.714  13.707  70.242  1.00  0.00    -0.098 C  
BRANCH  14  15
HETATM   15  C   UNL     1     -11.791  14.441  69.319  1.00  0.00    -0.365 A  
HETATM   16  F   UNL     1     -10.215  15.042  64.739  1.00  0.00    -0.395 F  
HETATM   17  F   UNL     1     -11.027  13.162  65.427  1.00  0.00    -0.280 F  
HETATM   18  C   UNL     1     -10.824  15.298  69.823  1.00  0.00    -0.300 A  
HETATM   19  F   UNL     1     -12.357  14.840  65.070  1.00  0.00    -0.373 F  
HETATM   20  C   UNL     1     -10.003  16.008  68.952  1.00  0.00    -0.232 A  
HETATM   21  C   UNL     1     -11.840  14.220  67.941  1.00  0.00    -0.393 A  
HETATM   22  C   UNL     1     -10.139  15.923  67.550  1.00  0.00    -0.247 A  
HETATM   23  C   UNL     1     -11.137  14.515  65.588  1.00  0.00    -0.327 C  
HETATM   24  C   UNL     1     -11.007  14.925  67.043  1.00  0.00    -0.327 A  
BRANCH  22  25
HETATM   25  C   UNL     1      -9.399  16.918  66.644  1.00  0.00    -0.278 C  
HETATM   26  C   UNL     1     -10.321  18.065  66.164  1.00  0.00    -0.368 C  
HETATM   27  C   UNL     1     -10.718  18.994  67.307  1.00  0.00    -0.556 C  
HETATM   28  C   UNL     1      -9.490  19.648  67.922  1.00  0.00    -0.444 C  
HETATM   29  C   UNL     1      -8.419  18.641  68.323  1.00  0.00    -0.350 C  
HETATM   30  C   UNL     1      -8.131  17.591  67.238  1.00  0.00    -0.219 C  
ENDBRANCH  22  25
ENDBRANCH  14  15
ENDBRANCH  13  14
ENDBRANCH  11  13
ENDBRANCH   9  11
ENDBRANCH   5   9
BRANCH   8  31
HETATM   31  C   UNL     1      -8.342   6.057  69.881  1.00  0.00    -0.123 C  
BRANCH  31  32
HETATM   32  N   UNL     1      -8.499   5.528  68.504  1.00  0.00    -0.100 NA 
HETATM   33  O   UNL     1      -9.091   4.754  65.596  1.00  0.00    -0.135 OA 
HETATM   34  O   UNL     1      -8.449   2.609  65.378  1.00  0.00    -0.093 OA 
HETATM   35  C   UNL     1      -7.219   4.989  67.974  1.00  0.00    -0.067 C  
HETATM   36  C   UNL     1      -8.510   3.618  66.075  1.00  0.00    -0.111 C  
HETATM   37  C   UNL     1      -9.006   4.125  68.605  1.00  0.00    -0.114 C  
HETATM   38  C   UNL     1      -7.985   3.726  67.523  1.00  0.00    -0.089 C  
ENDBRANCH  31  32
ENDBRANCH   8  31
ENDBRANCH   2   3
TORSDOF 9
ENDMDL
MODEL      117
REMARK 921   NORMALIZED FREE ENERGY PREDICTED BY IDOCK:   -6.39 KCAL/MOL
REMARK 922        TOTAL FREE ENERGY PREDICTED BY IDOCK:  -11.17 KCAL/MOL
REMARK 923 INTER-LIGAND FREE ENERGY PREDICTED BY IDOCK:  -10.17 KCAL/MOL
REMARK 924 INTRA-LIGAND FREE ENERGY PREDICTED BY IDOCK:   -1.00 KCAL/MOL
REMARK 927      BINDING AFFINITY PREDICTED BY RF-SCORE:    0.00 PKD
ROOT
HETATM    1  C   UNL     1      -6.329   5.774  69.419  1.00  0.00    -0.040 C  
HETATM    2  C   UNL     1      -7.669   6.169  70.018  1.00  0.00    -0.097 C  
ENDROOT
BRANCH   2   3
HETATM    3  C   UNL     1      -8.816   6.038  69.042  1.00  0.00    -0.121 A  
HETATM    4  C   UNL     1      -8.434   5.776  67.717  1.00  0.00    -0.103 A  
HETATM    5  C   UNL     1      -9.352   5.798  66.665  1.00  0.00    -0.155 A  
HETATM    6  C   UNL     1     -10.692   6.042  66.936  1.00  0.00    -0.407 A  
HETATM    7  C   UNL     1     -11.103   6.236  68.265  1.00  0.00    -0.364 A  
HETATM    8  C   UNL     1     -10.184   6.218  69.341  1.00  0.00    -0.238 A  
BRANCH   5   9
HETATM    9  C   UNL     1      -8.784   5.691  65.291  1.00  0.00    -0.118 C  
HETATM   10  C   UNL     1      -8.801   4.375  64.562  1.00  0.00    -0.148 C  
BRANCH   9  11
HETATM   11  N   UNL     1      -8.288   6.783  64.781  1.00  0.00    -0.315 NA 
HETATM   12  H   UNL     1      -7.657   6.803  63.979  1.00  0.00     0.000 HD 
BRANCH  11  13
HETATM   13  O   UNL     1      -8.723   7.920  65.461  1.00  0.00    -0.148 OA 
BRANCH  13  14
HETATM   14  C   UNL     1      -8.487   9.043  64.619  1.00  0.00    -0.177 C  
BRANCH  14  15
HETATM   15  C   UNL     1      -9.280  10.190  65.164  1.00  0.00    -0.262 A  
HETATM   16  F   UNL     1     -12.650  13.612  64.293  1.00  0.00    -0.385 F  
HETATM   17  F   UNL     1     -11.407  12.809  62.719  1.00  0.00    -0.266 F  
HETATM   18  C   UNL     1      -9.004  10.705  66.423  1.00  0.00    -0.176 A  
HETATM   19  F   UNL     1     -13.010  11.600  63.543  1.00  0.00    -0.616 F  
HETATM   20  C   UNL     1      -9.778  11.741  66.935  1.00  0.00    -0.212 A  
HETATM   21  C   UNL     1     -10.262  10.808  64.388  1.00  0.00    -0.432 A  
HETATM   22  C   UNL     1     -10.878  12.277  66.234  1.00  0.00    -0.313 A  
HETATM   23  C   UNL     1     -12.022  12.474  63.892  1.00  0.00    -0.480 C  
HETATM   24  C   UNL     1     -11.051  11.869  64.888  1.00  0.00    -0.363 A  
BRANCH  22  25
HETATM   25  C   UNL     1     -11.856  13.225  66.946  1.00  0.00    -0.446 C  
HETATM   26  C   UNL     1     -11.890  12.985  68.474  1.00  0.00    -0.360 C  
HETATM   27  C   UNL     1     -10.584  13.400  69.145  1.00  0.00    -0.035 C  
HETATM   28  C   UNL     1     -10.319  14.884  68.941  1.00  0.00    -0.244 C  
HETATM   29  C   UNL     1     -10.391  15.304  67.477  1.00  0.00    -0.244 C  
HETATM   30  C   UNL     1     -11.621  14.747  66.742  1.00  0.00    -0.333 C  
ENDBRANCH  22  25
ENDBRANCH  14  15
ENDBRANCH  13  14
ENDBRANCH  11  13
ENDBRANCH   9  11
ENDBRANCH   5   9
BRANCH   8  31
HETATM   31  C   UNL     1     -10.670   6.524  70.752  1.00  0.00    -0.241 C  
BRANCH  31  32
HETATM   32  N   UNL     1     -11.677   7.606  70.874  1.00  0.00    -0.287 NA 
HETATM   33  O   UNL     1     -14.001   9.606  70.879  1.00  0.00    -0.111 OA 
HETATM   34  O   UNL     1     -13.132  11.573  71.540  1.00  0.00    -0.422 OA 
HETATM   35  C   UNL     1     -11.670   8.212  72.232  1.00  0.00    -0.379 C  
HETATM   36  C   UNL     1     -12.974  10.371  71.345  1.00  0.00    -0.443 C  
HETATM   37  C   UNL     1     -11.065   8.866  70.349  1.00  0.00    -0.239 C  
HETATM   38  C   UNL     1     -11.651   9.605  71.566  1.00  0.00    -0.451 C  
ENDBRANCH  31  32
ENDBRANCH   8  31
ENDBRANCH   2   3
TORSDOF 9
ENDMDL
MODEL      118
REMARK 921   NORMALIZED FREE ENERGY PREDICTED BY IDOCK:   -6.36 KCAL/MOL
REMARK 922        TOTAL FREE ENERGY PREDICTED BY IDOCK:  -11.13 KCAL/MOL
REMARK 923 INTER-LIGAND FREE ENERGY PREDICTED BY IDOCK:   -9.71 KCAL/MOL
REMARK 924 INTRA-LIGAND FREE ENERGY PREDICTED BY IDOCK:   -1.42 KCAL/MOL
REMARK 927      BINDING AFFINITY PREDICTED BY RF-SCORE:    0.00 PKD
ROOT
HETATM    1  C   UNL     1     -11.340  11.075  68.198  1.00  0.00    -0.374 C  
HETATM    2  C   UNL     1     -10.410   9.999  67.664  1.00  0.00    -0.272 C  
ENDROOT
BRANCH   2   3
HETATM    3  C   UNL     1     -10.046  10.198  66.210  1.00  0.00    -0.303 A  
HETATM    4  C   UNL     1     -10.842  11.130  65.527  1.00  0.00    -0.205 A  
HETATM    5  C   UNL     1     -10.754  11.305  64.144  1.00  0.00    -0.436 A  
HETATM    6  C   UNL     1      -9.822  10.569  63.423  1.00  0.00    -0.323 A  
HETATM    7  C   UNL     1      -8.968   9.684  64.102  1.00  0.00    -0.269 A  
HETATM    8  C   UNL     1      -9.047   9.495  65.502  1.00  0.00    -0.262 A  
BRANCH   5   9
HETATM    9  C   UNL     1     -11.784  12.185  63.523  1.00  0.00    -0.490 C  
HETATM   10  C   UNL     1     -13.121  11.624  63.121  1.00  0.00     0.393 C  
BRANCH   9  11
HETATM   11  N   UNL     1     -11.456  13.436  63.357  1.00  0.00    -0.578 NA 
HETATM   12  H   UNL     1     -10.566  13.747  62.968  1.00  0.00     0.000 HD 
BRANCH  11  13
HETATM   13  O   UNL     1     -12.469  14.298  63.777  1.00  0.00    -0.810 OA 
BRANCH  13  14
HETATM   14  C   UNL     1     -12.769  13.985  65.132  1.00  0.00    -0.389 C  
BRANCH  14  15
HETATM   15  C   UNL     1     -11.882  14.826  65.997  1.00  0.00    -0.201 A  
HETATM   16  F   UNL     1     -10.705  16.203  70.529  1.00  0.00    -0.287 F  
HETATM   17  F   UNL     1     -12.698  15.541  70.020  1.00  0.00    -0.376 F  
HETATM   18  C   UNL     1     -11.016  15.751  65.432  1.00  0.00    -0.317 A  
HETATM   19  F   UNL     1     -11.088  14.092  70.164  1.00  0.00    -0.224 F  
HETATM   20  C   UNL     1     -10.165  16.493  66.245  1.00  0.00    -0.343 A  
HETATM   21  C   UNL     1     -11.963  14.745  67.388  1.00  0.00    -0.236 A  
HETATM   22  C   UNL     1     -10.115  16.316  67.644  1.00  0.00    -0.260 A  
HETATM   23  C   UNL     1     -11.380  15.347  69.716  1.00  0.00    -0.306 C  
HETATM   24  C   UNL     1     -11.113  15.499  68.230  1.00  0.00    -0.322 A  
BRANCH  22  25
HETATM   25  C   UNL     1      -8.983  16.958  68.461  1.00  0.00    -0.254 C  
HETATM   26  C   UNL     1      -7.855  15.949  68.784  1.00  0.00    -0.185 C  
HETATM   27  C   UNL     1      -7.080  15.540  67.534  1.00  0.00    -0.220 C  
HETATM   28  C   UNL     1      -6.416  16.749  66.891  1.00  0.00    -0.243 C  
HETATM   29  C   UNL     1      -7.388  17.894  66.636  1.00  0.00    -0.260 C  
HETATM   30  C   UNL     1      -8.296  18.204  67.837  1.00  0.00    -0.254 C  
ENDBRANCH  22  25
ENDBRANCH  14  15
ENDBRANCH  13  14
ENDBRANCH  11  13
ENDBRANCH   9  11
ENDBRANCH   5   9
BRANCH   8  31
HETATM   31  C   UNL     1      -8.159   8.456  66.174  1.00  0.00    -0.106 C  
BRANCH  31  32
HETATM   32  N   UNL     1      -8.722   7.089  66.281  1.00  0.00    -0.141 NA 
HETATM   33  O   UNL     1     -10.235   4.421  66.327  1.00  0.00    -0.242 OA 
HETATM   34  O   UNL     1      -9.160   3.120  67.815  1.00  0.00    -0.142 OA 
HETATM   35  C   UNL     1      -7.689   6.048  66.033  1.00  0.00    -0.095 C  
HETATM   36  C   UNL     1      -9.207   4.176  67.189  1.00  0.00    -0.157 C  
HETATM   37  C   UNL     1      -8.715   6.700  67.725  1.00  0.00    -0.116 C  
HETATM   38  C   UNL     1      -8.177   5.319  67.304  1.00  0.00    -0.104 C  
ENDBRANCH  31  32
ENDBRANCH   8  31
ENDBRANCH   2   3
TORSDOF 9
ENDMDL
MODEL      119
REMARK 921   NORMALIZED FREE ENERGY PREDICTED BY IDOCK:   -6.35 KCAL/MOL
REMARK 922        TOTAL FREE ENERGY PREDICTED BY IDOCK:  -11.13 KCAL/MOL
REMARK 923 INTER-LIGAND FREE ENERGY PREDICTED BY IDOCK:   -9.80 KCAL/MOL
REMARK 924 INTRA-LIGAND FREE ENERGY PREDICTED BY IDOCK:   -1.33 KCAL/MOL
REMARK 927      BINDING AFFINITY PREDICTED BY RF-SCORE:    0.00 PKD
ROOT
HETATM    1  C   UNL     1      -6.961  13.460  67.476  1.00  0.00    -0.153 C  
HETATM    2  C   UNL     1      -8.149  14.075  68.199  1.00  0.00    -0.151 C  
ENDROOT
BRANCH   2   3
HETATM    3  C   UNL     1      -9.480  13.599  67.661  1.00  0.00    -0.221 A  
HETATM    4  C   UNL     1      -9.398  12.558  66.724  1.00  0.00    -0.230 A  
HETATM    5  C   UNL     1     -10.513  12.122  66.004  1.00  0.00    -0.281 A  
HETATM    6  C   UNL     1     -11.751  12.701  66.251  1.00  0.00    -0.460 A  
HETATM    7  C   UNL     1     -11.864  13.695  67.238  1.00  0.00    -0.429 A  
HETATM    8  C   UNL     1     -10.743  14.148  67.972  1.00  0.00    -0.248 A  
BRANCH   5   9
HETATM    9  C   UNL     1     -10.251  11.145  64.910  1.00  0.00    -0.303 C  
HETATM   10  C   UNL     1     -10.831  11.367  63.538  1.00  0.00    -0.430 C  
BRANCH   9  11
HETATM   11  N   UNL     1      -9.508  10.118  65.212  1.00  0.00    -0.226 NA 
HETATM   12  H   UNL     1      -8.519  10.039  64.977  1.00  0.00     0.000 HD 
BRANCH  11  13
HETATM   13  O   UNL     1     -10.228   9.139  65.896  1.00  0.00    -0.209 OA 
BRANCH  13  14
HETATM   14  C   UNL     1      -9.302   8.159  66.349  1.00  0.00    -0.210 C  
BRANCH  14  15
HETATM   15  C   UNL     1      -9.679   7.793  67.751  1.00  0.00    -0.186 A  
HETATM   16  F   UNL     1      -8.310   7.580  72.431  1.00  0.00    -0.106 F  
HETATM   17  F   UNL     1      -6.876   7.475  70.818  1.00  0.00    -0.045 F  
HETATM   18  C   UNL     1     -10.867   7.124  68.011  1.00  0.00    -0.193 A  
HETATM   19  F   UNL     1      -7.817   9.371  71.296  1.00  0.00    -0.153 F  
HETATM   20  C   UNL     1     -11.226   6.831  69.323  1.00  0.00    -0.261 A  
HETATM   21  C   UNL     1      -8.811   8.054  68.812  1.00  0.00    -0.138 A  
HETATM   22  C   UNL     1     -10.441   7.226  70.426  1.00  0.00    -0.232 A  
HETATM   23  C   UNL     1      -8.071   8.037  71.172  1.00  0.00    -0.095 C  
HETATM   24  C   UNL     1      -9.155   7.755  70.150  1.00  0.00    -0.153 A  
BRANCH  22  25
HETATM   25  C   UNL     1     -11.005   7.118  71.850  1.00  0.00    -0.262 C  
HETATM   26  C   UNL     1     -11.204   8.506  72.504  1.00  0.00    -0.336 C  
HETATM   27  C   UNL     1     -12.325   9.296  71.835  1.00  0.00    -0.454 C  
HETATM   28  C   UNL     1     -13.651   8.561  71.957  1.00  0.00    -0.427 C  
HETATM   29  C   UNL     1     -13.576   7.117  71.475  1.00  0.00    -0.408 C  
HETATM   30  C   UNL     1     -12.350   6.358  72.010  1.00  0.00    -0.268 C  
ENDBRANCH  22  25
ENDBRANCH  14  15
ENDBRANCH  13  14
ENDBRANCH  11  13
ENDBRANCH   9  11
ENDBRANCH   5   9
BRANCH   8  31
HETATM   31  C   UNL     1     -10.906  15.291  68.966  1.00  0.00    -0.244 C  
BRANCH  31  32
HETATM   32  N   UNL     1     -10.880  16.659  68.395  1.00  0.00    -0.351 NA 
HETATM   33  O   UNL     1     -11.229  19.513  67.329  1.00  0.00    -0.353 OA 
HETATM   34  O   UNL     1      -9.535  19.854  65.888  1.00  0.00    -0.365 OA 
HETATM   35  C   UNL     1      -9.574  17.329  68.634  1.00  0.00    -0.284 C  
HETATM   36  C   UNL     1     -10.073  19.126  66.718  1.00  0.00    -0.381 C  
HETATM   37  C   UNL     1     -10.515  16.547  66.948  1.00  0.00    -0.282 C  
HETATM   38  C   UNL     1      -9.556  17.735  67.144  1.00  0.00    -0.276 C  
ENDBRANCH  31  32
ENDBRANCH   8  31
ENDBRANCH   2   3
TORSDOF 9
ENDMDL
MODEL      120
REMARK 921   NORMALIZED FREE ENERGY PREDICTED BY IDOCK:   -6.35 KCAL/MOL
REMARK 922        TOTAL FREE ENERGY PREDICTED BY IDOCK:  -11.12 KCAL/MOL
REMARK 923 INTER-LIGAND FREE ENERGY PREDICTED BY IDOCK:  -10.32 KCAL/MOL
REMARK 924 INTRA-LIGAND FREE ENERGY PREDICTED BY IDOCK:   -0.80 KCAL/MOL
REMARK 927      BINDING AFFINITY PREDICTED BY RF-SCORE:    0.00 PKD
ROOT
HETATM    1  C   UNL     1     -13.247   7.717  71.352  1.00  0.00    -0.337 C  
HETATM    2  C   UNL     1     -12.410   8.343  72.455  1.00  0.00    -0.358 C  
ENDROOT
BRANCH   2   3
HETATM    3  C   UNL     1     -10.969   8.564  72.053  1.00  0.00    -0.410 A  
HETATM    4  C   UNL     1     -10.793   9.359  70.910  1.00  0.00    -0.392 A  
HETATM    5  C   UNL     1      -9.544   9.517  70.305  1.00  0.00    -0.314 A  
HETATM    6  C   UNL     1      -8.431   8.908  70.872  1.00  0.00    -0.226 A  
HETATM    7  C   UNL     1      -8.579   8.167  72.057  1.00  0.00    -0.216 A  
HETATM    8  C   UNL     1      -9.838   7.997  72.679  1.00  0.00    -0.347 A  
BRANCH   5   9
HETATM    9  C   UNL     1      -9.530  10.229  68.996  1.00  0.00    -0.200 C  
HETATM   10  C   UNL     1     -10.226   9.636  67.801  1.00  0.00    -0.253 C  
BRANCH   9  11
HETATM   11  N   UNL     1      -8.893  11.365  68.959  1.00  0.00    -0.382 NA 
HETATM   12  H   UNL     1      -8.636  11.904  69.786  1.00  0.00     0.000 HD 
BRANCH  11  13
HETATM   13  O   UNL     1      -8.604  11.756  67.652  1.00  0.00    -0.142 OA 
BRANCH  13  14
HETATM   14  C   UNL     1      -7.477  12.623  67.700  1.00  0.00    -0.143 C  
BRANCH  14  15
HETATM   15  C   UNL     1      -7.921  13.970  67.220  1.00  0.00    -0.157 A  
HETATM   16  F   UNL     1     -11.148  16.512  64.583  1.00  0.00    -0.458 F  
HETATM   17  F   UNL     1     -10.671  14.454  64.127  1.00  0.00    -0.262 F  
HETATM   18  C   UNL     1      -7.144  15.095  67.455  1.00  0.00    -0.219 A  
HETATM   19  F   UNL     1     -11.894  14.915  65.859  1.00  0.00    -0.337 F  
HETATM   20  C   UNL     1      -7.591  16.347  67.043  1.00  0.00    -0.240 A  
HETATM   21  C   UNL     1      -9.089  14.107  66.467  1.00  0.00    -0.198 A  
HETATM   22  C   UNL     1      -8.843  16.533  66.420  1.00  0.00    -0.345 A  
HETATM   23  C   UNL     1     -10.798  15.334  65.165  1.00  0.00    -0.426 C  
HETATM   24  C   UNL     1      -9.553  15.369  66.032  1.00  0.00    -0.382 A  
BRANCH  22  25
HETATM   25  C   UNL     1      -9.405  17.950  66.229  1.00  0.00    -0.213 C  
HETATM   26  C   UNL     1     -10.551  18.259  67.221  1.00  0.00    -0.406 C  
HETATM   27  C   UNL     1     -10.049  18.365  68.658  1.00  0.00    -0.407 C  
HETATM   28  C   UNL     1      -9.037  19.492  68.794  1.00  0.00    -0.381 C  
HETATM   29  C   UNL     1      -7.905  19.399  67.778  1.00  0.00    -0.315 C  
HETATM   30  C   UNL     1      -8.391  19.121  66.346  1.00  0.00    -0.326 C  
ENDBRANCH  22  25
ENDBRANCH  14  15
ENDBRANCH  13  14
ENDBRANCH  11  13
ENDBRANCH   9  11
ENDBRANCH   5   9
BRANCH   8  31
HETATM   31  C   UNL     1      -9.955   7.109  73.911  1.00  0.00    -0.318 C  
BRANCH  31  32
HETATM   32  N   UNL     1      -9.863   5.648  73.672  1.00  0.00    -0.164 NA 
HETATM   33  O   UNL     1      -9.433   2.616  73.523  1.00  0.00    -0.083 OA 
HETATM   34  O   UNL     1      -9.945   2.015  71.416  1.00  0.00    -0.143 OA 
HETATM   35  C   UNL     1     -11.140   5.097  73.146  1.00  0.00    -0.326 C  
HETATM   36  C   UNL     1      -9.902   2.894  72.273  1.00  0.00    -0.164 C  
HETATM   37  C   UNL     1      -9.258   5.440  72.320  1.00  0.00    -0.142 C  
HETATM   38  C   UNL     1     -10.326   4.362  72.057  1.00  0.00    -0.189 C  
ENDBRANCH  31  32
ENDBRANCH   8  31
ENDBRANCH   2   3
TORSDOF 9
ENDMDL
MODEL      121
REMARK 921   NORMALIZED FREE ENERGY PREDICTED BY IDOCK:   -6.34 KCAL/MOL
REMARK 922        TOTAL FREE ENERGY PREDICTED BY IDOCK:  -11.10 KCAL/MOL
REMARK 923 INTER-LIGAND FREE ENERGY PREDICTED BY IDOCK:   -9.52 KCAL/MOL
REMARK 924 INTRA-LIGAND FREE ENERGY PREDICTED BY IDOCK:   -1.58 KCAL/MOL
REMARK 927      BINDING AFFINITY PREDICTED BY RF-SCORE:    0.00 PKD
ROOT
HETATM    1  C   UNL     1     -11.160  11.128  69.427  1.00  0.00    -0.314 C  
HETATM    2  C   UNL     1     -11.882  12.163  68.580  1.00  0.00    -0.358 C  
ENDROOT
BRANCH   2   3
HETATM    3  C   UNL     1     -11.329  12.271  67.177  1.00  0.00    -0.398 A  
HETATM    4  C   UNL     1     -10.883  11.060  66.626  1.00  0.00    -0.284 A  
HETATM    5  C   UNL     1     -10.189  11.010  65.415  1.00  0.00    -0.333 A  
HETATM    6  C   UNL     1      -9.970  12.186  64.708  1.00  0.00    -0.224 A  
HETATM    7  C   UNL     1     -10.473  13.398  65.210  1.00  0.00    -0.334 A  
HETATM    8  C   UNL     1     -11.175  13.463  66.436  1.00  0.00    -0.323 A  
BRANCH   5   9
HETATM    9  C   UNL     1      -9.609   9.690  65.040  1.00  0.00    -0.214 C  
HETATM   10  C   UNL     1      -8.757   9.557  63.806  1.00  0.00    -0.237 C  
BRANCH   9  11
HETATM   11  N   UNL     1      -9.881   8.690  65.830  1.00  0.00    -0.464 NA 
HETATM   12  H   UNL     1     -10.725   8.625  66.400  1.00  0.00     0.000 HD 
BRANCH  11  13
HETATM   13  O   UNL     1      -8.881   7.719  65.802  1.00  0.00    -0.160 OA 
BRANCH  13  14
HETATM   14  C   UNL     1      -8.084   7.886  66.969  1.00  0.00    -0.116 C  
BRANCH  14  15
HETATM   15  C   UNL     1      -8.792   7.210  68.102  1.00  0.00    -0.126 A  
HETATM   16  F   UNL     1     -10.003   2.986  70.228  1.00  0.00    -0.188 F  
HETATM   17  F   UNL     1      -9.631   3.128  68.104  1.00  0.00    -0.236 F  
HETATM   18  C   UNL     1      -9.582   7.940  68.978  1.00  0.00    -0.155 A  
HETATM   19  F   UNL     1      -7.967   3.221  69.495  1.00  0.00    -0.050 F  
HETATM   20  C   UNL     1     -10.197   7.306  70.052  1.00  0.00    -0.206 A  
HETATM   21  C   UNL     1      -8.729   5.823  68.253  1.00  0.00    -0.111 A  
HETATM   22  C   UNL     1     -10.020   5.932  70.319  1.00  0.00    -0.247 A  
HETATM   23  C   UNL     1      -9.249   3.648  69.309  1.00  0.00    -0.163 C  
HETATM   24  C   UNL     1      -9.356   5.161  69.333  1.00  0.00    -0.176 A  
BRANCH  22  25
HETATM   25  C   UNL     1     -10.496   5.340  71.654  1.00  0.00    -0.280 C  
HETATM   26  C   UNL     1      -9.333   5.161  72.659  1.00  0.00    -0.152 C  
HETATM   27  C   UNL     1      -8.788   6.501  73.144  1.00  0.00    -0.135 C  
HETATM   28  C   UNL     1      -9.868   7.296  73.862  1.00  0.00    -0.322 C  
HETATM   29  C   UNL     1     -11.144   7.439  73.041  1.00  0.00    -0.390 C  
HETATM   30  C   UNL     1     -11.611   6.120  72.403  1.00  0.00    -0.338 C  
ENDBRANCH  22  25
ENDBRANCH  14  15
ENDBRANCH  13  14
ENDBRANCH  11  13
ENDBRANCH   9  11
ENDBRANCH   5   9
BRANCH   8  31
HETATM   31  C   UNL     1     -11.619  14.815  66.979  1.00  0.00    -0.339 C  
BRANCH  31  32
HETATM   32  N   UNL     1     -10.545  15.687  67.514  1.00  0.00    -0.291 NA 
HETATM   33  O   UNL     1      -8.156  17.138  68.776  1.00  0.00    -0.264 OA 
HETATM   34  O   UNL     1      -8.739  19.307  68.904  1.00  0.00    -0.362 OA 
HETATM   35  C   UNL     1     -10.221  16.795  66.577  1.00  0.00    -0.316 C  
HETATM   36  C   UNL     1      -9.010  18.170  68.524  1.00  0.00    -0.296 C  
HETATM   37  C   UNL     1     -11.178  16.691  68.425  1.00  0.00    -0.239 C  
HETATM   38  C   UNL     1     -10.297  17.772  67.771  1.00  0.00    -0.382 C  
ENDBRANCH  31  32
ENDBRANCH   8  31
ENDBRANCH   2   3
TORSDOF 9
ENDMDL
MODEL      122
REMARK 921   NORMALIZED FREE ENERGY PREDICTED BY IDOCK:   -6.34 KCAL/MOL
REMARK 922        TOTAL FREE ENERGY PREDICTED BY IDOCK:  -11.10 KCAL/MOL
REMARK 923 INTER-LIGAND FREE ENERGY PREDICTED BY IDOCK:   -9.12 KCAL/MOL
REMARK 924 INTRA-LIGAND FREE ENERGY PREDICTED BY IDOCK:   -1.98 KCAL/MOL
REMARK 927      BINDING AFFINITY PREDICTED BY RF-SCORE:    0.00 PKD
ROOT
HETATM    1  C   UNL     1     -10.390  10.721  68.233  1.00  0.00    -0.195 C  
HETATM    2  C   UNL     1      -9.801   9.604  67.386  1.00  0.00    -0.218 C  
ENDROOT
BRANCH   2   3
HETATM    3  C   UNL     1      -9.610   9.996  65.938  1.00  0.00    -0.283 A  
HETATM    4  C   UNL     1     -10.388  11.085  65.516  1.00  0.00    -0.321 A  
HETATM    5  C   UNL     1     -10.462  11.465  64.174  1.00  0.00    -0.421 A  
HETATM    6  C   UNL     1      -9.711  10.776  63.230  1.00  0.00    -0.396 A  
HETATM    7  C   UNL     1      -8.872   9.728  63.646  1.00  0.00    -0.258 A  
HETATM    8  C   UNL     1      -8.789   9.332  65.001  1.00  0.00    -0.238 A  
BRANCH   5   9
HETATM    9  C   UNL     1     -11.467  12.512  63.839  1.00  0.00    -0.437 C  
HETATM   10  C   UNL     1     -12.798  12.128  63.251  1.00  0.00    -0.312 C  
BRANCH   9  11
HETATM   11  N   UNL     1     -11.125  13.746  64.082  1.00  0.00    -0.587 NA 
HETATM   12  H   UNL     1     -10.234  14.158  63.803  1.00  0.00     0.000 HD 
BRANCH  11  13
HETATM   13  O   UNL     1     -12.122  14.436  64.769  1.00  0.00    -0.412 OA 
BRANCH  13  14
HETATM   14  C   UNL     1     -12.046  14.056  66.138  1.00  0.00    -0.446 C  
BRANCH  14  15
HETATM   15  C   UNL     1     -10.992  14.903  66.784  1.00  0.00    -0.326 A  
HETATM   16  F   UNL     1      -6.588  15.056  68.882  1.00  0.00    -0.089 F  
HETATM   17  F   UNL     1      -7.813  13.276  68.930  1.00  0.00    -0.113 F  
HETATM   18  C   UNL     1     -11.242  16.234  67.082  1.00  0.00     0.102 A  
HETATM   19  F   UNL     1      -6.828  13.854  67.084  1.00  0.00    -0.173 F  
HETATM   20  C   UNL     1     -10.239  17.021  67.641  1.00  0.00    -0.317 A  
HETATM   21  C   UNL     1      -9.768  14.349  67.162  1.00  0.00    -0.248 A  
HETATM   22  C   UNL     1      -8.941  16.525  67.886  1.00  0.00    -0.205 A  
HETATM   23  C   UNL     1      -7.503  14.359  68.156  1.00  0.00    -0.128 C  
HETATM   24  C   UNL     1      -8.742  15.130  67.739  1.00  0.00    -0.169 A  
BRANCH  22  25
HETATM   25  C   UNL     1      -7.804  17.492  68.249  1.00  0.00    -0.253 C  
HETATM   26  C   UNL     1      -6.742  17.588  67.126  1.00  0.00    -0.197 C  
HETATM   27  C   UNL     1      -7.290  18.279  65.881  1.00  0.00    -0.237 C  
HETATM   28  C   UNL     1      -7.721  19.703  66.199  1.00  0.00    -0.331 C  
HETATM   29  C   UNL     1      -8.672  19.784  67.386  1.00  0.00    -0.385 C  
HETATM   30  C   UNL     1      -8.214  18.950  68.594  1.00  0.00    -0.380 C  
ENDBRANCH  22  25
ENDBRANCH  14  15
ENDBRANCH  13  14
ENDBRANCH  11  13
ENDBRANCH   9  11
ENDBRANCH   5   9
BRANCH   8  31
HETATM   31  C   UNL     1      -7.933   8.132  65.384  1.00  0.00    -0.126 C  
BRANCH  31  32
HETATM   32  N   UNL     1      -8.636   6.828  65.461  1.00  0.00    -0.125 NA 
HETATM   33  O   UNL     1     -10.436   4.357  65.694  1.00  0.00    -0.260 OA 
HETATM   34  O   UNL     1      -9.061   2.614  66.055  1.00  0.00    -0.146 OA 
HETATM   35  C   UNL     1      -8.091   5.853  64.479  1.00  0.00    -0.132 C  
HETATM   36  C   UNL     1      -9.193   3.809  65.805  1.00  0.00    -0.156 C  
HETATM   37  C   UNL     1      -8.002   6.027  66.553  1.00  0.00    -0.105 C  
HETATM   38  C   UNL     1      -8.031   4.807  65.614  1.00  0.00    -0.099 C  
ENDBRANCH  31  32
ENDBRANCH   8  31
ENDBRANCH   2   3
TORSDOF 9
ENDMDL
MODEL      123
REMARK 921   NORMALIZED FREE ENERGY PREDICTED BY IDOCK:   -6.33 KCAL/MOL
REMARK 922        TOTAL FREE ENERGY PREDICTED BY IDOCK:  -11.09 KCAL/MOL
REMARK 923 INTER-LIGAND FREE ENERGY PREDICTED BY IDOCK:   -8.23 KCAL/MOL
REMARK 924 INTRA-LIGAND FREE ENERGY PREDICTED BY IDOCK:   -2.87 KCAL/MOL
REMARK 927      BINDING AFFINITY PREDICTED BY RF-SCORE:    0.00 PKD
ROOT
HETATM    1  C   UNL     1     -13.480  13.852  72.142  1.00  0.00    -0.578 C  
HETATM    2  C   UNL     1     -13.409  12.335  72.200  1.00  0.00    -0.473 C  
ENDROOT
BRANCH   2   3
HETATM    3  C   UNL     1     -12.688  11.730  71.017  1.00  0.00    -0.372 A  
HETATM    4  C   UNL     1     -12.110  12.661  70.141  1.00  0.00    -0.368 A  
HETATM    5  C   UNL     1     -11.560  12.279  68.915  1.00  0.00    -0.367 A  
HETATM    6  C   UNL     1     -11.542  10.935  68.566  1.00  0.00    -0.360 A  
HETATM    7  C   UNL     1     -12.052   9.982  69.464  1.00  0.00     0.179 A  
HETATM    8  C   UNL     1     -12.614  10.354  70.708  1.00  0.00    -0.462 A  
BRANCH   5   9
HETATM    9  C   UNL     1     -11.153  13.384  68.003  1.00  0.00    -0.255 C  
HETATM   10  C   UNL     1     -12.094  13.874  66.934  1.00  0.00    -0.467 C  
BRANCH   9  11
HETATM   11  N   UNL     1      -9.963  13.883  68.187  1.00  0.00    -0.233 NA 
HETATM   12  H   UNL     1      -9.744  14.598  68.881  1.00  0.00     0.000 HD 
BRANCH  11  13
HETATM   13  O   UNL     1      -9.024  13.321  67.322  1.00  0.00    -0.199 OA 
BRANCH  13  14
HETATM   14  C   UNL     1      -7.911  12.905  68.105  1.00  0.00    -0.147 C  
BRANCH  14  15
HETATM   15  C   UNL     1      -7.951  11.411  68.191  1.00  0.00    -0.133 A  
HETATM   16  F   UNL     1      -6.980   7.441  70.859  1.00  0.00    -0.055 F  
HETATM   17  F   UNL     1      -5.860   9.274  71.093  1.00  0.00    -0.041 F  
HETATM   18  C   UNL     1      -8.306  10.649  67.087  1.00  0.00    -0.125 A  
HETATM   19  F   UNL     1      -7.889   9.151  71.854  1.00  0.00    -0.088 F  
HETATM   20  C   UNL     1      -8.384   9.264  67.194  1.00  0.00    -0.124 A  
HETATM   21  C   UNL     1      -7.565  10.756  69.362  1.00  0.00    -0.114 A  
HETATM   22  C   UNL     1      -8.152   8.588  68.410  1.00  0.00    -0.122 A  
HETATM   23  C   UNL     1      -7.105   8.794  70.797  1.00  0.00    -0.069 C  
HETATM   24  C   UNL     1      -7.628   9.349  69.485  1.00  0.00    -0.086 A  
BRANCH  22  25
HETATM   25  C   UNL     1      -8.508   7.100  68.544  1.00  0.00    -0.125 C  
HETATM   26  C   UNL     1     -10.022   6.884  68.783  1.00  0.00    -0.153 C  
HETATM   27  C   UNL     1     -10.851   7.245  67.554  1.00  0.00    -0.284 C  
HETATM   28  C   UNL     1     -10.466   6.374  66.368  1.00  0.00    -0.031 C  
HETATM   29  C   UNL     1      -8.967   6.375  66.092  1.00  0.00    -0.162 C  
HETATM   30  C   UNL     1      -8.113   6.181  67.355  1.00  0.00    -0.109 C  
ENDBRANCH  22  25
ENDBRANCH  14  15
ENDBRANCH  13  14
ENDBRANCH  11  13
ENDBRANCH   9  11
ENDBRANCH   5   9
BRANCH   8  31
HETATM   31  C   UNL     1     -13.235   9.289  71.602  1.00  0.00    -0.388 C  
BRANCH  31  32
HETATM   32  N   UNL     1     -12.285   8.455  72.378  1.00  0.00    -0.384 NA 
HETATM   33  O   UNL     1     -10.483   6.915  74.323  1.00  0.00    -0.312 OA 
HETATM   34  O   UNL     1      -8.775   6.119  73.094  1.00  0.00    -0.122 OA 
HETATM   35  C   UNL     1     -12.122   7.105  71.775  1.00  0.00    -0.328 C  
HETATM   36  C   UNL     1      -9.852   6.706  73.132  1.00  0.00    -0.170 C  
HETATM   37  C   UNL     1     -10.901   8.787  71.920  1.00  0.00    -0.360 C  
HETATM   38  C   UNL     1     -10.592   7.278  71.904  1.00  0.00    -0.238 C  
ENDBRANCH  31  32
ENDBRANCH   8  31
ENDBRANCH   2   3
TORSDOF 9
ENDMDL
MODEL      124
REMARK 921   NORMALIZED FREE ENERGY PREDICTED BY IDOCK:   -6.33 KCAL/MOL
REMARK 922        TOTAL FREE ENERGY PREDICTED BY IDOCK:  -11.08 KCAL/MOL
REMARK 923 INTER-LIGAND FREE ENERGY PREDICTED BY IDOCK:   -9.45 KCAL/MOL
REMARK 924 INTRA-LIGAND FREE ENERGY PREDICTED BY IDOCK:   -1.63 KCAL/MOL
REMARK 927      BINDING AFFINITY PREDICTED BY RF-SCORE:    0.00 PKD
ROOT
HETATM    1  C   UNL     1      -7.761  12.813  67.313  1.00  0.00    -0.129 C  
HETATM    2  C   UNL     1      -7.570  14.259  67.740  1.00  0.00    -0.175 C  
ENDROOT
BRANCH   2   3
HETATM    3  C   UNL     1      -8.875  14.980  67.994  1.00  0.00    -0.165 A  
HETATM    4  C   UNL     1      -9.706  14.373  68.947  1.00  0.00    -0.145 A  
HETATM    5  C   UNL     1     -11.014  14.809  69.173  1.00  0.00    -0.277 A  
HETATM    6  C   UNL     1     -11.497  15.904  68.467  1.00  0.00    -0.377 A  
HETATM    7  C   UNL     1     -10.653  16.567  67.560  1.00  0.00    -0.313 A  
HETATM    8  C   UNL     1      -9.328  16.135  67.321  1.00  0.00    -0.220 A  
BRANCH   5   9
HETATM    9  C   UNL     1     -11.847  13.962  70.071  1.00  0.00    -0.315 C  
HETATM   10  C   UNL     1     -12.288  14.481  71.413  1.00  0.00    -0.425 C  
BRANCH   9  11
HETATM   11  N   UNL     1     -12.158  12.776  69.629  1.00  0.00    -0.264 NA 
HETATM   12  H   UNL     1     -12.960  12.236  69.955  1.00  0.00     0.000 HD 
BRANCH  11  13
HETATM   13  O   UNL     1     -11.263  12.333  68.655  1.00  0.00    -0.222 OA 
BRANCH  13  14
HETATM   14  C   UNL     1     -11.460  10.933  68.494  1.00  0.00    -0.310 C  
BRANCH  14  15
HETATM   15  C   UNL     1     -10.820  10.533  67.200  1.00  0.00    -0.319 A  
HETATM   16  F   UNL     1      -9.992  11.667  62.525  1.00  0.00    -0.245 F  
HETATM   17  F   UNL     1     -11.740  12.378  63.579  1.00  0.00    -0.440 F  
HETATM   18  C   UNL     1     -10.244   9.280  67.055  1.00  0.00    -0.331 A  
HETATM   19  F   UNL     1      -9.797  13.242  64.015  1.00  0.00    -0.304 F  
HETATM   20  C   UNL     1      -9.613   8.938  65.862  1.00  0.00    -0.293 A  
HETATM   21  C   UNL     1     -10.855  11.387  66.096  1.00  0.00    -0.310 A  
HETATM   22  C   UNL     1      -9.496   9.842  64.786  1.00  0.00    -0.356 A  
HETATM   23  C   UNL     1     -10.423  12.058  63.755  1.00  0.00    -0.429 C  
HETATM   24  C   UNL     1     -10.229  11.053  64.874  1.00  0.00    -0.373 A  
BRANCH  22  25
HETATM   25  C   UNL     1      -8.568   9.518  63.606  1.00  0.00    -0.222 C  
HETATM   26  C   UNL     1      -7.328  10.443  63.570  1.00  0.00    -0.022 C  
HETATM   27  C   UNL     1      -6.380  10.172  64.735  1.00  0.00    -0.131 C  
HETATM   28  C   UNL     1      -5.861   8.742  64.686  1.00  0.00    -0.064 C  
HETATM   29  C   UNL     1      -6.977   7.710  64.578  1.00  0.00    -0.056 C  
HETATM   30  C   UNL     1      -8.035   8.062  63.520  1.00  0.00    -0.131 C  
ENDBRANCH  22  25
ENDBRANCH  14  15
ENDBRANCH  13  14
ENDBRANCH  11  13
ENDBRANCH   9  11
ENDBRANCH   5   9
BRANCH   8  31
HETATM   31  C   UNL     1      -8.487  16.836  66.261  1.00  0.00    -0.307 C  
BRANCH  31  32
HETATM   32  N   UNL     1      -8.071  18.225  66.572  1.00  0.00    -0.261 NA 
HETATM   33  O   UNL     1      -7.499  21.216  66.932  1.00  0.00    -0.248 OA 
HETATM   34  O   UNL     1      -5.479  21.352  67.912  1.00  0.00    -0.296 OA 
HETATM   35  C   UNL     1      -7.745  18.390  68.013  1.00  0.00    -0.261 C  
HETATM   36  C   UNL     1      -6.404  20.649  67.515  1.00  0.00    -0.272 C  
HETATM   37  C   UNL     1      -6.613  18.348  66.265  1.00  0.00    -0.220 C  
HETATM   38  C   UNL     1      -6.443  19.108  67.593  1.00  0.00    -0.225 C  
ENDBRANCH  31  32
ENDBRANCH   8  31
ENDBRANCH   2   3
TORSDOF 9
ENDMDL
MODEL      125
REMARK 921   NORMALIZED FREE ENERGY PREDICTED BY IDOCK:   -6.32 KCAL/MOL
REMARK 922        TOTAL FREE ENERGY PREDICTED BY IDOCK:  -11.08 KCAL/MOL
REMARK 923 INTER-LIGAND FREE ENERGY PREDICTED BY IDOCK:   -8.34 KCAL/MOL
REMARK 924 INTRA-LIGAND FREE ENERGY PREDICTED BY IDOCK:   -2.73 KCAL/MOL
REMARK 927      BINDING AFFINITY PREDICTED BY RF-SCORE:    0.00 PKD
ROOT
HETATM    1  C   UNL     1      -6.241   5.974  69.892  1.00  0.00    -0.027 C  
HETATM    2  C   UNL     1      -7.648   6.364  70.314  1.00  0.00    -0.096 C  
ENDROOT
BRANCH   2   3
HETATM    3  C   UNL     1      -8.673   6.154  69.222  1.00  0.00    -0.122 A  
HETATM    4  C   UNL     1      -8.138   6.000  67.934  1.00  0.00    -0.106 A  
HETATM    5  C   UNL     1      -8.946   5.971  66.796  1.00  0.00    -0.122 A  
HETATM    6  C   UNL     1     -10.326   6.053  66.939  1.00  0.00    -0.303 A  
HETATM    7  C   UNL     1     -10.883   6.137  68.226  1.00  0.00    -0.387 A  
HETATM    8  C   UNL     1     -10.075   6.169  69.388  1.00  0.00    -0.230 A  
BRANCH   5   9
HETATM    9  C   UNL     1      -8.241   5.993  65.484  1.00  0.00    -0.142 C  
HETATM   10  C   UNL     1      -7.035   5.121  65.254  1.00  0.00    -0.062 C  
BRANCH   9  11
HETATM   11  N   UNL     1      -8.724   6.795  64.577  1.00  0.00    -0.266 NA 
HETATM   12  H   UNL     1      -9.684   6.757  64.233  1.00  0.00     0.000 HD 
BRANCH  11  13
HETATM   13  O   UNL     1      -7.772   7.711  64.132  1.00  0.00    -0.115 OA 
BRANCH  13  14
HETATM   14  C   UNL     1      -8.466   8.806  63.547  1.00  0.00    -0.105 C  
BRANCH  14  15
HETATM   15  C   UNL     1      -8.977   9.666  64.662  1.00  0.00    -0.274 A  
HETATM   16  F   UNL     1      -8.428  11.110  69.292  1.00  0.00    -0.125 F  
HETATM   17  F   UNL     1      -7.754   9.172  68.615  1.00  0.00    -0.086 F  
HETATM   18  C   UNL     1     -10.175  10.353  64.533  1.00  0.00    -0.281 A  
HETATM   19  F   UNL     1      -6.649  10.952  68.047  1.00  0.00    -0.060 F  
HETATM   20  C   UNL     1     -10.614  11.183  65.559  1.00  0.00    -0.289 A  
HETATM   21  C   UNL     1      -8.293   9.734  65.877  1.00  0.00    -0.128 A  
HETATM   22  C   UNL     1      -9.862  11.393  66.733  1.00  0.00    -0.232 A  
HETATM   23  C   UNL     1      -7.914  10.467  68.209  1.00  0.00    -0.113 C  
HETATM   24  C   UNL     1      -8.730  10.565  66.934  1.00  0.00    -0.130 A  
BRANCH  22  25
HETATM   25  C   UNL     1     -10.253  12.514  67.708  1.00  0.00    -0.217 C  
HETATM   26  C   UNL     1      -9.380  13.778  67.522  1.00  0.00    -0.222 C  
HETATM   27  C   UNL     1      -9.660  14.474  66.194  1.00  0.00    -0.325 C  
HETATM   28  C   UNL     1     -11.110  14.928  66.117  1.00  0.00    -0.335 C  
HETATM   29  C   UNL     1     -12.099  13.809  66.418  1.00  0.00    -0.483 C  
HETATM   30  C   UNL     1     -11.732  12.988  67.665  1.00  0.00    -0.415 C  
ENDBRANCH  22  25
ENDBRANCH  14  15
ENDBRANCH  13  14
ENDBRANCH  11  13
ENDBRANCH   9  11
ENDBRANCH   5   9
BRANCH   8  31
HETATM   31  C   UNL     1     -10.727   6.352  70.753  1.00  0.00    -0.250 C  
BRANCH  31  32
HETATM   32  N   UNL     1     -11.717   7.450  70.860  1.00  0.00    -0.297 NA 
HETATM   33  O   UNL     1     -13.994   9.504  70.805  1.00  0.00    -0.034 OA 
HETATM   34  O   UNL     1     -13.134  11.411  71.633  1.00  0.00    -0.455 OA 
HETATM   35  C   UNL     1     -11.797   7.983  72.246  1.00  0.00    -0.369 C  
HETATM   36  C   UNL     1     -12.987  10.217  71.385  1.00  0.00    -0.440 C  
HETATM   37  C   UNL     1     -11.042   8.720  70.450  1.00  0.00    -0.236 C  
HETATM   38  C   UNL     1     -11.701   9.409  71.659  1.00  0.00    -0.468 C  
ENDBRANCH  31  32
ENDBRANCH   8  31
ENDBRANCH   2   3
TORSDOF 9
ENDMDL
MODEL      126
REMARK 921   NORMALIZED FREE ENERGY PREDICTED BY IDOCK:   -6.31 KCAL/MOL
REMARK 922        TOTAL FREE ENERGY PREDICTED BY IDOCK:  -11.05 KCAL/MOL
REMARK 923 INTER-LIGAND FREE ENERGY PREDICTED BY IDOCK:   -8.56 KCAL/MOL
REMARK 924 INTRA-LIGAND FREE ENERGY PREDICTED BY IDOCK:   -2.49 KCAL/MOL
REMARK 927      BINDING AFFINITY PREDICTED BY RF-SCORE:    0.00 PKD
ROOT
HETATM    1  C   UNL     1      -7.220   9.923  69.325  1.00  0.00    -0.073 C  
HETATM    2  C   UNL     1      -8.257  10.801  68.643  1.00  0.00    -0.139 C  
ENDROOT
BRANCH   2   3
HETATM    3  C   UNL     1      -9.610  10.751  69.316  1.00  0.00    -0.121 A  
HETATM    4  C   UNL     1      -9.811   9.642  70.152  1.00  0.00    -0.310 A  
HETATM    5  C   UNL     1     -11.058   9.353  70.710  1.00  0.00    -0.365 A  
HETATM    6  C   UNL     1     -12.126  10.209  70.470  1.00  0.00    -0.380 A  
HETATM    7  C   UNL     1     -11.924  11.363  69.694  1.00  0.00    -0.416 A  
HETATM    8  C   UNL     1     -10.667  11.667  69.121  1.00  0.00    -0.188 A  
BRANCH   5   9
HETATM    9  C   UNL     1     -11.178   8.049  71.419  1.00  0.00    -0.252 C  
HETATM   10  C   UNL     1     -12.265   7.833  72.437  1.00  0.00    -0.251 C  
BRANCH   9  11
HETATM   11  N   UNL     1     -10.303   7.134  71.106  1.00  0.00    -0.203 NA 
HETATM   12  H   UNL     1      -9.295   7.247  71.214  1.00  0.00     0.000 HD 
BRANCH  11  13
HETATM   13  O   UNL     1     -10.910   5.982  70.608  1.00  0.00    -0.262 OA 
BRANCH  13  14
HETATM   14  C   UNL     1     -11.471   6.303  69.340  1.00  0.00    -0.278 C  
BRANCH  14  15
HETATM   15  C   UNL     1     -10.354   6.765  68.456  1.00  0.00    -0.210 A  
HETATM   16  F   UNL     1      -5.541   6.837  67.649  1.00  0.00    -0.013 F  
HETATM   17  F   UNL     1      -6.360   6.642  69.638  1.00  0.00    -0.035 F  
HETATM   18  C   UNL     1     -10.598   7.645  67.412  1.00  0.00    -0.356 A  
HETATM   19  F   UNL     1      -6.451   4.960  68.269  1.00  0.00    -0.033 F  
HETATM   20  C   UNL     1      -9.558   8.030  66.570  1.00  0.00    -0.295 A  
HETATM   21  C   UNL     1      -9.038   6.375  68.711  1.00  0.00    -0.125 A  
HETATM   22  C   UNL     1      -8.249   7.525  66.711  1.00  0.00    -0.124 A  
HETATM   23  C   UNL     1      -6.594   6.315  68.332  1.00  0.00    -0.058 C  
HETATM   24  C   UNL     1      -7.968   6.765  67.873  1.00  0.00    -0.114 A  
BRANCH  22  25
HETATM   25  C   UNL     1      -7.208   7.768  65.607  1.00  0.00    -0.068 C  
HETATM   26  C   UNL     1      -7.845   7.766  64.197  1.00  0.00    -0.133 C  
HETATM   27  C   UNL     1      -8.750   8.975  63.978  1.00  0.00    -0.115 C  
HETATM   28  C   UNL     1      -7.960  10.270  64.100  1.00  0.00    -0.126 C  
HETATM   29  C   UNL     1      -7.159  10.357  65.393  1.00  0.00    -0.117 C  
HETATM   30  C   UNL     1      -6.374   9.074  65.713  1.00  0.00    -0.060 C  
ENDBRANCH  22  25
ENDBRANCH  14  15
ENDBRANCH  13  14
ENDBRANCH  11  13
ENDBRANCH   9  11
ENDBRANCH   5   9
BRANCH   8  31
HETATM   31  C   UNL     1     -10.527  12.882  68.213  1.00  0.00    -0.242 C  
BRANCH  31  32
HETATM   32  N   UNL     1     -11.328  12.860  66.966  1.00  0.00    -0.293 NA 
HETATM   33  O   UNL     1     -13.116  12.433  64.511  1.00  0.00    -0.823 OA 
HETATM   34  O   UNL     1     -12.403  13.895  62.957  1.00  0.00    -0.618 OA 
HETATM   35  C   UNL     1     -11.869  14.205  66.636  1.00  0.00    -0.424 C  
HETATM   36  C   UNL     1     -12.329  13.470  64.107  1.00  0.00    -0.328 C  
HETATM   37  C   UNL     1     -10.387  12.995  65.811  1.00  0.00    -0.286 C  
HETATM   38  C   UNL     1     -11.367  14.006  65.189  1.00  0.00    -0.328 C  
ENDBRANCH  31  32
ENDBRANCH   8  31
ENDBRANCH   2   3
TORSDOF 9
ENDMDL
MODEL      127
REMARK 921   NORMALIZED FREE ENERGY PREDICTED BY IDOCK:   -6.28 KCAL/MOL
REMARK 922        TOTAL FREE ENERGY PREDICTED BY IDOCK:  -11.01 KCAL/MOL
REMARK 923 INTER-LIGAND FREE ENERGY PREDICTED BY IDOCK:   -9.21 KCAL/MOL
REMARK 924 INTRA-LIGAND FREE ENERGY PREDICTED BY IDOCK:   -1.81 KCAL/MOL
REMARK 927      BINDING AFFINITY PREDICTED BY RF-SCORE:    0.00 PKD
ROOT
HETATM    1  C   UNL     1      -7.435   5.213  65.036  1.00  0.00    -0.073 C  
HETATM    2  C   UNL     1      -8.106   5.390  66.388  1.00  0.00    -0.105 C  
ENDROOT
BRANCH   2   3
HETATM    3  C   UNL     1      -8.919   6.661  66.485  1.00  0.00    -0.155 A  
HETATM    4  C   UNL     1      -8.724   7.566  65.430  1.00  0.00    -0.013 A  
HETATM    5  C   UNL     1      -9.262   8.854  65.453  1.00  0.00    -0.202 A  
HETATM    6  C   UNL     1     -10.051   9.244  66.528  1.00  0.00    -0.343 A  
HETATM    7  C   UNL     1     -10.315   8.326  67.558  1.00  0.00    -0.333 A  
HETATM    8  C   UNL     1      -9.776   7.018  67.549  1.00  0.00    -0.167 A  
BRANCH   5   9
HETATM    9  C   UNL     1      -8.822   9.772  64.365  1.00  0.00    -0.227 C  
HETATM   10  C   UNL     1      -8.178   9.223  63.120  1.00  0.00    -0.178 C  
BRANCH   9  11
HETATM   11  N   UNL     1      -9.029  11.045  64.558  1.00  0.00    -0.350 NA 
HETATM   12  H   UNL     1      -8.752  11.547  65.402  1.00  0.00     0.000 HD 
BRANCH  11  13
HETATM   13  O   UNL     1      -9.674  11.637  63.473  1.00  0.00    -0.319 OA 
BRANCH  13  14
HETATM   14  C   UNL     1     -11.045  11.796  63.820  1.00  0.00    -0.436 C  
BRANCH  14  15
HETATM   15  C   UNL     1     -11.105  12.673  65.033  1.00  0.00    -0.326 A  
HETATM   16  F   UNL     1     -11.629  12.917  69.879  1.00  0.00    -0.342 F  
HETATM   17  F   UNL     1     -12.485  11.307  68.720  1.00  0.00    -0.319 F  
HETATM   18  C   UNL     1     -11.133  14.054  64.905  1.00  0.00    -0.378 A  
HETATM   19  F   UNL     1     -10.343  11.363  69.062  1.00  0.00    -0.202 F  
HETATM   20  C   UNL     1     -11.144  14.857  66.042  1.00  0.00    -0.334 A  
HETATM   21  C   UNL     1     -11.207  12.115  66.308  1.00  0.00    -0.382 A  
HETATM   22  C   UNL     1     -11.087  14.319  67.344  1.00  0.00    -0.314 A  
HETATM   23  C   UNL     1     -11.415  12.155  68.773  1.00  0.00    -0.307 C  
HETATM   24  C   UNL     1     -11.229  12.915  67.473  1.00  0.00    -0.329 A  
BRANCH  22  25
HETATM   25  C   UNL     1     -10.832  15.241  68.547  1.00  0.00    -0.253 C  
HETATM   26  C   UNL     1      -9.382  15.122  69.073  1.00  0.00    -0.219 C  
HETATM   27  C   UNL     1      -8.367  15.690  68.085  1.00  0.00    -0.146 C  
HETATM   28  C   UNL     1      -8.623  17.169  67.838  1.00  0.00    -0.214 C  
HETATM   29  C   UNL     1     -10.065  17.464  67.441  1.00  0.00    -0.321 C  
HETATM   30  C   UNL     1     -11.100  16.756  68.331  1.00  0.00    -0.266 C  
ENDBRANCH  22  25
ENDBRANCH  14  15
ENDBRANCH  13  14
ENDBRANCH  11  13
ENDBRANCH   9  11
ENDBRANCH   5   9
BRANCH   8  31
HETATM   31  C   UNL     1     -10.020   6.094  68.736  1.00  0.00    -0.145 C  
BRANCH  31  32
HETATM   32  N   UNL     1     -10.121   6.750  70.062  1.00  0.00    -0.183 NA 
HETATM   33  O   UNL     1     -10.506   8.428  72.599  1.00  0.00    -0.326 OA 
HETATM   34  O   UNL     1      -9.123   7.553  74.143  1.00  0.00    -0.244 OA 
HETATM   35  C   UNL     1     -10.427   5.770  71.137  1.00  0.00    -0.239 C  
HETATM   36  C   UNL     1      -9.615   7.486  73.020  1.00  0.00    -0.215 C  
HETATM   37  C   UNL     1      -8.739   6.875  70.620  1.00  0.00    -0.149 C  
HETATM   38  C   UNL     1      -9.291   6.396  71.975  1.00  0.00    -0.151 C  
ENDBRANCH  31  32
ENDBRANCH   8  31
ENDBRANCH   2   3
TORSDOF 9
ENDMDL
MODEL      128
REMARK 921   NORMALIZED FREE ENERGY PREDICTED BY IDOCK:   -6.25 KCAL/MOL
REMARK 922        TOTAL FREE ENERGY PREDICTED BY IDOCK:  -10.96 KCAL/MOL
REMARK 923 INTER-LIGAND FREE ENERGY PREDICTED BY IDOCK:   -8.30 KCAL/MOL
REMARK 924 INTRA-LIGAND FREE ENERGY PREDICTED BY IDOCK:   -2.66 KCAL/MOL
REMARK 927      BINDING AFFINITY PREDICTED BY RF-SCORE:    0.00 PKD
ROOT
HETATM    1  C   UNL     1      -9.149   8.576  66.004  1.00  0.00    -0.246 C  
HETATM    2  C   UNL     1      -8.544   8.921  67.355  1.00  0.00    -0.119 C  
ENDROOT
BRANCH   2   3
HETATM    3  C   UNL     1      -9.541   9.538  68.310  1.00  0.00    -0.151 A  
HETATM    4  C   UNL     1      -9.988   8.683  69.329  1.00  0.00    -0.195 A  
HETATM    5  C   UNL     1     -11.032   9.037  70.186  1.00  0.00    -0.256 A  
HETATM    6  C   UNL     1     -11.622  10.288  70.059  1.00  0.00    -0.349 A  
HETATM    7  C   UNL     1     -11.139  11.184  69.091  1.00  0.00    -0.306 A  
HETATM    8  C   UNL     1     -10.083  10.839  68.215  1.00  0.00    -0.187 A  
BRANCH   5   9
HETATM    9  C   UNL     1     -11.531   7.967  71.095  1.00  0.00    -0.276 C  
HETATM   10  C   UNL     1     -12.033   6.664  70.533  1.00  0.00    -0.377 C  
BRANCH   9  11
HETATM   11  N   UNL     1     -11.503   8.229  72.372  1.00  0.00    -0.382 NA 
HETATM   12  H   UNL     1     -12.329   8.246  72.970  1.00  0.00     0.000 HD 
BRANCH  11  13
HETATM   13  O   UNL     1     -10.208   8.483  72.822  1.00  0.00    -0.256 OA 
BRANCH  13  14
HETATM   14  C   UNL     1      -9.803   7.375  73.618  1.00  0.00    -0.315 C  
BRANCH  14  15
HETATM   15  C   UNL     1      -9.100   6.406  72.719  1.00  0.00    -0.135 A  
HETATM   16  F   UNL     1      -8.407   1.733  71.489  1.00  0.00    -0.048 F  
HETATM   17  F   UNL     1      -8.985   2.312  73.489  1.00  0.00    -0.067 F  
HETATM   18  C   UNL     1      -8.103   6.837  71.857  1.00  0.00    -0.101 A  
HETATM   19  F   UNL     1     -10.441   2.402  71.882  1.00  0.00    -0.214 F  
HETATM   20  C   UNL     1      -7.489   5.933  70.995  1.00  0.00    -0.094 A  
HETATM   21  C   UNL     1      -9.385   5.041  72.785  1.00  0.00    -0.150 A  
HETATM   22  C   UNL     1      -7.871   4.577  70.930  1.00  0.00    -0.068 A  
HETATM   23  C   UNL     1      -9.134   2.656  72.175  1.00  0.00    -0.086 C  
HETATM   24  C   UNL     1      -8.764   4.106  71.924  1.00  0.00    -0.129 A  
BRANCH  22  25
HETATM   25  C   UNL     1      -7.357   3.687  69.788  1.00  0.00    -0.045 C  
HETATM   26  C   UNL     1      -8.455   3.403  68.734  1.00  0.00    -0.104 C  
HETATM   27  C   UNL     1      -8.828   4.655  67.947  1.00  0.00    -0.117 C  
HETATM   28  C   UNL     1      -7.624   5.196  67.190  1.00  0.00    -0.092 C  
HETATM   29  C   UNL     1      -6.405   5.399  68.081  1.00  0.00    -0.039 C  
HETATM   30  C   UNL     1      -6.119   4.204  69.006  1.00  0.00    -0.027 C  
ENDBRANCH  22  25
ENDBRANCH  14  15
ENDBRANCH  13  14
ENDBRANCH  11  13
ENDBRANCH   9  11
ENDBRANCH   5   9
BRANCH   8  31
HETATM   31  C   UNL     1      -9.660  11.814  67.124  1.00  0.00    -0.181 C  
BRANCH  31  32
HETATM   32  N   UNL     1     -10.749  12.601  66.496  1.00  0.00    -0.248 NA 
HETATM   33  O   UNL     1     -13.261  13.944  65.362  1.00  0.00    -0.750 OA 
HETATM   34  O   UNL     1     -12.555  15.295  63.708  1.00  0.00    -0.733 OA 
HETATM   35  C   UNL     1     -10.467  14.061  66.542  1.00  0.00    -0.281 C  
HETATM   36  C   UNL     1     -12.274  14.533  64.628  1.00  0.00    -0.460 C  
HETATM   37  C   UNL     1     -10.500  12.636  65.021  1.00  0.00    -0.308 C  
HETATM   38  C   UNL     1     -10.841  14.138  65.045  1.00  0.00    -0.408 C  
ENDBRANCH  31  32
ENDBRANCH   8  31
ENDBRANCH   2   3
TORSDOF 9
ENDMDL
MODEL      129
REMARK 921   NORMALIZED FREE ENERGY PREDICTED BY IDOCK:   -6.23 KCAL/MOL
REMARK 922        TOTAL FREE ENERGY PREDICTED BY IDOCK:  -10.94 KCAL/MOL
REMARK 923 INTER-LIGAND FREE ENERGY PREDICTED BY IDOCK:   -9.74 KCAL/MOL
REMARK 924 INTRA-LIGAND FREE ENERGY PREDICTED BY IDOCK:   -1.20 KCAL/MOL
REMARK 927      BINDING AFFINITY PREDICTED BY RF-SCORE:    0.00 PKD
ROOT
HETATM    1  C   UNL     1      -7.352  12.821  67.969  1.00  0.00    -0.117 C  
HETATM    2  C   UNL     1      -8.480  13.837  67.885  1.00  0.00    -0.176 C  
ENDROOT
BRANCH   2   3
HETATM    3  C   UNL     1      -9.712  13.299  67.194  1.00  0.00    -0.236 A  
HETATM    4  C   UNL     1      -9.472  12.242  66.302  1.00  0.00    -0.234 A  
HETATM    5  C   UNL     1     -10.468  11.748  65.456  1.00  0.00    -0.311 A  
HETATM    6  C   UNL     1     -11.747  12.284  65.527  1.00  0.00    -0.433 A  
HETATM    7  C   UNL     1     -12.023  13.294  66.464  1.00  0.00    -0.448 A  
HETATM    8  C   UNL     1     -11.023  13.805  67.325  1.00  0.00    -0.302 A  
BRANCH   5   9
HETATM    9  C   UNL     1     -10.032  10.759  64.431  1.00  0.00    -0.338 C  
HETATM   10  C   UNL     1      -9.663  11.214  63.044  1.00  0.00    -0.384 C  
BRANCH   9  11
HETATM   11  N   UNL     1      -9.993   9.511  64.805  1.00  0.00    -0.266 NA 
HETATM   12  H   UNL     1     -10.394   8.741  64.270  1.00  0.00     0.000 HD 
BRANCH  11  13
HETATM   13  O   UNL     1      -9.335   9.355  66.025  1.00  0.00    -0.183 OA 
BRANCH  13  14
HETATM   14  C   UNL     1      -8.868   8.013  66.095  1.00  0.00    -0.166 C  
BRANCH  14  15
HETATM   15  C   UNL     1      -9.448   7.397  67.331  1.00  0.00    -0.170 A  
HETATM   16  F   UNL     1     -10.029   3.348  69.995  1.00  0.00    -0.226 F  
HETATM   17  F   UNL     1      -9.742   3.273  67.854  1.00  0.00    -0.249 F  
HETATM   18  C   UNL     1     -10.299   8.123  68.150  1.00  0.00    -0.251 A  
HETATM   19  F   UNL     1      -8.064   3.747  69.147  1.00  0.00    -0.058 F  
HETATM   20  C   UNL     1     -10.794   7.553  69.319  1.00  0.00    -0.131 A  
HETATM   21  C   UNL     1      -9.198   6.059  67.642  1.00  0.00    -0.107 A  
HETATM   22  C   UNL     1     -10.430   6.257  69.738  1.00  0.00    -0.289 A  
HETATM   23  C   UNL     1      -9.396   3.982  68.971  1.00  0.00    -0.169 C  
HETATM   24  C   UNL     1      -9.700   5.460  68.820  1.00  0.00    -0.194 A  
BRANCH  22  25
HETATM   25  C   UNL     1     -10.784   5.777  71.154  1.00  0.00    -0.327 C  
HETATM   26  C   UNL     1      -9.533   5.657  72.056  1.00  0.00    -0.169 C  
HETATM   27  C   UNL     1      -8.931   7.020  72.382  1.00  0.00    -0.142 C  
HETATM   28  C   UNL     1      -9.930   7.887  73.133  1.00  0.00    -0.358 C  
HETATM   29  C   UNL     1     -11.276   7.988  72.426  1.00  0.00    -0.432 C  
HETATM   30  C   UNL     1     -11.815   6.633  71.940  1.00  0.00    -0.375 C  
ENDBRANCH  22  25
ENDBRANCH  14  15
ENDBRANCH  13  14
ENDBRANCH  11  13
ENDBRANCH   9  11
ENDBRANCH   5   9
BRANCH   8  31
HETATM   31  C   UNL     1     -11.354  14.962  68.259  1.00  0.00    -0.310 C  
BRANCH  31  32
HETATM   32  N   UNL     1     -11.816  14.590  69.618  1.00  0.00    -0.299 NA 
HETATM   33  O   UNL     1     -12.913  13.467  72.253  1.00  0.00    -0.335 OA 
HETATM   34  O   UNL     1     -13.099  15.220  73.650  1.00  0.00    -0.485 OA 
HETATM   35  C   UNL     1     -10.866  15.051  70.666  1.00  0.00    -0.097 C  
HETATM   36  C   UNL     1     -12.731  14.782  72.563  1.00  0.00    -0.368 C  
HETATM   37  C   UNL     1     -12.777  15.639  70.081  1.00  0.00    -0.124 C  
HETATM   38  C   UNL     1     -12.070  15.621  71.448  1.00  0.00    -0.476 C  
ENDBRANCH  31  32
ENDBRANCH   8  31
ENDBRANCH   2   3
TORSDOF 9
ENDMDL
MODEL      130
REMARK 921   NORMALIZED FREE ENERGY PREDICTED BY IDOCK:   -6.23 KCAL/MOL
REMARK 922        TOTAL FREE ENERGY PREDICTED BY IDOCK:  -10.93 KCAL/MOL
REMARK 923 INTER-LIGAND FREE ENERGY PREDICTED BY IDOCK:   -9.73 KCAL/MOL
REMARK 924 INTRA-LIGAND FREE ENERGY PREDICTED BY IDOCK:   -1.20 KCAL/MOL
REMARK 927      BINDING AFFINITY PREDICTED BY RF-SCORE:    0.00 PKD
ROOT
HETATM    1  C   UNL     1     -13.858  15.129  72.302  1.00  0.00    -0.618 C  
HETATM    2  C   UNL     1     -13.683  13.622  72.394  1.00  0.00    -0.697 C  
ENDROOT
BRANCH   2   3
HETATM    3  C   UNL     1     -12.778  13.064  71.319  1.00  0.00    -0.385 A  
HETATM    4  C   UNL     1     -12.075  14.029  70.583  1.00  0.00    -0.424 A  
HETATM    5  C   UNL     1     -11.333  13.696  69.447  1.00  0.00    -0.303 A  
HETATM    6  C   UNL     1     -11.249  12.366  69.055  1.00  0.00    -0.320 A  
HETATM    7  C   UNL     1     -11.889  11.378  69.822  1.00  0.00    -0.435 A  
HETATM    8  C   UNL     1     -12.645  11.701  70.974  1.00  0.00    -0.431 A  
BRANCH   5   9
HETATM    9  C   UNL     1     -10.794  14.836  68.653  1.00  0.00    -0.253 C  
HETATM   10  C   UNL     1     -11.533  16.146  68.606  1.00  0.00    -0.340 C  
BRANCH   9  11
HETATM   11  N   UNL     1      -9.673  14.627  68.022  1.00  0.00    -0.212 NA 
HETATM   12  H   UNL     1      -8.865  14.158  68.432  1.00  0.00     0.000 HD 
BRANCH  11  13
HETATM   13  O   UNL     1      -9.711  15.120  66.718  1.00  0.00    -0.227 OA 
BRANCH  13  14
HETATM   14  C   UNL     1     -10.500  14.227  65.941  1.00  0.00    -0.307 C  
BRANCH  14  15
HETATM   15  C   UNL     1      -9.873  12.870  66.036  1.00  0.00    -0.256 A  
HETATM   16  F   UNL     1      -5.906  10.270  67.186  1.00  0.00    -0.047 F  
HETATM   17  F   UNL     1      -5.772  12.324  66.527  1.00  0.00    -0.055 F  
HETATM   18  C   UNL     1     -10.527  11.754  65.536  1.00  0.00    -0.311 A  
HETATM   19  F   UNL     1      -6.501  11.881  68.523  1.00  0.00    -0.050 F  
HETATM   20  C   UNL     1      -9.954  10.493  65.672  1.00  0.00    -0.332 A  
HETATM   21  C   UNL     1      -8.590  12.715  66.565  1.00  0.00     0.051 A  
HETATM   22  C   UNL     1      -8.730  10.291  66.344  1.00  0.00    -0.144 A  
HETATM   23  C   UNL     1      -6.565  11.459  67.228  1.00  0.00    -0.104 C  
HETATM   24  C   UNL     1      -7.988  11.444  66.702  1.00  0.00    -0.148 A  
BRANCH  22  25
HETATM   25  C   UNL     1      -8.274   8.868  66.701  1.00  0.00    -0.111 C  
HETATM   26  C   UNL     1      -8.244   8.633  68.230  1.00  0.00    -0.122 C  
HETATM   27  C   UNL     1      -9.645   8.621  68.834  1.00  0.00    -0.159 C  
HETATM   28  C   UNL     1     -10.481   7.499  68.236  1.00  0.00    -0.223 C  
HETATM   29  C   UNL     1     -10.493   7.516  66.712  1.00  0.00    -0.319 C  
HETATM   30  C   UNL     1      -9.099   7.700  66.092  1.00  0.00    -0.189 C  
ENDBRANCH  22  25
ENDBRANCH  14  15
ENDBRANCH  13  14
ENDBRANCH  11  13
ENDBRANCH   9  11
ENDBRANCH   5   9
BRANCH   8  31
HETATM   31  C   UNL     1     -13.393  10.601  71.717  1.00  0.00    -0.334 C  
BRANCH  31  32
HETATM   32  N   UNL     1     -12.914   9.217  71.485  1.00  0.00    -0.344 NA 
HETATM   33  O   UNL     1     -12.171   6.356  70.668  1.00  0.00    -0.238 OA 
HETATM   34  O   UNL     1     -11.286   5.394  72.498  1.00  0.00    -0.262 OA 
HETATM   35  C   UNL     1     -11.481   9.063  71.856  1.00  0.00    -0.370 C  
HETATM   36  C   UNL     1     -11.729   6.403  71.957  1.00  0.00    -0.329 C  
HETATM   37  C   UNL     1     -13.274   8.399  72.684  1.00  0.00    -0.063 C  
HETATM   38  C   UNL     1     -11.863   7.784  72.633  1.00  0.00    -0.317 C  
ENDBRANCH  31  32
ENDBRANCH   8  31
ENDBRANCH   2   3
TORSDOF 9
ENDMDL
MODEL      131
REMARK 921   NORMALIZED FREE ENERGY PREDICTED BY IDOCK:   -6.23 KCAL/MOL
REMARK 922        TOTAL FREE ENERGY PREDICTED BY IDOCK:  -10.93 KCAL/MOL
REMARK 923 INTER-LIGAND FREE ENERGY PREDICTED BY IDOCK:   -9.31 KCAL/MOL
REMARK 924 INTRA-LIGAND FREE ENERGY PREDICTED BY IDOCK:   -1.62 KCAL/MOL
REMARK 927      BINDING AFFINITY PREDICTED BY RF-SCORE:    0.00 PKD
ROOT
HETATM    1  C   UNL     1      -7.036  13.005  67.686  1.00  0.00    -0.156 C  
HETATM    2  C   UNL     1      -7.029  14.525  67.708  1.00  0.00    -0.194 C  
ENDROOT
BRANCH   2   3
HETATM    3  C   UNL     1      -8.315  15.131  67.192  1.00  0.00    -0.247 A  
HETATM    4  C   UNL     1      -9.419  14.265  67.203  1.00  0.00    -0.229 A  
HETATM    5  C   UNL     1     -10.633  14.608  66.603  1.00  0.00    -0.289 A  
HETATM    6  C   UNL     1     -10.772  15.859  66.015  1.00  0.00    -0.289 A  
HETATM    7  C   UNL     1      -9.699  16.765  66.058  1.00  0.00    -0.287 A  
HETATM    8  C   UNL     1      -8.463  16.431  66.660  1.00  0.00    -0.306 A  
BRANCH   5   9
HETATM    9  C   UNL     1     -11.656  13.529  66.521  1.00  0.00    -0.359 C  
HETATM   10  C   UNL     1     -12.903  13.724  65.700  1.00  0.00    -0.456 C  
BRANCH   9  11
HETATM   11  N   UNL     1     -11.406  12.437  67.187  1.00  0.00    -0.308 NA 
HETATM   12  H   UNL     1     -10.609  11.826  67.005  1.00  0.00     0.000 HD 
BRANCH  11  13
HETATM   13  O   UNL     1     -12.357  12.204  68.180  1.00  0.00    -0.265 OA 
BRANCH  13  14
HETATM   14  C   UNL     1     -11.685  12.220  69.434  1.00  0.00    -0.330 C  
BRANCH  14  15
HETATM   15  C   UNL     1     -11.177  10.835  69.692  1.00  0.00    -0.355 A  
HETATM   16  F   UNL     1      -7.566   7.616  69.039  1.00  0.00    -0.092 F  
HETATM   17  F   UNL     1      -7.936   9.215  67.633  1.00  0.00    -0.097 F  
HETATM   18  C   UNL     1     -11.994   9.882  70.282  1.00  0.00    -0.209 A  
HETATM   19  F   UNL     1      -7.037   9.663  69.557  1.00  0.00    -0.056 F  
HETATM   20  C   UNL     1     -11.494   8.612  70.557  1.00  0.00    -0.208 A  
HETATM   21  C   UNL     1      -9.898  10.459  69.279  1.00  0.00    -0.243 A  
HETATM   22  C   UNL     1     -10.155   8.256  70.294  1.00  0.00    -0.195 A  
HETATM   23  C   UNL     1      -8.001   8.903  68.962  1.00  0.00    -0.106 C  
HETATM   24  C   UNL     1      -9.377   9.171  69.541  1.00  0.00    -0.165 A  
BRANCH  22  25
HETATM   25  C   UNL     1      -9.583   6.946  70.855  1.00  0.00    -0.166 C  
HETATM   26  C   UNL     1      -8.699   7.185  72.103  1.00  0.00    -0.132 C  
HETATM   27  C   UNL     1      -9.521   7.650  73.302  1.00  0.00    -0.317 C  
HETATM   28  C   UNL     1     -10.552   6.601  73.690  1.00  0.00    -0.323 C  
HETATM   29  C   UNL     1     -11.417   6.157  72.517  1.00  0.00    -0.318 C  
HETATM   30  C   UNL     1     -10.610   5.848  71.245  1.00  0.00    -0.311 C  
ENDBRANCH  22  25
ENDBRANCH  14  15
ENDBRANCH  13  14
ENDBRANCH  11  13
ENDBRANCH   9  11
ENDBRANCH   5   9
BRANCH   8  31
HETATM   31  C   UNL     1      -7.304  17.417  66.599  1.00  0.00    -0.247 C  
BRANCH  31  32
HETATM   32  N   UNL     1      -6.760  17.865  67.904  1.00  0.00    -0.190 NA 
HETATM   33  O   UNL     1      -5.569  18.383  70.682  1.00  0.00    -0.236 OA 
HETATM   34  O   UNL     1      -6.216  20.458  71.261  1.00  0.00    -0.589 OA 
HETATM   35  C   UNL     1      -6.011  19.143  67.777  1.00  0.00    -0.201 C  
HETATM   36  C   UNL     1      -6.175  19.574  70.410  1.00  0.00    -0.143 C  
HETATM   37  C   UNL     1      -7.840  18.611  68.621  1.00  0.00    -0.321 C  
HETATM   38  C   UNL     1      -6.792  19.674  68.999  1.00  0.00    -0.378 C  
ENDBRANCH  31  32
ENDBRANCH   8  31
ENDBRANCH   2   3
TORSDOF 9
ENDMDL
MODEL      132
REMARK 921   NORMALIZED FREE ENERGY PREDICTED BY IDOCK:   -6.21 KCAL/MOL
REMARK 922        TOTAL FREE ENERGY PREDICTED BY IDOCK:  -10.91 KCAL/MOL
REMARK 923 INTER-LIGAND FREE ENERGY PREDICTED BY IDOCK:   -9.96 KCAL/MOL
REMARK 924 INTRA-LIGAND FREE ENERGY PREDICTED BY IDOCK:   -0.94 KCAL/MOL
REMARK 927      BINDING AFFINITY PREDICTED BY RF-SCORE:    0.00 PKD
ROOT
HETATM    1  C   UNL     1     -12.051  12.754  69.778  1.00  0.00    -0.305 C  
HETATM    2  C   UNL     1     -11.916  11.282  69.423  1.00  0.00    -0.410 C  
ENDROOT
BRANCH   2   3
HETATM    3  C   UNL     1     -10.915  11.027  68.319  1.00  0.00    -0.287 A  
HETATM    4  C   UNL     1     -11.291  11.517  67.059  1.00  0.00    -0.340 A  
HETATM    5  C   UNL     1     -10.566  11.218  65.903  1.00  0.00    -0.309 A  
HETATM    6  C   UNL     1      -9.414  10.449  66.003  1.00  0.00    -0.232 A  
HETATM    7  C   UNL     1      -8.984  10.010  67.266  1.00  0.00    -0.144 A  
HETATM    8  C   UNL     1      -9.709  10.304  68.445  1.00  0.00    -0.165 A  
BRANCH   5   9
HETATM    9  C   UNL     1     -11.178  11.642  64.613  1.00  0.00    -0.253 C  
HETATM   10  C   UNL     1     -10.387  11.565  63.335  1.00  0.00    -0.469 C  
BRANCH   9  11
HETATM   11  N   UNL     1     -12.408  12.071  64.665  1.00  0.00    -0.318 NA 
HETATM   12  H   UNL     1     -13.205  11.569  64.273  1.00  0.00     0.000 HD 
BRANCH  11  13
HETATM   13  O   UNL     1     -12.503  13.297  65.321  1.00  0.00    -0.447 OA 
BRANCH  13  14
HETATM   14  C   UNL     1     -12.016  14.299  64.436  1.00  0.00    -0.456 C  
BRANCH  14  15
HETATM   15  C   UNL     1     -11.133  15.212  65.229  1.00  0.00    -0.389 A  
HETATM   16  F   UNL     1      -7.898  15.636  68.860  1.00  0.00    -0.137 F  
HETATM   17  F   UNL     1      -9.383  14.067  68.833  1.00  0.00    -0.184 F  
HETATM   18  C   UNL     1     -11.201  16.587  65.057  1.00  0.00    -0.091 A  
HETATM   19  F   UNL     1      -7.686  13.962  67.485  1.00  0.00    -0.134 F  
HETATM   20  C   UNL     1     -10.343  17.420  65.767  1.00  0.00    -0.226 A  
HETATM   21  C   UNL     1     -10.277  14.701  66.207  1.00  0.00    -0.302 A  
HETATM   22  C   UNL     1      -9.360  16.918  66.645  1.00  0.00    -0.278 A  
HETATM   23  C   UNL     1      -8.595  14.828  68.017  1.00  0.00    -0.166 C  
HETATM   24  C   UNL     1      -9.406  15.533  66.945  1.00  0.00    -0.252 A  
BRANCH  22  25
HETATM   25  C   UNL     1      -8.270  17.851  67.195  1.00  0.00    -0.228 C  
HETATM   26  C   UNL     1      -7.927  18.990  66.206  1.00  0.00    -0.302 C  
HETATM   27  C   UNL     1      -9.076  19.983  66.059  1.00  0.00    -0.295 C  
HETATM   28  C   UNL     1      -9.395  20.642  67.393  1.00  0.00    -0.475 C  
HETATM   29  C   UNL     1      -9.624  19.634  68.513  1.00  0.00    -0.467 C  
HETATM   30  C   UNL     1      -8.560  18.526  68.564  1.00  0.00    -0.349 C  
ENDBRANCH  22  25
ENDBRANCH  14  15
ENDBRANCH  13  14
ENDBRANCH  11  13
ENDBRANCH   9  11
ENDBRANCH   5   9
BRANCH   8  31
HETATM   31  C   UNL     1      -9.247   9.727  69.777  1.00  0.00    -0.226 C  
BRANCH  31  32
HETATM   32  N   UNL     1      -9.683   8.341  70.073  1.00  0.00    -0.175 NA 
HETATM   33  O   UNL     1     -10.631   5.604  71.081  1.00  0.00    -0.233 OA 
HETATM   34  O   UNL     1     -10.001   4.111  69.520  1.00  0.00    -0.177 OA 
HETATM   35  C   UNL     1     -10.482   7.767  68.957  1.00  0.00    -0.205 C  
HETATM   36  C   UNL     1     -10.092   5.285  69.870  1.00  0.00    -0.263 C  
HETATM   37  C   UNL     1      -8.567   7.417  69.700  1.00  0.00    -0.137 C  
HETATM   38  C   UNL     1      -9.610   6.495  69.041  1.00  0.00    -0.135 C  
ENDBRANCH  31  32
ENDBRANCH   8  31
ENDBRANCH   2   3
TORSDOF 9
ENDMDL
MODEL      133
REMARK 921   NORMALIZED FREE ENERGY PREDICTED BY IDOCK:   -6.19 KCAL/MOL
REMARK 922        TOTAL FREE ENERGY PREDICTED BY IDOCK:  -10.88 KCAL/MOL
REMARK 923 INTER-LIGAND FREE ENERGY PREDICTED BY IDOCK:   -8.76 KCAL/MOL
REMARK 924 INTRA-LIGAND FREE ENERGY PREDICTED BY IDOCK:   -2.12 KCAL/MOL
REMARK 927      BINDING AFFINITY PREDICTED BY RF-SCORE:    0.00 PKD
ROOT
HETATM    1  C   UNL     1      -7.511  13.780  67.617  1.00  0.00    -0.187 C  
HETATM    2  C   UNL     1      -8.817  13.697  68.391  1.00  0.00    -0.152 C  
ENDROOT
BRANCH   2   3
HETATM    3  C   UNL     1     -10.015  13.443  67.504  1.00  0.00    -0.230 A  
HETATM    4  C   UNL     1      -9.850  12.405  66.575  1.00  0.00    -0.244 A  
HETATM    5  C   UNL     1     -10.789  12.157  65.570  1.00  0.00    -0.324 A  
HETATM    6  C   UNL     1     -11.943  12.928  65.512  1.00  0.00    -0.482 A  
HETATM    7  C   UNL     1     -12.157  13.924  66.478  1.00  0.00    -0.484 A  
HETATM    8  C   UNL     1     -11.214  14.188  67.499  1.00  0.00    -0.323 A  
BRANCH   5   9
HETATM    9  C   UNL     1     -10.402  11.153  64.539  1.00  0.00    -0.337 C  
HETATM   10  C   UNL     1     -10.376  11.531  63.082  1.00  0.00    -0.376 C  
BRANCH   9  11
HETATM   11  N   UNL     1     -10.095   9.962  64.972  1.00  0.00    -0.346 NA 
HETATM   12  H   UNL     1     -10.590   9.483  65.725  1.00  0.00     0.000 HD 
BRANCH  11  13
HETATM   13  O   UNL     1      -9.010   9.422  64.284  1.00  0.00    -0.219 OA 
BRANCH  13  14
HETATM   14  C   UNL     1      -7.826   9.807  64.972  1.00  0.00    -0.128 C  
BRANCH  14  15
HETATM   15  C   UNL     1      -7.805   9.076  66.279  1.00  0.00    -0.099 A  
HETATM   16  F   UNL     1      -8.110   9.379  71.141  1.00  0.00    -0.190 F  
HETATM   17  F   UNL     1      -7.405  11.030  69.937  1.00  0.00    -0.130 F  
HETATM   18  C   UNL     1      -7.476   7.729  66.329  1.00  0.00    -0.079 A  
HETATM   19  F   UNL     1      -9.518  10.534  69.949  1.00  0.00    -0.184 F  
HETATM   20  C   UNL     1      -7.505   7.051  67.544  1.00  0.00    -0.097 A  
HETATM   21  C   UNL     1      -8.046   9.752  67.476  1.00  0.00    -0.114 A  
HETATM   22  C   UNL     1      -7.900   7.675  68.746  1.00  0.00    -0.120 A  
HETATM   23  C   UNL     1      -8.274   9.975  69.929  1.00  0.00    -0.159 C  
HETATM   24  C   UNL     1      -8.069   9.082  68.720  1.00  0.00    -0.105 A  
BRANCH  22  25
HETATM   25  C   UNL     1      -8.171   6.829  69.999  1.00  0.00    -0.134 C  
HETATM   26  C   UNL     1      -9.683   6.721  70.311  1.00  0.00    -0.179 C  
HETATM   27  C   UNL     1     -10.424   5.892  69.266  1.00  0.00    -0.342 C  
HETATM   28  C   UNL     1      -9.884   4.471  69.223  1.00  0.00    -0.241 C  
HETATM   29  C   UNL     1      -8.370   4.416  69.057  1.00  0.00    -0.087 C  
HETATM   30  C   UNL     1      -7.618   5.378  69.992  1.00  0.00    -0.069 C  
ENDBRANCH  22  25
ENDBRANCH  14  15
ENDBRANCH  13  14
ENDBRANCH  11  13
ENDBRANCH   9  11
ENDBRANCH   5   9
BRANCH   8  31
HETATM   31  C   UNL     1     -11.455  15.341  68.467  1.00  0.00    -0.342 C  
BRANCH  31  32
HETATM   32  N   UNL     1     -11.165  16.699  67.947  1.00  0.00    -0.202 NA 
HETATM   33  O   UNL     1     -10.982  19.552  66.837  1.00  0.00    -0.462 OA 
HETATM   34  O   UNL     1      -8.874  19.799  66.092  1.00  0.00    -0.369 OA 
HETATM   35  C   UNL     1     -10.000  17.314  68.637  1.00  0.00    -0.327 C  
HETATM   36  C   UNL     1      -9.704  19.106  66.675  1.00  0.00    -0.346 C  
HETATM   37  C   UNL     1     -10.316  16.552  66.723  1.00  0.00    -0.296 C  
HETATM   38  C   UNL     1      -9.435  17.699  67.251  1.00  0.00    -0.257 C  
ENDBRANCH  31  32
ENDBRANCH   8  31
ENDBRANCH   2   3
TORSDOF 9
ENDMDL
MODEL      134
REMARK 921   NORMALIZED FREE ENERGY PREDICTED BY IDOCK:   -6.19 KCAL/MOL
REMARK 922        TOTAL FREE ENERGY PREDICTED BY IDOCK:  -10.88 KCAL/MOL
REMARK 923 INTER-LIGAND FREE ENERGY PREDICTED BY IDOCK:   -9.63 KCAL/MOL
REMARK 924 INTRA-LIGAND FREE ENERGY PREDICTED BY IDOCK:   -1.25 KCAL/MOL
REMARK 927      BINDING AFFINITY PREDICTED BY RF-SCORE:    0.00 PKD
ROOT
HETATM    1  C   UNL     1     -10.232  14.344  65.388  1.00  0.00    -0.408 C  
HETATM    2  C   UNL     1     -11.433  15.081  65.960  1.00  0.00    -0.221 C  
ENDROOT
BRANCH   2   3
HETATM    3  C   UNL     1     -11.217  15.555  67.379  1.00  0.00    -0.248 A  
HETATM    4  C   UNL     1     -11.676  14.674  68.370  1.00  0.00    -0.352 A  
HETATM    5  C   UNL     1     -11.711  15.032  69.719  1.00  0.00    -0.341 A  
HETATM    6  C   UNL     1     -11.238  16.280  70.104  1.00  0.00    -0.340 A  
HETATM    7  C   UNL     1     -10.709  17.147  69.134  1.00  0.00    -0.184 A  
HETATM    8  C   UNL     1     -10.668  16.798  67.763  1.00  0.00    -0.321 A  
BRANCH   5   9
HETATM    9  C   UNL     1     -12.395  14.079  70.638  1.00  0.00    -0.375 C  
HETATM   10  C   UNL     1     -13.649  14.489  71.362  1.00  0.00    -0.452 C  
BRANCH   9  11
HETATM   11  N   UNL     1     -11.850  12.902  70.767  1.00  0.00    -0.436 NA 
HETATM   12  H   UNL     1     -10.883  12.749  71.054  1.00  0.00     0.000 HD 
BRANCH  11  13
HETATM   13  O   UNL     1     -12.746  11.878  70.465  1.00  0.00    -0.155 OA 
BRANCH  13  14
HETATM   14  C   UNL     1     -12.221  11.157  69.356  1.00  0.00    -0.259 C  
BRANCH  14  15
HETATM   15  C   UNL     1     -11.657   9.872  69.879  1.00  0.00    -0.184 A  
HETATM   16  F   UNL     1      -9.636   5.559  68.811  1.00  0.00    -0.129 F  
HETATM   17  F   UNL     1     -10.960   6.570  67.434  1.00  0.00    -0.299 F  
HETATM   18  C   UNL     1     -11.750   9.557  71.227  1.00  0.00    -0.444 A  
HETATM   19  F   UNL     1      -8.943   7.316  67.727  1.00  0.00    -0.127 F  
HETATM   20  C   UNL     1     -11.181   8.380  71.706  1.00  0.00    -0.360 A  
HETATM   21  C   UNL     1     -11.093   8.938  69.009  1.00  0.00     0.141 A  
HETATM   22  C   UNL     1     -10.466   7.495  70.872  1.00  0.00    -0.218 A  
HETATM   23  C   UNL     1     -10.014   6.798  68.394  1.00  0.00    -0.151 C  
HETATM   24  C   UNL     1     -10.519   7.733  69.476  1.00  0.00    -0.225 A  
BRANCH  22  25
HETATM   25  C   UNL     1      -9.636   6.359  71.489  1.00  0.00    -0.169 C  
HETATM   26  C   UNL     1      -8.142   6.738  71.625  1.00  0.00    -0.106 C  
HETATM   27  C   UNL     1      -7.922   7.825  72.672  1.00  0.00    -0.145 C  
HETATM   28  C   UNL     1      -8.380   7.354  74.044  1.00  0.00    -0.217 C  
HETATM   29  C   UNL     1      -9.805   6.815  74.041  1.00  0.00    -0.334 C  
HETATM   30  C   UNL     1     -10.089   5.844  72.883  1.00  0.00    -0.199 C  
ENDBRANCH  22  25
ENDBRANCH  14  15
ENDBRANCH  13  14
ENDBRANCH  11  13
ENDBRANCH   9  11
ENDBRANCH   5   9
BRANCH   8  31
HETATM   31  C   UNL     1     -10.168  17.811  66.742  1.00  0.00    -0.351 C  
BRANCH  31  32
HETATM   32  N   UNL     1      -9.005  18.633  67.156  1.00  0.00    -0.276 NA 
HETATM   33  O   UNL     1      -6.767  20.322  68.398  1.00  0.00    -0.291 OA 
HETATM   34  O   UNL     1      -5.745  21.362  66.685  1.00  0.00    -0.261 OA 
HETATM   35  C   UNL     1      -7.768  18.238  66.431  1.00  0.00    -0.257 C  
HETATM   36  C   UNL     1      -6.583  20.549  67.066  1.00  0.00    -0.252 C  
HETATM   37  C   UNL     1      -9.026  19.897  66.357  1.00  0.00    -0.363 C  
HETATM   38  C   UNL     1      -7.510  19.734  66.140  1.00  0.00    -0.321 C  
ENDBRANCH  31  32
ENDBRANCH   8  31
ENDBRANCH   2   3
TORSDOF 9
ENDMDL
MODEL      135
REMARK 921   NORMALIZED FREE ENERGY PREDICTED BY IDOCK:   -6.19 KCAL/MOL
REMARK 922        TOTAL FREE ENERGY PREDICTED BY IDOCK:  -10.87 KCAL/MOL
REMARK 923 INTER-LIGAND FREE ENERGY PREDICTED BY IDOCK:   -9.43 KCAL/MOL
REMARK 924 INTRA-LIGAND FREE ENERGY PREDICTED BY IDOCK:   -1.44 KCAL/MOL
REMARK 927      BINDING AFFINITY PREDICTED BY RF-SCORE:    0.00 PKD
ROOT
HETATM    1  C   UNL     1     -11.483  10.449  67.975  1.00  0.00    -0.161 C  
HETATM    2  C   UNL     1     -10.540  11.407  67.265  1.00  0.00    -0.264 C  
ENDROOT
BRANCH   2   3
HETATM    3  C   UNL     1     -10.428  11.136  65.782  1.00  0.00    -0.305 A  
HETATM    4  C   UNL     1      -9.425  10.222  65.425  1.00  0.00    -0.287 A  
HETATM    5  C   UNL     1      -9.074   9.993  64.093  1.00  0.00    -0.295 A  
HETATM    6  C   UNL     1      -9.764  10.653  63.084  1.00  0.00    -0.375 A  
HETATM    7  C   UNL     1     -10.818  11.518  63.421  1.00  0.00    -0.423 A  
HETATM    8  C   UNL     1     -11.183  11.761  64.766  1.00  0.00    -0.333 A  
BRANCH   5   9
HETATM    9  C   UNL     1      -7.871   9.144  63.864  1.00  0.00    -0.129 C  
HETATM   10  C   UNL     1      -6.508   9.773  63.743  1.00  0.00    -0.119 C  
BRANCH   9  11
HETATM   11  N   UNL     1      -8.073   7.859  63.778  1.00  0.00    -0.300 NA 
HETATM   12  H   UNL     1      -8.517   7.402  62.982  1.00  0.00     0.000 HD 
BRANCH  11  13
HETATM   13  O   UNL     1      -7.608   7.184  64.906  1.00  0.00    -0.088 OA 
BRANCH  13  14
HETATM   14  C   UNL     1      -8.647   6.320  65.351  1.00  0.00    -0.092 C  
BRANCH  14  15
HETATM   15  C   UNL     1      -8.732   6.445  66.841  1.00  0.00    -0.115 A  
HETATM   16  F   UNL     1      -7.263   4.751  71.176  1.00  0.00    -0.045 F  
HETATM   17  F   UNL     1      -7.328   3.491  69.422  1.00  0.00    -0.047 F  
HETATM   18  C   UNL     1      -9.650   7.304  67.426  1.00  0.00    -0.176 A  
HETATM   19  F   UNL     1      -5.772   4.993  69.609  1.00  0.00    -0.012 F  
HETATM   20  C   UNL     1      -9.687   7.444  68.810  1.00  0.00    -0.149 A  
HETATM   21  C   UNL     1      -7.940   5.646  67.667  1.00  0.00    -0.101 A  
HETATM   22  C   UNL     1      -8.788   6.766  69.660  1.00  0.00    -0.144 A  
HETATM   23  C   UNL     1      -7.101   4.776  69.826  1.00  0.00    -0.054 C  
HETATM   24  C   UNL     1      -7.971   5.767  69.075  1.00  0.00    -0.098 A  
BRANCH  22  25
HETATM   25  C   UNL     1      -8.692   7.153  71.144  1.00  0.00    -0.133 C  
HETATM   26  C   UNL     1      -8.673   8.688  71.344  1.00  0.00    -0.262 C  
HETATM   27  C   UNL     1     -10.014   9.325  70.991  1.00  0.00    -0.364 C  
HETATM   28  C   UNL     1     -11.122   8.781  71.881  1.00  0.00    -0.434 C  
HETATM   29  C   UNL     1     -11.176   7.258  71.895  1.00  0.00    -0.281 C  
HETATM   30  C   UNL     1      -9.799   6.599  72.081  1.00  0.00    -0.166 C  
ENDBRANCH  22  25
ENDBRANCH  14  15
ENDBRANCH  13  14
ENDBRANCH  11  13
ENDBRANCH   9  11
ENDBRANCH   5   9
BRANCH   8  31
HETATM   31  C   UNL     1     -12.275  12.777  65.078  1.00  0.00    -0.473 C  
BRANCH  31  32
HETATM   32  N   UNL     1     -11.870  14.203  65.028  1.00  0.00    -0.370 NA 
HETATM   33  O   UNL     1     -11.268  17.175  64.575  1.00  0.00    -1.104 OA 
HETATM   34  O   UNL     1      -9.431  17.633  65.791  1.00  0.00    -0.516 OA 
HETATM   35  C   UNL     1     -11.779  14.796  66.389  1.00  0.00    -0.263 C  
HETATM   36  C   UNL     1     -10.302  16.828  65.472  1.00  0.00    -0.215 C  
HETATM   37  C   UNL     1     -10.378  14.256  64.944  1.00  0.00    -0.401 C  
HETATM   38  C   UNL     1     -10.403  15.379  65.997  1.00  0.00    -0.339 C  
ENDBRANCH  31  32
ENDBRANCH   8  31
ENDBRANCH   2   3
TORSDOF 9
ENDMDL
MODEL      136
REMARK 921   NORMALIZED FREE ENERGY PREDICTED BY IDOCK:   -6.17 KCAL/MOL
REMARK 922        TOTAL FREE ENERGY PREDICTED BY IDOCK:  -10.84 KCAL/MOL
REMARK 923 INTER-LIGAND FREE ENERGY PREDICTED BY IDOCK:   -7.54 KCAL/MOL
REMARK 924 INTRA-LIGAND FREE ENERGY PREDICTED BY IDOCK:   -3.31 KCAL/MOL
REMARK 927      BINDING AFFINITY PREDICTED BY RF-SCORE:    0.00 PKD
ROOT
HETATM    1  C   UNL     1      -6.065   7.968  69.797  1.00  0.00    -0.029 C  
HETATM    2  C   UNL     1      -7.552   7.951  70.111  1.00  0.00    -0.083 C  
ENDROOT
BRANCH   2   3
HETATM    3  C   UNL     1      -8.417   7.865  68.873  1.00  0.00    -0.128 A  
HETATM    4  C   UNL     1      -7.720   7.595  67.686  1.00  0.00    -0.122 A  
HETATM    5  C   UNL     1      -8.340   7.654  66.436  1.00  0.00    -0.129 A  
HETATM    6  C   UNL     1      -9.696   7.944  66.361  1.00  0.00    -0.235 A  
HETATM    7  C   UNL     1     -10.425   8.146  67.545  1.00  0.00    -0.326 A  
HETATM    8  C   UNL     1      -9.810   8.092  68.818  1.00  0.00    -0.176 A  
BRANCH   5   9
HETATM    9  C   UNL     1      -7.446   7.533  65.250  1.00  0.00    -0.084 C  
HETATM   10  C   UNL     1      -7.862   6.703  64.065  1.00  0.00    -0.112 C  
BRANCH   9  11
HETATM   11  N   UNL     1      -6.313   8.176  65.307  1.00  0.00    -0.045 NA 
HETATM   12  H   UNL     1      -5.463   7.799  65.726  1.00  0.00     0.000 HD 
BRANCH  11  13
HETATM   13  O   UNL     1      -6.404   9.441  64.727  1.00  0.00    -0.073 OA 
BRANCH  13  14
HETATM   14  C   UNL     1      -6.259  10.403  65.765  1.00  0.00    -0.123 C  
BRANCH  14  15
HETATM   15  C   UNL     1      -7.623  10.928  66.088  1.00  0.00    -0.119 A  
HETATM   16  F   UNL     1     -11.918  12.489  64.372  1.00  0.00    -0.375 F  
HETATM   17  F   UNL     1     -10.098  12.662  63.219  1.00  0.00    -0.338 F  
HETATM   18  C   UNL     1      -7.958  11.269  67.391  1.00  0.00    -0.132 A  
HETATM   19  F   UNL     1     -11.031  10.718  63.467  1.00  0.00    -0.303 F  
HETATM   20  C   UNL     1      -9.244  11.713  67.684  1.00  0.00    -0.178 A  
HETATM   21  C   UNL     1      -8.558  11.152  65.076  1.00  0.00     0.111 A  
HETATM   22  C   UNL     1     -10.255  11.796  66.704  1.00  0.00    -0.240 A  
HETATM   23  C   UNL     1     -10.730  11.869  64.135  1.00  0.00    -0.351 C  
HETATM   24  C   UNL     1      -9.865  11.611  65.354  1.00  0.00    -0.268 A  
BRANCH  22  25
HETATM   25  C   UNL     1     -11.714  12.031  67.122  1.00  0.00    -0.344 C  
HETATM   26  C   UNL     1     -12.029  11.416  68.506  1.00  0.00    -0.295 C  
HETATM   27  C   UNL     1     -11.310  12.151  69.634  1.00  0.00    -0.223 C  
HETATM   28  C   UNL     1     -11.744  13.607  69.693  1.00  0.00    -0.383 C  
HETATM   29  C   UNL     1     -11.621  14.318  68.351  1.00  0.00    -0.354 C  
HETATM   30  C   UNL     1     -12.193  13.508  67.176  1.00  0.00    -0.328 C  
ENDBRANCH  22  25
ENDBRANCH  14  15
ENDBRANCH  13  14
ENDBRANCH  11  13
ENDBRANCH   9  11
ENDBRANCH   5   9
BRANCH   8  31
HETATM   31  C   UNL     1     -10.628   8.408  70.064  1.00  0.00    -0.235 C  
BRANCH  31  32
HETATM   32  N   UNL     1     -10.592   7.391  71.143  1.00  0.00    -0.221 NA 
HETATM   33  O   UNL     1     -10.100   5.304  73.335  1.00  0.00    -0.165 OA 
HETATM   34  O   UNL     1     -12.046   4.207  73.601  1.00  0.00     0.059 OA 
HETATM   35  C   UNL     1     -11.661   7.622  72.150  1.00  0.00    -0.311 C  
HETATM   36  C   UNL     1     -11.424   5.121  73.067  1.00  0.00    -0.274 C  
HETATM   37  C   UNL     1     -11.348   6.191  70.669  1.00  0.00    -0.298 C  
HETATM   38  C   UNL     1     -12.019   6.122  72.053  1.00  0.00    -0.310 C  
ENDBRANCH  31  32
ENDBRANCH   8  31
ENDBRANCH   2   3
TORSDOF 9
ENDMDL
MODEL      137
REMARK 921   NORMALIZED FREE ENERGY PREDICTED BY IDOCK:   -6.17 KCAL/MOL
REMARK 922        TOTAL FREE ENERGY PREDICTED BY IDOCK:  -10.84 KCAL/MOL
REMARK 923 INTER-LIGAND FREE ENERGY PREDICTED BY IDOCK:   -9.14 KCAL/MOL
REMARK 924 INTRA-LIGAND FREE ENERGY PREDICTED BY IDOCK:   -1.70 KCAL/MOL
REMARK 927      BINDING AFFINITY PREDICTED BY RF-SCORE:    0.00 PKD
ROOT
HETATM    1  C   UNL     1      -6.785  12.787  67.294  1.00  0.00    -0.089 C  
HETATM    2  C   UNL     1      -7.643  13.852  67.957  1.00  0.00    -0.144 C  
ENDROOT
BRANCH   2   3
HETATM    3  C   UNL     1      -9.121  13.670  67.695  1.00  0.00    -0.207 A  
HETATM    4  C   UNL     1      -9.693  12.546  68.309  1.00  0.00    -0.220 A  
HETATM    5  C   UNL     1     -11.000  12.137  68.031  1.00  0.00    -0.271 A  
HETATM    6  C   UNL     1     -11.775  12.886  67.155  1.00  0.00    -0.437 A  
HETATM    7  C   UNL     1     -11.241  14.054  66.586  1.00  0.00    -0.330 A  
HETATM    8  C   UNL     1      -9.919  14.479  66.857  1.00  0.00    -0.259 A  
BRANCH   5   9
HETATM    9  C   UNL     1     -11.416  10.826  68.604  1.00  0.00    -0.295 C  
HETATM   10  C   UNL     1     -11.851  10.728  70.041  1.00  0.00    -0.424 C  
BRANCH   9  11
HETATM   11  N   UNL     1     -11.380   9.802  67.798  1.00  0.00    -0.493 NA 
HETATM   12  H   UNL     1     -12.104   9.588  67.112  1.00  0.00     0.000 HD 
BRANCH  11  13
HETATM   13  O   UNL     1     -10.233   9.032  67.987  1.00  0.00    -0.192 OA 
BRANCH  13  14
HETATM   14  C   UNL     1     -10.620   7.664  67.953  1.00  0.00    -0.168 C  
BRANCH  14  15
HETATM   15  C   UNL     1     -10.111   7.019  69.205  1.00  0.00    -0.178 A  
HETATM   16  F   UNL     1      -7.943   7.638  73.534  1.00  0.00    -0.126 F  
HETATM   17  F   UNL     1      -7.602   8.991  71.884  1.00  0.00    -0.118 F  
HETATM   18  C   UNL     1     -10.074   5.637  69.323  1.00  0.00    -0.281 A  
HETATM   19  F   UNL     1      -9.493   9.051  72.949  1.00  0.00    -0.151 F  
HETATM   20  C   UNL     1      -9.642   5.052  70.509  1.00  0.00    -0.252 A  
HETATM   21  C   UNL     1      -9.599   7.794  70.247  1.00  0.00    -0.175 A  
HETATM   22  C   UNL     1      -9.269   5.816  71.634  1.00  0.00    -0.158 A  
HETATM   23  C   UNL     1      -8.555   8.193  72.454  1.00  0.00    -0.185 C  
HETATM   24  C   UNL     1      -9.146   7.216  71.455  1.00  0.00    -0.143 A  
BRANCH  22  25
HETATM   25  C   UNL     1      -9.058   5.132  72.993  1.00  0.00    -0.126 C  
HETATM   26  C   UNL     1     -10.252   5.361  73.951  1.00  0.00    -0.260 C  
HETATM   27  C   UNL     1     -11.508   4.633  73.480  1.00  0.00    -0.277 C  
HETATM   28  C   UNL     1     -11.272   3.131  73.425  1.00  0.00    -0.251 C  
HETATM   29  C   UNL     1     -10.034   2.753  72.622  1.00  0.00    -0.219 C  
HETATM   30  C   UNL     1      -8.799   3.601  72.969  1.00  0.00    -0.100 C  
ENDBRANCH  22  25
ENDBRANCH  14  15
ENDBRANCH  13  14
ENDBRANCH  11  13
ENDBRANCH   9  11
ENDBRANCH   5   9
BRANCH   8  31
HETATM   31  C   UNL     1      -9.361  15.703  66.143  1.00  0.00    -0.347 C  
BRANCH  31  32
HETATM   32  N   UNL     1      -9.437  16.983  66.888  1.00  0.00    -0.248 NA 
HETATM   33  O   UNL     1      -9.773  19.407  68.736  1.00  0.00    -0.406 OA 
HETATM   34  O   UNL     1      -9.612  21.224  67.420  1.00  0.00    -0.266 OA 
HETATM   35  C   UNL     1      -8.252  17.842  66.627  1.00  0.00    -0.258 C  
HETATM   36  C   UNL     1      -9.539  20.003  67.533  1.00  0.00    -0.393 C  
HETATM   37  C   UNL     1     -10.260  17.937  66.080  1.00  0.00    -0.343 C  
HETATM   38  C   UNL     1      -9.214  19.026  66.383  1.00  0.00    -0.350 C  
ENDBRANCH  31  32
ENDBRANCH   8  31
ENDBRANCH   2   3
TORSDOF 9
ENDMDL
MODEL      138
REMARK 921   NORMALIZED FREE ENERGY PREDICTED BY IDOCK:   -6.16 KCAL/MOL
REMARK 922        TOTAL FREE ENERGY PREDICTED BY IDOCK:  -10.83 KCAL/MOL
REMARK 923 INTER-LIGAND FREE ENERGY PREDICTED BY IDOCK:   -9.32 KCAL/MOL
REMARK 924 INTRA-LIGAND FREE ENERGY PREDICTED BY IDOCK:   -1.51 KCAL/MOL
REMARK 927      BINDING AFFINITY PREDICTED BY RF-SCORE:    0.00 PKD
ROOT
HETATM    1  C   UNL     1      -6.822  11.946  69.185  1.00  0.00    -0.099 C  
HETATM    2  C   UNL     1      -7.591  13.039  68.461  1.00  0.00    -0.121 C  
ENDROOT
BRANCH   2   3
HETATM    3  C   UNL     1      -8.932  12.574  67.940  1.00  0.00    -0.188 A  
HETATM    4  C   UNL     1      -8.877  11.457  67.092  1.00  0.00    -0.156 A  
HETATM    5  C   UNL     1      -9.998  11.007  66.389  1.00  0.00    -0.264 A  
HETATM    6  C   UNL     1     -11.215  11.653  66.565  1.00  0.00    -0.356 A  
HETATM    7  C   UNL     1     -11.303  12.728  67.465  1.00  0.00    -0.361 A  
HETATM    8  C   UNL     1     -10.176  13.195  68.182  1.00  0.00    -0.239 A  
BRANCH   5   9
HETATM    9  C   UNL     1      -9.759   9.935  65.383  1.00  0.00    -0.306 C  
HETATM   10  C   UNL     1      -9.596  10.281  63.927  1.00  0.00    -0.354 C  
BRANCH   9  11
HETATM   11  N   UNL     1      -9.703   8.714  65.836  1.00  0.00    -0.457 NA 
HETATM   12  H   UNL     1      -9.001   8.030  65.551  1.00  0.00     0.000 HD 
BRANCH  11  13
HETATM   13  O   UNL     1     -10.717   8.454  66.757  1.00  0.00    -0.249 OA 
BRANCH  13  14
HETATM   14  C   UNL     1     -10.753   7.048  66.974  1.00  0.00    -0.353 C  
BRANCH  14  15
HETATM   15  C   UNL     1     -10.259   6.792  68.364  1.00  0.00    -0.193 A  
HETATM   16  F   UNL     1      -8.841   8.718  72.619  1.00  0.00    -0.286 F  
HETATM   17  F   UNL     1      -8.639   9.795  70.757  1.00  0.00    -0.219 F  
HETATM   18  C   UNL     1      -9.905   5.512  68.763  1.00  0.00    -0.206 A  
HETATM   19  F   UNL     1     -10.602   9.552  71.650  1.00  0.00    -0.402 F  
HETATM   20  C   UNL     1      -9.490   5.281  70.071  1.00  0.00    -0.216 A  
HETATM   21  C   UNL     1     -10.077   7.848  69.260  1.00  0.00    -0.197 A  
HETATM   22  C   UNL     1      -9.450   6.304  71.041  1.00  0.00    -0.187 A  
HETATM   23  C   UNL     1      -9.433   8.892  71.407  1.00  0.00    -0.274 C  
HETATM   24  C   UNL     1      -9.647   7.633  70.589  1.00  0.00    -0.163 A  
BRANCH  22  25
HETATM   25  C   UNL     1      -9.246   5.954  72.522  1.00  0.00    -0.140 C  
HETATM   26  C   UNL     1     -10.524   6.201  73.360  1.00  0.00    -0.269 C  
HETATM   27  C   UNL     1     -11.637   5.219  73.006  1.00  0.00    -0.290 C  
HETATM   28  C   UNL     1     -11.202   3.788  73.283  1.00  0.00    -0.230 C  
HETATM   29  C   UNL     1      -9.871   3.434  72.630  1.00  0.00    -0.209 C  
HETATM   30  C   UNL     1      -8.786   4.504  72.837  1.00  0.00    -0.119 C  
ENDBRANCH  22  25
ENDBRANCH  14  15
ENDBRANCH  13  14
ENDBRANCH  11  13
ENDBRANCH   9  11
ENDBRANCH   5   9
BRANCH   8  31
HETATM   31  C   UNL     1     -10.307  14.422  69.076  1.00  0.00    -0.198 C  
BRANCH  31  32
HETATM   32  N   UNL     1     -10.346  15.732  68.382  1.00  0.00    -0.229 NA 
HETATM   33  O   UNL     1     -10.843  18.407  66.969  1.00  0.00    -0.345 OA 
HETATM   34  O   UNL     1      -8.924  18.924  65.916  1.00  0.00    -0.455 OA 
HETATM   35  C   UNL     1      -9.246  16.625  68.836  1.00  0.00    -0.244 C  
HETATM   36  C   UNL     1      -9.532  18.176  66.677  1.00  0.00    -0.302 C  
HETATM   37  C   UNL     1      -9.635  15.582  67.075  1.00  0.00    -0.224 C  
HETATM   38  C   UNL     1      -8.933  16.924  67.353  1.00  0.00    -0.215 C  
ENDBRANCH  31  32
ENDBRANCH   8  31
ENDBRANCH   2   3
TORSDOF 9
ENDMDL
MODEL      139
REMARK 921   NORMALIZED FREE ENERGY PREDICTED BY IDOCK:   -6.14 KCAL/MOL
REMARK 922        TOTAL FREE ENERGY PREDICTED BY IDOCK:  -10.80 KCAL/MOL
REMARK 923 INTER-LIGAND FREE ENERGY PREDICTED BY IDOCK:   -9.33 KCAL/MOL
REMARK 924 INTRA-LIGAND FREE ENERGY PREDICTED BY IDOCK:   -1.47 KCAL/MOL
REMARK 927      BINDING AFFINITY PREDICTED BY RF-SCORE:    0.00 PKD
ROOT
HETATM    1  C   UNL     1     -12.032  15.822  71.247  1.00  0.00    -0.485 C  
HETATM    2  C   UNL     1     -10.870  15.335  70.396  1.00  0.00    -0.293 C  
ENDROOT
BRANCH   2   3
HETATM    3  C   UNL     1     -11.085  13.946  69.839  1.00  0.00     0.006 A  
HETATM    4  C   UNL     1     -12.044  13.181  70.520  1.00  0.00    -0.385 A  
HETATM    5  C   UNL     1     -12.239  11.826  70.246  1.00  0.00    -0.381 A  
HETATM    6  C   UNL     1     -11.495  11.221  69.240  1.00  0.00    -0.369 A  
HETATM    7  C   UNL     1     -10.581  11.990  68.500  1.00  0.00    -0.252 A  
HETATM    8  C   UNL     1     -10.372  13.364  68.769  1.00  0.00    -0.164 A  
BRANCH   5   9
HETATM    9  C   UNL     1     -13.150  11.090  71.167  1.00  0.00    -0.232 C  
HETATM   10  C   UNL     1     -13.693  11.764  72.398  1.00  0.00     0.224 C  
BRANCH   9  11
HETATM   11  N   UNL     1     -13.437   9.861  70.842  1.00  0.00    -0.541 NA 
HETATM   12  H   UNL     1     -13.674   9.559  69.897  1.00  0.00     0.000 HD 
BRANCH  11  13
HETATM   13  O   UNL     1     -13.380   9.006  71.943  1.00  0.00    -0.360 OA 
BRANCH  13  14
HETATM   14  C   UNL     1     -12.013   8.869  72.313  1.00  0.00    -0.310 C  
BRANCH  14  15
HETATM   15  C   UNL     1     -11.415   7.802  71.450  1.00  0.00    -0.289 A  
HETATM   16  F   UNL     1      -8.939   6.745  67.379  1.00  0.00    -0.117 F  
HETATM   17  F   UNL     1     -10.163   8.519  67.541  1.00  0.00    -0.223 F  
HETATM   18  C   UNL     1     -11.645   6.461  71.723  1.00  0.00    -0.367 A  
HETATM   19  F   UNL     1      -8.263   8.426  68.586  1.00  0.00    -0.115 F  
HETATM   20  C   UNL     1     -11.046   5.480  70.940  1.00  0.00    -0.107 A  
HETATM   21  C   UNL     1     -10.676   8.137  70.314  1.00  0.00    -0.235 A  
HETATM   22  C   UNL     1     -10.166   5.792  69.883  1.00  0.00    -0.302 A  
HETATM   23  C   UNL     1      -9.362   7.683  68.268  1.00  0.00    -0.145 C  
HETATM   24  C   UNL     1     -10.068   7.153  69.501  1.00  0.00    -0.182 A  
BRANCH  22  25
HETATM   25  C   UNL     1      -9.329   4.684  69.226  1.00  0.00    -0.207 C  
HETATM   26  C   UNL     1      -7.834   4.778  69.615  1.00  0.00    -0.066 C  
HETATM   27  C   UNL     1      -7.605   4.445  71.086  1.00  0.00    -0.067 C  
HETATM   28  C   UNL     1      -8.049   3.023  71.393  1.00  0.00    -0.062 C  
HETATM   29  C   UNL     1      -9.474   2.734  70.936  1.00  0.00    -0.224 C  
HETATM   30  C   UNL     1      -9.767   3.221  69.508  1.00  0.00     0.005 C  
ENDBRANCH  22  25
ENDBRANCH  14  15
ENDBRANCH  13  14
ENDBRANCH  11  13
ENDBRANCH   9  11
ENDBRANCH   5   9
BRANCH   8  31
HETATM   31  C   UNL     1      -9.304  14.128  67.997  1.00  0.00    -0.203 C  
BRANCH  31  32
HETATM   32  N   UNL     1      -9.795  15.051  66.946  1.00  0.00    -0.233 NA 
HETATM   33  O   UNL     1     -10.639  17.268  65.002  1.00  0.00    -0.675 OA 
HETATM   34  O   UNL     1     -12.273  16.392  63.728  1.00  0.00    -0.853 OA 
HETATM   35  C   UNL     1      -9.696  14.444  65.592  1.00  0.00    -0.224 C  
HETATM   36  C   UNL     1     -11.421  16.227  64.597  1.00  0.00    -0.167 C  
HETATM   37  C   UNL     1     -11.281  14.905  66.862  1.00  0.00    -0.343 C  
HETATM   38  C   UNL     1     -11.149  14.895  65.328  1.00  0.00    -0.382 C  
ENDBRANCH  31  32
ENDBRANCH   8  31
ENDBRANCH   2   3
TORSDOF 9
ENDMDL
MODEL      140
REMARK 921   NORMALIZED FREE ENERGY PREDICTED BY IDOCK:   -6.13 KCAL/MOL
REMARK 922        TOTAL FREE ENERGY PREDICTED BY IDOCK:  -10.78 KCAL/MOL
REMARK 923 INTER-LIGAND FREE ENERGY PREDICTED BY IDOCK:   -8.70 KCAL/MOL
REMARK 924 INTRA-LIGAND FREE ENERGY PREDICTED BY IDOCK:   -2.08 KCAL/MOL
REMARK 927      BINDING AFFINITY PREDICTED BY RF-SCORE:    0.00 PKD
ROOT
HETATM    1  C   UNL     1     -14.403   7.914  71.607  1.00  0.00    -0.595 C  
HETATM    2  C   UNL     1     -13.804   9.084  72.370  1.00  0.00    -0.540 C  
ENDROOT
BRANCH   2   3
HETATM    3  C   UNL     1     -12.788   9.860  71.562  1.00  0.00    -0.522 A  
HETATM    4  C   UNL     1     -12.956  11.253  71.586  1.00  0.00    -0.537 A  
HETATM    5  C   UNL     1     -12.216  12.101  70.760  1.00  0.00    -0.367 A  
HETATM    6  C   UNL     1     -11.251  11.560  69.920  1.00  0.00    -0.183 A  
HETATM    7  C   UNL     1     -11.020  10.175  69.935  1.00  0.00    -0.344 A  
HETATM    8  C   UNL     1     -11.764   9.304  70.765  1.00  0.00    -0.328 A  
BRANCH   5   9
HETATM    9  C   UNL     1     -12.625  13.534  70.748  1.00  0.00    -0.309 C  
HETATM   10  C   UNL     1     -12.915  14.252  72.039  1.00  0.00    -0.437 C  
BRANCH   9  11
HETATM   11  N   UNL     1     -12.711  14.104  69.580  1.00  0.00    -0.394 NA 
HETATM   12  H   UNL     1     -13.268  13.741  68.806  1.00  0.00     0.000 HD 
BRANCH  11  13
HETATM   13  O   UNL     1     -11.951  15.272  69.514  1.00  0.00    -0.320 OA 
BRANCH  13  14
HETATM   14  C   UNL     1     -11.594  15.478  68.152  1.00  0.00    -0.304 C  
BRANCH  14  15
HETATM   15  C   UNL     1     -10.318  14.736  67.902  1.00  0.00    -0.240 A  
HETATM   16  F   UNL     1      -5.540  14.388  68.834  1.00  0.00    -0.082 F  
HETATM   17  F   UNL     1      -6.588  16.274  68.942  1.00  0.00    -0.124 F  
HETATM   18  C   UNL     1     -10.259  13.736  66.942  1.00  0.00    -0.261 A  
HETATM   19  F   UNL     1      -6.885  14.790  70.498  1.00  0.00    -0.167 F  
HETATM   20  C   UNL     1      -9.079  13.024  66.751  1.00  0.00    -0.212 A  
HETATM   21  C   UNL     1      -9.148  15.085  68.578  1.00  0.00    -0.188 A  
HETATM   22  C   UNL     1      -7.927  13.251  67.533  1.00  0.00    -0.186 A  
HETATM   23  C   UNL     1      -6.746  14.933  69.148  1.00  0.00    -0.126 C  
HETATM   24  C   UNL     1      -7.938  14.380  68.390  1.00  0.00    -0.141 A  
BRANCH  22  25
HETATM   25  C   UNL     1      -6.748  12.269  67.470  1.00  0.00    -0.138 C  
HETATM   26  C   UNL     1      -6.441  11.638  68.849  1.00  0.00    -0.071 C  
HETATM   27  C   UNL     1      -7.549  10.692  69.303  1.00  0.00    -0.138 C  
HETATM   28  C   UNL     1      -7.711   9.541  68.322  1.00  0.00    -0.086 C  
HETATM   29  C   UNL     1      -7.886  10.008  66.882  1.00  0.00    -0.106 C  
HETATM   30  C   UNL     1      -6.877  11.091  66.465  1.00  0.00    -0.132 C  
ENDBRANCH  22  25
ENDBRANCH  14  15
ENDBRANCH  13  14
ENDBRANCH  11  13
ENDBRANCH   9  11
ENDBRANCH   5   9
BRANCH   8  31
HETATM   31  C   UNL     1     -11.535   7.800  70.676  1.00  0.00    -0.245 C  
BRANCH  31  32
HETATM   32  N   UNL     1     -10.123   7.362  70.558  1.00  0.00    -0.191 NA 
HETATM   33  O   UNL     1      -7.103   6.842  70.447  1.00  0.00    -0.064 OA 
HETATM   34  O   UNL     1      -6.828   5.041  69.128  1.00  0.00    -0.051 OA 
HETATM   35  C   UNL     1      -9.956   5.937  70.951  1.00  0.00    -0.187 C  
HETATM   36  C   UNL     1      -7.593   5.807  69.708  1.00  0.00    -0.080 C  
HETATM   37  C   UNL     1      -9.883   6.960  69.138  1.00  0.00    -0.156 C  
HETATM   38  C   UNL     1      -9.133   5.721  69.662  1.00  0.00    -0.148 C  
ENDBRANCH  31  32
ENDBRANCH   8  31
ENDBRANCH   2   3
TORSDOF 9
ENDMDL
MODEL      141
REMARK 921   NORMALIZED FREE ENERGY PREDICTED BY IDOCK:   -6.13 KCAL/MOL
REMARK 922        TOTAL FREE ENERGY PREDICTED BY IDOCK:  -10.78 KCAL/MOL
REMARK 923 INTER-LIGAND FREE ENERGY PREDICTED BY IDOCK:   -9.45 KCAL/MOL
REMARK 924 INTRA-LIGAND FREE ENERGY PREDICTED BY IDOCK:   -1.33 KCAL/MOL
REMARK 927      BINDING AFFINITY PREDICTED BY RF-SCORE:    0.00 PKD
ROOT
HETATM    1  C   UNL     1      -9.247  10.230  63.094  1.00  0.00    -0.311 C  
HETATM    2  C   UNL     1      -9.141   9.665  64.501  1.00  0.00    -0.287 C  
ENDROOT
BRANCH   2   3
HETATM    3  C   UNL     1     -10.113  10.301  65.470  1.00  0.00    -0.351 A  
HETATM    4  C   UNL     1     -10.831  11.390  64.953  1.00  0.00    -0.323 A  
HETATM    5  C   UNL     1     -11.637  12.194  65.761  1.00  0.00    -0.414 A  
HETATM    6  C   UNL     1     -11.772  11.886  67.109  1.00  0.00    -0.311 A  
HETATM    7  C   UNL     1     -11.117  10.757  67.628  1.00  0.00    -0.384 A  
HETATM    8  C   UNL     1     -10.295   9.934  66.821  1.00  0.00    -0.285 A  
BRANCH   5   9
HETATM    9  C   UNL     1     -12.190  13.424  65.127  1.00  0.00    -0.434 C  
HETATM   10  C   UNL     1     -12.140  13.597  63.633  1.00  0.00    -0.397 C  
BRANCH   9  11
HETATM   11  N   UNL     1     -12.703  14.313  65.931  1.00  0.00    -0.431 NA 
HETATM   12  H   UNL     1     -13.705  14.463  66.052  1.00  0.00     0.000 HD 
BRANCH  11  13
HETATM   13  O   UNL     1     -11.719  15.034  66.605  1.00  0.00    -0.278 OA 
BRANCH  13  14
HETATM   14  C   UNL     1     -11.254  16.054  65.729  1.00  0.00     0.088 C  
BRANCH  14  15
HETATM   15  C   UNL     1     -10.154  16.787  66.433  1.00  0.00    -0.327 A  
HETATM   16  F   UNL     1      -6.716  16.660  69.895  1.00  0.00    -0.223 F  
HETATM   17  F   UNL     1      -8.504  15.453  70.018  1.00  0.00    -0.197 F  
HETATM   18  C   UNL     1      -9.934  18.135  66.187  1.00  0.00    -0.301 A  
HETATM   19  F   UNL     1      -6.943  14.920  68.607  1.00  0.00    -0.096 F  
HETATM   20  C   UNL     1      -8.880  18.793  66.813  1.00  0.00    -0.307 A  
HETATM   21  C   UNL     1      -9.378  16.147  67.400  1.00  0.00    -0.220 A  
HETATM   22  C   UNL     1      -7.983  18.128  67.675  1.00  0.00    -0.233 A  
HETATM   23  C   UNL     1      -7.615  15.986  69.128  1.00  0.00    -0.225 C  
HETATM   24  C   UNL     1      -8.310  16.802  68.054  1.00  0.00    -0.200 A  
BRANCH  22  25
HETATM   25  C   UNL     1      -6.690  18.825  68.127  1.00  0.00    -0.239 C  
HETATM   26  C   UNL     1      -5.445  18.273  67.393  1.00  0.00    -0.146 C  
HETATM   27  C   UNL     1      -5.443  18.645  65.913  1.00  0.00    -0.198 C  
HETATM   28  C   UNL     1      -5.421  20.156  65.736  1.00  0.00    -0.187 C  
HETATM   29  C   UNL     1      -6.520  20.861  66.522  1.00  0.00    -0.333 C  
HETATM   30  C   UNL     1      -6.644  20.370  67.974  1.00  0.00    -0.340 C  
ENDBRANCH  22  25
ENDBRANCH  14  15
ENDBRANCH  13  14
ENDBRANCH  11  13
ENDBRANCH   9  11
ENDBRANCH   5   9
BRANCH   8  31
HETATM   31  C   UNL     1      -9.536   8.775  67.454  1.00  0.00    -0.161 C  
BRANCH  31  32
HETATM   32  N   UNL     1      -9.572   8.705  68.935  1.00  0.00    -0.157 NA 
HETATM   33  O   UNL     1     -10.023   8.741  71.968  1.00  0.00    -0.310 OA 
HETATM   34  O   UNL     1      -7.995   8.480  72.905  1.00  0.00    -0.335 OA 
HETATM   35  C   UNL     1      -8.933   7.461  69.441  1.00  0.00    -0.139 C  
HETATM   36  C   UNL     1      -8.682   8.511  71.888  1.00  0.00    -0.203 C  
HETATM   37  C   UNL     1      -8.403   9.476  69.461  1.00  0.00    -0.145 C  
HETATM   38  C   UNL     1      -8.146   8.325  70.452  1.00  0.00    -0.108 C  
ENDBRANCH  31  32
ENDBRANCH   8  31
ENDBRANCH   2   3
TORSDOF 9
ENDMDL
MODEL      142
REMARK 921   NORMALIZED FREE ENERGY PREDICTED BY IDOCK:   -6.12 KCAL/MOL
REMARK 922        TOTAL FREE ENERGY PREDICTED BY IDOCK:  -10.76 KCAL/MOL
REMARK 923 INTER-LIGAND FREE ENERGY PREDICTED BY IDOCK:   -7.91 KCAL/MOL
REMARK 924 INTRA-LIGAND FREE ENERGY PREDICTED BY IDOCK:   -2.86 KCAL/MOL
REMARK 927      BINDING AFFINITY PREDICTED BY RF-SCORE:    0.00 PKD
ROOT
HETATM    1  C   UNL     1      -5.792   6.413  69.561  1.00  0.00    -0.018 C  
HETATM    2  C   UNL     1      -7.199   6.220  70.102  1.00  0.00    -0.080 C  
ENDROOT
BRANCH   2   3
HETATM    3  C   UNL     1      -8.179   5.753  69.049  1.00  0.00    -0.101 A  
HETATM    4  C   UNL     1      -7.665   5.710  67.744  1.00  0.00    -0.096 A  
HETATM    5  C   UNL     1      -8.480   5.469  66.636  1.00  0.00    -0.112 A  
HETATM    6  C   UNL     1      -9.833   5.221  66.828  1.00  0.00    -0.195 A  
HETATM    7  C   UNL     1     -10.351   5.190  68.133  1.00  0.00    -0.140 A  
HETATM    8  C   UNL     1      -9.538   5.434  69.265  1.00  0.00    -0.198 A  
BRANCH   5   9
HETATM    9  C   UNL     1      -7.843   5.638  65.300  1.00  0.00    -0.100 C  
HETATM   10  C   UNL     1      -6.684   4.768  64.894  1.00  0.00    -0.045 C  
BRANCH   9  11
HETATM   11  N   UNL     1      -8.345   6.562  64.529  1.00  0.00    -0.330 NA 
HETATM   12  H   UNL     1      -9.065   6.393  63.827  1.00  0.00     0.000 HD 
BRANCH  11  13
HETATM   13  O   UNL     1      -7.778   7.812  64.780  1.00  0.00    -0.103 OA 
BRANCH  13  14
HETATM   14  C   UNL     1      -8.437   8.759  63.948  1.00  0.00    -0.098 C  
BRANCH  14  15
HETATM   15  C   UNL     1      -9.295   9.614  64.828  1.00  0.00    -0.286 A  
HETATM   16  F   UNL     1     -11.361  10.187  69.213  1.00  0.00    -0.237 F  
HETATM   17  F   UNL     1     -10.907   8.232  68.413  1.00  0.00    -0.204 F  
HETATM   18  C   UNL     1      -9.954  10.721  64.313  1.00  0.00    -0.403 A  
HETATM   19  F   UNL     1      -9.298   9.499  69.131  1.00  0.00    -0.144 F  
HETATM   20  C   UNL     1     -10.711  11.532  65.152  1.00  0.00    -0.348 A  
HETATM   21  C   UNL     1      -9.506   9.271  66.165  1.00  0.00    -0.298 A  
HETATM   22  C   UNL     1     -10.811  11.297  66.539  1.00  0.00    -0.319 A  
HETATM   23  C   UNL     1     -10.467   9.526  68.430  1.00  0.00    -0.224 C  
HETATM   24  C   UNL     1     -10.280  10.078  67.029  1.00  0.00    -0.295 A  
BRANCH  22  25
HETATM   25  C   UNL     1     -11.431  12.361  67.457  1.00  0.00    -0.410 C  
HETATM   26  C   UNL     1     -10.365  13.077  68.321  1.00  0.00    -0.256 C  
HETATM   27  C   UNL     1      -9.447  13.957  67.479  1.00  0.00    -0.216 C  
HETATM   28  C   UNL     1     -10.240  15.046  66.773  1.00  0.00    -0.260 C  
HETATM   29  C   UNL     1     -11.423  14.500  65.982  1.00  0.00    -0.348 C  
HETATM   30  C   UNL     1     -12.262  13.477  66.766  1.00  0.00    -0.392 C  
ENDBRANCH  22  25
ENDBRANCH  14  15
ENDBRANCH  13  14
ENDBRANCH  11  13
ENDBRANCH   9  11
ENDBRANCH   5   9
BRANCH   8  31
HETATM   31  C   UNL     1     -10.168   5.478  70.651  1.00  0.00    -0.240 C  
BRANCH  31  32
HETATM   32  N   UNL     1     -11.201   6.521  70.864  1.00  0.00    -0.293 NA 
HETATM   33  O   UNL     1     -13.341   8.717  70.885  1.00  0.00     0.012 OA 
HETATM   34  O   UNL     1     -13.359   9.552  72.974  1.00  0.00    -0.018 OA 
HETATM   35  C   UNL     1     -12.102   6.178  71.995  1.00  0.00    -0.198 C  
HETATM   36  C   UNL     1     -12.931   8.713  72.185  1.00  0.00    -0.387 C  
HETATM   37  C   UNL     1     -10.601   7.595  71.714  1.00  0.00    -0.214 C  
HETATM   38  C   UNL     1     -11.905   7.613  72.533  1.00  0.00    -0.312 C  
ENDBRANCH  31  32
ENDBRANCH   8  31
ENDBRANCH   2   3
TORSDOF 9
ENDMDL
MODEL      143
REMARK 921   NORMALIZED FREE ENERGY PREDICTED BY IDOCK:   -6.09 KCAL/MOL
REMARK 922        TOTAL FREE ENERGY PREDICTED BY IDOCK:  -10.73 KCAL/MOL
REMARK 923 INTER-LIGAND FREE ENERGY PREDICTED BY IDOCK:   -9.33 KCAL/MOL
REMARK 924 INTRA-LIGAND FREE ENERGY PREDICTED BY IDOCK:   -1.40 KCAL/MOL
REMARK 927      BINDING AFFINITY PREDICTED BY RF-SCORE:    0.00 PKD
ROOT
HETATM    1  C   UNL     1      -9.949   9.579  67.375  1.00  0.00    -0.241 C  
HETATM    2  C   UNL     1      -9.519  10.155  68.715  1.00  0.00    -0.171 C  
ENDROOT
BRANCH   2   3
HETATM    3  C   UNL     1     -10.684  10.476  69.623  1.00  0.00    -0.302 A  
HETATM    4  C   UNL     1     -11.049   9.443  70.499  1.00  0.00    -0.330 A  
HETATM    5  C   UNL     1     -12.206   9.510  71.279  1.00  0.00    -0.433 A  
HETATM    6  C   UNL     1     -13.000  10.649  71.223  1.00  0.00    -0.513 A  
HETATM    7  C   UNL     1     -12.610  11.722  70.404  1.00  0.00    -0.186 A  
HETATM    8  C   UNL     1     -11.442  11.667  69.608  1.00  0.00    -0.359 A  
BRANCH   5   9
HETATM    9  C   UNL     1     -12.575   8.271  72.020  1.00  0.00    -0.349 C  
HETATM   10  C   UNL     1     -13.511   7.267  71.403  1.00  0.00    -0.400 C  
BRANCH   9  11
HETATM   11  N   UNL     1     -12.048   8.122  73.203  1.00  0.00    -0.530 NA 
HETATM   12  H   UNL     1     -12.536   8.322  74.076  1.00  0.00     0.000 HD 
BRANCH  11  13
HETATM   13  O   UNL     1     -10.736   7.654  73.132  1.00  0.00    -0.365 OA 
BRANCH  13  14
HETATM   14  C   UNL     1     -10.765   6.251  73.370  1.00  0.00    -0.259 C  
BRANCH  14  15
HETATM   15  C   UNL     1      -9.761   5.617  72.457  1.00  0.00    -0.171 A  
HETATM   16  F   UNL     1      -8.356   4.809  67.853  1.00  0.00    -0.101 F  
HETATM   17  F   UNL     1     -10.427   5.145  68.371  1.00  0.00    -0.233 F  
HETATM   18  C   UNL     1      -8.780   4.776  72.962  1.00  0.00    -0.113 A  
HETATM   19  F   UNL     1      -9.033   6.808  68.385  1.00  0.00    -0.125 F  
HETATM   20  C   UNL     1      -7.826   4.230  72.109  1.00  0.00    -0.082 A  
HETATM   21  C   UNL     1      -9.837   5.805  71.076  1.00  0.00    -0.227 A  
HETATM   22  C   UNL     1      -7.786   4.531  70.731  1.00  0.00    -0.064 A  
HETATM   23  C   UNL     1      -9.152   5.491  68.720  1.00  0.00    -0.118 C  
HETATM   24  C   UNL     1      -8.882   5.251  70.193  1.00  0.00    -0.144 A  
BRANCH  22  25
HETATM   25  C   UNL     1      -6.568   4.123  69.889  1.00  0.00    -0.033 C  
HETATM   26  C   UNL     1      -5.258   4.146  70.713  1.00  0.00     0.000 C  
HETATM   27  C   UNL     1      -5.230   3.046  71.770  1.00  0.00     0.000 C  
HETATM   28  C   UNL     1      -5.315   1.672  71.122  1.00  0.00    -0.004 C  
HETATM   29  C   UNL     1      -6.492   1.541  70.163  1.00  0.00    -0.025 C  
HETATM   30  C   UNL     1      -6.632   2.732  69.201  1.00  0.00    -0.033 C  
ENDBRANCH  22  25
ENDBRANCH  14  15
ENDBRANCH  13  14
ENDBRANCH  11  13
ENDBRANCH   9  11
ENDBRANCH   5   9
BRANCH   8  31
HETATM   31  C   UNL     1     -11.115  12.822  68.670  1.00  0.00    -0.266 C  
BRANCH  31  32
HETATM   32  N   UNL     1     -11.799  12.806  67.354  1.00  0.00    -0.364 NA 
HETATM   33  O   UNL     1     -13.392  12.416  64.763  1.00  0.00    -0.718 OA 
HETATM   34  O   UNL     1     -12.386  13.697  63.212  1.00  0.00    -0.743 OA 
HETATM   35  C   UNL     1     -12.156  14.178  66.904  1.00  0.00    -0.432 C  
HETATM   36  C   UNL     1     -12.463  13.338  64.383  1.00  0.00    -0.290 C  
HETATM   37  C   UNL     1     -10.747  12.771  66.290  1.00  0.00    -0.270 C  
HETATM   38  C   UNL     1     -11.550  13.838  65.524  1.00  0.00    -0.335 C  
ENDBRANCH  31  32
ENDBRANCH   8  31
ENDBRANCH   2   3
TORSDOF 9
ENDMDL
MODEL      144
REMARK 921   NORMALIZED FREE ENERGY PREDICTED BY IDOCK:   -6.08 KCAL/MOL
REMARK 922        TOTAL FREE ENERGY PREDICTED BY IDOCK:  -10.71 KCAL/MOL
REMARK 923 INTER-LIGAND FREE ENERGY PREDICTED BY IDOCK:   -9.63 KCAL/MOL
REMARK 924 INTRA-LIGAND FREE ENERGY PREDICTED BY IDOCK:   -1.07 KCAL/MOL
REMARK 927      BINDING AFFINITY PREDICTED BY RF-SCORE:    0.00 PKD
ROOT
HETATM    1  C   UNL     1     -12.263  13.056  63.468  1.00  0.00    -0.580 C  
HETATM    2  C   UNL     1     -12.393  12.799  64.960  1.00  0.00    -0.559 C  
ENDROOT
BRANCH   2   3
HETATM    3  C   UNL     1     -11.070  12.504  65.628  1.00  0.00    -0.338 A  
HETATM    4  C   UNL     1     -10.604  11.192  65.456  1.00  0.00    -0.289 A  
HETATM    5  C   UNL     1      -9.491  10.706  66.147  1.00  0.00    -0.218 A  
HETATM    6  C   UNL     1      -8.794  11.555  66.997  1.00  0.00    -0.173 A  
HETATM    7  C   UNL     1      -9.204  12.893  67.126  1.00  0.00    -0.225 A  
HETATM    8  C   UNL     1     -10.330  13.397  66.434  1.00  0.00    -0.288 A  
BRANCH   5   9
HETATM    9  C   UNL     1      -9.219   9.247  66.017  1.00  0.00    -0.206 C  
HETATM   10  C   UNL     1      -7.859   8.761  65.592  1.00  0.00    -0.097 C  
BRANCH   9  11
HETATM   11  N   UNL     1     -10.210   8.444  66.289  1.00  0.00    -0.424 NA 
HETATM   12  H   UNL     1     -10.670   7.850  65.599  1.00  0.00     0.000 HD 
BRANCH  11  13
HETATM   13  O   UNL     1     -10.565   8.495  67.637  1.00  0.00    -0.245 OA 
BRANCH  13  14
HETATM   14  C   UNL     1     -10.490   7.171  68.153  1.00  0.00    -0.200 C  
BRANCH  14  15
HETATM   15  C   UNL     1     -10.086   7.270  69.592  1.00  0.00    -0.195 A  
HETATM   16  F   UNL     1     -10.857   5.757  74.168  1.00  0.00    -0.266 F  
HETATM   17  F   UNL     1     -12.431   5.760  72.688  1.00  0.00    -0.274 F  
HETATM   18  C   UNL     1      -9.169   8.226  70.004  1.00  0.00    -0.151 A  
HETATM   19  F   UNL     1     -10.858   4.269  72.580  1.00  0.00    -0.240 F  
HETATM   20  C   UNL     1      -8.769   8.276  71.336  1.00  0.00    -0.197 A  
HETATM   21  C   UNL     1     -10.678   6.450  70.554  1.00  0.00    -0.311 A  
HETATM   22  C   UNL     1      -9.234   7.355  72.298  1.00  0.00    -0.162 A  
HETATM   23  C   UNL     1     -11.083   5.589  72.837  1.00  0.00    -0.299 C  
HETATM   24  C   UNL     1     -10.292   6.494  71.913  1.00  0.00    -0.223 A  
BRANCH  22  25
HETATM   25  C   UNL     1      -8.567   7.283  73.680  1.00  0.00    -0.193 C  
HETATM   26  C   UNL     1      -7.680   6.024  73.832  1.00  0.00    -0.094 C  
HETATM   27  C   UNL     1      -6.441   6.088  72.943  1.00  0.00    -0.064 C  
HETATM   28  C   UNL     1      -5.573   7.282  73.312  1.00  0.00    -0.045 C  
HETATM   29  C   UNL     1      -6.349   8.593  73.340  1.00  0.00    -0.081 C  
HETATM   30  C   UNL     1      -7.687   8.495  74.091  1.00  0.00    -0.155 C  
ENDBRANCH  22  25
ENDBRANCH  14  15
ENDBRANCH  13  14
ENDBRANCH  11  13
ENDBRANCH   9  11
ENDBRANCH   5   9
BRANCH   8  31
HETATM   31  C   UNL     1     -10.785  14.830  66.680  1.00  0.00    -0.309 C  
BRANCH  31  32
HETATM   32  N   UNL     1     -11.468  15.084  67.972  1.00  0.00    -0.333 NA 
HETATM   33  O   UNL     1     -13.236  15.612  70.421  1.00  0.00    -0.361 OA 
HETATM   34  O   UNL     1     -11.867  16.405  72.020  1.00  0.00    -0.511 OA 
HETATM   35  C   UNL     1     -10.818  14.350  69.090  1.00  0.00    -0.257 C  
HETATM   36  C   UNL     1     -11.998  15.929  70.896  1.00  0.00    -0.394 C  
HETATM   37  C   UNL     1     -10.922  16.356  68.539  1.00  0.00    -0.350 C  
HETATM   38  C   UNL     1     -10.842  15.659  69.909  1.00  0.00    -0.324 C  
ENDBRANCH  31  32
ENDBRANCH   8  31
ENDBRANCH   2   3
TORSDOF 9
ENDMDL
MODEL      145
REMARK 921   NORMALIZED FREE ENERGY PREDICTED BY IDOCK:   -6.06 KCAL/MOL
REMARK 922        TOTAL FREE ENERGY PREDICTED BY IDOCK:  -10.68 KCAL/MOL
REMARK 923 INTER-LIGAND FREE ENERGY PREDICTED BY IDOCK:   -8.75 KCAL/MOL
REMARK 924 INTRA-LIGAND FREE ENERGY PREDICTED BY IDOCK:   -1.92 KCAL/MOL
REMARK 927      BINDING AFFINITY PREDICTED BY RF-SCORE:    0.00 PKD
ROOT
HETATM    1  C   UNL     1      -7.677  10.626  68.080  1.00  0.00    -0.101 C  
HETATM    2  C   UNL     1      -9.079  10.647  67.494  1.00  0.00    -0.144 C  
ENDROOT
BRANCH   2   3
HETATM    3  C   UNL     1     -10.057  11.444  68.328  1.00  0.00    -0.204 A  
HETATM    4  C   UNL     1     -10.709  10.710  69.331  1.00  0.00    -0.281 A  
HETATM    5  C   UNL     1     -11.764  11.247  70.073  1.00  0.00    -0.428 A  
HETATM    6  C   UNL     1     -12.155  12.561  69.847  1.00  0.00    -0.322 A  
HETATM    7  C   UNL     1     -11.466  13.332  68.896  1.00  0.00    -0.342 A  
HETATM    8  C   UNL     1     -10.397  12.801  68.136  1.00  0.00    -0.243 A  
BRANCH   5   9
HETATM    9  C   UNL     1     -12.488  10.303  70.969  1.00  0.00    -0.384 C  
HETATM   10  C   UNL     1     -13.397  10.826  72.049  1.00  0.00    -0.403 C  
BRANCH   9  11
HETATM   11  N   UNL     1     -12.288   9.032  70.760  1.00  0.00    -0.490 NA 
HETATM   12  H   UNL     1     -12.362   8.585  69.846  1.00  0.00     0.000 HD 
BRANCH  11  13
HETATM   13  O   UNL     1     -11.959   8.358  71.935  1.00  0.00    -0.295 OA 
BRANCH  13  14
HETATM   14  C   UNL     1     -10.564   8.533  72.157  1.00  0.00    -0.349 C  
BRANCH  14  15
HETATM   15  C   UNL     1      -9.845   7.492  71.356  1.00  0.00    -0.191 A  
HETATM   16  F   UNL     1      -8.332   2.859  71.089  1.00  0.00    -0.059 F  
HETATM   17  F   UNL     1      -8.622   3.856  72.984  1.00  0.00    -0.091 F  
HETATM   18  C   UNL     1      -9.168   7.838  70.196  1.00  0.00    -0.153 A  
HETATM   19  F   UNL     1     -10.347   3.242  71.818  1.00  0.00    -0.218 F  
HETATM   20  C   UNL     1      -8.543   6.853  69.437  1.00  0.00    -0.133 A  
HETATM   21  C   UNL     1      -9.783   6.170  71.800  1.00  0.00    -0.171 A  
HETATM   22  C   UNL     1      -8.600   5.486  69.780  1.00  0.00    -0.112 A  
HETATM   23  C   UNL     1      -9.104   3.793  71.706  1.00  0.00    -0.111 C  
HETATM   24  C   UNL     1      -9.143   5.159  71.048  1.00  0.00    -0.178 A  
BRANCH  22  25
HETATM   25  C   UNL     1      -8.128   4.421  68.779  1.00  0.00    -0.077 C  
HETATM   26  C   UNL     1      -9.314   3.714  68.081  1.00  0.00    -0.236 C  
HETATM   27  C   UNL     1     -10.062   4.651  67.137  1.00  0.00    -0.187 C  
HETATM   28  C   UNL     1      -9.141   5.153  66.035  1.00  0.00    -0.149 C  
HETATM   29  C   UNL     1      -7.850   5.760  66.570  1.00  0.00    -0.101 C  
HETATM   30  C   UNL     1      -7.174   4.900  67.651  1.00  0.00    -0.070 C  
ENDBRANCH  22  25
ENDBRANCH  14  15
ENDBRANCH  13  14
ENDBRANCH  11  13
ENDBRANCH   9  11
ENDBRANCH   5   9
BRANCH   8  31
HETATM   31  C   UNL     1      -9.744  13.653  67.055  1.00  0.00    -0.251 C  
BRANCH  31  32
HETATM   32  N   UNL     1      -9.996  15.112  67.136  1.00  0.00    -0.235 NA 
HETATM   33  O   UNL     1     -10.797  18.035  67.600  1.00  0.00    -0.390 OA 
HETATM   34  O   UNL     1     -10.106  19.168  65.783  1.00  0.00    -0.479 OA 
HETATM   35  C   UNL     1      -8.746  15.896  66.946  1.00  0.00    -0.241 C  
HETATM   36  C   UNL     1     -10.142  18.111  66.406  1.00  0.00    -0.389 C  
HETATM   37  C   UNL     1     -10.448  15.576  65.787  1.00  0.00    -0.361 C  
HETATM   38  C   UNL     1      -9.506  16.785  65.937  1.00  0.00    -0.185 C  
ENDBRANCH  31  32
ENDBRANCH   8  31
ENDBRANCH   2   3
TORSDOF 9
ENDMDL
MODEL      146
REMARK 921   NORMALIZED FREE ENERGY PREDICTED BY IDOCK:   -6.05 KCAL/MOL
REMARK 922        TOTAL FREE ENERGY PREDICTED BY IDOCK:  -10.66 KCAL/MOL
REMARK 923 INTER-LIGAND FREE ENERGY PREDICTED BY IDOCK:   -9.37 KCAL/MOL
REMARK 924 INTRA-LIGAND FREE ENERGY PREDICTED BY IDOCK:   -1.29 KCAL/MOL
REMARK 927      BINDING AFFINITY PREDICTED BY RF-SCORE:    0.00 PKD
ROOT
HETATM    1  C   UNL     1      -8.096   6.291  64.611  1.00  0.00    -0.115 C  
HETATM    2  C   UNL     1      -7.850   6.977  65.945  1.00  0.00    -0.106 C  
ENDROOT
BRANCH   2   3
HETATM    3  C   UNL     1      -8.954   7.936  66.330  1.00  0.00    -0.207 A  
HETATM    4  C   UNL     1      -9.069   9.063  65.502  1.00  0.00    -0.271 A  
HETATM    5  C   UNL     1      -9.916  10.128  65.816  1.00  0.00    -0.339 A  
HETATM    6  C   UNL     1     -10.705  10.056  66.957  1.00  0.00    -0.248 A  
HETATM    7  C   UNL     1     -10.654   8.904  67.760  1.00  0.00    -0.266 A  
HETATM    8  C   UNL     1      -9.799   7.819  67.455  1.00  0.00    -0.230 A  
BRANCH   5   9
HETATM    9  C   UNL     1      -9.802  11.339  64.955  1.00  0.00    -0.261 C  
HETATM   10  C   UNL     1     -10.157  11.270  63.494  1.00  0.00    -0.443 C  
BRANCH   9  11
HETATM   11  N   UNL     1      -9.385  12.428  65.537  1.00  0.00    -0.439 NA 
HETATM   12  H   UNL     1      -8.447  12.550  65.919  1.00  0.00     0.000 HD 
BRANCH  11  13
HETATM   13  O   UNL     1     -10.376  13.409  65.574  1.00  0.00    -0.283 OA 
BRANCH  13  14
HETATM   14  C   UNL     1     -10.792  13.551  66.927  1.00  0.00    -0.282 C  
BRANCH  14  15
HETATM   15  C   UNL     1     -10.193  14.818  67.454  1.00  0.00    -0.236 A  
HETATM   16  F   UNL     1      -6.545  16.887  69.951  1.00  0.00    -0.231 F  
HETATM   17  F   UNL     1      -7.158  14.846  70.309  1.00  0.00    -0.182 F  
HETATM   18  C   UNL     1     -10.887  16.016  67.368  1.00  0.00    -0.277 A  
HETATM   19  F   UNL     1      -6.051  15.335  68.507  1.00  0.00    -0.085 F  
HETATM   20  C   UNL     1     -10.299  17.194  67.821  1.00  0.00    -0.347 A  
HETATM   21  C   UNL     1      -8.958  14.804  68.105  1.00  0.00    -0.179 A  
HETATM   22  C   UNL     1      -8.987  17.231  68.338  1.00  0.00    -0.269 A  
HETATM   23  C   UNL     1      -7.044  15.788  69.325  1.00  0.00    -0.199 C  
HETATM   24  C   UNL     1      -8.350  15.988  68.579  1.00  0.00    -0.191 A  
BRANCH  22  25
HETATM   25  C   UNL     1      -8.290  18.580  68.572  1.00  0.00    -0.359 C  
HETATM   26  C   UNL     1      -7.085  18.784  67.623  1.00  0.00    -0.223 C  
HETATM   27  C   UNL     1      -7.524  18.962  66.173  1.00  0.00    -0.292 C  
HETATM   28  C   UNL     1      -8.411  20.189  66.024  1.00  0.00    -0.177 C  
HETATM   29  C   UNL     1      -9.580  20.198  67.002  1.00  0.00    -0.558 C  
HETATM   30  C   UNL     1      -9.174  19.851  68.443  1.00  0.00    -0.310 C  
ENDBRANCH  22  25
ENDBRANCH  14  15
ENDBRANCH  13  14
ENDBRANCH  11  13
ENDBRANCH   9  11
ENDBRANCH   5   9
BRANCH   8  31
HETATM   31  C   UNL     1      -9.718   6.634  68.408  1.00  0.00    -0.126 C  
BRANCH  31  32
HETATM   32  N   UNL     1     -10.334   6.827  69.743  1.00  0.00    -0.194 NA 
HETATM   33  O   UNL     1     -11.800   7.561  72.334  1.00  0.00    -0.298 OA 
HETATM   34  O   UNL     1     -10.704   6.508  73.992  1.00  0.00    -0.247 OA 
HETATM   35  C   UNL     1     -10.655   5.529  70.393  1.00  0.00    -0.280 C  
HETATM   36  C   UNL     1     -10.844   6.703  72.787  1.00  0.00    -0.251 C  
HETATM   37  C   UNL     1      -9.232   7.011  70.737  1.00  0.00    -0.157 C  
HETATM   38  C   UNL     1      -9.984   6.055  71.681  1.00  0.00    -0.211 C  
ENDBRANCH  31  32
ENDBRANCH   8  31
ENDBRANCH   2   3
TORSDOF 9
ENDMDL
MODEL      147
REMARK 921   NORMALIZED FREE ENERGY PREDICTED BY IDOCK:   -6.04 KCAL/MOL
REMARK 922        TOTAL FREE ENERGY PREDICTED BY IDOCK:  -10.64 KCAL/MOL
REMARK 923 INTER-LIGAND FREE ENERGY PREDICTED BY IDOCK:   -7.59 KCAL/MOL
REMARK 924 INTRA-LIGAND FREE ENERGY PREDICTED BY IDOCK:   -3.05 KCAL/MOL
REMARK 927      BINDING AFFINITY PREDICTED BY RF-SCORE:    0.00 PKD
ROOT
HETATM    1  C   UNL     1      -7.072  10.206  65.146  1.00  0.00    -0.137 C  
HETATM    2  C   UNL     1      -8.182  10.862  65.950  1.00  0.00    -0.133 C  
ENDROOT
BRANCH   2   3
HETATM    3  C   UNL     1      -7.689  11.496  67.232  1.00  0.00    -0.150 A  
HETATM    4  C   UNL     1      -7.930  12.874  67.338  1.00  0.00    -0.178 A  
HETATM    5  C   UNL     1      -7.390  13.642  68.372  1.00  0.00    -0.118 A  
HETATM    6  C   UNL     1      -6.627  13.022  69.352  1.00  0.00    -0.063 A  
HETATM    7  C   UNL     1      -6.435  11.631  69.301  1.00  0.00    -0.105 A  
HETATM    8  C   UNL     1      -6.974  10.841  68.258  1.00  0.00    -0.069 A  
BRANCH   5   9
HETATM    9  C   UNL     1      -7.567  15.117  68.260  1.00  0.00    -0.109 C  
HETATM   10  C   UNL     1      -6.900  15.881  67.147  1.00  0.00    -0.199 C  
BRANCH   9  11
HETATM   11  N   UNL     1      -8.315  15.684  69.164  1.00  0.00    -0.234 NA 
HETATM   12  H   UNL     1      -8.378  15.370  70.133  1.00  0.00     0.000 HD 
BRANCH  11  13
HETATM   13  O   UNL     1      -9.021  16.770  68.649  1.00  0.00    -0.235 OA 
BRANCH  13  14
HETATM   14  C   UNL     1     -10.314  16.767  69.243  1.00  0.00    -0.309 C  
BRANCH  14  15
HETATM   15  C   UNL     1     -10.892  15.397  69.059  1.00  0.00    -0.244 A  
HETATM   16  F   UNL     1     -12.501  12.025  65.919  1.00  0.00    -0.238 F  
HETATM   17  F   UNL     1     -12.573  14.136  65.461  1.00  0.00    -0.433 F  
HETATM   18  C   UNL     1     -11.297  14.649  70.155  1.00  0.00    -0.273 A  
HETATM   19  F   UNL     1     -10.669  13.094  65.429  1.00  0.00    -0.277 F  
HETATM   20  C   UNL     1     -11.789  13.361  69.973  1.00  0.00    -0.364 A  
HETATM   21  C   UNL     1     -11.098  14.878  67.780  1.00  0.00    -0.313 A  
HETATM   22  C   UNL     1     -11.860  12.753  68.702  1.00  0.00    -0.341 A  
HETATM   23  C   UNL     1     -11.838  13.194  66.126  1.00  0.00    -0.401 C  
HETATM   24  C   UNL     1     -11.607  13.576  67.576  1.00  0.00    -0.385 A  
BRANCH  22  25
HETATM   25  C   UNL     1     -12.155  11.251  68.582  1.00  0.00    -0.211 C  
HETATM   26  C   UNL     1     -10.862  10.415  68.425  1.00  0.00    -0.289 C  
HETATM   27  C   UNL     1     -10.022  10.419  69.698  1.00  0.00    -0.209 C  
HETATM   28  C   UNL     1     -10.796   9.812  70.858  1.00  0.00    -0.399 C  
HETATM   29  C   UNL     1     -12.168  10.447  71.053  1.00  0.00    -0.498 C  
HETATM   30  C   UNL     1     -12.959  10.605  69.744  1.00  0.00     0.317 C  
ENDBRANCH  22  25
ENDBRANCH  14  15
ENDBRANCH  13  14
ENDBRANCH  11  13
ENDBRANCH   9  11
ENDBRANCH   5   9
BRANCH   8  31
HETATM   31  C   UNL     1      -6.659   9.352  68.202  1.00  0.00    -0.059 C  
BRANCH  31  32
HETATM   32  N   UNL     1      -7.809   8.435  68.395  1.00  0.00    -0.112 NA 
HETATM   33  O   UNL     1     -10.421   6.887  68.821  1.00  0.00    -0.187 OA 
HETATM   34  O   UNL     1      -9.822   4.818  69.471  1.00  0.00    -0.190 OA 
HETATM   35  C   UNL     1      -7.673   7.203  67.572  1.00  0.00    -0.111 C  
HETATM   36  C   UNL     1      -9.484   5.928  69.070  1.00  0.00    -0.127 C  
HETATM   37  C   UNL     1      -7.539   7.608  69.612  1.00  0.00    -0.093 C  
HETATM   38  C   UNL     1      -8.027   6.376  68.828  1.00  0.00    -0.110 C  
ENDBRANCH  31  32
ENDBRANCH   8  31
ENDBRANCH   2   3
TORSDOF 9
ENDMDL
MODEL      148
REMARK 921   NORMALIZED FREE ENERGY PREDICTED BY IDOCK:   -6.03 KCAL/MOL
REMARK 922        TOTAL FREE ENERGY PREDICTED BY IDOCK:  -10.64 KCAL/MOL
REMARK 923 INTER-LIGAND FREE ENERGY PREDICTED BY IDOCK:   -8.26 KCAL/MOL
REMARK 924 INTRA-LIGAND FREE ENERGY PREDICTED BY IDOCK:   -2.37 KCAL/MOL
REMARK 927      BINDING AFFINITY PREDICTED BY RF-SCORE:    0.00 PKD
ROOT
HETATM    1  C   UNL     1     -14.407   8.745  72.197  1.00  0.00    -0.481 C  
HETATM    2  C   UNL     1     -13.441   9.906  72.022  1.00  0.00    -0.478 C  
ENDROOT
BRANCH   2   3
HETATM    3  C   UNL     1     -12.314   9.599  71.063  1.00  0.00    -0.396 A  
HETATM    4  C   UNL     1     -11.953   8.244  70.993  1.00  0.00    -0.260 A  
HETATM    5  C   UNL     1     -10.824   7.815  70.292  1.00  0.00    -0.252 A  
HETATM    6  C   UNL     1     -10.056   8.746  69.604  1.00  0.00    -0.204 A  
HETATM    7  C   UNL     1     -10.443  10.096  69.605  1.00  0.00    -0.282 A  
HETATM    8  C   UNL     1     -11.583  10.545  70.312  1.00  0.00    -0.417 A  
BRANCH   5   9
HETATM    9  C   UNL     1     -10.450   6.382  70.456  1.00  0.00    -0.220 C  
HETATM   10  C   UNL     1     -10.320   5.783  71.831  1.00  0.00    -0.263 C  
BRANCH   9  11
HETATM   11  N   UNL     1     -10.250   5.704  69.361  1.00  0.00    -0.221 NA 
HETATM   12  H   UNL     1      -9.591   4.929  69.281  1.00  0.00     0.000 HD 
BRANCH  11  13
HETATM   13  O   UNL     1     -11.045   6.165  68.312  1.00  0.00    -0.333 OA 
BRANCH  13  14
HETATM   14  C   UNL     1     -10.366   5.874  67.096  1.00  0.00    -0.233 C  
BRANCH  14  15
HETATM   15  C   UNL     1      -9.384   6.978  66.852  1.00  0.00    -0.185 A  
HETATM   16  F   UNL     1      -8.326  11.031  64.346  1.00  0.00    -0.074 F  
HETATM   17  F   UNL     1      -9.617   9.496  63.541  1.00  0.00    -0.211 F  
HETATM   18  C   UNL     1      -8.128   6.949  67.442  1.00  0.00    -0.115 A  
HETATM   19  F   UNL     1     -10.348  10.797  65.117  1.00  0.00    -0.318 F  
HETATM   20  C   UNL     1      -7.243   8.004  67.243  1.00  0.00    -0.087 A  
HETATM   21  C   UNL     1      -9.687   8.018  65.972  1.00  0.00    -0.002 A  
HETATM   22  C   UNL     1      -7.585   9.143  66.485  1.00  0.00    -0.093 A  
HETATM   23  C   UNL     1      -9.249  10.100  64.710  1.00  0.00    -0.242 C  
HETATM   24  C   UNL     1      -8.796   9.092  65.750  1.00  0.00    -0.210 A  
BRANCH  22  25
HETATM   25  C   UNL     1      -6.685  10.387  66.515  1.00  0.00    -0.099 C  
HETATM   26  C   UNL     1      -7.298  11.528  67.363  1.00  0.00    -0.123 C  
HETATM   27  C   UNL     1      -7.323  11.183  68.849  1.00  0.00    -0.110 C  
HETATM   28  C   UNL     1      -5.914  10.955  69.375  1.00  0.00    -0.048 C  
HETATM   29  C   UNL     1      -5.128   9.946  68.548  1.00  0.00    -0.032 C  
HETATM   30  C   UNL     1      -5.234  10.184  67.032  1.00  0.00    -0.041 C  
ENDBRANCH  22  25
ENDBRANCH  14  15
ENDBRANCH  13  14
ENDBRANCH  11  13
ENDBRANCH   9  11
ENDBRANCH   5   9
BRANCH   8  31
HETATM   31  C   UNL     1     -11.906  12.033  70.354  1.00  0.00    -0.212 C  
BRANCH  31  32
HETATM   32  N   UNL     1     -11.237  12.874  69.331  1.00  0.00    -0.181 NA 
HETATM   33  O   UNL     1      -9.494  14.510  67.410  1.00  0.00    -0.195 OA 
HETATM   34  O   UNL     1     -10.879  15.963  66.395  1.00  0.00    -0.288 OA 
HETATM   35  C   UNL     1     -11.900  12.757  68.005  1.00  0.00    -0.336 C  
HETATM   36  C   UNL     1     -10.737  15.010  67.155  1.00  0.00    -0.303 C  
HETATM   37  C   UNL     1     -11.787  14.261  69.443  1.00  0.00    -0.326 C  
HETATM   38  C   UNL     1     -11.883  14.299  67.907  1.00  0.00    -0.393 C  
ENDBRANCH  31  32
ENDBRANCH   8  31
ENDBRANCH   2   3
TORSDOF 9
ENDMDL
MODEL      149
REMARK 921   NORMALIZED FREE ENERGY PREDICTED BY IDOCK:   -6.01 KCAL/MOL
REMARK 922        TOTAL FREE ENERGY PREDICTED BY IDOCK:  -10.59 KCAL/MOL
REMARK 923 INTER-LIGAND FREE ENERGY PREDICTED BY IDOCK:   -9.53 KCAL/MOL
REMARK 924 INTRA-LIGAND FREE ENERGY PREDICTED BY IDOCK:   -1.06 KCAL/MOL
REMARK 927      BINDING AFFINITY PREDICTED BY RF-SCORE:    0.00 PKD
ROOT
HETATM    1  C   UNL     1     -12.419  14.181  65.845  1.00  0.00    -0.479 C  
HETATM    2  C   UNL     1     -11.465  13.355  66.693  1.00  0.00    -0.376 C  
ENDROOT
BRANCH   2   3
HETATM    3  C   UNL     1     -11.171  13.984  68.036  1.00  0.00    -0.302 A  
HETATM    4  C   UNL     1     -12.150  13.762  69.017  1.00  0.00    -0.359 A  
HETATM    5  C   UNL     1     -12.119  14.412  70.252  1.00  0.00    -0.396 A  
HETATM    6  C   UNL     1     -11.068  15.273  70.542  1.00  0.00    -0.335 A  
HETATM    7  C   UNL     1     -10.042  15.452  69.599  1.00  0.00    -0.275 A  
HETATM    8  C   UNL     1     -10.061  14.801  68.343  1.00  0.00    -0.225 A  
BRANCH   5   9
HETATM    9  C   UNL     1     -13.314  14.232  71.123  1.00  0.00    -0.299 C  
HETATM   10  C   UNL     1     -14.406  15.268  71.142  1.00  0.00    -0.384 C  
BRANCH   9  11
HETATM   11  N   UNL     1     -13.349  13.147  71.846  1.00  0.00    -0.458 NA 
HETATM   12  H   UNL     1     -14.050  12.961  72.564  1.00  0.00     0.000 HD 
BRANCH  11  13
HETATM   13  O   UNL     1     -12.315  12.272  71.520  1.00  0.00    -0.104 OA 
BRANCH  13  14
HETATM   14  C   UNL     1     -12.902  11.069  71.037  1.00  0.00    -0.346 C  
BRANCH  14  15
HETATM   15  C   UNL     1     -11.792  10.180  70.567  1.00  0.00    -0.408 A  
HETATM   16  F   UNL     1      -8.758   9.002  66.930  1.00  0.00    -0.118 F  
HETATM   17  F   UNL     1     -10.689   9.898  66.559  1.00  0.00    -0.270 F  
HETATM   18  C   UNL     1     -11.378   9.102  71.336  1.00  0.00    -0.414 A  
HETATM   19  F   UNL     1      -9.078  11.112  67.359  1.00  0.00    -0.140 F  
HETATM   20  C   UNL     1     -10.315   8.311  70.908  1.00  0.00    -0.225 A  
HETATM   21  C   UNL     1     -11.204  10.378  69.317  1.00  0.00    -0.304 A  
HETATM   22  C   UNL     1      -9.601   8.587  69.724  1.00  0.00    -0.170 A  
HETATM   23  C   UNL     1      -9.656   9.880  67.453  1.00  0.00    -0.155 C  
HETATM   24  C   UNL     1     -10.131   9.579  68.862  1.00  0.00    -0.199 A  
BRANCH  22  25
HETATM   25  C   UNL     1      -8.281   7.856  69.434  1.00  0.00    -0.130 C  
HETATM   26  C   UNL     1      -7.051   8.670  69.903  1.00  0.00    -0.050 C  
HETATM   27  C   UNL     1      -6.974   8.762  71.424  1.00  0.00    -0.093 C  
HETATM   28  C   UNL     1      -6.845   7.379  72.043  1.00  0.00    -0.062 C  
HETATM   29  C   UNL     1      -7.920   6.411  71.563  1.00  0.00    -0.105 C  
HETATM   30  C   UNL     1      -8.126   6.434  70.039  1.00  0.00    -0.121 C  
ENDBRANCH  22  25
ENDBRANCH  14  15
ENDBRANCH  13  14
ENDBRANCH  11  13
ENDBRANCH   9  11
ENDBRANCH   5   9
BRANCH   8  31
HETATM   31  C   UNL     1      -8.971  15.101  67.323  1.00  0.00    -0.199 C  
BRANCH  31  32
HETATM   32  N   UNL     1      -8.980  16.466  66.742  1.00  0.00    -0.218 NA 
HETATM   33  O   UNL     1      -8.589  19.228  65.469  1.00  0.00    -0.211 OA 
HETATM   34  O   UNL     1     -10.346  20.472  66.123  1.00  0.00    -0.223 OA 
HETATM   35  C   UNL     1     -10.246  16.744  66.014  1.00  0.00    -0.346 C  
HETATM   36  C   UNL     1      -9.789  19.378  66.098  1.00  0.00    -0.390 C  
HETATM   37  C   UNL     1      -9.427  17.417  67.808  1.00  0.00    -0.261 C  
HETATM   38  C   UNL     1     -10.332  18.094  66.762  1.00  0.00    -0.376 C  
ENDBRANCH  31  32
ENDBRANCH   8  31
ENDBRANCH   2   3
TORSDOF 9
ENDMDL
MODEL      150
REMARK 921   NORMALIZED FREE ENERGY PREDICTED BY IDOCK:   -6.00 KCAL/MOL
REMARK 922        TOTAL FREE ENERGY PREDICTED BY IDOCK:  -10.59 KCAL/MOL
REMARK 923 INTER-LIGAND FREE ENERGY PREDICTED BY IDOCK:   -7.70 KCAL/MOL
REMARK 924 INTRA-LIGAND FREE ENERGY PREDICTED BY IDOCK:   -2.89 KCAL/MOL
REMARK 927      BINDING AFFINITY PREDICTED BY RF-SCORE:    0.00 PKD
ROOT
HETATM    1  C   UNL     1      -6.656   7.959  71.201  1.00  0.00    -0.038 C  
HETATM    2  C   UNL     1      -6.667   7.125  69.931  1.00  0.00    -0.048 C  
ENDROOT
BRANCH   2   3
HETATM    3  C   UNL     1      -8.020   6.521  69.630  1.00  0.00    -0.120 A  
HETATM    4  C   UNL     1      -8.976   6.685  70.643  1.00  0.00    -0.151 A  
HETATM    5  C   UNL     1     -10.215   6.043  70.601  1.00  0.00    -0.260 A  
HETATM    6  C   UNL     1     -10.535   5.252  69.505  1.00  0.00    -0.304 A  
HETATM    7  C   UNL     1      -9.617   5.134  68.448  1.00  0.00    -0.185 A  
HETATM    8  C   UNL     1      -8.357   5.778  68.478  1.00  0.00    -0.107 A  
BRANCH   5   9
HETATM    9  C   UNL     1     -11.057   6.151  71.826  1.00  0.00    -0.274 C  
HETATM   10  C   UNL     1     -10.653   5.443  73.091  1.00  0.00    -0.278 C  
BRANCH   9  11
HETATM   11  N   UNL     1     -12.134   6.879  71.729  1.00  0.00    -0.330 NA 
HETATM   12  H   UNL     1     -12.963   6.752  72.309  1.00  0.00     0.000 HD 
BRANCH  11  13
HETATM   13  O   UNL     1     -12.017   7.852  70.737  1.00  0.00    -0.247 OA 
BRANCH  13  14
HETATM   14  C   UNL     1     -11.979   9.121  71.380  1.00  0.00    -0.339 C  
BRANCH  14  15
HETATM   15  C   UNL     1     -11.409  10.105  70.405  1.00  0.00    -0.401 A  
HETATM   16  F   UNL     1      -7.429  11.751  68.111  1.00  0.00    -0.078 F  
HETATM   17  F   UNL     1      -7.315  10.790  70.043  1.00  0.00    -0.154 F  
HETATM   18  C   UNL     1     -12.192  11.133  69.901  1.00  0.00    -0.385 A  
HETATM   19  F   UNL     1      -7.706   9.598  68.271  1.00  0.00    -0.080 F  
HETATM   20  C   UNL     1     -11.663  12.013  68.962  1.00  0.00    -0.382 A  
HETATM   21  C   UNL     1     -10.063  10.047  70.042  1.00  0.00    -0.289 A  
HETATM   22  C   UNL     1     -10.352  11.879  68.459  1.00  0.00    -0.228 A  
HETATM   23  C   UNL     1      -8.014  10.785  68.868  1.00  0.00    -0.143 C  
HETATM   24  C   UNL     1      -9.506  10.938  69.096  1.00  0.00    -0.107 A  
BRANCH  22  25
HETATM   25  C   UNL     1      -9.909  12.701  67.239  1.00  0.00    -0.206 C  
HETATM   26  C   UNL     1      -9.785  11.831  65.965  1.00  0.00    -0.254 C  
HETATM   27  C   UNL     1     -11.144  11.342  65.474  1.00  0.00    -0.203 C  
HETATM   28  C   UNL     1     -12.043  12.516  65.117  1.00  0.00    -0.503 C  
HETATM   29  C   UNL     1     -12.154  13.542  66.238  1.00  0.00    -0.476 C  
HETATM   30  C   UNL     1     -10.798  13.917  66.859  1.00  0.00    -0.286 C  
ENDBRANCH  22  25
ENDBRANCH  14  15
ENDBRANCH  13  14
ENDBRANCH  11  13
ENDBRANCH   9  11
ENDBRANCH   5   9
BRANCH   8  31
HETATM   31  C   UNL     1      -7.364   5.543  67.347  1.00  0.00    -0.076 C  
BRANCH  31  32
HETATM   32  N   UNL     1      -7.624   6.282  66.088  1.00  0.00    -0.088 NA 
HETATM   33  O   UNL     1      -8.097   7.445  63.290  1.00  0.00    -0.111 OA 
HETATM   34  O   UNL     1      -7.862   9.673  63.491  1.00  0.00    -0.123 OA 
HETATM   35  C   UNL     1      -8.677   7.317  66.266  1.00  0.00    -0.149 C  
HETATM   36  C   UNL     1      -7.911   8.572  64.033  1.00  0.00    -0.148 C  
HETATM   37  C   UNL     1      -6.614   7.381  65.982  1.00  0.00    -0.049 C  
HETATM   38  C   UNL     1      -7.751   8.324  65.549  1.00  0.00    -0.101 C  
ENDBRANCH  31  32
ENDBRANCH   8  31
ENDBRANCH   2   3
TORSDOF 9
ENDMDL
MODEL      151
REMARK 921   NORMALIZED FREE ENERGY PREDICTED BY IDOCK:   -6.00 KCAL/MOL
REMARK 922        TOTAL FREE ENERGY PREDICTED BY IDOCK:  -10.59 KCAL/MOL
REMARK 923 INTER-LIGAND FREE ENERGY PREDICTED BY IDOCK:   -9.03 KCAL/MOL
REMARK 924 INTRA-LIGAND FREE ENERGY PREDICTED BY IDOCK:   -1.56 KCAL/MOL
REMARK 927      BINDING AFFINITY PREDICTED BY RF-SCORE:    0.00 PKD
ROOT
HETATM    1  C   UNL     1      -9.812  12.200  65.442  1.00  0.00    -0.231 C  
HETATM    2  C   UNL     1      -9.016  11.084  66.099  1.00  0.00    -0.203 C  
ENDROOT
BRANCH   2   3
HETATM    3  C   UNL     1      -8.208  11.554  67.287  1.00  0.00    -0.155 A  
HETATM    4  C   UNL     1      -7.932  12.929  67.305  1.00  0.00    -0.151 A  
HETATM    5  C   UNL     1      -7.056  13.496  68.233  1.00  0.00    -0.110 A  
HETATM    6  C   UNL     1      -6.470  12.687  69.198  1.00  0.00    -0.106 A  
HETATM    7  C   UNL     1      -6.790  11.319  69.239  1.00  0.00    -0.116 A  
HETATM    8  C   UNL     1      -7.675  10.732  68.304  1.00  0.00    -0.109 A  
BRANCH   5   9
HETATM    9  C   UNL     1      -6.708  14.929  68.022  1.00  0.00    -0.141 C  
HETATM   10  C   UNL     1      -5.267  15.362  67.972  1.00  0.00    -0.134 C  
BRANCH   9  11
HETATM   11  N   UNL     1      -7.706  15.757  67.887  1.00  0.00    -0.128 NA 
HETATM   12  H   UNL     1      -7.907  16.520  68.534  1.00  0.00     0.000 HD 
BRANCH  11  13
HETATM   13  O   UNL     1      -8.466  15.475  66.753  1.00  0.00    -0.237 OA 
BRANCH  13  14
HETATM   14  C   UNL     1      -9.694  16.183  66.869  1.00  0.00    -0.236 C  
BRANCH  14  15
HETATM   15  C   UNL     1     -10.432  15.618  68.044  1.00  0.00    -0.263 A  
HETATM   16  F   UNL     1     -12.421  11.669  70.110  1.00  0.00    -0.332 F  
HETATM   17  F   UNL     1     -12.235  11.863  67.966  1.00  0.00    -0.354 F  
HETATM   18  C   UNL     1     -10.930  16.454  69.033  1.00  0.00    -0.325 A  
HETATM   19  F   UNL     1     -10.471  11.462  69.165  1.00  0.00    -0.214 F  
HETATM   20  C   UNL     1     -11.574  15.912  70.142  1.00  0.00    -0.357 A  
HETATM   21  C   UNL     1     -10.694  14.250  68.128  1.00  0.00    -0.249 A  
HETATM   22  C   UNL     1     -11.711  14.521  70.328  1.00  0.00    -0.356 A  
HETATM   23  C   UNL     1     -11.622  12.193  69.142  1.00  0.00    -0.319 C  
HETATM   24  C   UNL     1     -11.355  13.683  69.242  1.00  0.00    -0.323 A  
BRANCH  22  25
HETATM   25  C   UNL     1     -12.184  13.969  71.681  1.00  0.00    -0.228 C  
HETATM   26  C   UNL     1     -11.574  14.746  72.872  1.00  0.00     0.016 C  
HETATM   27  C   UNL     1     -12.116  16.169  72.962  1.00  0.00    -0.636 C  
HETATM   28  C   UNL     1     -13.623  16.160  73.172  1.00  0.00    -0.389 C  
HETATM   29  C   UNL     1     -14.360  15.311  72.144  1.00  0.00    -0.651 C  
HETATM   30  C   UNL     1     -13.719  13.931  71.919  1.00  0.00    -0.521 C  
ENDBRANCH  22  25
ENDBRANCH  14  15
ENDBRANCH  13  14
ENDBRANCH  11  13
ENDBRANCH   9  11
ENDBRANCH   5   9
BRANCH   8  31
HETATM   31  C   UNL     1      -7.916   9.228  68.338  1.00  0.00    -0.102 C  
BRANCH  31  32
HETATM   32  N   UNL     1      -9.108   8.776  69.097  1.00  0.00    -0.141 NA 
HETATM   33  O   UNL     1     -11.730   8.224  70.587  1.00  0.00    -0.254 OA 
HETATM   34  O   UNL     1     -11.330   6.459  71.923  1.00  0.00    -0.263 OA 
HETATM   35  C   UNL     1      -9.401   7.339  68.854  1.00  0.00    -0.144 C  
HETATM   36  C   UNL     1     -10.932   7.216  71.042  1.00  0.00    -0.252 C  
HETATM   37  C   UNL     1      -8.663   8.414  70.479  1.00  0.00    -0.147 C  
HETATM   38  C   UNL     1      -9.539   7.151  70.381  1.00  0.00    -0.169 C  
ENDBRANCH  31  32
ENDBRANCH   8  31
ENDBRANCH   2   3
TORSDOF 9
ENDMDL
MODEL      152
REMARK 921   NORMALIZED FREE ENERGY PREDICTED BY IDOCK:   -5.97 KCAL/MOL
REMARK 922        TOTAL FREE ENERGY PREDICTED BY IDOCK:  -10.54 KCAL/MOL
REMARK 923 INTER-LIGAND FREE ENERGY PREDICTED BY IDOCK:  -10.19 KCAL/MOL
REMARK 924 INTRA-LIGAND FREE ENERGY PREDICTED BY IDOCK:   -0.35 KCAL/MOL
REMARK 927      BINDING AFFINITY PREDICTED BY RF-SCORE:    0.00 PKD
ROOT
HETATM    1  C   UNL     1      -7.070  12.874  67.442  1.00  0.00    -0.130 C  
HETATM    2  C   UNL     1      -7.424  14.352  67.445  1.00  0.00    -0.183 C  
ENDROOT
BRANCH   2   3
HETATM    3  C   UNL     1      -8.684  14.661  66.668  1.00  0.00    -0.197 A  
HETATM    4  C   UNL     1      -9.554  13.573  66.501  1.00  0.00    -0.284 A  
HETATM    5  C   UNL     1     -10.671  13.641  65.667  1.00  0.00    -0.283 A  
HETATM    6  C   UNL     1     -10.961  14.832  65.013  1.00  0.00    -0.426 A  
HETATM    7  C   UNL     1     -10.141  15.953  65.225  1.00  0.00    -0.206 A  
HETATM    8  C   UNL     1      -9.005  15.897  66.066  1.00  0.00    -0.337 A  
BRANCH   5   9
HETATM    9  C   UNL     1     -11.399  12.362  65.433  1.00  0.00    -0.337 C  
HETATM   10  C   UNL     1     -12.692  12.353  64.662  1.00  0.00    -0.372 C  
BRANCH   9  11
HETATM   11  N   UNL     1     -10.856  11.285  65.926  1.00  0.00    -0.241 NA 
HETATM   12  H   UNL     1      -9.963  10.902  65.616  1.00  0.00     0.000 HD 
BRANCH  11  13
HETATM   13  O   UNL     1     -11.643  10.718  66.929  1.00  0.00    -0.255 OA 
BRANCH  13  14
HETATM   14  C   UNL     1     -11.570  11.569  68.067  1.00  0.00    -0.300 C  
BRANCH  14  15
HETATM   15  C   UNL     1     -11.317  10.703  69.263  1.00  0.00    -0.346 A  
HETATM   16  F   UNL     1     -13.167   8.634  73.278  1.00  0.00    -0.177 F  
HETATM   17  F   UNL     1     -13.978  10.463  72.460  1.00  0.00    -0.248 F  
HETATM   18  C   UNL     1     -10.030  10.293  69.578  1.00  0.00    -0.252 A  
HETATM   19  F   UNL     1     -14.352   8.577  71.453  1.00  0.00    -0.444 F  
HETATM   20  C   UNL     1      -9.815   9.452  70.666  1.00  0.00    -0.340 A  
HETATM   21  C   UNL     1     -12.361  10.353  70.120  1.00  0.00    -0.281 A  
HETATM   22  C   UNL     1     -10.874   8.955  71.454  1.00  0.00    -0.378 A  
HETATM   23  C   UNL     1     -13.384   9.284  72.103  1.00  0.00    -0.468 C  
HETATM   24  C   UNL     1     -12.160   9.508  71.235  1.00  0.00    -0.443 A  
BRANCH  22  25
HETATM   25  C   UNL     1     -10.616   7.829  72.467  1.00  0.00    -0.352 C  
HETATM   26  C   UNL     1     -11.514   6.596  72.205  1.00  0.00    -0.323 C  
HETATM   27  C   UNL     1     -11.137   5.880  70.911  1.00  0.00    -0.312 C  
HETATM   28  C   UNL     1      -9.704   5.373  70.972  1.00  0.00    -0.235 C  
HETATM   29  C   UNL     1      -8.706   6.458  71.360  1.00  0.00    -0.131 C  
HETATM   30  C   UNL     1      -9.158   7.301  72.564  1.00  0.00    -0.161 C  
ENDBRANCH  22  25
ENDBRANCH  14  15
ENDBRANCH  13  14
ENDBRANCH  11  13
ENDBRANCH   9  11
ENDBRANCH   5   9
BRANCH   8  31
HETATM   31  C   UNL     1      -8.098  17.116  66.189  1.00  0.00    -0.248 C  
BRANCH  31  32
HETATM   32  N   UNL     1      -8.730  18.346  66.725  1.00  0.00    -0.270 NA 
HETATM   33  O   UNL     1      -9.811  21.096  67.544  1.00  0.00    -0.306 OA 
HETATM   34  O   UNL     1     -10.665  20.842  69.609  1.00  0.00     0.286 OA 
HETATM   35  C   UNL     1     -10.142  18.108  67.126  1.00  0.00    -0.351 C  
HETATM   36  C   UNL     1     -10.159  20.329  68.615  1.00  0.00    -0.131 C  
HETATM   37  C   UNL     1      -8.375  18.452  68.174  1.00  0.00    -0.284 C  
HETATM   38  C   UNL     1      -9.841  18.826  68.460  1.00  0.00    -0.444 C  
ENDBRANCH  31  32
ENDBRANCH   8  31
ENDBRANCH   2   3
TORSDOF 9
ENDMDL
MODEL      153
REMARK 921   NORMALIZED FREE ENERGY PREDICTED BY IDOCK:   -5.96 KCAL/MOL
REMARK 922        TOTAL FREE ENERGY PREDICTED BY IDOCK:  -10.53 KCAL/MOL
REMARK 923 INTER-LIGAND FREE ENERGY PREDICTED BY IDOCK:   -7.99 KCAL/MOL
REMARK 924 INTRA-LIGAND FREE ENERGY PREDICTED BY IDOCK:   -2.54 KCAL/MOL
REMARK 927      BINDING AFFINITY PREDICTED BY RF-SCORE:    0.00 PKD
ROOT
HETATM    1  C   UNL     1     -12.352   6.723  71.238  1.00  0.00    -0.395 C  
HETATM    2  C   UNL     1     -11.614   6.363  69.959  1.00  0.00    -0.446 C  
ENDROOT
BRANCH   2   3
HETATM    3  C   UNL     1     -10.132   6.150  70.170  1.00  0.00    -0.233 A  
HETATM    4  C   UNL     1      -9.551   6.979  71.141  1.00  0.00    -0.165 A  
HETATM    5  C   UNL     1      -8.169   7.033  71.337  1.00  0.00    -0.109 A  
HETATM    6  C   UNL     1      -7.343   6.212  70.580  1.00  0.00    -0.086 A  
HETATM    7  C   UNL     1      -7.913   5.324  69.653  1.00  0.00    -0.084 A  
HETATM    8  C   UNL     1      -9.311   5.260  69.444  1.00  0.00    -0.172 A  
BRANCH   5   9
HETATM    9  C   UNL     1      -7.675   8.090  72.264  1.00  0.00    -0.112 C  
HETATM   10  C   UNL     1      -8.273   8.237  73.637  1.00  0.00    -0.257 C  
BRANCH   9  11
HETATM   11  N   UNL     1      -6.717   8.854  71.817  1.00  0.00    -0.199 NA 
HETATM   12  H   UNL     1      -5.724   8.665  71.956  1.00  0.00     0.000 HD 
BRANCH  11  13
HETATM   13  O   UNL     1      -7.213   9.959  71.127  1.00  0.00    -0.305 OA 
BRANCH  13  14
HETATM   14  C   UNL     1      -6.952   9.756  69.743  1.00  0.00    -0.087 C  
BRANCH  14  15
HETATM   15  C   UNL     1      -8.167  10.196  68.985  1.00  0.00    -0.132 A  
HETATM   16  F   UNL     1     -12.964  11.089  69.110  1.00  0.00    -0.021 F  
HETATM   17  F   UNL     1     -12.034   9.665  70.443  1.00  0.00    -0.286 F  
HETATM   18  C   UNL     1      -8.111  10.387  67.612  1.00  0.00    -0.107 A  
HETATM   19  F   UNL     1     -11.744  11.791  70.771  1.00  0.00    -0.382 F  
HETATM   20  C   UNL     1      -9.235  10.839  66.928  1.00  0.00    -0.172 A  
HETATM   21  C   UNL     1      -9.393  10.351  69.635  1.00  0.00    -0.096 A  
HETATM   22  C   UNL     1     -10.442  11.156  67.586  1.00  0.00    -0.230 A  
HETATM   23  C   UNL     1     -11.812  10.845  69.791  1.00  0.00    -0.345 C  
HETATM   24  C   UNL     1     -10.547  10.800  68.954  1.00  0.00    -0.246 A  
BRANCH  22  25
HETATM   25  C   UNL     1     -11.557  11.898  66.834  1.00  0.00    -0.358 C  
HETATM   26  C   UNL     1     -11.731  13.351  67.338  1.00  0.00    -0.415 C  
HETATM   27  C   UNL     1     -10.537  14.228  66.974  1.00  0.00    -0.280 C  
HETATM   28  C   UNL     1     -10.365  14.306  65.464  1.00  0.00    -0.374 C  
HETATM   29  C   UNL     1     -10.317  12.935  64.801  1.00  0.00    -0.345 C  
HETATM   30  C   UNL     1     -11.419  11.981  65.289  1.00  0.00    -0.358 C  
ENDBRANCH  22  25
ENDBRANCH  14  15
ENDBRANCH  13  14
ENDBRANCH  11  13
ENDBRANCH   9  11
ENDBRANCH   5   9
BRANCH   8  31
HETATM   31  C   UNL     1      -9.869   4.345  68.362  1.00  0.00    -0.061 C  
BRANCH  31  32
HETATM   32  N   UNL     1      -9.362   4.576  66.987  1.00  0.00    -0.135 NA 
HETATM   33  O   UNL     1      -8.089   5.367  64.312  1.00  0.00    -0.112 OA 
HETATM   34  O   UNL     1      -9.384   4.461  62.712  1.00  0.00    -0.136 OA 
HETATM   35  C   UNL     1      -9.174   3.298  66.250  1.00  0.00    -0.145 C  
HETATM   36  C   UNL     1      -9.129   4.585  63.906  1.00  0.00    -0.116 C  
HETATM   37  C   UNL     1     -10.535   4.869  66.107  1.00  0.00    -0.302 C  
HETATM   38  C   UNL     1      -9.924   3.926  65.054  1.00  0.00    -0.186 C  
ENDBRANCH  31  32
ENDBRANCH   8  31
ENDBRANCH   2   3
TORSDOF 9
ENDMDL
MODEL      154
REMARK 921   NORMALIZED FREE ENERGY PREDICTED BY IDOCK:   -5.96 KCAL/MOL
REMARK 922        TOTAL FREE ENERGY PREDICTED BY IDOCK:  -10.52 KCAL/MOL
REMARK 923 INTER-LIGAND FREE ENERGY PREDICTED BY IDOCK:   -7.83 KCAL/MOL
REMARK 924 INTRA-LIGAND FREE ENERGY PREDICTED BY IDOCK:   -2.69 KCAL/MOL
REMARK 927      BINDING AFFINITY PREDICTED BY RF-SCORE:    0.00 PKD
ROOT
HETATM    1  C   UNL     1      -6.714  10.966  66.208  1.00  0.00    -0.124 C  
HETATM    2  C   UNL     1      -7.783  11.698  67.003  1.00  0.00    -0.159 C  
ENDROOT
BRANCH   2   3
HETATM    3  C   UNL     1      -7.236  12.397  68.227  1.00  0.00    -0.103 A  
HETATM    4  C   UNL     1      -7.218  13.797  68.147  1.00  0.00    -0.121 A  
HETATM    5  C   UNL     1      -6.588  14.586  69.113  1.00  0.00    -0.111 A  
HETATM    6  C   UNL     1      -5.998  13.973  70.211  1.00  0.00    -0.158 A  
HETATM    7  C   UNL     1      -6.069  12.577  70.344  1.00  0.00    -0.014 A  
HETATM    8  C   UNL     1      -6.702  11.766  69.372  1.00  0.00    -0.098 A  
BRANCH   5   9
HETATM    9  C   UNL     1      -6.479  16.040  68.809  1.00  0.00    -0.119 C  
HETATM   10  C   UNL     1      -5.129  16.679  68.625  1.00  0.00    -0.121 C  
BRANCH   9  11
HETATM   11  N   UNL     1      -7.599  16.701  68.716  1.00  0.00    -0.215 NA 
HETATM   12  H   UNL     1      -8.234  16.863  69.498  1.00  0.00     0.000 HD 
BRANCH  11  13
HETATM   13  O   UNL     1      -7.826  17.160  67.419  1.00  0.00    -0.167 OA 
BRANCH  13  14
HETATM   14  C   UNL     1      -9.229  17.331  67.261  1.00  0.00    -0.232 C  
BRANCH  14  15
HETATM   15  C   UNL     1      -9.814  15.991  66.935  1.00  0.00    -0.252 A  
HETATM   16  F   UNL     1     -12.019  11.974  68.615  1.00  0.00    -0.333 F  
HETATM   17  F   UNL     1     -10.718  13.167  69.862  1.00  0.00     0.111 F  
HETATM   18  C   UNL     1      -9.678  15.452  65.664  1.00  0.00    -0.366 A  
HETATM   19  F   UNL     1     -12.696  13.904  69.357  1.00  0.00    -0.302 F  
HETATM   20  C   UNL     1     -10.266  14.227  65.363  1.00  0.00    -0.395 A  
HETATM   21  C   UNL     1     -10.444  15.231  67.922  1.00  0.00    -0.253 A  
HETATM   22  C   UNL     1     -11.042  13.513  66.299  1.00  0.00    -0.308 A  
HETATM   23  C   UNL     1     -11.617  13.254  68.836  1.00  0.00    -0.314 C  
HETATM   24  C   UNL     1     -11.038  13.981  67.636  1.00  0.00    -0.298 A  
BRANCH  22  25
HETATM   25  C   UNL     1     -11.884  12.311  65.843  1.00  0.00    -0.420 C  
HETATM   26  C   UNL     1     -12.527  12.545  64.455  1.00  0.00    -0.530 C  
HETATM   27  C   UNL     1     -11.484  12.575  63.341  1.00  0.00    -0.523 C  
HETATM   28  C   UNL     1     -10.741  11.250  63.262  1.00  0.00    -0.278 C  
HETATM   29  C   UNL     1     -10.162  10.813  64.602  1.00  0.00    -0.419 C  
HETATM   30  C   UNL     1     -11.157  10.941  65.768  1.00  0.00     0.052 C  
ENDBRANCH  22  25
ENDBRANCH  14  15
ENDBRANCH  13  14
ENDBRANCH  11  13
ENDBRANCH   9  11
ENDBRANCH   5   9
BRANCH   8  31
HETATM   31  C   UNL     1      -6.671  10.250  69.520  1.00  0.00    -0.073 C  
BRANCH  31  32
HETATM   32  N   UNL     1      -7.977   9.557  69.406  1.00  0.00    -0.091 NA 
HETATM   33  O   UNL     1     -10.816   8.477  68.986  1.00  0.00    -0.140 OA 
HETATM   34  O   UNL     1     -11.037   6.736  70.395  1.00  0.00    -0.267 OA 
HETATM   35  C   UNL     1      -7.807   8.106  69.128  1.00  0.00    -0.107 C  
HETATM   36  C   UNL     1     -10.315   7.599  69.902  1.00  0.00    -0.225 C  
HETATM   37  C   UNL     1      -8.431   9.202  70.786  1.00  0.00    -0.212 C  
HETATM   38  C   UNL     1      -8.827   7.813  70.250  1.00  0.00    -0.144 C  
ENDBRANCH  31  32
ENDBRANCH   8  31
ENDBRANCH   2   3
TORSDOF 9
ENDMDL
MODEL      155
REMARK 921   NORMALIZED FREE ENERGY PREDICTED BY IDOCK:   -5.94 KCAL/MOL
REMARK 922        TOTAL FREE ENERGY PREDICTED BY IDOCK:  -10.50 KCAL/MOL
REMARK 923 INTER-LIGAND FREE ENERGY PREDICTED BY IDOCK:   -8.61 KCAL/MOL
REMARK 924 INTRA-LIGAND FREE ENERGY PREDICTED BY IDOCK:   -1.89 KCAL/MOL
REMARK 927      BINDING AFFINITY PREDICTED BY RF-SCORE:    0.00 PKD
ROOT
HETATM    1  C   UNL     1     -14.283   7.794  71.781  1.00  0.00    -0.558 C  
HETATM    2  C   UNL     1     -13.356   8.796  72.450  1.00  0.00    -0.442 C  
ENDROOT
BRANCH   2   3
HETATM    3  C   UNL     1     -12.402   9.459  71.482  1.00  0.00    -0.452 A  
HETATM    4  C   UNL     1     -12.567  10.846  71.350  1.00  0.00    -0.508 A  
HETATM    5  C   UNL     1     -11.889  11.581  70.375  1.00  0.00    -0.413 A  
HETATM    6  C   UNL     1     -10.990  10.934  69.538  1.00  0.00    -0.306 A  
HETATM    7  C   UNL     1     -10.759   9.558  69.704  1.00  0.00    -0.257 A  
HETATM    8  C   UNL     1     -11.440   8.800  70.685  1.00  0.00    -0.263 A  
BRANCH   5   9
HETATM    9  C   UNL     1     -12.297  13.006  70.220  1.00  0.00    -0.241 C  
HETATM   10  C   UNL     1     -12.989  13.726  71.346  1.00  0.00    -0.433 C  
BRANCH   9  11
HETATM   11  N   UNL     1     -12.022  13.568  69.077  1.00  0.00    -0.341 NA 
HETATM   12  H   UNL     1     -12.505  13.355  68.204  1.00  0.00     0.000 HD 
BRANCH  11  13
HETATM   13  O   UNL     1     -10.988  14.497  69.190  1.00  0.00    -0.252 OA 
BRANCH  13  14
HETATM   14  C   UNL     1     -10.503  14.765  67.879  1.00  0.00    -0.246 C  
BRANCH  14  15
HETATM   15  C   UNL     1      -9.760  13.551  67.415  1.00  0.00    -0.229 A  
HETATM   16  F   UNL     1      -6.004  10.524  68.158  1.00  0.00    -0.044 F  
HETATM   17  F   UNL     1      -5.953  12.584  68.807  1.00  0.00    -0.060 F  
HETATM   18  C   UNL     1     -10.083  12.943  66.211  1.00  0.00    -0.281 A  
HETATM   19  F   UNL     1      -7.176  11.149  69.882  1.00  0.00    -0.124 F  
HETATM   20  C   UNL     1      -9.414  11.789  65.814  1.00  0.00    -0.232 A  
HETATM   21  C   UNL     1      -8.682  13.053  68.150  1.00  0.00    -0.190 A  
HETATM   22  C   UNL     1      -8.429  11.175  66.615  1.00  0.00    -0.164 A  
HETATM   23  C   UNL     1      -6.797  11.524  68.627  1.00  0.00    -0.077 C  
HETATM   24  C   UNL     1      -7.985  11.888  67.757  1.00  0.00    -0.144 A  
BRANCH  22  25
HETATM   25  C   UNL     1      -7.916   9.771  66.263  1.00  0.00    -0.109 C  
HETATM   26  C   UNL     1      -8.940   8.972  65.422  1.00  0.00    -0.249 C  
HETATM   27  C   UNL     1      -9.105   9.552  64.021  1.00  0.00    -0.183 C  
HETATM   28  C   UNL     1      -7.788   9.511  63.261  1.00  0.00    -0.137 C  
HETATM   29  C   UNL     1      -6.638  10.146  64.032  1.00  0.00    -0.113 C  
HETATM   30  C   UNL     1      -6.564   9.695  65.500  1.00  0.00    -0.080 C  
ENDBRANCH  22  25
ENDBRANCH  14  15
ENDBRANCH  13  14
ENDBRANCH  11  13
ENDBRANCH   9  11
ENDBRANCH   5   9
BRANCH   8  31
HETATM   31  C   UNL     1     -11.220   7.295  70.762  1.00  0.00    -0.274 C  
BRANCH  31  32
HETATM   32  N   UNL     1     -10.317   6.716  69.738  1.00  0.00    -0.186 NA 
HETATM   33  O   UNL     1      -8.255   5.890  67.625  1.00  0.00    -0.105 OA 
HETATM   34  O   UNL     1      -9.111   4.088  66.586  1.00  0.00    -0.123 OA 
HETATM   35  C   UNL     1     -10.046   5.276  69.996  1.00  0.00    -0.266 C  
HETATM   36  C   UNL     1      -9.203   4.920  67.484  1.00  0.00    -0.123 C  
HETATM   37  C   UNL     1     -11.152   6.311  68.565  1.00  0.00    -0.308 C  
HETATM   38  C   UNL     1     -10.355   4.994  68.509  1.00  0.00    -0.094 C  
ENDBRANCH  31  32
ENDBRANCH   8  31
ENDBRANCH   2   3
TORSDOF 9
ENDMDL
MODEL      156
REMARK 921   NORMALIZED FREE ENERGY PREDICTED BY IDOCK:   -5.94 KCAL/MOL
REMARK 922        TOTAL FREE ENERGY PREDICTED BY IDOCK:  -10.49 KCAL/MOL
REMARK 923 INTER-LIGAND FREE ENERGY PREDICTED BY IDOCK:   -9.05 KCAL/MOL
REMARK 924 INTRA-LIGAND FREE ENERGY PREDICTED BY IDOCK:   -1.44 KCAL/MOL
REMARK 927      BINDING AFFINITY PREDICTED BY RF-SCORE:    0.00 PKD
ROOT
HETATM    1  C   UNL     1     -12.021  11.578  68.971  1.00  0.00    -0.377 C  
HETATM    2  C   UNL     1     -11.327  10.247  68.737  1.00  0.00    -0.226 C  
ENDROOT
BRANCH   2   3
HETATM    3  C   UNL     1     -10.620  10.174  67.402  1.00  0.00    -0.329 A  
HETATM    4  C   UNL     1     -11.029  11.136  66.467  1.00  0.00    -0.270 A  
HETATM    5  C   UNL     1     -10.606  11.101  65.136  1.00  0.00    -0.319 A  
HETATM    6  C   UNL     1      -9.717  10.113  64.731  1.00  0.00    -0.389 A  
HETATM    7  C   UNL     1      -9.242   9.184  65.672  1.00  0.00    -0.296 A  
HETATM    8  C   UNL     1      -9.664   9.207  67.022  1.00  0.00    -0.245 A  
BRANCH   5   9
HETATM    9  C   UNL     1     -11.262  12.065  64.209  1.00  0.00    -0.357 C  
HETATM   10  C   UNL     1     -12.466  11.649  63.407  1.00  0.00    -0.326 C  
BRANCH   9  11
HETATM   11  N   UNL     1     -10.738  13.256  64.141  1.00  0.00    -0.518 NA 
HETATM   12  H   UNL     1      -9.735  13.442  64.162  1.00  0.00     0.000 HD 
BRANCH  11  13
HETATM   13  O   UNL     1     -11.712  14.248  64.037  1.00  0.00    -0.301 OA 
BRANCH  13  14
HETATM   14  C   UNL     1     -12.407  14.302  65.278  1.00  0.00    -0.424 C  
BRANCH  14  15
HETATM   15  C   UNL     1     -11.633  15.203  66.190  1.00  0.00    -0.080 A  
HETATM   16  F   UNL     1     -10.881  16.719  70.769  1.00  0.00    -0.165 F  
HETATM   17  F   UNL     1     -12.793  15.944  70.123  1.00  0.00    -0.380 F  
HETATM   18  C   UNL     1     -10.774  16.162  65.673  1.00  0.00    -0.321 A  
HETATM   19  F   UNL     1     -11.128  14.584  70.420  1.00  0.00    -0.253 F  
HETATM   20  C   UNL     1     -10.028  16.962  66.533  1.00  0.00    -0.309 A  
HETATM   21  C   UNL     1     -11.817  15.143  67.573  1.00  0.00    -0.113 A  
HETATM   22  C   UNL     1     -10.077  16.812  67.935  1.00  0.00    -0.284 A  
HETATM   23  C   UNL     1     -11.447  15.814  69.925  1.00  0.00    -0.346 C  
HETATM   24  C   UNL     1     -11.075  15.954  68.460  1.00  0.00    -0.340 A  
BRANCH  22  25
HETATM   25  C   UNL     1      -9.046  17.527  68.822  1.00  0.00    -0.212 C  
HETATM   26  C   UNL     1      -7.854  16.608  69.183  1.00  0.00    -0.170 C  
HETATM   27  C   UNL     1      -6.986  16.295  67.968  1.00  0.00    -0.140 C  
HETATM   28  C   UNL     1      -6.395  17.568  67.384  1.00  0.00    -0.166 C  
HETATM   29  C   UNL     1      -7.446  18.635  67.101  1.00  0.00    -0.230 C  
HETATM   30  C   UNL     1      -8.436  18.840  68.259  1.00  0.00    -0.357 C  
ENDBRANCH  22  25
ENDBRANCH  14  15
ENDBRANCH  13  14
ENDBRANCH  11  13
ENDBRANCH   9  11
ENDBRANCH   5   9
BRANCH   8  31
HETATM   31  C   UNL     1      -9.187   8.122  67.979  1.00  0.00    -0.132 C  
BRANCH  31  32
HETATM   32  N   UNL     1      -8.205   8.545  69.006  1.00  0.00    -0.115 NA 
HETATM   33  O   UNL     1      -5.972   9.613  70.817  1.00  0.00    -0.061 OA 
HETATM   34  O   UNL     1      -6.037   8.368  72.689  1.00  0.00    -0.063 OA 
HETATM   35  C   UNL     1      -8.865   8.849  70.304  1.00  0.00    -0.175 C  
HETATM   36  C   UNL     1      -6.536   8.654  71.605  1.00  0.00    -0.074 C  
HETATM   37  C   UNL     1      -7.630   7.312  69.629  1.00  0.00    -0.099 C  
HETATM   38  C   UNL     1      -7.792   7.985  71.004  1.00  0.00    -0.090 C  
ENDBRANCH  31  32
ENDBRANCH   8  31
ENDBRANCH   2   3
TORSDOF 9
ENDMDL
MODEL      157
REMARK 921   NORMALIZED FREE ENERGY PREDICTED BY IDOCK:   -5.94 KCAL/MOL
REMARK 922        TOTAL FREE ENERGY PREDICTED BY IDOCK:  -10.49 KCAL/MOL
REMARK 923 INTER-LIGAND FREE ENERGY PREDICTED BY IDOCK:   -8.89 KCAL/MOL
REMARK 924 INTRA-LIGAND FREE ENERGY PREDICTED BY IDOCK:   -1.60 KCAL/MOL
REMARK 927      BINDING AFFINITY PREDICTED BY RF-SCORE:    0.00 PKD
ROOT
HETATM    1  C   UNL     1     -10.367  10.855  65.427  1.00  0.00    -0.326 C  
HETATM    2  C   UNL     1      -9.652   9.579  65.841  1.00  0.00    -0.327 C  
ENDROOT
BRANCH   2   3
HETATM    3  C   UNL     1      -9.650   9.358  67.336  1.00  0.00    -0.184 A  
HETATM    4  C   UNL     1     -10.603  10.108  68.042  1.00  0.00    -0.273 A  
HETATM    5  C   UNL     1     -10.621  10.154  69.438  1.00  0.00    -0.261 A  
HETATM    6  C   UNL     1      -9.699   9.403  70.156  1.00  0.00    -0.274 A  
HETATM    7  C   UNL     1      -8.784   8.590  69.465  1.00  0.00    -0.136 A  
HETATM    8  C   UNL     1      -8.753   8.536  68.052  1.00  0.00    -0.142 A  
BRANCH   5   9
HETATM    9  C   UNL     1     -11.560  11.134  70.054  1.00  0.00    -0.338 C  
HETATM   10  C   UNL     1     -12.726  10.656  70.877  1.00  0.00    -0.498 C  
BRANCH   9  11
HETATM   11  N   UNL     1     -11.309  12.395  69.838  1.00  0.00    -0.513 NA 
HETATM   12  H   UNL     1     -10.468  12.873  70.160  1.00  0.00     0.000 HD 
BRANCH  11  13
HETATM   13  O   UNL     1     -12.329  13.011  69.115  1.00  0.00    -0.140 OA 
BRANCH  13  14
HETATM   14  C   UNL     1     -11.779  13.446  67.877  1.00  0.00    -0.361 C  
BRANCH  14  15
HETATM   15  C   UNL     1     -10.954  14.664  68.152  1.00  0.00    -0.269 A  
HETATM   16  F   UNL     1      -6.477  16.577  68.507  1.00  0.00    -0.125 F  
HETATM   17  F   UNL     1      -6.854  14.481  68.873  1.00  0.00    -0.082 F  
HETATM   18  C   UNL     1     -11.548  15.830  68.613  1.00  0.00    -0.392 A  
HETATM   19  F   UNL     1      -6.895  15.241  66.840  1.00  0.00    -0.157 F  
HETATM   20  C   UNL     1     -10.776  16.969  68.822  1.00  0.00    -0.313 A  
HETATM   21  C   UNL     1      -9.565  14.628  68.018  1.00  0.00    -0.212 A  
HETATM   22  C   UNL     1      -9.394  17.003  68.542  1.00  0.00    -0.265 A  
HETATM   23  C   UNL     1      -7.268  15.542  68.117  1.00  0.00    -0.117 C  
HETATM   24  C   UNL     1      -8.763  15.771  68.235  1.00  0.00    -0.172 A  
BRANCH  22  25
HETATM   25  C   UNL     1      -8.644  18.344  68.532  1.00  0.00    -0.341 C  
HETATM   26  C   UNL     1      -8.150  18.723  67.115  1.00  0.00    -0.259 C  
HETATM   27  C   UNL     1      -9.306  19.060  66.179  1.00  0.00    -0.232 C  
HETATM   28  C   UNL     1     -10.094  20.252  66.702  1.00  0.00    -0.538 C  
HETATM   29  C   UNL     1     -10.536  20.083  68.150  1.00  0.00    -0.428 C  
HETATM   30  C   UNL     1      -9.416  19.577  69.075  1.00  0.00    -0.381 C  
ENDBRANCH  22  25
ENDBRANCH  14  15
ENDBRANCH  13  14
ENDBRANCH  11  13
ENDBRANCH   9  11
ENDBRANCH   5   9
BRANCH   8  31
HETATM   31  C   UNL     1      -7.681   7.709  67.353  1.00  0.00    -0.117 C  
BRANCH  31  32
HETATM   32  N   UNL     1      -7.963   6.259  67.216  1.00  0.00    -0.108 NA 
HETATM   33  O   UNL     1      -8.454   3.235  67.342  1.00  0.00    -0.089 OA 
HETATM   34  O   UNL     1      -8.370   2.499  65.218  1.00  0.00    -0.090 OA 
HETATM   35  C   UNL     1      -9.085   6.005  66.274  1.00  0.00    -0.150 C  
HETATM   36  C   UNL     1      -8.357   3.447  65.999  1.00  0.00    -0.103 C  
HETATM   37  C   UNL     1      -7.025   5.702  66.193  1.00  0.00    -0.060 C  
HETATM   38  C   UNL     1      -8.213   4.928  65.591  1.00  0.00    -0.115 C  
ENDBRANCH  31  32
ENDBRANCH   8  31
ENDBRANCH   2   3
TORSDOF 9
ENDMDL
MODEL      158
REMARK 921   NORMALIZED FREE ENERGY PREDICTED BY IDOCK:   -5.93 KCAL/MOL
REMARK 922        TOTAL FREE ENERGY PREDICTED BY IDOCK:  -10.47 KCAL/MOL
REMARK 923 INTER-LIGAND FREE ENERGY PREDICTED BY IDOCK:   -9.29 KCAL/MOL
REMARK 924 INTRA-LIGAND FREE ENERGY PREDICTED BY IDOCK:   -1.18 KCAL/MOL
REMARK 927      BINDING AFFINITY PREDICTED BY RF-SCORE:    0.00 PKD
ROOT
HETATM    1  C   UNL     1     -12.522  11.983  63.330  1.00  0.00    -0.625 C  
HETATM    2  C   UNL     1     -11.538  13.078  63.712  1.00  0.00    -0.517 C  
ENDROOT
BRANCH   2   3
HETATM    3  C   UNL     1     -10.884  12.845  65.055  1.00  0.00    -0.323 A  
HETATM    4  C   UNL     1     -10.683  11.496  65.385  1.00  0.00    -0.335 A  
HETATM    5  C   UNL     1     -10.252  11.102  66.654  1.00  0.00    -0.274 A  
HETATM    6  C   UNL     1      -9.971  12.072  67.608  1.00  0.00    -0.196 A  
HETATM    7  C   UNL     1     -10.099  13.430  67.272  1.00  0.00    -0.238 A  
HETATM    8  C   UNL     1     -10.536  13.843  65.991  1.00  0.00    -0.299 A  
BRANCH   5   9
HETATM    9  C   UNL     1     -10.262   9.638  66.929  1.00  0.00    -0.237 C  
HETATM   10  C   UNL     1      -9.416   8.704  66.106  1.00  0.00    -0.308 C  
BRANCH   9  11
HETATM   11  N   UNL     1     -11.029   9.234  67.902  1.00  0.00    -0.500 NA 
HETATM   12  H   UNL     1     -11.906   9.686  68.164  1.00  0.00     0.000 HD 
BRANCH  11  13
HETATM   13  O   UNL     1     -10.509   8.110  68.542  1.00  0.00    -0.207 OA 
BRANCH  13  14
HETATM   14  C   UNL     1     -10.857   8.197  69.919  1.00  0.00    -0.215 C  
BRANCH  14  15
HETATM   15  C   UNL     1     -10.205   7.048  70.624  1.00  0.00    -0.205 A  
HETATM   16  F   UNL     1      -7.021   5.620  74.037  1.00  0.00    -0.076 F  
HETATM   17  F   UNL     1      -6.820   7.510  73.009  1.00  0.00    -0.062 F  
HETATM   18  C   UNL     1     -10.404   5.747  70.187  1.00  0.00    -0.324 A  
HETATM   19  F   UNL     1      -8.367   7.264  74.511  1.00  0.00    -0.171 F  
HETATM   20  C   UNL     1      -9.828   4.685  70.879  1.00  0.00    -0.272 A  
HETATM   21  C   UNL     1      -9.329   7.272  71.688  1.00  0.00    -0.160 A  
HETATM   22  C   UNL     1      -9.068   4.875  72.052  1.00  0.00    -0.156 A  
HETATM   23  C   UNL     1      -7.748   6.624  73.477  1.00  0.00    -0.090 C  
HETATM   24  C   UNL     1      -8.728   6.207  72.396  1.00  0.00    -0.125 A  
BRANCH  22  25
HETATM   25  C   UNL     1      -8.683   3.669  72.922  1.00  0.00    -0.098 C  
HETATM   26  C   UNL     1      -9.504   3.611  74.233  1.00  0.00    -0.118 C  
HETATM   27  C   UNL     1     -10.973   3.290  73.972  1.00  0.00    -0.222 C  
HETATM   28  C   UNL     1     -11.118   1.931  73.304  1.00  0.00    -0.274 C  
HETATM   29  C   UNL     1     -10.251   1.786  72.059  1.00  0.00    -0.215 C  
HETATM   30  C   UNL     1      -8.805   2.268  72.263  1.00  0.00    -0.098 C  
ENDBRANCH  22  25
ENDBRANCH  14  15
ENDBRANCH  13  14
ENDBRANCH  11  13
ENDBRANCH   9  11
ENDBRANCH   5   9
BRANCH   8  31
HETATM   31  C   UNL     1     -10.744  15.325  65.708  1.00  0.00    -0.348 C  
BRANCH  31  32
HETATM   32  N   UNL     1     -10.093  16.266  66.651  1.00  0.00    -0.266 NA 
HETATM   33  O   UNL     1      -8.953  18.007  68.904  1.00  0.00    -0.246 OA 
HETATM   34  O   UNL     1      -8.178  19.875  67.919  1.00  0.00    -0.294 OA 
HETATM   35  C   UNL     1      -8.703  16.589  66.232  1.00  0.00    -0.333 C  
HETATM   36  C   UNL     1      -8.666  18.754  67.801  1.00  0.00    -0.287 C  
HETATM   37  C   UNL     1     -10.493  17.655  66.266  1.00  0.00    -0.292 C  
HETATM   38  C   UNL     1      -9.026  18.083  66.458  1.00  0.00    -0.280 C  
ENDBRANCH  31  32
ENDBRANCH   8  31
ENDBRANCH   2   3
TORSDOF 9
ENDMDL
MODEL      159
REMARK 921   NORMALIZED FREE ENERGY PREDICTED BY IDOCK:   -5.89 KCAL/MOL
REMARK 922        TOTAL FREE ENERGY PREDICTED BY IDOCK:  -10.42 KCAL/MOL
REMARK 923 INTER-LIGAND FREE ENERGY PREDICTED BY IDOCK:  -10.39 KCAL/MOL
REMARK 924 INTRA-LIGAND FREE ENERGY PREDICTED BY IDOCK:   -0.03 KCAL/MOL
REMARK 927      BINDING AFFINITY PREDICTED BY RF-SCORE:    0.00 PKD
ROOT
HETATM    1  C   UNL     1     -10.052  14.321  65.091  1.00  0.00    -0.353 C  
HETATM    2  C   UNL     1     -10.924  15.534  65.374  1.00  0.00    -0.365 C  
ENDROOT
BRANCH   2   3
HETATM    3  C   UNL     1     -10.775  16.053  66.786  1.00  0.00    -0.259 A  
HETATM    4  C   UNL     1     -11.113  15.133  67.790  1.00  0.00    -0.313 A  
HETATM    5  C   UNL     1     -11.198  15.504  69.134  1.00  0.00    -0.300 A  
HETATM    6  C   UNL     1     -10.898  16.810  69.500  1.00  0.00    -0.225 A  
HETATM    7  C   UNL     1     -10.489  17.726  68.516  1.00  0.00    -0.332 A  
HETATM    8  C   UNL     1     -10.400  17.365  67.151  1.00  0.00    -0.325 A  
BRANCH   5   9
HETATM    9  C   UNL     1     -11.748  14.481  70.067  1.00  0.00    -0.301 C  
HETATM   10  C   UNL     1     -12.894  14.824  70.981  1.00  0.00    -0.415 C  
BRANCH   9  11
HETATM   11  N   UNL     1     -11.187  13.305  70.039  1.00  0.00    -0.475 NA 
HETATM   12  H   UNL     1     -10.241  13.115  70.371  1.00  0.00     0.000 HD 
BRANCH  11  13
HETATM   13  O   UNL     1     -12.033  12.338  69.500  1.00  0.00    -0.302 OA 
BRANCH  13  14
HETATM   14  C   UNL     1     -11.239  11.460  68.710  1.00  0.00    -0.247 C  
BRANCH  14  15
HETATM   15  C   UNL     1     -10.682  10.411  69.622  1.00  0.00    -0.304 A  
HETATM   16  F   UNL     1     -11.521   7.357  73.336  1.00  0.00    -0.296 F  
HETATM   17  F   UNL     1     -12.632   9.196  73.098  1.00  0.00    -0.170 F  
HETATM   18  C   UNL     1      -9.328  10.112  69.610  1.00  0.00    -0.215 A  
HETATM   19  F   UNL     1     -13.032   7.520  71.778  1.00  0.00    -0.329 F  
HETATM   20  C   UNL     1      -8.831   9.103  70.430  1.00  0.00    -0.253 A  
HETATM   21  C   UNL     1     -11.503   9.765  70.548  1.00  0.00    -0.370 A  
HETATM   22  C   UNL     1      -9.667   8.328  71.260  1.00  0.00    -0.225 A  
HETATM   23  C   UNL     1     -12.020   8.198  72.391  1.00  0.00    -0.372 C  
HETATM   24  C   UNL     1     -11.015   8.745  71.395  1.00  0.00    -0.360 A  
BRANCH  22  25
HETATM   25  C   UNL     1      -9.119   7.062  71.937  1.00  0.00    -0.145 C  
HETATM   26  C   UNL     1      -9.533   5.775  71.184  1.00  0.00    -0.185 C  
HETATM   27  C   UNL     1      -8.849   5.665  69.824  1.00  0.00    -0.130 C  
HETATM   28  C   UNL     1      -7.337   5.612  69.982  1.00  0.00    -0.069 C  
HETATM   29  C   UNL     1      -6.789   6.755  70.829  1.00  0.00    -0.059 C  
HETATM   30  C   UNL     1      -7.579   6.986  72.127  1.00  0.00    -0.091 C  
ENDBRANCH  22  25
ENDBRANCH  14  15
ENDBRANCH  13  14
ENDBRANCH  11  13
ENDBRANCH   9  11
ENDBRANCH   5   9
BRANCH   8  31
HETATM   31  C   UNL     1     -10.039  18.421  66.115  1.00  0.00    -0.360 C  
BRANCH  31  32
HETATM   32  N   UNL     1      -8.927  19.334  66.475  1.00  0.00    -0.334 NA 
HETATM   33  O   UNL     1      -6.667  21.376  66.831  1.00  0.00    -0.483 OA 
HETATM   34  O   UNL     1      -5.467  20.678  68.601  1.00  0.00    -0.260 OA 
HETATM   35  C   UNL     1      -9.017  19.775  67.893  1.00  0.00    -0.322 C  
HETATM   36  C   UNL     1      -6.454  20.536  67.883  1.00  0.00    -0.297 C  
HETATM   37  C   UNL     1      -7.745  18.497  66.848  1.00  0.00    -0.227 C  
HETATM   38  C   UNL     1      -7.519  19.431  68.050  1.00  0.00    -0.316 C  
ENDBRANCH  31  32
ENDBRANCH   8  31
ENDBRANCH   2   3
TORSDOF 9
ENDMDL
MODEL      160
REMARK 921   NORMALIZED FREE ENERGY PREDICTED BY IDOCK:   -5.88 KCAL/MOL
REMARK 922        TOTAL FREE ENERGY PREDICTED BY IDOCK:  -10.41 KCAL/MOL
REMARK 923 INTER-LIGAND FREE ENERGY PREDICTED BY IDOCK:   -8.66 KCAL/MOL
REMARK 924 INTRA-LIGAND FREE ENERGY PREDICTED BY IDOCK:   -1.75 KCAL/MOL
REMARK 927      BINDING AFFINITY PREDICTED BY RF-SCORE:    0.00 PKD
ROOT
HETATM    1  C   UNL     1     -13.667   8.800  71.766  1.00  0.00    -0.461 C  
HETATM    2  C   UNL     1     -12.776  10.031  71.761  1.00  0.00    -0.526 C  
ENDROOT
BRANCH   2   3
HETATM    3  C   UNL     1     -11.431   9.786  71.115  1.00  0.00    -0.472 A  
HETATM    4  C   UNL     1     -10.558   8.980  71.861  1.00  0.00    -0.388 A  
HETATM    5  C   UNL     1      -9.223   8.799  71.493  1.00  0.00    -0.332 A  
HETATM    6  C   UNL     1      -8.751   9.395  70.331  1.00  0.00    -0.278 A  
HETATM    7  C   UNL     1      -9.630  10.146  69.534  1.00  0.00    -0.243 A  
HETATM    8  C   UNL     1     -10.984  10.340  69.895  1.00  0.00    -0.358 A  
BRANCH   5   9
HETATM    9  C   UNL     1      -8.361   8.078  72.472  1.00  0.00    -0.157 C  
HETATM   10  C   UNL     1      -8.900   7.697  73.824  1.00  0.00    -0.305 C  
BRANCH   9  11
HETATM   11  N   UNL     1      -7.145   7.808  72.087  1.00  0.00    -0.066 NA 
HETATM   12  H   UNL     1      -6.405   8.505  71.998  1.00  0.00     0.000 HD 
BRANCH  11  13
HETATM   13  O   UNL     1      -6.976   6.451  71.812  1.00  0.00    -0.073 OA 
BRANCH  13  14
HETATM   14  C   UNL     1      -6.043   6.341  70.743  1.00  0.00    -0.038 C  
BRANCH  14  15
HETATM   15  C   UNL     1      -6.817   6.039  69.497  1.00  0.00    -0.062 A  
HETATM   16  F   UNL     1     -11.210   5.658  67.403  1.00  0.00    -0.265 F  
HETATM   17  F   UNL     1     -10.926   5.345  69.522  1.00  0.00    -0.377 F  
HETATM   18  C   UNL     1      -6.177   5.544  68.370  1.00  0.00    -0.030 A  
HETATM   19  F   UNL     1     -10.839   7.357  68.713  1.00  0.00    -0.212 F  
HETATM   20  C   UNL     1      -6.901   5.311  67.205  1.00  0.00    -0.060 A  
HETATM   21  C   UNL     1      -8.206   6.181  69.471  1.00  0.00    -0.116 A  
HETATM   22  C   UNL     1      -8.279   5.597  67.104  1.00  0.00    -0.101 A  
HETATM   23  C   UNL     1     -10.462   6.071  68.461  1.00  0.00    -0.234 C  
HETATM   24  C   UNL     1      -8.959   5.939  68.300  1.00  0.00    -0.112 A  
BRANCH  22  25
HETATM   25  C   UNL     1      -8.971   5.576  65.733  1.00  0.00    -0.158 C  
HETATM   26  C   UNL     1      -7.993   5.919  64.583  1.00  0.00    -0.123 C  
HETATM   27  C   UNL     1      -6.954   4.822  64.372  1.00  0.00    -0.050 C  
HETATM   28  C   UNL     1      -7.624   3.508  64.000  1.00  0.00    -0.075 C  
HETATM   29  C   UNL     1      -8.721   3.103  64.977  1.00  0.00    -0.114 C  
HETATM   30  C   UNL     1      -9.678   4.253  65.331  1.00  0.00    -0.204 C  
ENDBRANCH  22  25
ENDBRANCH  14  15
ENDBRANCH  13  14
ENDBRANCH  11  13
ENDBRANCH   9  11
ENDBRANCH   5   9
BRANCH   8  31
HETATM   31  C   UNL     1     -11.871  11.238  69.042  1.00  0.00    -0.352 C  
BRANCH  31  32
HETATM   32  N   UNL     1     -11.166  12.193  68.153  1.00  0.00    -0.246 NA 
HETATM   33  O   UNL     1      -9.367  14.084  66.543  1.00  0.00    -0.278 OA 
HETATM   34  O   UNL     1     -10.749  15.478  65.445  1.00  0.00    -0.354 OA 
HETATM   35  C   UNL     1     -11.658  12.104  66.752  1.00  0.00    -0.345 C  
HETATM   36  C   UNL     1     -10.611  14.494  66.167  1.00  0.00    -0.306 C  
HETATM   37  C   UNL     1     -11.848  13.519  68.269  1.00  0.00    -0.366 C  
HETATM   38  C   UNL     1     -11.768  13.645  66.737  1.00  0.00    -0.426 C  
ENDBRANCH  31  32
ENDBRANCH   8  31
ENDBRANCH   2   3
TORSDOF 9
ENDMDL
MODEL      161
REMARK 921   NORMALIZED FREE ENERGY PREDICTED BY IDOCK:   -5.87 KCAL/MOL
REMARK 922        TOTAL FREE ENERGY PREDICTED BY IDOCK:  -10.39 KCAL/MOL
REMARK 923 INTER-LIGAND FREE ENERGY PREDICTED BY IDOCK:   -9.72 KCAL/MOL
REMARK 924 INTRA-LIGAND FREE ENERGY PREDICTED BY IDOCK:   -0.67 KCAL/MOL
REMARK 927      BINDING AFFINITY PREDICTED BY RF-SCORE:    0.00 PKD
ROOT
HETATM    1  C   UNL     1      -9.516  10.921  66.611  1.00  0.00    -0.204 C  
HETATM    2  C   UNL     1      -9.341   9.494  67.105  1.00  0.00    -0.174 C  
ENDROOT
BRANCH   2   3
HETATM    3  C   UNL     1      -9.778   9.305  68.539  1.00  0.00    -0.162 A  
HETATM    4  C   UNL     1     -10.832  10.137  68.947  1.00  0.00    -0.256 A  
HETATM    5  C   UNL     1     -11.240  10.213  70.281  1.00  0.00    -0.387 A  
HETATM    6  C   UNL     1     -10.618   9.412  71.230  1.00  0.00    -0.400 A  
HETATM    7  C   UNL     1      -9.609   8.521  70.826  1.00  0.00    -0.217 A  
HETATM    8  C   UNL     1      -9.185   8.435  69.479  1.00  0.00    -0.154 A  
BRANCH   5   9
HETATM    9  C   UNL     1     -12.238  11.271  70.607  1.00  0.00    -0.393 C  
HETATM   10  C   UNL     1     -13.464  10.937  71.413  1.00  0.00    -0.040 C  
BRANCH   9  11
HETATM   11  N   UNL     1     -11.983  12.468  70.159  1.00  0.00    -0.458 NA 
HETATM   12  H   UNL     1     -11.630  12.666  69.223  1.00  0.00     0.000 HD 
BRANCH  11  13
HETATM   13  O   UNL     1     -12.251  13.448  71.115  1.00  0.00    -0.315 OA 
BRANCH  13  14
HETATM   14  C   UNL     1     -12.955  14.501  70.467  1.00  0.00    -0.249 C  
BRANCH  14  15
HETATM   15  C   UNL     1     -11.984  15.213  69.576  1.00  0.00    -0.351 A  
HETATM   16  F   UNL     1      -9.974  15.519  65.139  1.00  0.00    -0.353 F  
HETATM   17  F   UNL     1     -10.743  13.655  65.916  1.00  0.00    -0.273 F  
HETATM   18  C   UNL     1     -11.127  16.174  70.091  1.00  0.00    -0.373 A  
HETATM   19  F   UNL     1     -12.123  15.202  65.273  1.00  0.00    -0.242 F  
HETATM   20  C   UNL     1     -10.262  16.859  69.243  1.00  0.00    -0.262 A  
HETATM   21  C   UNL     1     -11.875  14.871  68.227  1.00  0.00    -0.308 A  
HETATM   22  C   UNL     1     -10.244  16.644  67.849  1.00  0.00    -0.284 A  
HETATM   23  C   UNL     1     -10.948  15.006  65.937  1.00  0.00    -0.343 C  
HETATM   24  C   UNL     1     -10.995  15.549  67.353  1.00  0.00    -0.306 A  
BRANCH  22  25
HETATM   25  C   UNL     1      -9.472  17.604  66.932  1.00  0.00    -0.278 C  
HETATM   26  C   UNL     1     -10.411  18.601  66.212  1.00  0.00    -0.483 C  
HETATM   27  C   UNL     1     -11.030  19.603  67.182  1.00  0.00    -0.420 C  
HETATM   28  C   UNL     1      -9.951  20.431  67.864  1.00  0.00    -0.428 C  
HETATM   29  C   UNL     1      -8.866  19.577  68.508  1.00  0.00    -0.389 C  
HETATM   30  C   UNL     1      -8.353  18.451  67.596  1.00  0.00    -0.260 C  
ENDBRANCH  22  25
ENDBRANCH  14  15
ENDBRANCH  13  14
ENDBRANCH  11  13
ENDBRANCH   9  11
ENDBRANCH   5   9
BRANCH   8  31
HETATM   31  C   UNL     1      -8.025   7.518  69.112  1.00  0.00    -0.121 C  
BRANCH  31  32
HETATM   32  N   UNL     1      -8.331   6.067  69.064  1.00  0.00    -0.110 NA 
HETATM   33  O   UNL     1      -9.016   3.123  68.552  1.00  0.00    -0.107 OA 
HETATM   34  O   UNL     1      -9.593   2.259  70.547  1.00  0.00    -0.128 OA 
HETATM   35  C   UNL     1      -7.494   5.298  70.023  1.00  0.00    -0.064 C  
HETATM   36  C   UNL     1      -9.164   3.213  69.904  1.00  0.00    -0.152 C  
HETATM   37  C   UNL     1      -9.511   5.816  69.949  1.00  0.00    -0.150 C  
HETATM   38  C   UNL     1      -8.776   4.582  70.503  1.00  0.00    -0.127 C  
ENDBRANCH  31  32
ENDBRANCH   8  31
ENDBRANCH   2   3
TORSDOF 9
ENDMDL
MODEL      162
REMARK 921   NORMALIZED FREE ENERGY PREDICTED BY IDOCK:   -5.84 KCAL/MOL
REMARK 922        TOTAL FREE ENERGY PREDICTED BY IDOCK:  -10.34 KCAL/MOL
REMARK 923 INTER-LIGAND FREE ENERGY PREDICTED BY IDOCK:   -9.26 KCAL/MOL
REMARK 924 INTRA-LIGAND FREE ENERGY PREDICTED BY IDOCK:   -1.08 KCAL/MOL
REMARK 927      BINDING AFFINITY PREDICTED BY RF-SCORE:    0.00 PKD
ROOT
HETATM    1  C   UNL     1     -10.530  17.973  66.929  1.00  0.00    -0.350 C  
HETATM    2  C   UNL     1      -9.289  17.419  66.247  1.00  0.00    -0.240 C  
ENDROOT
BRANCH   2   3
HETATM    3  C   UNL     1      -9.068  15.949  66.523  1.00  0.00    -0.320 A  
HETATM    4  C   UNL     1     -10.209  15.145  66.379  1.00  0.00    -0.291 A  
HETATM    5  C   UNL     1     -10.220  13.802  66.761  1.00  0.00    -0.268 A  
HETATM    6  C   UNL     1      -9.058  13.226  67.259  1.00  0.00    -0.221 A  
HETATM    7  C   UNL     1      -7.887  13.998  67.343  1.00  0.00    -0.188 A  
HETATM    8  C   UNL     1      -7.862  15.360  66.961  1.00  0.00    -0.244 A  
BRANCH   5   9
HETATM    9  C   UNL     1     -11.544  13.119  66.732  1.00  0.00    -0.366 C  
HETATM   10  C   UNL     1     -12.257  12.898  65.425  1.00  0.00    -0.528 C  
BRANCH   9  11
HETATM   11  N   UNL     1     -12.027  12.736  67.881  1.00  0.00    -0.324 NA 
HETATM   12  H   UNL     1     -12.247  13.372  68.648  1.00  0.00     0.000 HD 
BRANCH  11  13
HETATM   13  O   UNL     1     -12.207  11.355  67.935  1.00  0.00    -0.592 OA 
BRANCH  13  14
HETATM   14  C   UNL     1     -11.188  10.819  68.771  1.00  0.00    -0.272 C  
BRANCH  14  15
HETATM   15  C   UNL     1     -10.555   9.677  68.037  1.00  0.00    -0.292 A  
HETATM   16  F   UNL     1      -8.354   8.159  63.953  1.00  0.00    -0.159 F  
HETATM   17  F   UNL     1      -9.749   9.810  63.951  1.00  0.00    -0.314 F  
HETATM   18  C   UNL     1     -10.608   8.390  68.552  1.00  0.00    -0.149 A  
HETATM   19  F   UNL     1      -7.764  10.082  64.785  1.00  0.00    -0.122 F  
HETATM   20  C   UNL     1      -9.977   7.347  67.882  1.00  0.00    -0.201 A  
HETATM   21  C   UNL     1      -9.963   9.876  66.788  1.00  0.00    -0.272 A  
HETATM   22  C   UNL     1      -9.236   7.550  66.698  1.00  0.00    -0.201 A  
HETATM   23  C   UNL     1      -8.797   9.195  64.715  1.00  0.00    -0.158 C  
HETATM   24  C   UNL     1      -9.326   8.826  66.088  1.00  0.00    -0.297 A  
BRANCH  22  25
HETATM   25  C   UNL     1      -8.343   6.428  66.148  1.00  0.00    -0.128 C  
HETATM   26  C   UNL     1      -7.716   5.577  67.278  1.00  0.00    -0.100 C  
HETATM   27  C   UNL     1      -8.762   4.745  68.013  1.00  0.00    -0.110 C  
HETATM   28  C   UNL     1      -9.446   3.774  67.062  1.00  0.00    -0.227 C  
HETATM   29  C   UNL     1     -10.001   4.455  65.816  1.00  0.00    -0.251 C  
HETATM   30  C   UNL     1      -9.009   5.430  65.161  1.00  0.00    -0.074 C  
ENDBRANCH  22  25
ENDBRANCH  14  15
ENDBRANCH  13  14
ENDBRANCH  11  13
ENDBRANCH   9  11
ENDBRANCH   5   9
BRANCH   8  31
HETATM   31  C   UNL     1      -6.589  16.174  67.158  1.00  0.00    -0.173 C  
BRANCH  31  32
HETATM   32  N   UNL     1      -6.750  17.479  67.844  1.00  0.00    -0.175 NA 
HETATM   33  O   UNL     1      -7.281  20.304  68.912  1.00  0.00    -0.164 OA 
HETATM   34  O   UNL     1      -5.854  20.602  70.626  1.00  0.00    -0.534 OA 
HETATM   35  C   UNL     1      -6.996  17.307  69.300  1.00  0.00    -0.178 C  
HETATM   36  C   UNL     1      -6.329  19.852  69.777  1.00  0.00    -0.367 C  
HETATM   37  C   UNL     1      -5.387  17.998  68.172  1.00  0.00    -0.156 C  
HETATM   38  C   UNL     1      -5.916  18.379  69.567  1.00  0.00    -0.257 C  
ENDBRANCH  31  32
ENDBRANCH   8  31
ENDBRANCH   2   3
TORSDOF 9
ENDMDL
MODEL      163
REMARK 921   NORMALIZED FREE ENERGY PREDICTED BY IDOCK:   -5.84 KCAL/MOL
REMARK 922        TOTAL FREE ENERGY PREDICTED BY IDOCK:  -10.34 KCAL/MOL
REMARK 923 INTER-LIGAND FREE ENERGY PREDICTED BY IDOCK:   -9.12 KCAL/MOL
REMARK 924 INTRA-LIGAND FREE ENERGY PREDICTED BY IDOCK:   -1.22 KCAL/MOL
REMARK 927      BINDING AFFINITY PREDICTED BY RF-SCORE:    0.00 PKD
ROOT
HETATM    1  C   UNL     1     -13.133   7.088  71.380  1.00  0.00    -0.375 C  
HETATM    2  C   UNL     1     -12.493   8.055  72.362  1.00  0.00    -0.256 C  
ENDROOT
BRANCH   2   3
HETATM    3  C   UNL     1     -11.119   8.514  71.931  1.00  0.00    -0.395 A  
HETATM    4  C   UNL     1     -11.110   9.429  70.868  1.00  0.00    -0.389 A  
HETATM    5  C   UNL     1      -9.927   9.818  70.237  1.00  0.00    -0.309 A  
HETATM    6  C   UNL     1      -8.714   9.322  70.699  1.00  0.00    -0.282 A  
HETATM    7  C   UNL     1      -8.699   8.461  71.809  1.00  0.00    -0.241 A  
HETATM    8  C   UNL     1      -9.890   8.057  72.456  1.00  0.00    -0.330 A  
BRANCH   5   9
HETATM    9  C   UNL     1     -10.076  10.643  69.005  1.00  0.00    -0.213 C  
HETATM   10  C   UNL     1     -11.397  10.706  68.287  1.00  0.00    -0.357 C  
BRANCH   9  11
HETATM   11  N   UNL     1      -9.016  11.288  68.605  1.00  0.00    -0.232 NA 
HETATM   12  H   UNL     1      -8.157  11.371  69.150  1.00  0.00     0.000 HD 
BRANCH  11  13
HETATM   13  O   UNL     1      -9.196  11.851  67.342  1.00  0.00    -0.171 OA 
BRANCH  13  14
HETATM   14  C   UNL     1      -8.194  12.846  67.166  1.00  0.00    -0.139 C  
BRANCH  14  15
HETATM   15  C   UNL     1      -8.858  14.183  67.287  1.00  0.00    -0.227 A  
HETATM   16  F   UNL     1     -12.159  16.912  69.627  1.00  0.00     0.551 F  
HETATM   17  F   UNL     1     -12.345  14.764  69.494  1.00  0.00    -0.331 F  
HETATM   18  C   UNL     1      -8.623  15.175  66.347  1.00  0.00    -0.139 A  
HETATM   19  F   UNL     1     -10.857  15.633  70.813  1.00  0.00    -0.311 F  
HETATM   20  C   UNL     1      -9.211  16.427  66.496  1.00  0.00    -0.306 A  
HETATM   21  C   UNL     1      -9.780  14.429  68.306  1.00  0.00    -0.222 A  
HETATM   22  C   UNL     1     -10.022  16.752  67.604  1.00  0.00    -0.262 A  
HETATM   23  C   UNL     1     -11.423  15.769  69.580  1.00  0.00    -0.353 C  
HETATM   24  C   UNL     1     -10.395  15.691  68.467  1.00  0.00    -0.219 A  
BRANCH  22  25
HETATM   25  C   UNL     1     -10.425  18.212  67.861  1.00  0.00    -0.408 C  
HETATM   26  C   UNL     1      -9.495  18.899  68.890  1.00  0.00    -0.356 C  
HETATM   27  C   UNL     1      -8.088  19.107  68.337  1.00  0.00    -0.378 C  
HETATM   28  C   UNL     1      -8.118  20.002  67.107  1.00  0.00    -0.357 C  
HETATM   29  C   UNL     1      -9.104  19.523  66.049  1.00  0.00    -0.240 C  
HETATM   30  C   UNL     1     -10.480  19.147  66.622  1.00  0.00    -0.529 C  
ENDBRANCH  22  25
ENDBRANCH  14  15
ENDBRANCH  13  14
ENDBRANCH  11  13
ENDBRANCH   9  11
ENDBRANCH   5   9
BRANCH   8  31
HETATM   31  C   UNL     1      -9.823   7.050  73.598  1.00  0.00    -0.280 C  
BRANCH  31  32
HETATM   32  N   UNL     1      -9.431   5.669  73.226  1.00  0.00    -0.142 NA 
HETATM   33  O   UNL     1      -8.226   2.957  72.451  1.00  0.00    -0.058 OA 
HETATM   34  O   UNL     1      -9.922   1.735  71.621  1.00  0.00    -0.148 OA 
HETATM   35  C   UNL     1     -10.273   4.655  73.915  1.00  0.00    -0.202 C  
HETATM   36  C   UNL     1      -9.546   2.769  72.164  1.00  0.00    -0.135 C  
HETATM   37  C   UNL     1     -10.125   5.322  71.947  1.00  0.00    -0.197 C  
HETATM   38  C   UNL     1     -10.463   3.948  72.555  1.00  0.00    -0.176 C  
ENDBRANCH  31  32
ENDBRANCH   8  31
ENDBRANCH   2   3
TORSDOF 9
ENDMDL
MODEL      164
REMARK 921   NORMALIZED FREE ENERGY PREDICTED BY IDOCK:   -5.83 KCAL/MOL
REMARK 922        TOTAL FREE ENERGY PREDICTED BY IDOCK:  -10.33 KCAL/MOL
REMARK 923 INTER-LIGAND FREE ENERGY PREDICTED BY IDOCK:   -8.69 KCAL/MOL
REMARK 924 INTRA-LIGAND FREE ENERGY PREDICTED BY IDOCK:   -1.64 KCAL/MOL
REMARK 927      BINDING AFFINITY PREDICTED BY RF-SCORE:    0.00 PKD
ROOT
HETATM    1  C   UNL     1     -10.822  11.339  69.555  1.00  0.00    -0.207 C  
HETATM    2  C   UNL     1     -11.991  11.705  68.655  1.00  0.00    -0.311 C  
ENDROOT
BRANCH   2   3
HETATM    3  C   UNL     1     -11.559  12.163  67.280  1.00  0.00    -0.404 A  
HETATM    4  C   UNL     1     -11.102  11.140  66.436  1.00  0.00    -0.204 A  
HETATM    5  C   UNL     1     -10.507  11.410  65.201  1.00  0.00    -0.351 A  
HETATM    6  C   UNL     1     -10.402  12.727  64.771  1.00  0.00    -0.345 A  
HETATM    7  C   UNL     1     -10.919  13.759  65.572  1.00  0.00    -0.299 A  
HETATM    8  C   UNL     1     -11.522  13.499  66.825  1.00  0.00    -0.374 A  
BRANCH   5   9
HETATM    9  C   UNL     1      -9.898  10.250  64.494  1.00  0.00    -0.315 C  
HETATM   10  C   UNL     1      -9.263  10.432  63.141  1.00  0.00    -0.314 C  
BRANCH   9  11
HETATM   11  N   UNL     1      -9.950   9.101  65.108  1.00  0.00    -0.223 NA 
HETATM   12  H   UNL     1     -10.817   8.646  65.395  1.00  0.00     0.000 HD 
BRANCH  11  13
HETATM   13  O   UNL     1      -8.680   8.569  65.324  1.00  0.00    -0.179 OA 
BRANCH  13  14
HETATM   14  C   UNL     1      -8.153   9.174  66.499  1.00  0.00    -0.107 C  
BRANCH  14  15
HETATM   15  C   UNL     1      -8.643   8.385  67.674  1.00  0.00    -0.130 A  
HETATM   16  F   UNL     1      -7.470   5.581  71.493  1.00  0.00    -0.083 F  
HETATM   17  F   UNL     1      -6.222   5.690  69.732  1.00  0.00    -0.024 F  
HETATM   18  C   UNL     1     -10.000   8.170  67.863  1.00  0.00    -0.225 A  
HETATM   19  F   UNL     1      -6.273   7.360  71.118  1.00  0.00    -0.035 F  
HETATM   20  C   UNL     1     -10.444   7.474  68.983  1.00  0.00    -0.216 A  
HETATM   21  C   UNL     1      -7.740   7.791  68.558  1.00  0.00    -0.118 A  
HETATM   22  C   UNL     1      -9.560   7.000  69.975  1.00  0.00    -0.164 A  
HETATM   23  C   UNL     1      -7.066   6.431  70.511  1.00  0.00    -0.065 C  
HETATM   24  C   UNL     1      -8.173   7.072  69.695  1.00  0.00    -0.131 A  
BRANCH  22  25
HETATM   25  C   UNL     1     -10.111   6.479  71.311  1.00  0.00    -0.208 C  
HETATM   26  C   UNL     1      -9.930   7.505  72.455  1.00  0.00    -0.233 C  
HETATM   27  C   UNL     1     -10.815   8.733  72.265  1.00  0.00    -0.328 C  
HETATM   28  C   UNL     1     -12.285   8.343  72.256  1.00  0.00    -0.449 C  
HETATM   29  C   UNL     1     -12.598   7.229  71.264  1.00  0.00    -0.402 C  
HETATM   30  C   UNL     1     -11.606   6.056  71.330  1.00  0.00    -0.186 C  
ENDBRANCH  22  25
ENDBRANCH  14  15
ENDBRANCH  13  14
ENDBRANCH  11  13
ENDBRANCH   9  11
ENDBRANCH   5   9
BRANCH   8  31
HETATM   31  C   UNL     1     -11.984  14.662  67.694  1.00  0.00    -0.274 C  
BRANCH  31  32
HETATM   32  N   UNL     1     -11.102  15.854  67.710  1.00  0.00    -0.315 NA 
HETATM   33  O   UNL     1      -9.382  18.365  67.338  1.00  0.00    -0.269 OA 
HETATM   34  O   UNL     1      -7.917  18.377  69.045  1.00  0.00    -0.222 OA 
HETATM   35  C   UNL     1     -11.186  16.582  69.004  1.00  0.00    -0.238 C  
HETATM   36  C   UNL     1      -8.892  17.861  68.506  1.00  0.00    -0.289 C  
HETATM   37  C   UNL     1      -9.728  15.405  68.094  1.00  0.00    -0.212 C  
HETATM   38  C   UNL     1      -9.642  16.620  69.036  1.00  0.00    -0.246 C  
ENDBRANCH  31  32
ENDBRANCH   8  31
ENDBRANCH   2   3
TORSDOF 9
ENDMDL
MODEL      165
REMARK 921   NORMALIZED FREE ENERGY PREDICTED BY IDOCK:   -5.83 KCAL/MOL
REMARK 922        TOTAL FREE ENERGY PREDICTED BY IDOCK:  -10.33 KCAL/MOL
REMARK 923 INTER-LIGAND FREE ENERGY PREDICTED BY IDOCK:   -9.03 KCAL/MOL
REMARK 924 INTRA-LIGAND FREE ENERGY PREDICTED BY IDOCK:   -1.30 KCAL/MOL
REMARK 927      BINDING AFFINITY PREDICTED BY RF-SCORE:    0.00 PKD
ROOT
HETATM    1  C   UNL     1      -6.908  14.392  69.368  1.00  0.00    -0.132 C  
HETATM    2  C   UNL     1      -7.131  14.034  67.908  1.00  0.00    -0.166 C  
ENDROOT
BRANCH   2   3
HETATM    3  C   UNL     1      -8.241  14.834  67.264  1.00  0.00    -0.237 A  
HETATM    4  C   UNL     1      -9.490  14.196  67.241  1.00  0.00    -0.229 A  
HETATM    5  C   UNL     1     -10.575  14.720  66.534  1.00  0.00    -0.299 A  
HETATM    6  C   UNL     1     -10.432  15.931  65.868  1.00  0.00    -0.373 A  
HETATM    7  C   UNL     1      -9.209  16.618  65.940  1.00  0.00    -0.175 A  
HETATM    8  C   UNL     1      -8.102  16.098  66.651  1.00  0.00    -0.323 A  
BRANCH   5   9
HETATM    9  C   UNL     1     -11.781  13.851  66.437  1.00  0.00    -0.383 C  
HETATM   10  C   UNL     1     -12.789  14.069  65.341  1.00  0.00    -0.442 C  
BRANCH   9  11
HETATM   11  N   UNL     1     -11.900  12.917  67.339  1.00  0.00    -0.374 NA 
HETATM   12  H   UNL     1     -11.857  13.085  68.344  1.00  0.00     0.000 HD 
BRANCH  11  13
HETATM   13  O   UNL     1     -12.092  11.661  66.765  1.00  0.00    -0.472 OA 
BRANCH  13  14
HETATM   14  C   UNL     1     -10.886  11.300  66.102  1.00  0.00    -0.222 C  
BRANCH  14  15
HETATM   15  C   UNL     1     -10.250  10.197  66.891  1.00  0.00    -0.295 A  
HETATM   16  F   UNL     1      -9.665   8.109  71.264  1.00  0.00    -0.167 F  
HETATM   17  F   UNL     1     -10.102  10.214  71.055  1.00  0.00    -0.166 F  
HETATM   18  C   UNL     1      -9.312   9.360  66.305  1.00  0.00    -0.253 A  
HETATM   19  F   UNL     1     -11.664   8.752  70.691  1.00  0.00    -0.283 F  
HETATM   20  C   UNL     1      -8.763   8.311  67.036  1.00  0.00    -0.132 A  
HETATM   21  C   UNL     1     -10.536  10.037  68.248  1.00  0.00    -0.264 A  
HETATM   22  C   UNL     1      -9.154   8.031  68.362  1.00  0.00    -0.136 A  
HETATM   23  C   UNL     1     -10.338   8.996  70.483  1.00  0.00    -0.218 C  
HETATM   24  C   UNL     1      -9.980   8.984  69.009  1.00  0.00    -0.191 A  
BRANCH  22  25
HETATM   25  C   UNL     1      -8.724   6.716  69.030  1.00  0.00    -0.129 C  
HETATM   26  C   UNL     1      -9.924   5.771  69.280  1.00  0.00    -0.238 C  
HETATM   27  C   UNL     1     -10.503   5.229  67.977  1.00  0.00    -0.143 C  
HETATM   28  C   UNL     1      -9.461   4.422  67.217  1.00  0.00    -0.197 C  
HETATM   29  C   UNL     1      -8.156   5.181  67.013  1.00  0.00    -0.104 C  
HETATM   30  C   UNL     1      -7.649   5.877  68.286  1.00  0.00    -0.090 C  
ENDBRANCH  22  25
ENDBRANCH  14  15
ENDBRANCH  13  14
ENDBRANCH  11  13
ENDBRANCH   9  11
ENDBRANCH   5   9
BRANCH   8  31
HETATM   31  C   UNL     1      -6.772  16.841  66.620  1.00  0.00    -0.206 C  
BRANCH  31  32
HETATM   32  N   UNL     1      -6.696  18.075  67.438  1.00  0.00    -0.179 NA 
HETATM   33  O   UNL     1      -6.461  20.828  68.769  1.00  0.00    -0.255 OA 
HETATM   34  O   UNL     1      -6.115  20.437  70.957  1.00  0.00    -0.545 OA 
HETATM   35  C   UNL     1      -7.685  18.059  68.549  1.00  0.00    -0.302 C  
HETATM   36  C   UNL     1      -6.360  19.990  69.840  1.00  0.00    -0.356 C  
HETATM   37  C   UNL     1      -5.610  17.891  68.451  1.00  0.00    -0.164 C  
HETATM   38  C   UNL     1      -6.554  18.495  69.507  1.00  0.00    -0.189 C  
ENDBRANCH  31  32
ENDBRANCH   8  31
ENDBRANCH   2   3
TORSDOF 9
ENDMDL
MODEL      166
REMARK 921   NORMALIZED FREE ENERGY PREDICTED BY IDOCK:   -5.82 KCAL/MOL
REMARK 922        TOTAL FREE ENERGY PREDICTED BY IDOCK:  -10.31 KCAL/MOL
REMARK 923 INTER-LIGAND FREE ENERGY PREDICTED BY IDOCK:   -8.86 KCAL/MOL
REMARK 924 INTRA-LIGAND FREE ENERGY PREDICTED BY IDOCK:   -1.45 KCAL/MOL
REMARK 927      BINDING AFFINITY PREDICTED BY RF-SCORE:    0.00 PKD
ROOT
HETATM    1  C   UNL     1      -7.849   8.390  63.314  1.00  0.00    -0.151 C  
HETATM    2  C   UNL     1      -8.282   7.537  64.495  1.00  0.00    -0.036 C  
ENDROOT
BRANCH   2   3
HETATM    3  C   UNL     1      -8.470   8.336  65.765  1.00  0.00    -0.164 A  
HETATM    4  C   UNL     1      -8.761   9.694  65.568  1.00  0.00    -0.176 A  
HETATM    5  C   UNL     1      -8.793  10.605  66.627  1.00  0.00    -0.149 A  
HETATM    6  C   UNL     1      -8.574  10.151  67.921  1.00  0.00    -0.118 A  
HETATM    7  C   UNL     1      -8.352   8.782  68.144  1.00  0.00    -0.122 A  
HETATM    8  C   UNL     1      -8.316   7.849  67.081  1.00  0.00    -0.117 A  
BRANCH   5   9
HETATM    9  C   UNL     1      -8.925  12.042  66.258  1.00  0.00    -0.129 C  
HETATM   10  C   UNL     1      -8.210  13.101  67.053  1.00  0.00    -0.062 C  
BRANCH   9  11
HETATM   11  N   UNL     1      -9.680  12.312  65.230  1.00  0.00    -0.425 NA 
HETATM   12  H   UNL     1      -9.329  12.433  64.279  1.00  0.00     0.000 HD 
BRANCH  11  13
HETATM   13  O   UNL     1     -11.024  12.414  65.584  1.00  0.00    -0.270 OA 
BRANCH  13  14
HETATM   14  C   UNL     1     -11.553  13.570  64.945  1.00  0.00    -0.335 C  
BRANCH  14  15
HETATM   15  C   UNL     1     -11.211  14.753  65.797  1.00  0.00    -0.337 A  
HETATM   16  F   UNL     1     -11.258  16.729  70.260  1.00  0.00    -0.338 F  
HETATM   17  F   UNL     1     -12.710  15.248  69.653  1.00  0.00    -0.253 F  
HETATM   18  C   UNL     1     -10.760  15.931  65.220  1.00  0.00    -0.442 A  
HETATM   19  F   UNL     1     -10.666  14.643  70.065  1.00  0.00    -0.235 F  
HETATM   20  C   UNL     1     -10.403  17.008  66.027  1.00  0.00    -0.324 A  
HETATM   21  C   UNL     1     -11.409  14.716  67.178  1.00  0.00    -0.365 A  
HETATM   22  C   UNL     1     -10.443  16.940  67.435  1.00  0.00    -0.310 A  
HETATM   23  C   UNL     1     -11.408  15.626  69.478  1.00  0.00    -0.327 C  
HETATM   24  C   UNL     1     -11.062  15.803  68.012  1.00  0.00    -0.337 A  
BRANCH  22  25
HETATM   25  C   UNL     1      -9.792  18.047  68.278  1.00  0.00    -0.357 C  
HETATM   26  C   UNL     1      -8.247  17.970  68.245  1.00  0.00    -0.298 C  
HETATM   27  C   UNL     1      -7.687  18.320  66.870  1.00  0.00    -0.242 C  
HETATM   28  C   UNL     1      -8.062  19.742  66.480  1.00  0.00    -0.351 C  
HETATM   29  C   UNL     1      -9.556  20.015  66.597  1.00  0.00    -0.548 C  
HETATM   30  C   UNL     1     -10.168  19.510  67.914  1.00  0.00    -0.550 C  
ENDBRANCH  22  25
ENDBRANCH  14  15
ENDBRANCH  13  14
ENDBRANCH  11  13
ENDBRANCH   9  11
ENDBRANCH   5   9
BRANCH   8  31
HETATM   31  C   UNL     1      -7.981   6.391  67.370  1.00  0.00    -0.116 C  
BRANCH  31  32
HETATM   32  N   UNL     1      -8.797   5.730  68.417  1.00  0.00    -0.110 NA 
HETATM   33  O   UNL     1     -10.657   4.742  70.646  1.00  0.00    -0.106 OA 
HETATM   34  O   UNL     1      -9.802   2.784  71.351  1.00  0.00    -0.160 OA 
HETATM   35  C   UNL     1      -9.184   4.349  68.022  1.00  0.00    -0.136 C  
HETATM   36  C   UNL     1      -9.761   3.718  70.555  1.00  0.00    -0.160 C  
HETATM   37  C   UNL     1      -7.863   5.141  69.426  1.00  0.00    -0.080 C  
HETATM   38  C   UNL     1      -8.728   3.867  69.417  1.00  0.00    -0.124 C  
ENDBRANCH  31  32
ENDBRANCH   8  31
ENDBRANCH   2   3
TORSDOF 9
ENDMDL
MODEL      167
REMARK 921   NORMALIZED FREE ENERGY PREDICTED BY IDOCK:   -5.81 KCAL/MOL
REMARK 922        TOTAL FREE ENERGY PREDICTED BY IDOCK:  -10.29 KCAL/MOL
REMARK 923 INTER-LIGAND FREE ENERGY PREDICTED BY IDOCK:   -7.52 KCAL/MOL
REMARK 924 INTRA-LIGAND FREE ENERGY PREDICTED BY IDOCK:   -2.77 KCAL/MOL
REMARK 927      BINDING AFFINITY PREDICTED BY RF-SCORE:    0.00 PKD
ROOT
HETATM    1  C   UNL     1     -11.145   6.789  67.271  1.00  0.00    -0.394 C  
HETATM    2  C   UNL     1     -10.107   5.907  66.597  1.00  0.00    -0.229 C  
ENDROOT
BRANCH   2   3
HETATM    3  C   UNL     1      -8.814   6.632  66.303  1.00  0.00    -0.156 A  
HETATM    4  C   UNL     1      -8.954   8.005  66.049  1.00  0.00    -0.205 A  
HETATM    5  C   UNL     1      -7.889   8.785  65.593  1.00  0.00    -0.097 A  
HETATM    6  C   UNL     1      -6.640   8.200  65.425  1.00  0.00    -0.052 A  
HETATM    7  C   UNL     1      -6.465   6.843  65.742  1.00  0.00    -0.050 A  
HETATM    8  C   UNL     1      -7.536   6.041  66.204  1.00  0.00    -0.085 A  
BRANCH   5   9
HETATM    9  C   UNL     1      -8.219  10.179  65.184  1.00  0.00    -0.151 C  
HETATM   10  C   UNL     1      -9.212  10.433  64.082  1.00  0.00    -0.298 C  
BRANCH   9  11
HETATM   11  N   UNL     1      -7.607  11.134  65.826  1.00  0.00    -0.368 NA 
HETATM   12  H   UNL     1      -6.770  11.607  65.486  1.00  0.00     0.000 HD 
BRANCH  11  13
HETATM   13  O   UNL     1      -8.236  11.434  67.034  1.00  0.00    -0.146 OA 
BRANCH  13  14
HETATM   14  C   UNL     1      -7.482  10.824  68.076  1.00  0.00    -0.090 C  
BRANCH  14  15
HETATM   15  C   UNL     1      -8.453  10.277  69.076  1.00  0.00    -0.150 A  
HETATM   16  F   UNL     1     -12.860  10.673  71.136  1.00  0.00    -0.394 F  
HETATM   17  F   UNL     1     -11.833  12.382  70.303  1.00  0.00    -0.389 F  
HETATM   18  C   UNL     1      -8.071   9.277  69.957  1.00  0.00    -0.140 A  
HETATM   19  F   UNL     1     -12.711  10.905  68.977  1.00  0.00    -0.215 F  
HETATM   20  C   UNL     1      -8.996   8.746  70.851  1.00  0.00    -0.247 A  
HETATM   21  C   UNL     1      -9.737  10.813  69.187  1.00  0.00    -0.181 A  
HETATM   22  C   UNL     1     -10.344   9.161  70.874  1.00  0.00    -0.349 A  
HETATM   23  C   UNL     1     -12.009  11.037  70.139  1.00  0.00    -0.360 C  
HETATM   24  C   UNL     1     -10.687  10.294  70.095  1.00  0.00    -0.334 A  
BRANCH  22  25
HETATM   25  C   UNL     1     -11.380   8.366  71.684  1.00  0.00    -0.349 C  
HETATM   26  C   UNL     1     -11.979   7.194  70.870  1.00  0.00    -0.375 C  
HETATM   27  C   UNL     1     -10.951   6.098  70.607  1.00  0.00    -0.376 C  
HETATM   28  C   UNL     1     -10.444   5.509  71.915  1.00  0.00    -0.282 C  
HETATM   29  C   UNL     1      -9.942   6.568  72.889  1.00  0.00    -0.188 C  
HETATM   30  C   UNL     1     -10.896   7.765  73.033  1.00  0.00    -0.451 C  
ENDBRANCH  22  25
ENDBRANCH  14  15
ENDBRANCH  13  14
ENDBRANCH  11  13
ENDBRANCH   9  11
ENDBRANCH   5   9
BRANCH   8  31
HETATM   31  C   UNL     1      -7.312   4.553  66.447  1.00  0.00    -0.081 C  
BRANCH  31  32
HETATM   32  N   UNL     1      -6.914   4.171  67.823  1.00  0.00    -0.055 NA 
HETATM   33  O   UNL     1      -5.784   3.156  70.487  1.00  0.00    -0.015 OA 
HETATM   34  O   UNL     1      -7.413   3.452  72.010  1.00  0.00    -0.050 OA 
HETATM   35  C   UNL     1      -7.100   5.293  68.781  1.00  0.00    -0.061 C  
HETATM   36  C   UNL     1      -7.011   3.616  70.861  1.00  0.00    -0.033 C  
HETATM   37  C   UNL     1      -8.075   3.480  68.463  1.00  0.00    -0.069 C  
HETATM   38  C   UNL     1      -7.810   4.307  69.735  1.00  0.00    -0.053 C  
ENDBRANCH  31  32
ENDBRANCH   8  31
ENDBRANCH   2   3
TORSDOF 9
ENDMDL
MODEL      168
REMARK 921   NORMALIZED FREE ENERGY PREDICTED BY IDOCK:   -5.79 KCAL/MOL
REMARK 922        TOTAL FREE ENERGY PREDICTED BY IDOCK:  -10.27 KCAL/MOL
REMARK 923 INTER-LIGAND FREE ENERGY PREDICTED BY IDOCK:   -8.66 KCAL/MOL
REMARK 924 INTRA-LIGAND FREE ENERGY PREDICTED BY IDOCK:   -1.61 KCAL/MOL
REMARK 927      BINDING AFFINITY PREDICTED BY RF-SCORE:    0.00 PKD
ROOT
HETATM    1  C   UNL     1      -9.073  10.998  67.590  1.00  0.00    -0.145 C  
HETATM    2  C   UNL     1     -10.390  11.708  67.324  1.00  0.00    -0.232 C  
ENDROOT
BRANCH   2   3
HETATM    3  C   UNL     1     -10.798  12.636  68.445  1.00  0.00    -0.268 A  
HETATM    4  C   UNL     1     -11.559  12.035  69.460  1.00  0.00    -0.389 A  
HETATM    5  C   UNL     1     -12.161  12.783  70.474  1.00  0.00    -0.389 A  
HETATM    6  C   UNL     1     -11.969  14.158  70.511  1.00  0.00    -0.393 A  
HETATM    7  C   UNL     1     -11.152  14.767  69.544  1.00  0.00    -0.302 A  
HETATM    8  C   UNL     1     -10.537  14.023  68.510  1.00  0.00    -0.260 A  
BRANCH   5   9
HETATM    9  C   UNL     1     -13.093  12.046  71.373  1.00  0.00    -0.197 C  
HETATM   10  C   UNL     1     -13.662  12.717  72.594  1.00  0.00    -0.098 C  
BRANCH   9  11
HETATM   11  N   UNL     1     -13.372  10.817  71.040  1.00  0.00    -0.103 NA 
HETATM   12  H   UNL     1     -13.594  10.518  70.090  1.00  0.00     0.000 HD 
BRANCH  11  13
HETATM   13  O   UNL     1     -13.332   9.959  72.138  1.00  0.00    -0.438 OA 
BRANCH  13  14
HETATM   14  C   UNL     1     -13.544   8.636  71.660  1.00  0.00    -0.371 C  
BRANCH  14  15
HETATM   15  C   UNL     1     -12.201   8.027  71.403  1.00  0.00    -0.335 A  
HETATM   16  F   UNL     1      -7.911   6.646  73.278  1.00  0.00    -0.097 F  
HETATM   17  F   UNL     1      -9.080   8.237  74.156  1.00  0.00    -0.265 F  
HETATM   18  C   UNL     1     -11.783   7.760  70.108  1.00  0.00     0.122 A  
HETATM   19  F   UNL     1      -9.719   6.177  74.395  1.00  0.00    -0.160 F  
HETATM   20  C   UNL     1     -10.550   7.152  69.886  1.00  0.00    -0.246 A  
HETATM   21  C   UNL     1     -11.317   7.784  72.456  1.00  0.00    -0.429 A  
HETATM   22  C   UNL     1      -9.707   6.752  70.943  1.00  0.00    -0.186 A  
HETATM   23  C   UNL     1      -9.192   7.050  73.489  1.00  0.00    -0.163 C  
HETATM   24  C   UNL     1     -10.058   7.177  72.249  1.00  0.00    -0.202 A  
BRANCH  22  25
HETATM   25  C   UNL     1      -8.494   5.853  70.661  1.00  0.00    -0.129 C  
HETATM   26  C   UNL     1      -8.623   4.470  71.344  1.00  0.00    -0.127 C  
HETATM   27  C   UNL     1      -9.729   3.626  70.717  1.00  0.00    -0.222 C  
HETATM   28  C   UNL     1      -9.440   3.363  69.247  1.00  0.00    -0.212 C  
HETATM   29  C   UNL     1      -9.151   4.637  68.462  1.00  0.00    -0.157 C  
HETATM   30  C   UNL     1      -8.163   5.579  69.169  1.00  0.00    -0.095 C  
ENDBRANCH  22  25
ENDBRANCH  14  15
ENDBRANCH  13  14
ENDBRANCH  11  13
ENDBRANCH   9  11
ENDBRANCH   5   9
BRANCH   8  31
HETATM   31  C   UNL     1      -9.735  14.746  67.436  1.00  0.00    -0.214 C  
BRANCH  31  32
HETATM   32  N   UNL     1      -9.507  16.194  67.657  1.00  0.00    -0.219 NA 
HETATM   33  O   UNL     1      -9.158  19.119  68.511  1.00  0.00    -0.344 OA 
HETATM   34  O   UNL     1      -9.114  20.323  66.611  1.00  0.00    -0.328 OA 
HETATM   35  C   UNL     1      -8.329  16.687  66.894  1.00  0.00    -0.210 C  
HETATM   36  C   UNL     1      -9.145  19.221  67.151  1.00  0.00    -0.299 C  
HETATM   37  C   UNL     1     -10.388  16.949  66.713  1.00  0.00    -0.298 C  
HETATM   38  C   UNL     1      -9.194  17.870  66.405  1.00  0.00    -0.258 C  
ENDBRANCH  31  32
ENDBRANCH   8  31
ENDBRANCH   2   3
TORSDOF 9
ENDMDL
MODEL      169
REMARK 921   NORMALIZED FREE ENERGY PREDICTED BY IDOCK:   -5.78 KCAL/MOL
REMARK 922        TOTAL FREE ENERGY PREDICTED BY IDOCK:  -10.26 KCAL/MOL
REMARK 923 INTER-LIGAND FREE ENERGY PREDICTED BY IDOCK:   -9.01 KCAL/MOL
REMARK 924 INTRA-LIGAND FREE ENERGY PREDICTED BY IDOCK:   -1.24 KCAL/MOL
REMARK 927      BINDING AFFINITY PREDICTED BY RF-SCORE:    0.00 PKD
ROOT
HETATM    1  C   UNL     1      -6.853  12.553  67.420  1.00  0.00    -0.145 C  
HETATM    2  C   UNL     1      -7.126  14.001  67.792  1.00  0.00    -0.183 C  
ENDROOT
BRANCH   2   3
HETATM    3  C   UNL     1      -8.576  14.263  68.130  1.00  0.00    -0.172 A  
HETATM    4  C   UNL     1      -9.453  13.214  67.812  1.00  0.00    -0.209 A  
HETATM    5  C   UNL     1     -10.839  13.358  67.899  1.00  0.00    -0.263 A  
HETATM    6  C   UNL     1     -11.372  14.557  68.354  1.00  0.00    -0.311 A  
HETATM    7  C   UNL     1     -10.507  15.593  68.744  1.00  0.00    -0.225 A  
HETATM    8  C   UNL     1      -9.100  15.462  68.660  1.00  0.00    -0.195 A  
BRANCH   5   9
HETATM    9  C   UNL     1     -11.654  12.236  67.353  1.00  0.00    -0.355 C  
HETATM   10  C   UNL     1     -11.867  12.102  65.869  1.00  0.00    -0.342 C  
BRANCH   9  11
HETATM   11  N   UNL     1     -12.155  11.404  68.223  1.00  0.00    -0.608 NA 
HETATM   12  H   UNL     1     -13.152  11.211  68.320  1.00  0.00     0.000 HD 
BRANCH  11  13
HETATM   13  O   UNL     1     -11.165  10.810  69.004  1.00  0.00    -0.223 OA 
BRANCH  13  14
HETATM   14  C   UNL     1     -10.622   9.725  68.262  1.00  0.00    -0.229 C  
BRANCH  14  15
HETATM   15  C   UNL     1     -10.641   8.517  69.148  1.00  0.00    -0.188 A  
HETATM   16  F   UNL     1      -9.888   3.710  69.525  1.00  0.00    -0.258 F  
HETATM   17  F   UNL     1     -10.440   4.634  67.651  1.00  0.00    -0.152 F  
HETATM   18  C   UNL     1     -11.160   8.592  70.433  1.00  0.00    -0.250 A  
HETATM   19  F   UNL     1      -8.430   4.896  68.427  1.00  0.00    -0.094 F  
HETATM   20  C   UNL     1     -11.130   7.474  71.261  1.00  0.00    -0.267 A  
HETATM   21  C   UNL     1     -10.204   7.280  68.673  1.00  0.00    -0.191 A  
HETATM   22  C   UNL     1     -10.548   6.254  70.858  1.00  0.00    -0.293 A  
HETATM   23  C   UNL     1      -9.740   4.854  68.804  1.00  0.00    -0.165 C  
HETATM   24  C   UNL     1     -10.175   6.132  69.496  1.00  0.00    -0.250 A  
BRANCH  22  25
HETATM   25  C   UNL     1     -10.299   5.143  71.889  1.00  0.00    -0.275 C  
HETATM   26  C   UNL     1      -8.791   4.936  72.170  1.00  0.00    -0.137 C  
HETATM   27  C   UNL     1      -8.181   6.124  72.908  1.00  0.00    -0.116 C  
HETATM   28  C   UNL     1      -8.854   6.324  74.258  1.00  0.00    -0.147 C  
HETATM   29  C   UNL     1     -10.372   6.407  74.158  1.00  0.00    -0.335 C  
HETATM   30  C   UNL     1     -10.987   5.311  73.272  1.00  0.00    -0.369 C  
ENDBRANCH  22  25
ENDBRANCH  14  15
ENDBRANCH  13  14
ENDBRANCH  11  13
ENDBRANCH   9  11
ENDBRANCH   5   9
BRANCH   8  31
HETATM   31  C   UNL     1      -8.211  16.648  69.011  1.00  0.00    -0.190 C  
BRANCH  31  32
HETATM   32  N   UNL     1      -8.287  17.812  68.095  1.00  0.00    -0.256 NA 
HETATM   33  O   UNL     1      -8.861  20.180  66.233  1.00  0.00    -0.309 OA 
HETATM   34  O   UNL     1      -6.967  20.537  65.074  1.00  0.00    -0.263 OA 
HETATM   35  C   UNL     1      -7.202  18.793  68.363  1.00  0.00    -0.280 C  
HETATM   36  C   UNL     1      -7.549  19.926  65.966  1.00  0.00    -0.325 C  
HETATM   37  C   UNL     1      -7.590  17.444  66.824  1.00  0.00    -0.228 C  
HETATM   38  C   UNL     1      -6.914  18.827  66.846  1.00  0.00    -0.213 C  
ENDBRANCH  31  32
ENDBRANCH   8  31
ENDBRANCH   2   3
TORSDOF 9
ENDMDL
MODEL      170
REMARK 921   NORMALIZED FREE ENERGY PREDICTED BY IDOCK:   -5.77 KCAL/MOL
REMARK 922        TOTAL FREE ENERGY PREDICTED BY IDOCK:  -10.24 KCAL/MOL
REMARK 923 INTER-LIGAND FREE ENERGY PREDICTED BY IDOCK:   -9.83 KCAL/MOL
REMARK 924 INTRA-LIGAND FREE ENERGY PREDICTED BY IDOCK:   -0.41 KCAL/MOL
REMARK 927      BINDING AFFINITY PREDICTED BY RF-SCORE:    0.00 PKD
ROOT
HETATM    1  C   UNL     1     -13.526  15.496  72.020  1.00  0.00    -0.578 C  
HETATM    2  C   UNL     1     -13.314  14.074  72.513  1.00  0.00    -0.639 C  
ENDROOT
BRANCH   2   3
HETATM    3  C   UNL     1     -12.830  13.137  71.430  1.00  0.00    -0.401 A  
HETATM    4  C   UNL     1     -13.143  11.786  71.637  1.00  0.00    -0.443 A  
HETATM    5  C   UNL     1     -12.624  10.774  70.827  1.00  0.00    -0.476 A  
HETATM    6  C   UNL     1     -11.809  11.112  69.754  1.00  0.00    -0.422 A  
HETATM    7  C   UNL     1     -11.544  12.466  69.489  1.00  0.00    -0.353 A  
HETATM    8  C   UNL     1     -12.061  13.501  70.303  1.00  0.00    -0.425 A  
BRANCH   5   9
HETATM    9  C   UNL     1     -12.882   9.375  71.270  1.00  0.00    -0.309 C  
HETATM   10  C   UNL     1     -14.169   9.022  71.966  1.00  0.00    -0.384 C  
BRANCH   9  11
HETATM   11  N   UNL     1     -11.944   8.504  71.022  1.00  0.00    -0.376 NA 
HETATM   12  H   UNL     1     -10.969   8.748  70.848  1.00  0.00     0.000 HD 
BRANCH  11  13
HETATM   13  O   UNL     1     -12.434   7.198  71.023  1.00  0.00    -0.357 OA 
BRANCH  13  14
HETATM   14  C   UNL     1     -11.507   6.390  71.738  1.00  0.00    -0.300 C  
BRANCH  14  15
HETATM   15  C   UNL     1     -10.321   6.171  70.850  1.00  0.00    -0.267 A  
HETATM   16  F   UNL     1      -8.422   3.684  67.103  1.00  0.00    -0.095 F  
HETATM   17  F   UNL     1      -9.966   2.847  68.361  1.00  0.00    -0.143 F  
HETATM   18  C   UNL     1      -9.112   6.795  71.119  1.00  0.00    -0.151 A  
HETATM   19  F   UNL     1     -10.471   4.399  66.930  1.00  0.00    -0.214 F  
HETATM   20  C   UNL     1      -8.031   6.618  70.260  1.00  0.00    -0.115 A  
HETATM   21  C   UNL     1     -10.391   5.279  69.778  1.00  0.00    -0.369 A  
HETATM   22  C   UNL     1      -8.124   5.848  69.082  1.00  0.00    -0.106 A  
HETATM   23  C   UNL     1      -9.518   4.025  67.832  1.00  0.00    -0.173 C  
HETATM   24  C   UNL     1      -9.300   5.079  68.901  1.00  0.00    -0.174 A  
BRANCH  22  25
HETATM   25  C   UNL     1      -6.998   5.900  68.039  1.00  0.00    -0.069 C  
HETATM   26  C   UNL     1      -7.317   6.885  66.888  1.00  0.00    -0.082 C  
HETATM   27  C   UNL     1      -7.308   8.336  67.360  1.00  0.00    -0.092 C  
HETATM   28  C   UNL     1      -5.938   8.720  67.897  1.00  0.00    -0.050 C  
HETATM   29  C   UNL     1      -5.422   7.752  68.954  1.00  0.00    -0.026 C  
HETATM   30  C   UNL     1      -5.583   6.275  68.560  1.00  0.00    -0.008 C  
ENDBRANCH  22  25
ENDBRANCH  14  15
ENDBRANCH  13  14
ENDBRANCH  11  13
ENDBRANCH   9  11
ENDBRANCH   5   9
BRANCH   8  31
HETATM   31  C   UNL     1     -11.668  14.946  70.024  1.00  0.00    -0.294 C  
BRANCH  31  32
HETATM   32  N   UNL     1     -10.901  15.184  68.777  1.00  0.00    -0.238 NA 
HETATM   33  O   UNL     1      -9.194  15.274  66.232  1.00  0.00    -0.281 OA 
HETATM   34  O   UNL     1      -8.818  17.451  65.808  1.00  0.00    -0.522 OA 
HETATM   35  C   UNL     1     -11.628  16.091  67.850  1.00  0.00    -0.054 C  
HETATM   36  C   UNL     1      -9.384  16.599  66.488  1.00  0.00    -0.265 C  
HETATM   37  C   UNL     1      -9.929  16.290  69.039  1.00  0.00    -0.256 C  
HETATM   38  C   UNL     1     -10.321  16.896  67.679  1.00  0.00    -0.317 C  
ENDBRANCH  31  32
ENDBRANCH   8  31
ENDBRANCH   2   3
TORSDOF 9
ENDMDL
MODEL      171
REMARK 921   NORMALIZED FREE ENERGY PREDICTED BY IDOCK:   -5.75 KCAL/MOL
REMARK 922        TOTAL FREE ENERGY PREDICTED BY IDOCK:  -10.20 KCAL/MOL
REMARK 923 INTER-LIGAND FREE ENERGY PREDICTED BY IDOCK:   -8.49 KCAL/MOL
REMARK 924 INTRA-LIGAND FREE ENERGY PREDICTED BY IDOCK:   -1.71 KCAL/MOL
REMARK 927      BINDING AFFINITY PREDICTED BY RF-SCORE:    0.00 PKD
ROOT
HETATM    1  C   UNL     1     -11.703  12.099  65.589  1.00  0.00    -0.385 C  
HETATM    2  C   UNL     1     -11.096  13.282  66.326  1.00  0.00    -0.306 C  
ENDROOT
BRANCH   2   3
HETATM    3  C   UNL     1      -9.753  12.968  66.946  1.00  0.00    -0.238 A  
HETATM    4  C   UNL     1      -9.154  11.786  66.484  1.00  0.00    -0.203 A  
HETATM    5  C   UNL     1      -8.002  11.262  67.075  1.00  0.00    -0.150 A  
HETATM    6  C   UNL     1      -7.401  11.949  68.122  1.00  0.00    -0.092 A  
HETATM    7  C   UNL     1      -7.948  13.170  68.550  1.00  0.00    -0.094 A  
HETATM    8  C   UNL     1      -9.115  13.712  67.962  1.00  0.00    -0.192 A  
BRANCH   5   9
HETATM    9  C   UNL     1      -7.581   9.909  66.613  1.00  0.00    -0.103 C  
HETATM   10  C   UNL     1      -6.173   9.430  66.847  1.00  0.00    -0.065 C  
BRANCH   9  11
HETATM   11  N   UNL     1      -8.487   9.191  66.012  1.00  0.00    -0.126 NA 
HETATM   12  H   UNL     1      -9.392   9.550  65.708  1.00  0.00     0.000 HD 
BRANCH  11  13
HETATM   13  O   UNL     1      -8.072   7.872  65.835  1.00  0.00    -0.106 OA 
BRANCH  13  14
HETATM   14  C   UNL     1      -9.228   7.044  65.890  1.00  0.00     0.052 C  
BRANCH  14  15
HETATM   15  C   UNL     1      -9.527   6.781  67.333  1.00  0.00    -0.150 A  
HETATM   16  F   UNL     1      -7.808   5.351  71.672  1.00  0.00    -0.099 F  
HETATM   17  F   UNL     1      -6.924   4.680  69.817  1.00  0.00    -0.046 F  
HETATM   18  C   UNL     1     -10.832   6.823  67.802  1.00  0.00    -0.339 A  
HETATM   19  F   UNL     1      -6.598   6.718  70.487  1.00  0.00    -0.046 F  
HETATM   20  C   UNL     1     -11.091   6.621  69.155  1.00  0.00    -0.332 A  
HETATM   21  C   UNL     1      -8.508   6.420  68.216  1.00  0.00    -0.115 A  
HETATM   22  C   UNL     1     -10.062   6.412  70.096  1.00  0.00    -0.209 A  
HETATM   23  C   UNL     1      -7.551   5.747  70.396  1.00  0.00    -0.090 C  
HETATM   24  C   UNL     1      -8.754   6.202  69.591  1.00  0.00    -0.135 A  
BRANCH  22  25
HETATM   25  C   UNL     1     -10.372   6.462  71.600  1.00  0.00    -0.235 C  
HETATM   26  C   UNL     1      -9.986   7.823  72.228  1.00  0.00    -0.259 C  
HETATM   27  C   UNL     1     -10.883   8.954  71.734  1.00  0.00    -0.436 C  
HETATM   28  C   UNL     1     -12.335   8.694  72.110  1.00  0.00    -0.452 C  
HETATM   29  C   UNL     1     -12.824   7.318  71.674  1.00  0.00    -0.415 C  
HETATM   30  C   UNL     1     -11.843   6.185  72.016  1.00  0.00    -0.336 C  
ENDBRANCH  22  25
ENDBRANCH  14  15
ENDBRANCH  13  14
ENDBRANCH  11  13
ENDBRANCH   9  11
ENDBRANCH   5   9
BRANCH   8  31
HETATM   31  C   UNL     1      -9.717  14.993  68.525  1.00  0.00    -0.217 C  
BRANCH  31  32
HETATM   32  N   UNL     1      -9.993  16.069  67.542  1.00  0.00    -0.237 NA 
HETATM   33  O   UNL     1     -10.509  18.000  65.216  1.00  0.00    -0.562 OA 
HETATM   34  O   UNL     1     -10.249  20.071  66.054  1.00  0.00    -0.474 OA 
HETATM   35  C   UNL     1     -11.033  17.011  68.037  1.00  0.00    -0.252 C  
HETATM   36  C   UNL     1     -10.297  18.860  66.252  1.00  0.00    -0.453 C  
HETATM   37  C   UNL     1      -8.975  17.147  67.740  1.00  0.00    -0.226 C  
HETATM   38  C   UNL     1     -10.111  18.180  67.625  1.00  0.00    -0.367 C  
ENDBRANCH  31  32
ENDBRANCH   8  31
ENDBRANCH   2   3
TORSDOF 9
ENDMDL
MODEL      172
REMARK 921   NORMALIZED FREE ENERGY PREDICTED BY IDOCK:   -5.72 KCAL/MOL
REMARK 922        TOTAL FREE ENERGY PREDICTED BY IDOCK:  -10.15 KCAL/MOL
REMARK 923 INTER-LIGAND FREE ENERGY PREDICTED BY IDOCK:   -8.64 KCAL/MOL
REMARK 924 INTRA-LIGAND FREE ENERGY PREDICTED BY IDOCK:   -1.51 KCAL/MOL
REMARK 927      BINDING AFFINITY PREDICTED BY RF-SCORE:    0.00 PKD
ROOT
HETATM    1  C   UNL     1      -8.768  17.608  68.369  1.00  0.00    -0.284 C  
HETATM    2  C   UNL     1      -8.375  16.543  67.358  1.00  0.00    -0.188 C  
ENDROOT
BRANCH   2   3
HETATM    3  C   UNL     1      -8.616  15.136  67.855  1.00  0.00    -0.154 A  
HETATM    4  C   UNL     1      -7.477  14.482  68.349  1.00  0.00    -0.116 A  
HETATM    5  C   UNL     1      -7.490  13.126  68.684  1.00  0.00    -0.092 A  
HETATM    6  C   UNL     1      -8.673  12.408  68.569  1.00  0.00    -0.060 A  
HETATM    7  C   UNL     1      -9.841  13.064  68.144  1.00  0.00    -0.228 A  
HETATM    8  C   UNL     1      -9.842  14.437  67.800  1.00  0.00    -0.221 A  
BRANCH   5   9
HETATM    9  C   UNL     1      -6.171  12.516  69.013  1.00  0.00    -0.087 C  
HETATM   10  C   UNL     1      -5.372  13.018  70.185  1.00  0.00    -0.110 C  
BRANCH   9  11
HETATM   11  N   UNL     1      -5.770  11.545  68.240  1.00  0.00    -0.045 NA 
HETATM   12  H   UNL     1      -5.471  11.672  67.273  1.00  0.00     0.000 HD 
BRANCH  11  13
HETATM   13  O   UNL     1      -5.800  10.314  68.894  1.00  0.00    -0.041 OA 
BRANCH  13  14
HETATM   14  C   UNL     1      -6.506   9.401  68.062  1.00  0.00    -0.062 C  
BRANCH  14  15
HETATM   15  C   UNL     1      -7.653   8.859  68.859  1.00  0.00    -0.087 A  
HETATM   16  F   UNL     1     -11.769   6.235  68.836  1.00  0.00    -0.397 F  
HETATM   17  F   UNL     1     -11.072   7.279  67.077  1.00  0.00    -0.414 F  
HETATM   18  C   UNL     1      -7.840   9.243  70.178  1.00  0.00    -0.129 A  
HETATM   19  F   UNL     1     -10.058   5.473  67.727  1.00  0.00    -0.143 F  
HETATM   20  C   UNL     1      -8.884   8.697  70.920  1.00  0.00    -0.221 A  
HETATM   21  C   UNL     1      -8.593   8.014  68.266  1.00  0.00    -0.130 A  
HETATM   22  C   UNL     1      -9.753   7.720  70.391  1.00  0.00    -0.179 A  
HETATM   23  C   UNL     1     -10.635   6.619  68.191  1.00  0.00    -0.241 C  
HETATM   24  C   UNL     1      -9.665   7.458  69.001  1.00  0.00    -0.160 A  
BRANCH  22  25
HETATM   25  C   UNL     1     -10.710   6.959  71.320  1.00  0.00    -0.249 C  
HETATM   26  C   UNL     1     -10.186   5.543  71.662  1.00  0.00    -0.265 C  
HETATM   27  C   UNL     1      -8.943   5.593  72.546  1.00  0.00    -0.133 C  
HETATM   28  C   UNL     1      -9.250   6.277  73.869  1.00  0.00    -0.144 C  
HETATM   29  C   UNL     1      -9.906   7.641  73.695  1.00  0.00    -0.302 C  
HETATM   30  C   UNL     1     -11.056   7.639  72.673  1.00  0.00    -0.412 C  
ENDBRANCH  22  25
ENDBRANCH  14  15
ENDBRANCH  13  14
ENDBRANCH  11  13
ENDBRANCH   9  11
ENDBRANCH   5   9
BRANCH   8  31
HETATM   31  C   UNL     1     -11.114  15.076  67.259  1.00  0.00    -0.334 C  
BRANCH  31  32
HETATM   32  N   UNL     1     -11.583  14.581  65.942  1.00  0.00    -0.353 NA 
HETATM   33  O   UNL     1     -12.749  13.927  63.182  1.00  0.00    -0.718 OA 
HETATM   34  O   UNL     1     -12.635  11.691  62.970  1.00  0.00    -0.357 OA 
HETATM   35  C   UNL     1     -10.545  13.762  65.262  1.00  0.00    -0.353 C  
HETATM   36  C   UNL     1     -12.369  12.695  63.625  1.00  0.00    -0.492 C  
HETATM   37  C   UNL     1     -12.368  13.329  66.174  1.00  0.00    -0.358 C  
HETATM   38  C   UNL     1     -11.629  12.698  64.979  1.00  0.00    -0.384 C  
ENDBRANCH  31  32
ENDBRANCH   8  31
ENDBRANCH   2   3
TORSDOF 9
ENDMDL
MODEL      173
REMARK 921   NORMALIZED FREE ENERGY PREDICTED BY IDOCK:   -5.69 KCAL/MOL
REMARK 922        TOTAL FREE ENERGY PREDICTED BY IDOCK:  -10.11 KCAL/MOL
REMARK 923 INTER-LIGAND FREE ENERGY PREDICTED BY IDOCK:   -8.88 KCAL/MOL
REMARK 924 INTRA-LIGAND FREE ENERGY PREDICTED BY IDOCK:   -1.24 KCAL/MOL
REMARK 927      BINDING AFFINITY PREDICTED BY RF-SCORE:    0.00 PKD
ROOT
HETATM    1  C   UNL     1      -7.630  15.122  69.269  1.00  0.00    -0.201 C  
HETATM    2  C   UNL     1      -9.137  15.278  69.397  1.00  0.00    -0.228 C  
ENDROOT
BRANCH   2   3
HETATM    3  C   UNL     1      -9.892  14.733  68.205  1.00  0.00    -0.222 A  
HETATM    4  C   UNL     1      -9.621  13.391  67.901  1.00  0.00    -0.216 A  
HETATM    5  C   UNL     1     -10.098  12.786  66.735  1.00  0.00    -0.239 A  
HETATM    6  C   UNL     1     -10.902  13.517  65.870  1.00  0.00    -0.279 A  
HETATM    7  C   UNL     1     -11.241  14.841  66.195  1.00  0.00    -0.337 A  
HETATM    8  C   UNL     1     -10.764  15.466  67.371  1.00  0.00    -0.296 A  
BRANCH   5   9
HETATM    9  C   UNL     1      -9.581  11.420  66.442  1.00  0.00    -0.205 C  
HETATM   10  C   UNL     1      -9.172  11.046  65.042  1.00  0.00    -0.219 C  
BRANCH   9  11
HETATM   11  N   UNL     1      -9.510  10.596  67.449  1.00  0.00    -0.153 NA 
HETATM   12  H   UNL     1      -8.677  10.467  68.024  1.00  0.00     0.000 HD 
BRANCH  11  13
HETATM   13  O   UNL     1     -10.709   9.911  67.646  1.00  0.00    -0.254 OA 
BRANCH  13  14
HETATM   14  C   UNL     1     -10.466   8.533  67.389  1.00  0.00    -0.280 C  
BRANCH  14  15
HETATM   15  C   UNL     1     -10.008   7.908  68.670  1.00  0.00    -0.201 A  
HETATM   16  F   UNL     1     -10.671   7.499  73.488  1.00  0.00    -0.397 F  
HETATM   17  F   UNL     1     -11.248   9.277  72.404  1.00  0.00    -0.334 F  
HETATM   18  C   UNL     1      -8.841   7.158  68.711  1.00  0.00    -0.130 A  
HETATM   19  F   UNL     1     -12.428   7.466  72.202  1.00  0.00    -0.310 F  
HETATM   20  C   UNL     1      -8.451   6.545  69.898  1.00  0.00    -0.135 A  
HETATM   21  C   UNL     1     -10.707   8.127  69.858  1.00  0.00    -0.241 A  
HETATM   22  C   UNL     1      -9.225   6.620  71.075  1.00  0.00    -0.160 A  
HETATM   23  C   UNL     1     -11.144   7.920  72.284  1.00  0.00    -0.318 C  
HETATM   24  C   UNL     1     -10.320   7.520  71.075  1.00  0.00    -0.204 A  
BRANCH  22  25
HETATM   25  C   UNL     1      -8.895   5.715  72.272  1.00  0.00    -0.132 C  
HETATM   26  C   UNL     1      -9.979   4.634  72.498  1.00  0.00    -0.220 C  
HETATM   27  C   UNL     1      -9.993   3.597  71.379  1.00  0.00    -0.163 C  
HETATM   28  C   UNL     1      -8.659   2.870  71.299  1.00  0.00    -0.103 C  
HETATM   29  C   UNL     1      -7.470   3.820  71.211  1.00  0.00    -0.044 C  
HETATM   30  C   UNL     1      -7.532   4.972  72.227  1.00  0.00    -0.093 C  
ENDBRANCH  22  25
ENDBRANCH  14  15
ENDBRANCH  13  14
ENDBRANCH  11  13
ENDBRANCH   9  11
ENDBRANCH   5   9
BRANCH   8  31
HETATM   31  C   UNL     1     -11.089  16.932  67.630  1.00  0.00    -0.064 C  
BRANCH  31  32
HETATM   32  N   UNL     1      -9.927  17.829  67.841  1.00  0.00    -0.306 NA 
HETATM   33  O   UNL     1      -7.485  19.497  68.652  1.00  0.00    -0.323 OA 
HETATM   34  O   UNL     1      -7.485  21.300  67.307  1.00  0.00    -0.449 OA 
HETATM   35  C   UNL     1      -9.169  18.051  66.581  1.00  0.00    -0.284 C  
HETATM   36  C   UNL     1      -7.980  20.216  67.605  1.00  0.00    -0.292 C  
HETATM   37  C   UNL     1     -10.414  19.241  67.754  1.00  0.00    -0.435 C  
HETATM   38  C   UNL     1      -9.182  19.565  66.889  1.00  0.00    -0.408 C  
ENDBRANCH  31  32
ENDBRANCH   8  31
ENDBRANCH   2   3
TORSDOF 9
ENDMDL
MODEL      174
REMARK 921   NORMALIZED FREE ENERGY PREDICTED BY IDOCK:   -5.69 KCAL/MOL
REMARK 922        TOTAL FREE ENERGY PREDICTED BY IDOCK:  -10.11 KCAL/MOL
REMARK 923 INTER-LIGAND FREE ENERGY PREDICTED BY IDOCK:   -8.48 KCAL/MOL
REMARK 924 INTRA-LIGAND FREE ENERGY PREDICTED BY IDOCK:   -1.63 KCAL/MOL
REMARK 927      BINDING AFFINITY PREDICTED BY RF-SCORE:    0.00 PKD
ROOT
HETATM    1  C   UNL     1     -11.834  12.055  65.198  1.00  0.00    -0.278 C  
HETATM    2  C   UNL     1     -11.378  13.502  65.280  1.00  0.00    -0.304 C  
ENDROOT
BRANCH   2   3
HETATM    3  C   UNL     1     -10.083  13.673  66.042  1.00  0.00    -0.320 A  
HETATM    4  C   UNL     1      -9.609  12.508  66.665  1.00  0.00    -0.239 A  
HETATM    5  C   UNL     1      -8.526  12.530  67.547  1.00  0.00    -0.177 A  
HETATM    6  C   UNL     1      -7.866  13.729  67.784  1.00  0.00    -0.174 A  
HETATM    7  C   UNL     1      -8.282  14.891  67.113  1.00  0.00    -0.244 A  
HETATM    8  C   UNL     1      -9.379  14.884  66.218  1.00  0.00    -0.329 A  
BRANCH   5   9
HETATM    9  C   UNL     1      -8.248  11.265  68.282  1.00  0.00    -0.143 C  
HETATM   10  C   UNL     1      -9.338  10.247  68.484  1.00  0.00    -0.155 C  
BRANCH   9  11
HETATM   11  N   UNL     1      -7.033  11.104  68.725  1.00  0.00    -0.080 NA 
HETATM   12  H   UNL     1      -6.219  10.966  68.125  1.00  0.00     0.000 HD 
BRANCH  11  13
HETATM   13  O   UNL     1      -6.978  11.144  70.118  1.00  0.00    -0.131 OA 
BRANCH  13  14
HETATM   14  C   UNL     1      -6.163  10.060  70.549  1.00  0.00    -0.109 C  
BRANCH  14  15
HETATM   15  C   UNL     1      -7.022   8.834  70.583  1.00  0.00    -0.053 A  
HETATM   16  F   UNL     1     -10.798   6.542  72.661  1.00  0.00    -0.222 F  
HETATM   17  F   UNL     1      -9.617   7.999  73.734  1.00  0.00    -0.336 F  
HETATM   18  C   UNL     1      -6.694   7.721  69.822  1.00  0.00    -0.039 A  
HETATM   19  F   UNL     1     -11.007   8.660  72.203  1.00  0.00    -0.359 F  
HETATM   20  C   UNL     1      -7.527   6.606  69.828  1.00  0.00    -0.092 A  
HETATM   21  C   UNL     1      -8.128   8.764  71.433  1.00  0.00    -0.189 A  
HETATM   22  C   UNL     1      -8.734   6.570  70.557  1.00  0.00    -0.144 A  
HETATM   23  C   UNL     1     -10.090   7.691  72.489  1.00  0.00    -0.229 C  
HETATM   24  C   UNL     1      -8.978   7.635  71.459  1.00  0.00    -0.148 A  
BRANCH  22  25
HETATM   25  C   UNL     1      -9.741   5.434  70.322  1.00  0.00    -0.254 C  
HETATM   26  C   UNL     1     -11.033   5.936  69.634  1.00  0.00    -0.447 C  
HETATM   27  C   UNL     1     -10.782   6.368  68.193  1.00  0.00    -0.359 C  
HETATM   28  C   UNL     1     -10.268   5.203  67.361  1.00  0.00    -0.224 C  
HETATM   29  C   UNL     1      -9.064   4.510  67.990  1.00  0.00    -0.151 C  
HETATM   30  C   UNL     1      -9.240   4.222  69.490  1.00  0.00    -0.207 C  
ENDBRANCH  22  25
ENDBRANCH  14  15
ENDBRANCH  13  14
ENDBRANCH  11  13
ENDBRANCH   9  11
ENDBRANCH   5   9
BRANCH   8  31
HETATM   31  C   UNL     1      -9.844  16.190  65.587  1.00  0.00    -0.255 C  
BRANCH  31  32
HETATM   32  N   UNL     1      -9.640  17.414  66.398  1.00  0.00    -0.305 NA 
HETATM   33  O   UNL     1      -8.810  19.841  68.080  1.00  0.00    -0.312 OA 
HETATM   34  O   UNL     1     -10.692  20.602  69.049  1.00  0.00     0.162 OA 
HETATM   35  C   UNL     1     -10.532  18.520  65.958  1.00  0.00    -0.400 C  
HETATM   36  C   UNL     1     -10.160  19.822  68.264  1.00  0.00    -0.458 C  
HETATM   37  C   UNL     1     -10.467  17.289  67.638  1.00  0.00    -0.363 C  
HETATM   38  C   UNL     1     -10.907  18.751  67.439  1.00  0.00    -0.414 C  
ENDBRANCH  31  32
ENDBRANCH   8  31
ENDBRANCH   2   3
TORSDOF 9
ENDMDL
MODEL      175
REMARK 921   NORMALIZED FREE ENERGY PREDICTED BY IDOCK:   -5.69 KCAL/MOL
REMARK 922        TOTAL FREE ENERGY PREDICTED BY IDOCK:  -10.11 KCAL/MOL
REMARK 923 INTER-LIGAND FREE ENERGY PREDICTED BY IDOCK:   -7.69 KCAL/MOL
REMARK 924 INTRA-LIGAND FREE ENERGY PREDICTED BY IDOCK:   -2.41 KCAL/MOL
REMARK 927      BINDING AFFINITY PREDICTED BY RF-SCORE:    0.00 PKD
ROOT
HETATM    1  C   UNL     1     -11.280  10.434  69.996  1.00  0.00    -0.385 C  
HETATM    2  C   UNL     1     -10.366   9.651  69.068  1.00  0.00    -0.218 C  
ENDROOT
BRANCH   2   3
HETATM    3  C   UNL     1      -9.192  10.463  68.569  1.00  0.00    -0.145 A  
HETATM    4  C   UNL     1      -8.064  10.439  69.403  1.00  0.00    -0.161 A  
HETATM    5  C   UNL     1      -6.962  11.268  69.180  1.00  0.00    -0.114 A  
HETATM    6  C   UNL     1      -6.958  12.113  68.077  1.00  0.00    -0.090 A  
HETATM    7  C   UNL     1      -8.050  12.098  67.193  1.00  0.00    -0.175 A  
HETATM    8  C   UNL     1      -9.173  11.265  67.407  1.00  0.00    -0.164 A  
BRANCH   5   9
HETATM    9  C   UNL     1      -5.918  11.278  70.243  1.00  0.00    -0.154 C  
HETATM   10  C   UNL     1      -5.310  12.577  70.699  1.00  0.00    -0.157 C  
BRANCH   9  11
HETATM   11  N   UNL     1      -5.579  10.120  70.736  1.00  0.00    -0.072 NA 
HETATM   12  H   UNL     1      -5.130   9.379  70.198  1.00  0.00     0.000 HD 
BRANCH  11  13
HETATM   13  O   UNL     1      -5.902  10.016  72.088  1.00  0.00    -0.292 OA 
BRANCH  13  14
HETATM   14  C   UNL     1      -5.744   8.653  72.466  1.00  0.00    -0.069 C  
BRANCH  14  15
HETATM   15  C   UNL     1      -7.007   7.934  72.104  1.00  0.00    -0.072 A  
HETATM   16  F   UNL     1      -9.453   5.426  68.706  1.00  0.00    -0.124 F  
HETATM   17  F   UNL     1      -7.939   6.876  68.183  1.00  0.00    -0.107 F  
HETATM   18  C   UNL     1      -8.108   7.973  72.946  1.00  0.00    -0.214 A  
HETATM   19  F   UNL     1      -7.349   4.959  69.012  1.00  0.00    -0.051 F  
HETATM   20  C   UNL     1      -9.259   7.263  72.619  1.00  0.00    -0.172 A  
HETATM   21  C   UNL     1      -7.122   7.272  70.880  1.00  0.00    -0.068 A  
HETATM   22  C   UNL     1      -9.345   6.457  71.465  1.00  0.00    -0.152 A  
HETATM   23  C   UNL     1      -8.275   5.953  69.134  1.00  0.00    -0.106 C  
HETATM   24  C   UNL     1      -8.287   6.554  70.527  1.00  0.00    -0.133 A  
BRANCH  22  25
HETATM   25  C   UNL     1     -10.526   5.491  71.286  1.00  0.00    -0.306 C  
HETATM   26  C   UNL     1     -10.064   4.015  71.220  1.00  0.00    -0.133 C  
HETATM   27  C   UNL     1      -9.522   3.526  72.560  1.00  0.00    -0.179 C  
HETATM   28  C   UNL     1     -10.595   3.602  73.636  1.00  0.00    -0.281 C  
HETATM   29  C   UNL     1     -11.248   4.976  73.728  1.00  0.00    -0.127 C  
HETATM   30  C   UNL     1     -11.645   5.555  72.361  1.00  0.00    -0.230 C  
ENDBRANCH  22  25
ENDBRANCH  14  15
ENDBRANCH  13  14
ENDBRANCH  11  13
ENDBRANCH   9  11
ENDBRANCH   5   9
BRANCH   8  31
HETATM   31  C   UNL     1     -10.368  11.355  66.467  1.00  0.00    -0.236 C  
BRANCH  31  32
HETATM   32  N   UNL     1     -10.638  12.691  65.883  1.00  0.00    -0.268 NA 
HETATM   33  O   UNL     1     -10.938  15.603  64.971  1.00  0.00    -0.406 OA 
HETATM   34  O   UNL     1     -12.812  15.680  63.729  1.00  0.00    -0.536 OA 
HETATM   35  C   UNL     1     -10.778  12.626  64.404  1.00  0.00    -0.359 C  
HETATM   36  C   UNL     1     -11.995  15.006  64.352  1.00  0.00    -0.353 C  
HETATM   37  C   UNL     1     -12.110  12.944  65.975  1.00  0.00    -0.422 C  
HETATM   38  C   UNL     1     -12.063  13.474  64.530  1.00  0.00    -0.460 C  
ENDBRANCH  31  32
ENDBRANCH   8  31
ENDBRANCH   2   3
TORSDOF 9
ENDMDL
MODEL      176
REMARK 921   NORMALIZED FREE ENERGY PREDICTED BY IDOCK:   -5.68 KCAL/MOL
REMARK 922        TOTAL FREE ENERGY PREDICTED BY IDOCK:  -10.09 KCAL/MOL
REMARK 923 INTER-LIGAND FREE ENERGY PREDICTED BY IDOCK:   -8.55 KCAL/MOL
REMARK 924 INTRA-LIGAND FREE ENERGY PREDICTED BY IDOCK:   -1.54 KCAL/MOL
REMARK 927      BINDING AFFINITY PREDICTED BY RF-SCORE:    0.00 PKD
ROOT
HETATM    1  C   UNL     1     -14.343   8.339  72.116  1.00  0.00    -0.498 C  
HETATM    2  C   UNL     1     -13.460   9.454  72.652  1.00  0.00    -0.323 C  
ENDROOT
BRANCH   2   3
HETATM    3  C   UNL     1     -12.629  10.119  71.578  1.00  0.00    -0.537 A  
HETATM    4  C   UNL     1     -12.798  11.508  71.478  1.00  0.00    -0.485 A  
HETATM    5  C   UNL     1     -12.240  12.247  70.432  1.00  0.00    -0.371 A  
HETATM    6  C   UNL     1     -11.457  11.601  69.484  1.00  0.00    -0.371 A  
HETATM    7  C   UNL     1     -11.219  10.222  69.610  1.00  0.00    -0.322 A  
HETATM    8  C   UNL     1     -11.779   9.461  70.662  1.00  0.00    -0.302 A  
BRANCH   5   9
HETATM    9  C   UNL     1     -12.653  13.676  70.341  1.00  0.00    -0.227 C  
HETATM   10  C   UNL     1     -13.371  14.336  71.487  1.00  0.00    -0.429 C  
BRANCH   9  11
HETATM   11  N   UNL     1     -12.358  14.297  69.233  1.00  0.00    -0.528 NA 
HETATM   12  H   UNL     1     -12.909  14.230  68.376  1.00  0.00     0.000 HD 
BRANCH  11  13
HETATM   13  O   UNL     1     -11.201  15.064  69.359  1.00  0.00    -0.254 OA 
BRANCH  13  14
HETATM   14  C   UNL     1     -10.747  15.380  68.048  1.00  0.00    -0.279 C  
BRANCH  14  15
HETATM   15  C   UNL     1     -10.097  14.154  67.486  1.00  0.00    -0.236 A  
HETATM   16  F   UNL     1      -6.652  10.739  68.030  1.00  0.00    -0.060 F  
HETATM   17  F   UNL     1      -6.444  12.714  68.882  1.00  0.00    -0.069 F  
HETATM   18  C   UNL     1     -10.427  13.696  66.219  1.00  0.00    -0.291 A  
HETATM   19  F   UNL     1      -7.828  11.300  69.774  1.00  0.00     0.030 F  
HETATM   20  C   UNL     1      -9.848  12.530  65.728  1.00  0.00    -0.244 A  
HETATM   21  C   UNL     1      -9.095  13.491  68.198  1.00  0.00    -0.199 A  
HETATM   22  C   UNL     1      -8.952  11.754  66.492  1.00  0.00    -0.196 A  
HETATM   23  C   UNL     1      -7.371  11.758  68.574  1.00  0.00    -0.103 C  
HETATM   24  C   UNL     1      -8.489  12.311  67.711  1.00  0.00    -0.163 A  
BRANCH  22  25
HETATM   25  C   UNL     1      -8.551  10.349  66.017  1.00  0.00    -0.158 C  
HETATM   26  C   UNL     1      -9.592   9.747  65.042  1.00  0.00    -0.333 C  
HETATM   27  C   UNL     1      -9.614  10.483  63.705  1.00  0.00    -0.363 C  
HETATM   28  C   UNL     1      -8.261  10.389  63.015  1.00  0.00    -0.160 C  
HETATM   29  C   UNL     1      -7.107  10.823  63.910  1.00  0.00     0.393 C  
HETATM   30  C   UNL     1      -7.168  10.218  65.322  1.00  0.00    -0.134 C  
ENDBRANCH  22  25
ENDBRANCH  14  15
ENDBRANCH  13  14
ENDBRANCH  11  13
ENDBRANCH   9  11
ENDBRANCH   5   9
BRANCH   8  31
HETATM   31  C   UNL     1     -11.562   7.953  70.699  1.00  0.00    -0.204 C  
BRANCH  31  32
HETATM   32  N   UNL     1     -10.753   7.439  71.831  1.00  0.00    -0.213 NA 
HETATM   33  O   UNL     1      -9.240   6.695  74.392  1.00  0.00    -0.178 OA 
HETATM   34  O   UNL     1      -7.562   5.340  73.755  1.00  0.00    -0.096 OA 
HETATM   35  C   UNL     1     -10.703   5.953  71.838  1.00  0.00    -0.239 C  
HETATM   36  C   UNL     1      -8.570   5.971  73.451  1.00  0.00    -0.120 C  
HETATM   37  C   UNL     1      -9.317   7.449  71.413  1.00  0.00    -0.142 C  
HETATM   38  C   UNL     1      -9.173   6.047  72.032  1.00  0.00    -0.151 C  
ENDBRANCH  31  32
ENDBRANCH   8  31
ENDBRANCH   2   3
TORSDOF 9
ENDMDL
MODEL      177
REMARK 921   NORMALIZED FREE ENERGY PREDICTED BY IDOCK:   -5.66 KCAL/MOL
REMARK 922        TOTAL FREE ENERGY PREDICTED BY IDOCK:  -10.07 KCAL/MOL
REMARK 923 INTER-LIGAND FREE ENERGY PREDICTED BY IDOCK:   -6.41 KCAL/MOL
REMARK 924 INTRA-LIGAND FREE ENERGY PREDICTED BY IDOCK:   -3.65 KCAL/MOL
REMARK 927      BINDING AFFINITY PREDICTED BY RF-SCORE:    0.00 PKD
ROOT
HETATM    1  C   UNL     1     -10.996   6.311  67.132  1.00  0.00    -0.453 C  
HETATM    2  C   UNL     1      -9.824   5.926  66.244  1.00  0.00    -0.119 C  
ENDROOT
BRANCH   2   3
HETATM    3  C   UNL     1      -8.704   6.942  66.269  1.00  0.00    -0.149 A  
HETATM    4  C   UNL     1      -9.093   8.255  65.964  1.00  0.00    -0.228 A  
HETATM    5  C   UNL     1      -8.160   9.277  65.774  1.00  0.00    -0.115 A  
HETATM    6  C   UNL     1      -6.808   9.002  65.934  1.00  0.00    -0.080 A  
HETATM    7  C   UNL     1      -6.405   7.709  66.309  1.00  0.00    -0.045 A  
HETATM    8  C   UNL     1      -7.339   6.664  66.503  1.00  0.00    -0.074 A  
BRANCH   5   9
HETATM    9  C   UNL     1      -8.694  10.573  65.271  1.00  0.00    -0.188 C  
HETATM   10  C   UNL     1      -9.538  10.616  64.024  1.00  0.00    -0.351 C  
BRANCH   9  11
HETATM   11  N   UNL     1      -8.391  11.635  65.962  1.00  0.00    -0.384 NA 
HETATM   12  H   UNL     1      -7.638  12.279  65.720  1.00  0.00     0.000 HD 
BRANCH  11  13
HETATM   13  O   UNL     1      -9.221  11.787  67.073  1.00  0.00    -0.178 OA 
BRANCH  13  14
HETATM   14  C   UNL     1      -8.401  11.733  68.235  1.00  0.00    -0.159 C  
BRANCH  14  15
HETATM   15  C   UNL     1      -8.821  10.535  69.029  1.00  0.00    -0.174 A  
HETATM   16  F   UNL     1      -7.468   6.967  72.073  1.00  0.00    -0.085 F  
HETATM   17  F   UNL     1      -6.081   7.865  70.681  1.00  0.00    -0.033 F  
HETATM   18  C   UNL     1     -10.097  10.008  68.892  1.00  0.00    -0.200 A  
HETATM   19  F   UNL     1      -6.707   8.973  72.438  1.00  0.00    -0.072 F  
HETATM   20  C   UNL     1     -10.489   8.923  69.670  1.00  0.00    -0.218 A  
HETATM   21  C   UNL     1      -7.914   9.885  69.869  1.00  0.00    -0.193 A  
HETATM   22  C   UNL     1      -9.642   8.347  70.640  1.00  0.00    -0.195 A  
HETATM   23  C   UNL     1      -7.169   8.144  71.460  1.00  0.00    -0.077 C  
HETATM   24  C   UNL     1      -8.292   8.776  70.659  1.00  0.00    -0.173 A  
BRANCH  22  25
HETATM   25  C   UNL     1     -10.206   7.336  71.650  1.00  0.00    -0.207 C  
HETATM   26  C   UNL     1     -10.987   8.030  72.793  1.00  0.00    -0.449 C  
HETATM   27  C   UNL     1     -12.285   8.660  72.296  1.00  0.00    -0.447 C  
HETATM   28  C   UNL     1     -13.210   7.602  71.713  1.00  0.00    -0.360 C  
HETATM   29  C   UNL     1     -12.531   6.736  70.659  1.00  0.00    -0.142 C  
HETATM   30  C   UNL     1     -11.142   6.234  71.083  1.00  0.00    -0.356 C  
ENDBRANCH  22  25
ENDBRANCH  14  15
ENDBRANCH  13  14
ENDBRANCH  11  13
ENDBRANCH   9  11
ENDBRANCH   5   9
BRANCH   8  31
HETATM   31  C   UNL     1      -6.842   5.259  66.820  1.00  0.00    -0.063 C  
BRANCH  31  32
HETATM   32  N   UNL     1      -6.872   4.866  68.250  1.00  0.00    -0.054 NA 
HETATM   33  O   UNL     1      -6.517   4.000  71.170  1.00  0.00    -0.024 OA 
HETATM   34  O   UNL     1      -8.557   3.381  71.890  1.00  0.00    -0.079 OA 
HETATM   35  C   UNL     1      -7.869   5.659  69.017  1.00  0.00    -0.096 C  
HETATM   36  C   UNL     1      -7.863   3.865  71.000  1.00  0.00    -0.059 C  
HETATM   37  C   UNL     1      -7.771   3.677  68.381  1.00  0.00    -0.060 C  
HETATM   38  C   UNL     1      -8.388   4.338  69.627  1.00  0.00    -0.076 C  
ENDBRANCH  31  32
ENDBRANCH   8  31
ENDBRANCH   2   3
TORSDOF 9
ENDMDL
MODEL      178
REMARK 921   NORMALIZED FREE ENERGY PREDICTED BY IDOCK:   -5.66 KCAL/MOL
REMARK 922        TOTAL FREE ENERGY PREDICTED BY IDOCK:  -10.06 KCAL/MOL
REMARK 923 INTER-LIGAND FREE ENERGY PREDICTED BY IDOCK:   -9.19 KCAL/MOL
REMARK 924 INTRA-LIGAND FREE ENERGY PREDICTED BY IDOCK:   -0.87 KCAL/MOL
REMARK 927      BINDING AFFINITY PREDICTED BY RF-SCORE:    0.00 PKD
ROOT
HETATM    1  C   UNL     1     -12.254  12.748  63.458  1.00  0.00    -0.613 C  
HETATM    2  C   UNL     1     -12.522  12.641  64.950  1.00  0.00    -0.564 C  
ENDROOT
BRANCH   2   3
HETATM    3  C   UNL     1     -11.324  12.155  65.734  1.00  0.00    -0.402 A  
HETATM    4  C   UNL     1     -10.707  11.008  65.214  1.00  0.00    -0.234 A  
HETATM    5  C   UNL     1      -9.701  10.331  65.907  1.00  0.00    -0.283 A  
HETATM    6  C   UNL     1      -9.263  10.829  67.128  1.00  0.00    -0.160 A  
HETATM    7  C   UNL     1      -9.820  12.017  67.629  1.00  0.00    -0.191 A  
HETATM    8  C   UNL     1     -10.841  12.711  66.939  1.00  0.00    -0.282 A  
BRANCH   5   9
HETATM    9  C   UNL     1      -9.267   9.026  65.333  1.00  0.00    -0.176 C  
HETATM   10  C   UNL     1      -8.306   8.987  64.175  1.00  0.00    -0.178 C  
BRANCH   9  11
HETATM   11  N   UNL     1      -9.760   7.954  65.887  1.00  0.00    -0.423 NA 
HETATM   12  H   UNL     1     -10.706   7.889  66.264  1.00  0.00     0.000 HD 
BRANCH  11  13
HETATM   13  O   UNL     1      -8.841   6.906  65.901  1.00  0.00    -0.155 OA 
BRANCH  13  14
HETATM   14  C   UNL     1      -9.481   5.778  66.486  1.00  0.00    -0.153 C  
BRANCH  14  15
HETATM   15  C   UNL     1      -9.456   5.964  67.971  1.00  0.00    -0.111 A  
HETATM   16  F   UNL     1      -7.053   7.742  71.830  1.00  0.00    -0.058 F  
HETATM   17  F   UNL     1      -6.027   7.137  70.027  1.00  0.00    -0.023 F  
HETATM   18  C   UNL     1     -10.404   5.348  68.776  1.00  0.00    -0.240 A  
HETATM   19  F   UNL     1      -7.181   8.975  70.041  1.00  0.00    -0.046 F  
HETATM   20  C   UNL     1     -10.396   5.566  70.150  1.00  0.00    -0.354 A  
HETATM   21  C   UNL     1      -8.437   6.701  68.578  1.00  0.00    -0.122 A  
HETATM   22  C   UNL     1      -9.472   6.434  70.770  1.00  0.00    -0.179 A  
HETATM   23  C   UNL     1      -7.195   7.684  70.478  1.00  0.00    -0.062 C  
HETATM   24  C   UNL     1      -8.408   6.924  69.974  1.00  0.00    -0.139 A  
BRANCH  22  25
HETATM   25  C   UNL     1      -9.670   6.848  72.236  1.00  0.00    -0.159 C  
HETATM   26  C   UNL     1     -11.158   6.796  72.660  1.00  0.00    -0.301 C  
HETATM   27  C   UNL     1     -11.686   5.365  72.715  1.00  0.00    -0.235 C  
HETATM   28  C   UNL     1     -10.912   4.543  73.734  1.00  0.00    -0.361 C  
HETATM   29  C   UNL     1      -9.403   4.609  73.528  1.00  0.00    -0.127 C  
HETATM   30  C   UNL     1      -8.880   6.037  73.300  1.00  0.00    -0.130 C  
ENDBRANCH  22  25
ENDBRANCH  14  15
ENDBRANCH  13  14
ENDBRANCH  11  13
ENDBRANCH   9  11
ENDBRANCH   5   9
BRANCH   8  31
HETATM   31  C   UNL     1     -11.473  13.945  67.571  1.00  0.00    -0.340 C  
BRANCH  31  32
HETATM   32  N   UNL     1     -11.207  15.235  66.890  1.00  0.00    -0.298 NA 
HETATM   33  O   UNL     1     -10.930  17.772  65.190  1.00  0.00    -0.651 OA 
HETATM   34  O   UNL     1      -9.017  18.756  65.844  1.00  0.00    -0.462 OA 
HETATM   35  C   UNL     1     -11.016  16.341  67.865  1.00  0.00    -0.310 C  
HETATM   36  C   UNL     1      -9.842  17.861  66.005  1.00  0.00    -0.170 C  
HETATM   37  C   UNL     1      -9.745  15.301  66.583  1.00  0.00    -0.252 C  
HETATM   38  C   UNL     1      -9.752  16.758  67.081  1.00  0.00    -0.251 C  
ENDBRANCH  31  32
ENDBRANCH   8  31
ENDBRANCH   2   3
TORSDOF 9
ENDMDL
MODEL      179
REMARK 921   NORMALIZED FREE ENERGY PREDICTED BY IDOCK:   -5.65 KCAL/MOL
REMARK 922        TOTAL FREE ENERGY PREDICTED BY IDOCK:  -10.05 KCAL/MOL
REMARK 923 INTER-LIGAND FREE ENERGY PREDICTED BY IDOCK:   -8.49 KCAL/MOL
REMARK 924 INTRA-LIGAND FREE ENERGY PREDICTED BY IDOCK:   -1.55 KCAL/MOL
REMARK 927      BINDING AFFINITY PREDICTED BY RF-SCORE:    0.00 PKD
ROOT
HETATM    1  C   UNL     1     -12.084  12.244  65.508  1.00  0.00    -0.326 C  
HETATM    2  C   UNL     1     -11.315  12.956  66.609  1.00  0.00    -0.361 C  
ENDROOT
BRANCH   2   3
HETATM    3  C   UNL     1      -9.841  12.616  66.616  1.00  0.00    -0.245 A  
HETATM    4  C   UNL     1      -9.490  11.502  65.839  1.00  0.00    -0.251 A  
HETATM    5  C   UNL     1      -8.207  10.951  65.874  1.00  0.00    -0.133 A  
HETATM    6  C   UNL     1      -7.233  11.546  66.665  1.00  0.00    -0.068 A  
HETATM    7  C   UNL     1      -7.548  12.705  67.394  1.00  0.00    -0.150 A  
HETATM    8  C   UNL     1      -8.844  13.272  67.370  1.00  0.00    -0.204 A  
BRANCH   5   9
HETATM    9  C   UNL     1      -8.023   9.662  65.150  1.00  0.00    -0.120 C  
HETATM   10  C   UNL     1      -6.746   9.386  64.401  1.00  0.00    -0.090 C  
BRANCH   9  11
HETATM   11  N   UNL     1      -9.012   8.815  65.207  1.00  0.00    -0.355 NA 
HETATM   12  H   UNL     1      -9.949   9.006  64.851  1.00  0.00     0.000 HD 
BRANCH  11  13
HETATM   13  O   UNL     1      -8.637   7.618  65.815  1.00  0.00    -0.143 OA 
BRANCH  13  14
HETATM   14  C   UNL     1      -9.823   6.881  66.086  1.00  0.00     0.173 C  
BRANCH  14  15
HETATM   15  C   UNL     1     -10.101   6.994  67.553  1.00  0.00    -0.236 A  
HETATM   16  F   UNL     1      -8.659   8.778  71.862  1.00  0.00    -0.217 F  
HETATM   17  F   UNL     1      -7.254   8.353  70.276  1.00  0.00    -0.042 F  
HETATM   18  C   UNL     1     -11.123   6.260  68.137  1.00  0.00    -0.364 A  
HETATM   19  F   UNL     1      -8.556  10.083  70.123  1.00  0.00    -0.202 F  
HETATM   20  C   UNL     1     -11.399   6.410  69.492  1.00  0.00    -0.460 A  
HETATM   21  C   UNL     1      -9.291   7.784  68.371  1.00  0.00    -0.143 A  
HETATM   22  C   UNL     1     -10.697   7.322  70.308  1.00  0.00    -0.252 A  
HETATM   23  C   UNL     1      -8.533   8.774  70.507  1.00  0.00    -0.166 C  
HETATM   24  C   UNL     1      -9.550   7.940  69.751  1.00  0.00    -0.167 A  
BRANCH  22  25
HETATM   25  C   UNL     1     -11.210   7.643  71.720  1.00  0.00    -0.285 C  
HETATM   26  C   UNL     1     -11.547   9.144  71.888  1.00  0.00    -0.430 C  
HETATM   27  C   UNL     1     -12.766   9.550  71.065  1.00  0.00    -0.314 C  
HETATM   28  C   UNL     1     -13.998   8.773  71.504  1.00  0.00    -0.391 C  
HETATM   29  C   UNL     1     -13.773   7.266  71.524  1.00  0.00    -0.451 C  
HETATM   30  C   UNL     1     -12.457   6.854  72.204  1.00  0.00    -0.196 C  
ENDBRANCH  22  25
ENDBRANCH  14  15
ENDBRANCH  13  14
ENDBRANCH  11  13
ENDBRANCH   9  11
ENDBRANCH   5   9
BRANCH   8  31
HETATM   31  C   UNL     1      -9.155  14.476  68.250  1.00  0.00    -0.196 C  
BRANCH  31  32
HETATM   32  N   UNL     1      -8.785  15.801  67.697  1.00  0.00    -0.169 NA 
HETATM   33  O   UNL     1      -8.385  18.675  66.707  1.00  0.00    -0.262 OA 
HETATM   34  O   UNL     1      -6.796  18.574  65.118  1.00  0.00    -0.528 OA 
HETATM   35  C   UNL     1      -7.325  16.059  67.822  1.00  0.00    -0.139 C  
HETATM   36  C   UNL     1      -7.448  17.998  65.985  1.00  0.00    -0.236 C  
HETATM   37  C   UNL     1      -8.595  15.647  66.222  1.00  0.00    -0.230 C  
HETATM   38  C   UNL     1      -7.319  16.502  66.342  1.00  0.00    -0.144 C  
ENDBRANCH  31  32
ENDBRANCH   8  31
ENDBRANCH   2   3
TORSDOF 9
ENDMDL
MODEL      180
REMARK 921   NORMALIZED FREE ENERGY PREDICTED BY IDOCK:   -5.64 KCAL/MOL
REMARK 922        TOTAL FREE ENERGY PREDICTED BY IDOCK:  -10.04 KCAL/MOL
REMARK 923 INTER-LIGAND FREE ENERGY PREDICTED BY IDOCK:   -9.50 KCAL/MOL
REMARK 924 INTRA-LIGAND FREE ENERGY PREDICTED BY IDOCK:   -0.55 KCAL/MOL
REMARK 927      BINDING AFFINITY PREDICTED BY RF-SCORE:    0.00 PKD
ROOT
HETATM    1  C   UNL     1      -7.991   8.083  70.059  1.00  0.00    -0.106 C  
HETATM    2  C   UNL     1      -8.459   9.497  70.362  1.00  0.00    -0.238 C  
ENDROOT
BRANCH   2   3
HETATM    3  C   UNL     1      -9.534   9.981  69.417  1.00  0.00    -0.237 A  
HETATM    4  C   UNL     1      -9.088  10.279  68.120  1.00  0.00    -0.136 A  
HETATM    5  C   UNL     1      -9.912  10.898  67.178  1.00  0.00    -0.221 A  
HETATM    6  C   UNL     1     -11.228  11.191  67.514  1.00  0.00    -0.369 A  
HETATM    7  C   UNL     1     -11.712  10.834  68.783  1.00  0.00    -0.315 A  
HETATM    8  C   UNL     1     -10.888  10.208  69.748  1.00  0.00    -0.320 A  
BRANCH   5   9
HETATM    9  C   UNL     1      -9.259  11.328  65.911  1.00  0.00    -0.212 C  
HETATM   10  C   UNL     1      -9.710  10.761  64.592  1.00  0.00    -0.344 C  
BRANCH   9  11
HETATM   11  N   UNL     1      -8.298  12.203  66.019  1.00  0.00    -0.274 NA 
HETATM   12  H   UNL     1      -7.464  12.212  65.431  1.00  0.00     0.000 HD 
BRANCH  11  13
HETATM   13  O   UNL     1      -8.548  13.127  67.033  1.00  0.00    -0.205 OA 
BRANCH  13  14
HETATM   14  C   UNL     1      -7.294  13.640  67.468  1.00  0.00    -0.166 C  
BRANCH  14  15
HETATM   15  C   UNL     1      -7.443  15.122  67.627  1.00  0.00    -0.202 A  
HETATM   16  F   UNL     1     -10.475  18.866  68.411  1.00  0.00    -0.394 F  
HETATM   17  F   UNL     1     -11.144  17.032  67.485  1.00  0.00    -0.291 F  
HETATM   18  C   UNL     1      -6.371  15.969  67.389  1.00  0.00    -0.206 A  
HETATM   19  F   UNL     1     -10.727  17.070  69.614  1.00  0.00    -0.317 F  
HETATM   20  C   UNL     1      -6.511  17.339  67.585  1.00  0.00    -0.166 A  
HETATM   21  C   UNL     1      -8.681  15.682  67.947  1.00  0.00    -0.166 A  
HETATM   22  C   UNL     1      -7.707  17.914  68.061  1.00  0.00    -0.245 A  
HETATM   23  C   UNL     1     -10.268  17.522  68.412  1.00  0.00    -0.372 C  
HETATM   24  C   UNL     1      -8.845  17.072  68.140  1.00  0.00    -0.227 A  
BRANCH  22  25
HETATM   25  C   UNL     1      -7.729  19.382  68.513  1.00  0.00    -0.380 C  
HETATM   26  C   UNL     1      -6.502  19.741  69.385  1.00  0.00    -0.381 C  
HETATM   27  C   UNL     1      -5.207  19.731  68.579  1.00  0.00    -0.206 C  
HETATM   28  C   UNL     1      -5.261  20.758  67.458  1.00  0.00    -0.241 C  
HETATM   29  C   UNL     1      -6.502  20.617  66.584  1.00  0.00    -0.311 C  
HETATM   30  C   UNL     1      -7.801  20.454  67.391  1.00  0.00    -0.360 C  
ENDBRANCH  22  25
ENDBRANCH  14  15
ENDBRANCH  13  14
ENDBRANCH  11  13
ENDBRANCH   9  11
ENDBRANCH   5   9
BRANCH   8  31
HETATM   31  C   UNL     1     -11.439   9.926  71.140  1.00  0.00    -0.383 C  
BRANCH  31  32
HETATM   32  N   UNL     1     -11.070   8.617  71.733  1.00  0.00    -0.301 NA 
HETATM   33  O   UNL     1      -9.908   6.039  72.919  1.00  0.00    -0.165 OA 
HETATM   34  O   UNL     1     -11.543   4.500  72.790  1.00  0.00    -0.015 OA 
HETATM   35  C   UNL     1     -12.038   8.197  72.781  1.00  0.00    -0.148 C  
HETATM   36  C   UNL     1     -11.188   5.666  72.639  1.00  0.00    -0.300 C  
HETATM   37  C   UNL     1     -11.614   7.541  70.849  1.00  0.00    -0.286 C  
HETATM   38  C   UNL     1     -12.090   6.804  72.115  1.00  0.00    -0.289 C  
ENDBRANCH  31  32
ENDBRANCH   8  31
ENDBRANCH   2   3
TORSDOF 9
ENDMDL
MODEL      181
REMARK 921   NORMALIZED FREE ENERGY PREDICTED BY IDOCK:   -5.64 KCAL/MOL
REMARK 922        TOTAL FREE ENERGY PREDICTED BY IDOCK:  -10.03 KCAL/MOL
REMARK 923 INTER-LIGAND FREE ENERGY PREDICTED BY IDOCK:   -8.51 KCAL/MOL
REMARK 924 INTRA-LIGAND FREE ENERGY PREDICTED BY IDOCK:   -1.52 KCAL/MOL
REMARK 927      BINDING AFFINITY PREDICTED BY RF-SCORE:    0.00 PKD
ROOT
HETATM    1  C   UNL     1     -10.240  10.561  64.840  1.00  0.00    -0.371 C  
HETATM    2  C   UNL     1      -9.660   9.254  65.356  1.00  0.00    -0.237 C  
ENDROOT
BRANCH   2   3
HETATM    3  C   UNL     1      -9.661   9.160  66.865  1.00  0.00    -0.254 A  
HETATM    4  C   UNL     1      -8.951  10.178  67.519  1.00  0.00    -0.136 A  
HETATM    5  C   UNL     1      -8.708  10.144  68.893  1.00  0.00    -0.149 A  
HETATM    6  C   UNL     1      -9.219   9.097  69.649  1.00  0.00    -0.172 A  
HETATM    7  C   UNL     1      -9.993   8.106  69.021  1.00  0.00    -0.191 A  
HETATM    8  C   UNL     1     -10.246   8.127  67.630  1.00  0.00    -0.296 A  
BRANCH   5   9
HETATM    9  C   UNL     1      -7.784  11.184  69.426  1.00  0.00     0.034 C  
HETATM   10  C   UNL     1      -6.519  10.786  70.137  1.00  0.00    -0.155 C  
BRANCH   9  11
HETATM   11  N   UNL     1      -8.136  12.426  69.239  1.00  0.00    -0.095 NA 
HETATM   12  H   UNL     1      -9.103  12.751  69.230  1.00  0.00     0.000 HD 
BRANCH  11  13
HETATM   13  O   UNL     1      -7.031  13.256  69.054  1.00  0.00    -0.107 OA 
BRANCH  13  14
HETATM   14  C   UNL     1      -6.825  13.394  67.653  1.00  0.00    -0.165 C  
BRANCH  14  15
HETATM   15  C   UNL     1      -7.547  14.628  67.208  1.00  0.00    -0.173 A  
HETATM   16  F   UNL     1     -11.447  16.489  64.938  1.00  0.00    -0.250 F  
HETATM   17  F   UNL     1     -10.679  14.526  64.462  1.00  0.00    -0.400 F  
HETATM   18  C   UNL     1      -6.953  15.875  67.328  1.00  0.00    -0.241 A  
HETATM   19  F   UNL     1     -11.754  14.837  66.322  1.00  0.00    -0.360 F  
HETATM   20  C   UNL     1      -7.654  17.018  66.953  1.00  0.00    -0.244 A  
HETATM   21  C   UNL     1      -8.800  14.537  66.599  1.00  0.00    -0.214 A  
HETATM   22  C   UNL     1      -8.982  16.966  66.483  1.00  0.00    -0.303 A  
HETATM   23  C   UNL     1     -10.834  15.409  65.493  1.00  0.00    -0.374 C  
HETATM   24  C   UNL     1      -9.522  15.686  66.203  1.00  0.00    -0.376 A  
BRANCH  22  25
HETATM   25  C   UNL     1      -9.798  18.260  66.337  1.00  0.00    -0.358 C  
HETATM   26  C   UNL     1     -10.785  18.461  67.512  1.00  0.00    -0.399 C  
HETATM   27  C   UNL     1     -10.060  18.751  68.823  1.00  0.00    -0.407 C  
HETATM   28  C   UNL     1      -9.241  20.029  68.716  1.00  0.00    -0.060 C  
HETATM   29  C   UNL     1      -8.310  20.038  67.510  1.00  0.00    -0.381 C  
HETATM   30  C   UNL     1      -8.990  19.581  66.209  1.00  0.00    -0.400 C  
ENDBRANCH  22  25
ENDBRANCH  14  15
ENDBRANCH  13  14
ENDBRANCH  11  13
ENDBRANCH   9  11
ENDBRANCH   5   9
BRANCH   8  31
HETATM   31  C   UNL     1     -11.014   6.980  66.986  1.00  0.00    -0.287 C  
BRANCH  31  32
HETATM   32  N   UNL     1     -10.385   5.640  67.080  1.00  0.00    -0.220 NA 
HETATM   33  O   UNL     1      -9.239   2.856  67.664  1.00  0.00    -0.172 OA 
HETATM   34  O   UNL     1      -7.615   2.518  66.144  1.00  0.00    -0.070 OA 
HETATM   35  C   UNL     1     -10.457   4.908  65.787  1.00  0.00    -0.186 C  
HETATM   36  C   UNL     1      -8.528   3.226  66.561  1.00  0.00    -0.107 C  
HETATM   37  C   UNL     1      -8.914   5.807  66.862  1.00  0.00    -0.114 C  
HETATM   38  C   UNL     1      -8.957   4.573  65.941  1.00  0.00    -0.125 C  
ENDBRANCH  31  32
ENDBRANCH   8  31
ENDBRANCH   2   3
TORSDOF 9
ENDMDL
MODEL      182
REMARK 921   NORMALIZED FREE ENERGY PREDICTED BY IDOCK:   -5.58 KCAL/MOL
REMARK 922        TOTAL FREE ENERGY PREDICTED BY IDOCK:   -9.95 KCAL/MOL
REMARK 923 INTER-LIGAND FREE ENERGY PREDICTED BY IDOCK:   -8.96 KCAL/MOL
REMARK 924 INTRA-LIGAND FREE ENERGY PREDICTED BY IDOCK:   -0.99 KCAL/MOL
REMARK 927      BINDING AFFINITY PREDICTED BY RF-SCORE:    0.00 PKD
ROOT
HETATM    1  C   UNL     1      -6.996   7.298  70.769  1.00  0.00    -0.056 C  
HETATM    2  C   UNL     1      -7.553   8.397  71.659  1.00  0.00    -0.126 C  
ENDROOT
BRANCH   2   3
HETATM    3  C   UNL     1      -8.952   8.820  71.272  1.00  0.00    -0.295 A  
HETATM    4  C   UNL     1      -9.034   9.566  70.087  1.00  0.00    -0.269 A  
HETATM    5  C   UNL     1     -10.221  10.180  69.680  1.00  0.00    -0.272 A  
HETATM    6  C   UNL     1     -11.369  10.014  70.444  1.00  0.00    -0.392 A  
HETATM    7  C   UNL     1     -11.322   9.211  71.596  1.00  0.00    -0.446 A  
HETATM    8  C   UNL     1     -10.126   8.585  72.021  1.00  0.00    -0.386 A  
BRANCH   5   9
HETATM    9  C   UNL     1     -10.123  11.095  68.508  1.00  0.00    -0.201 C  
HETATM   10  C   UNL     1     -11.369  11.606  67.837  1.00  0.00    -0.369 C  
BRANCH   9  11
HETATM   11  N   UNL     1      -8.921  11.412  68.116  1.00  0.00    -0.163 NA 
HETATM   12  H   UNL     1      -8.349  10.834  67.500  1.00  0.00     0.000 HD 
BRANCH  11  13
HETATM   13  O   UNL     1      -8.510  12.637  68.641  1.00  0.00    -0.086 OA 
BRANCH  13  14
HETATM   14  C   UNL     1      -7.570  13.201  67.734  1.00  0.00    -0.155 C  
BRANCH  14  15
HETATM   15  C   UNL     1      -7.724  14.690  67.792  1.00  0.00    -0.169 A  
HETATM   16  F   UNL     1     -10.699  18.464  68.648  1.00  0.00    -0.286 F  
HETATM   17  F   UNL     1     -11.446  16.556  67.961  1.00  0.00    -0.306 F  
HETATM   18  C   UNL     1      -6.703  15.522  67.357  1.00  0.00    -0.200 A  
HETATM   19  F   UNL     1     -10.770  16.769  70.012  1.00  0.00    -0.309 F  
HETATM   20  C   UNL     1      -6.842  16.903  67.459  1.00  0.00    -0.171 A  
HETATM   21  C   UNL     1      -8.922  15.265  68.219  1.00  0.00    -0.176 A  
HETATM   22  C   UNL     1      -7.980  17.506  68.034  1.00  0.00    -0.234 A  
HETATM   23  C   UNL     1     -10.470  17.125  68.731  1.00  0.00    -0.351 C  
HETATM   24  C   UNL     1      -9.084  16.665  68.320  1.00  0.00    -0.218 A  
BRANCH  22  25
HETATM   25  C   UNL     1      -7.971  19.006  68.367  1.00  0.00    -0.375 C  
HETATM   26  C   UNL     1      -6.585  19.483  68.864  1.00  0.00    -0.339 C  
HETATM   27  C   UNL     1      -5.539  19.452  67.753  1.00  0.00    -0.191 C  
HETATM   28  C   UNL     1      -5.937  20.376  66.612  1.00  0.00    -0.215 C  
HETATM   29  C   UNL     1      -7.349  20.116  66.101  1.00  0.00    -0.312 C  
HETATM   30  C   UNL     1      -8.388  19.974  67.226  1.00  0.00    -0.381 C  
ENDBRANCH  22  25
ENDBRANCH  14  15
ENDBRANCH  13  14
ENDBRANCH  11  13
ENDBRANCH   9  11
ENDBRANCH   5   9
BRANCH   8  31
HETATM   31  C   UNL     1     -10.109   7.800  73.326  1.00  0.00    -0.310 C  
BRANCH  31  32
HETATM   32  N   UNL     1     -10.500   6.373  73.233  1.00  0.00    -0.236 NA 
HETATM   33  O   UNL     1     -11.562   3.499  73.367  1.00  0.00    -0.140 OA 
HETATM   34  O   UNL     1     -10.087   2.235  72.234  1.00  0.00    -0.147 OA 
HETATM   35  C   UNL     1     -10.561   5.911  71.821  1.00  0.00    -0.234 C  
HETATM   36  C   UNL     1     -10.454   3.352  72.587  1.00  0.00    -0.097 C  
HETATM   37  C   UNL     1      -9.268   5.545  73.412  1.00  0.00    -0.131 C  
HETATM   38  C   UNL     1      -9.736   4.672  72.234  1.00  0.00    -0.213 C  
ENDBRANCH  31  32
ENDBRANCH   8  31
ENDBRANCH   2   3
TORSDOF 9
ENDMDL
MODEL      183
REMARK 921   NORMALIZED FREE ENERGY PREDICTED BY IDOCK:   -5.58 KCAL/MOL
REMARK 922        TOTAL FREE ENERGY PREDICTED BY IDOCK:   -9.94 KCAL/MOL
REMARK 923 INTER-LIGAND FREE ENERGY PREDICTED BY IDOCK:   -7.39 KCAL/MOL
REMARK 924 INTRA-LIGAND FREE ENERGY PREDICTED BY IDOCK:   -2.55 KCAL/MOL
REMARK 927      BINDING AFFINITY PREDICTED BY RF-SCORE:    0.00 PKD
ROOT
HETATM    1  C   UNL     1      -8.970  10.391  62.632  1.00  0.00    -0.277 C  
HETATM    2  C   UNL     1      -9.546  10.272  64.033  1.00  0.00    -0.365 C  
ENDROOT
BRANCH   2   3
HETATM    3  C   UNL     1      -8.630   9.542  64.990  1.00  0.00    -0.187 A  
HETATM    4  C   UNL     1      -8.397   8.196  64.670  1.00  0.00    -0.089 A  
HETATM    5  C   UNL     1      -7.719   7.337  65.537  1.00  0.00    -0.108 A  
HETATM    6  C   UNL     1      -7.219   7.834  66.734  1.00  0.00    -0.088 A  
HETATM    7  C   UNL     1      -7.381   9.196  67.038  1.00  0.00    -0.090 A  
HETATM    8  C   UNL     1      -8.067  10.077  66.169  1.00  0.00    -0.122 A  
BRANCH   5   9
HETATM    9  C   UNL     1      -7.707   5.895  65.162  1.00  0.00    -0.093 C  
HETATM   10  C   UNL     1      -6.416   5.121  65.158  1.00  0.00    -0.036 C  
BRANCH   9  11
HETATM   11  N   UNL     1      -8.856   5.366  64.848  1.00  0.00    -0.300 NA 
HETATM   12  H   UNL     1      -9.019   4.812  64.006  1.00  0.00     0.000 HD 
BRANCH  11  13
HETATM   13  O   UNL     1      -9.836   5.648  65.799  1.00  0.00    -0.022 OA 
BRANCH  13  14
HETATM   14  C   UNL     1      -9.782   4.627  66.789  1.00  0.00    -0.198 C  
BRANCH  14  15
HETATM   15  C   UNL     1      -9.854   5.292  68.128  1.00  0.00    -0.198 A  
HETATM   16  F   UNL     1      -7.587   6.258  72.341  1.00  0.00    -0.093 F  
HETATM   17  F   UNL     1      -7.127   4.497  71.176  1.00  0.00    -0.038 F  
HETATM   18  C   UNL     1     -11.043   5.850  68.577  1.00  0.00    -0.171 A  
HETATM   19  F   UNL     1      -6.448   6.442  70.496  1.00  0.00    -0.038 F  
HETATM   20  C   UNL     1     -11.084   6.504  69.804  1.00  0.00    -0.430 A  
HETATM   21  C   UNL     1      -8.747   5.300  68.979  1.00  0.00    -0.104 A  
HETATM   22  C   UNL     1      -9.938   6.664  70.612  1.00  0.00    -0.201 A  
HETATM   23  C   UNL     1      -7.512   5.803  71.062  1.00  0.00    -0.090 C  
HETATM   24  C   UNL     1      -8.774   5.951  70.233  1.00  0.00    -0.142 A  
BRANCH  22  25
HETATM   25  C   UNL     1      -9.973   7.616  71.817  1.00  0.00    -0.208 C  
HETATM   26  C   UNL     1      -9.543   9.053  71.435  1.00  0.00    -0.356 C  
HETATM   27  C   UNL     1     -10.567   9.733  70.531  1.00  0.00    -0.376 C  
HETATM   28  C   UNL     1     -11.912   9.850  71.231  1.00  0.00    -0.489 C  
HETATM   29  C   UNL     1     -12.407   8.522  71.791  1.00  0.00    -0.388 C  
HETATM   30  C   UNL     1     -11.329   7.745  72.563  1.00  0.00    -0.429 C  
ENDBRANCH  22  25
ENDBRANCH  14  15
ENDBRANCH  13  14
ENDBRANCH  11  13
ENDBRANCH   9  11
ENDBRANCH   5   9
BRANCH   8  31
HETATM   31  C   UNL     1      -8.293  11.524  66.589  1.00  0.00    -0.167 C  
BRANCH  31  32
HETATM   32  N   UNL     1      -9.557  11.802  67.314  1.00  0.00    -0.175 NA 
HETATM   33  O   UNL     1     -12.319  12.032  68.625  1.00  0.00    -0.223 OA 
HETATM   34  O   UNL     1     -12.493  14.156  69.347  1.00  0.00    -0.277 OA 
HETATM   35  C   UNL     1      -9.301  12.347  68.674  1.00  0.00     0.003 C  
HETATM   36  C   UNL     1     -11.803  13.275  68.841  1.00  0.00    -0.327 C  
HETATM   37  C   UNL     1     -10.036  13.157  66.901  1.00  0.00    -0.245 C  
HETATM   38  C   UNL     1     -10.340  13.453  68.381  1.00  0.00    -0.253 C  
ENDBRANCH  31  32
ENDBRANCH   8  31
ENDBRANCH   2   3
TORSDOF 9
ENDMDL
MODEL      184
REMARK 921   NORMALIZED FREE ENERGY PREDICTED BY IDOCK:   -5.57 KCAL/MOL
REMARK 922        TOTAL FREE ENERGY PREDICTED BY IDOCK:   -9.92 KCAL/MOL
REMARK 923 INTER-LIGAND FREE ENERGY PREDICTED BY IDOCK:   -8.69 KCAL/MOL
REMARK 924 INTRA-LIGAND FREE ENERGY PREDICTED BY IDOCK:   -1.23 KCAL/MOL
REMARK 927      BINDING AFFINITY PREDICTED BY RF-SCORE:    0.00 PKD
ROOT
HETATM    1  C   UNL     1      -7.003  13.052  68.088  1.00  0.00    -0.105 C  
HETATM    2  C   UNL     1      -7.595  14.450  68.008  1.00  0.00    -0.139 C  
ENDROOT
BRANCH   2   3
HETATM    3  C   UNL     1      -8.722  14.559  67.006  1.00  0.00    -0.256 A  
HETATM    4  C   UNL     1      -9.558  13.434  66.935  1.00  0.00    -0.257 A  
HETATM    5  C   UNL     1     -10.535  13.301  65.946  1.00  0.00    -0.289 A  
HETATM    6  C   UNL     1     -10.720  14.328  65.030  1.00  0.00    -0.435 A  
HETATM    7  C   UNL     1      -9.940  15.492  65.130  1.00  0.00    -0.184 A  
HETATM    8  C   UNL     1      -8.945  15.640  66.125  1.00  0.00    -0.362 A  
BRANCH   5   9
HETATM    9  C   UNL     1     -11.220  11.980  65.870  1.00  0.00    -0.337 C  
HETATM   10  C   UNL     1     -12.087  11.641  64.687  1.00  0.00     0.038 C  
BRANCH   9  11
HETATM   11  N   UNL     1     -11.024  11.164  66.867  1.00  0.00    -0.285 NA 
HETATM   12  H   UNL     1     -10.196  10.576  66.970  1.00  0.00     0.000 HD 
BRANCH  11  13
HETATM   13  O   UNL     1     -12.080  11.191  67.777  1.00  0.00    -0.606 OA 
BRANCH  13  14
HETATM   14  C   UNL     1     -11.537  11.481  69.060  1.00  0.00    -0.318 C  
BRANCH  14  15
HETATM   15  C   UNL     1     -10.693  10.313  69.469  1.00  0.00    -0.280 A  
HETATM   16  F   UNL     1     -10.590   5.754  71.208  1.00  0.00    -0.266 F  
HETATM   17  F   UNL     1     -12.209   7.111  71.662  1.00  0.00    -0.307 F  
HETATM   18  C   UNL     1      -9.312  10.428  69.534  1.00  0.00    -0.150 A  
HETATM   19  F   UNL     1     -12.063   6.238  69.680  1.00  0.00    -0.394 F  
HETATM   20  C   UNL     1      -8.538   9.321  69.871  1.00  0.00    -0.178 A  
HETATM   21  C   UNL     1     -11.286   9.111  69.860  1.00  0.00    -0.118 A  
HETATM   22  C   UNL     1      -9.104   8.053  70.116  1.00  0.00    -0.151 A  
HETATM   23  C   UNL     1     -11.315   6.779  70.683  1.00  0.00    -0.334 C  
HETATM   24  C   UNL     1     -10.516   7.980  70.215  1.00  0.00    -0.222 A  
BRANCH  22  25
HETATM   25  C   UNL     1      -8.200   6.815  70.220  1.00  0.00    -0.125 C  
HETATM   26  C   UNL     1      -8.609   5.712  69.214  1.00  0.00    -0.106 C  
HETATM   27  C   UNL     1      -8.329   6.123  67.771  1.00  0.00    -0.116 C  
HETATM   28  C   UNL     1      -6.845   6.380  67.561  1.00  0.00    -0.076 C  
HETATM   29  C   UNL     1      -6.261   7.353  68.577  1.00  0.00    -0.035 C  
HETATM   30  C   UNL     1      -6.677   7.047  70.025  1.00  0.00    -0.055 C  
ENDBRANCH  22  25
ENDBRANCH  14  15
ENDBRANCH  13  14
ENDBRANCH  11  13
ENDBRANCH   9  11
ENDBRANCH   5   9
BRANCH   8  31
HETATM   31  C   UNL     1      -8.067  16.885  66.133  1.00  0.00    -0.260 C  
BRANCH  31  32
HETATM   32  N   UNL     1      -8.685  18.115  66.684  1.00  0.00    -0.258 NA 
HETATM   33  O   UNL     1      -9.726  20.868  67.544  1.00  0.00    -0.421 OA 
HETATM   34  O   UNL     1     -10.640  20.582  69.580  1.00  0.00     0.063 OA 
HETATM   35  C   UNL     1     -10.112  17.899  67.042  1.00  0.00    -0.340 C  
HETATM   36  C   UNL     1     -10.119  20.082  68.587  1.00  0.00    -0.347 C  
HETATM   37  C   UNL     1      -8.365  18.177  68.144  1.00  0.00    -0.277 C  
HETATM   38  C   UNL     1      -9.830  18.577  68.402  1.00  0.00    -0.404 C  
ENDBRANCH  31  32
ENDBRANCH   8  31
ENDBRANCH   2   3
TORSDOF 9
ENDMDL
MODEL      185
REMARK 921   NORMALIZED FREE ENERGY PREDICTED BY IDOCK:   -5.56 KCAL/MOL
REMARK 922        TOTAL FREE ENERGY PREDICTED BY IDOCK:   -9.91 KCAL/MOL
REMARK 923 INTER-LIGAND FREE ENERGY PREDICTED BY IDOCK:   -9.04 KCAL/MOL
REMARK 924 INTRA-LIGAND FREE ENERGY PREDICTED BY IDOCK:   -0.87 KCAL/MOL
REMARK 927      BINDING AFFINITY PREDICTED BY RF-SCORE:    0.00 PKD
ROOT
HETATM    1  C   UNL     1     -10.169  14.336  65.397  1.00  0.00    -0.395 C  
HETATM    2  C   UNL     1     -11.435  14.881  66.039  1.00  0.00    -0.275 C  
ENDROOT
BRANCH   2   3
HETATM    3  C   UNL     1     -11.274  15.169  67.515  1.00  0.00    -0.331 A  
HETATM    4  C   UNL     1     -11.540  14.080  68.359  1.00  0.00    -0.366 A  
HETATM    5  C   UNL     1     -11.607  14.220  69.747  1.00  0.00    -0.350 A  
HETATM    6  C   UNL     1     -11.360  15.462  70.318  1.00  0.00    -0.332 A  
HETATM    7  C   UNL     1     -11.022  16.547  69.492  1.00  0.00    -0.289 A  
HETATM    8  C   UNL     1     -10.952  16.420  68.085  1.00  0.00    -0.339 A  
BRANCH   5   9
HETATM    9  C   UNL     1     -12.082  13.031  70.508  1.00  0.00    -0.292 C  
HETATM   10  C   UNL     1     -13.295  13.130  71.394  1.00  0.00    -0.216 C  
BRANCH   9  11
HETATM   11  N   UNL     1     -11.397  11.932  70.359  1.00  0.00    -0.350 NA 
HETATM   12  H   UNL     1     -10.404  11.844  70.575  1.00  0.00     0.000 HD 
BRANCH  11  13
HETATM   13  O   UNL     1     -12.184  10.891  69.868  1.00  0.00    -0.325 OA 
BRANCH  13  14
HETATM   14  C   UNL     1     -11.746  10.606  68.545  1.00  0.00    -0.127 C  
BRANCH  14  15
HETATM   15  C   UNL     1     -10.678   9.561  68.638  1.00  0.00    -0.218 A  
HETATM   16  F   UNL     1      -6.666   8.007  70.944  1.00  0.00    -0.037 F  
HETATM   17  F   UNL     1      -7.201  10.099  70.870  1.00  0.00    -0.081 F  
HETATM   18  C   UNL     1     -10.569   8.574  67.669  1.00  0.00    -0.268 A  
HETATM   19  F   UNL     1      -8.321   8.749  72.148  1.00  0.00    -0.215 F  
HETATM   20  C   UNL     1      -9.601   7.582  67.792  1.00  0.00    -0.166 A  
HETATM   21  C   UNL     1      -9.729   9.603  69.661  1.00  0.00    -0.230 A  
HETATM   22  C   UNL     1      -8.732   7.511  68.901  1.00  0.00    -0.132 A  
HETATM   23  C   UNL     1      -7.738   8.844  70.918  1.00  0.00    -0.122 C  
HETATM   24  C   UNL     1      -8.732   8.610  69.796  1.00  0.00    -0.132 A  
BRANCH  22  25
HETATM   25  C   UNL     1      -7.869   6.260  69.123  1.00  0.00    -0.105 C  
HETATM   26  C   UNL     1      -8.568   5.228  70.041  1.00  0.00    -0.117 C  
HETATM   27  C   UNL     1      -9.783   4.596  69.367  1.00  0.00    -0.272 C  
HETATM   28  C   UNL     1      -9.373   3.853  68.105  1.00  0.00    -0.223 C  
HETATM   29  C   UNL     1      -8.548   4.709  67.152  1.00  0.00    -0.104 C  
HETATM   30  C   UNL     1      -7.422   5.488  67.852  1.00  0.00    -0.080 C  
ENDBRANCH  22  25
ENDBRANCH  14  15
ENDBRANCH  13  14
ENDBRANCH  11  13
ENDBRANCH   9  11
ENDBRANCH   5   9
BRANCH   8  31
HETATM   31  C   UNL     1     -10.670  17.649  67.230  1.00  0.00    -0.231 C  
BRANCH  31  32
HETATM   32  N   UNL     1      -9.471  18.439  67.601  1.00  0.00    -0.270 NA 
HETATM   33  O   UNL     1      -7.094  19.988  68.765  1.00  0.00    -0.305 OA 
HETATM   34  O   UNL     1      -6.373  21.350  67.127  1.00  0.00    -0.441 OA 
HETATM   35  C   UNL     1      -8.357  18.229  66.638  1.00  0.00    -0.264 C  
HETATM   36  C   UNL     1      -7.126  20.448  67.482  1.00  0.00    -0.309 C  
HETATM   37  C   UNL     1      -9.639  19.819  67.049  1.00  0.00    -0.369 C  
HETATM   38  C   UNL     1      -8.174  19.762  66.579  1.00  0.00    -0.363 C  
ENDBRANCH  31  32
ENDBRANCH   8  31
ENDBRANCH   2   3
TORSDOF 9
ENDMDL
MODEL      186
REMARK 921   NORMALIZED FREE ENERGY PREDICTED BY IDOCK:   -5.55 KCAL/MOL
REMARK 922        TOTAL FREE ENERGY PREDICTED BY IDOCK:   -9.90 KCAL/MOL
REMARK 923 INTER-LIGAND FREE ENERGY PREDICTED BY IDOCK:   -8.94 KCAL/MOL
REMARK 924 INTRA-LIGAND FREE ENERGY PREDICTED BY IDOCK:   -0.96 KCAL/MOL
REMARK 927      BINDING AFFINITY PREDICTED BY RF-SCORE:    0.00 PKD
ROOT
HETATM    1  C   UNL     1     -12.799  11.873  71.294  1.00  0.00    -0.391 C  
HETATM    2  C   UNL     1     -12.356  10.433  71.491  1.00  0.00    -0.468 C  
ENDROOT
BRANCH   2   3
HETATM    3  C   UNL     1     -11.585   9.884  70.311  1.00  0.00    -0.319 A  
HETATM    4  C   UNL     1     -11.292  10.823  69.311  1.00  0.00    -0.352 A  
HETATM    5  C   UNL     1     -10.742  10.448  68.083  1.00  0.00    -0.277 A  
HETATM    6  C   UNL     1     -10.432   9.113  67.856  1.00  0.00    -0.293 A  
HETATM    7  C   UNL     1     -10.652   8.170  68.874  1.00  0.00    -0.161 A  
HETATM    8  C   UNL     1     -11.211   8.536  70.121  1.00  0.00    -0.139 A  
BRANCH   5   9
HETATM    9  C   UNL     1     -10.658  11.513  67.045  1.00  0.00    -0.242 C  
HETATM   10  C   UNL     1      -9.431  11.640  66.183  1.00  0.00    -0.240 C  
BRANCH   9  11
HETATM   11  N   UNL     1     -11.690  12.302  66.937  1.00  0.00    -0.521 NA 
HETATM   12  H   UNL     1     -12.553  12.053  66.453  1.00  0.00     0.000 HD 
BRANCH  11  13
HETATM   13  O   UNL     1     -11.472  13.530  67.561  1.00  0.00    -0.296 OA 
BRANCH  13  14
HETATM   14  C   UNL     1     -11.448  14.531  66.550  1.00  0.00    -0.362 C  
BRANCH  14  15
HETATM   15  C   UNL     1     -10.274  15.420  66.821  1.00  0.00    -0.273 A  
HETATM   16  F   UNL     1      -6.077  16.027  69.238  1.00  0.00    -0.114 F  
HETATM   17  F   UNL     1      -7.665  14.779  70.006  1.00  0.00    -0.119 F  
HETATM   18  C   UNL     1     -10.240  16.715  66.327  1.00  0.00    -0.344 A  
HETATM   19  F   UNL     1      -6.470  14.088  68.332  1.00  0.00    -0.079 F  
HETATM   20  C   UNL     1      -9.124  17.515  66.549  1.00  0.00    -0.284 A  
HETATM   21  C   UNL     1      -9.227  14.986  67.636  1.00  0.00    -0.182 A  
HETATM   22  C   UNL     1      -7.984  17.045  67.235  1.00  0.00    -0.197 A  
HETATM   23  C   UNL     1      -7.079  15.195  68.844  1.00  0.00    -0.125 C  
HETATM   24  C   UNL     1      -8.089  15.788  67.881  1.00  0.00    -0.149 A  
BRANCH  22  25
HETATM   25  C   UNL     1      -6.685  17.865  67.221  1.00  0.00    -0.192 C  
HETATM   26  C   UNL     1      -6.511  18.656  65.903  1.00  0.00    -0.278 C  
HETATM   27  C   UNL     1      -7.534  19.780  65.773  1.00  0.00    -0.325 C  
HETATM   28  C   UNL     1      -7.384  20.782  66.908  1.00  0.00    -0.312 C  
HETATM   29  C   UNL     1      -7.397  20.126  68.284  1.00  0.00    -0.254 C  
HETATM   30  C   UNL     1      -6.495  18.885  68.377  1.00  0.00    -0.248 C  
ENDBRANCH  22  25
ENDBRANCH  14  15
ENDBRANCH  13  14
ENDBRANCH  11  13
ENDBRANCH   9  11
ENDBRANCH   5   9
BRANCH   8  31
HETATM   31  C   UNL     1     -11.513   7.459  71.156  1.00  0.00    -0.279 C  
BRANCH  31  32
HETATM   32  N   UNL     1     -10.479   7.250  72.199  1.00  0.00    -0.200 NA 
HETATM   33  O   UNL     1      -8.291   7.234  74.347  1.00  0.00    -0.163 OA 
HETATM   34  O   UNL     1      -7.526   5.121  74.444  1.00  0.00    -0.085 OA 
HETATM   35  C   UNL     1     -10.862   6.163  73.140  1.00  0.00    -0.254 C  
HETATM   36  C   UNL     1      -8.336   5.921  73.984  1.00  0.00    -0.113 C  
HETATM   37  C   UNL     1      -9.432   6.343  71.635  1.00  0.00    -0.153 C  
HETATM   38  C   UNL     1      -9.445   5.572  72.968  1.00  0.00    -0.154 C  
ENDBRANCH  31  32
ENDBRANCH   8  31
ENDBRANCH   2   3
TORSDOF 9
ENDMDL
MODEL      187
REMARK 921   NORMALIZED FREE ENERGY PREDICTED BY IDOCK:   -5.54 KCAL/MOL
REMARK 922        TOTAL FREE ENERGY PREDICTED BY IDOCK:   -9.89 KCAL/MOL
REMARK 923 INTER-LIGAND FREE ENERGY PREDICTED BY IDOCK:   -8.74 KCAL/MOL
REMARK 924 INTRA-LIGAND FREE ENERGY PREDICTED BY IDOCK:   -1.15 KCAL/MOL
REMARK 927      BINDING AFFINITY PREDICTED BY RF-SCORE:    0.00 PKD
ROOT
HETATM    1  C   UNL     1     -12.274  12.673  63.503  1.00  0.00    -0.638 C  
HETATM    2  C   UNL     1     -11.836  13.686  64.547  1.00  0.00    -0.445 C  
ENDROOT
BRANCH   2   3
HETATM    3  C   UNL     1     -10.705  13.188  65.418  1.00  0.00    -0.308 A  
HETATM    4  C   UNL     1     -10.092  12.008  64.968  1.00  0.00    -0.293 A  
HETATM    5  C   UNL     1      -9.153  11.322  65.741  1.00  0.00    -0.216 A  
HETATM    6  C   UNL     1      -8.776  11.841  66.973  1.00  0.00    -0.181 A  
HETATM    7  C   UNL     1      -9.326  13.059  67.407  1.00  0.00    -0.209 A  
HETATM    8  C   UNL     1     -10.280  13.763  66.635  1.00  0.00    -0.276 A  
BRANCH   5   9
HETATM    9  C   UNL     1      -8.725   9.990  65.230  1.00  0.00    -0.163 C  
HETATM   10  C   UNL     1      -7.474   9.858  64.403  1.00  0.00    -0.137 C  
BRANCH   9  11
HETATM   11  N   UNL     1      -9.484   8.976  65.540  1.00  0.00    -0.424 NA 
HETATM   12  H   UNL     1      -9.977   8.401  64.856  1.00  0.00     0.000 HD 
BRANCH  11  13
HETATM   13  O   UNL     1      -9.542   8.772  66.918  1.00  0.00    -0.161 OA 
BRANCH  13  14
HETATM   14  C   UNL     1      -8.277   8.273  67.334  1.00  0.00    -0.121 C  
BRANCH  14  15
HETATM   15  C   UNL     1      -8.480   7.547  68.628  1.00  0.00    -0.129 A  
HETATM   16  F   UNL     1     -11.543   6.464  72.271  1.00  0.00    -0.292 F  
HETATM   17  F   UNL     1     -11.731   8.288  71.128  1.00  0.00    -0.270 F  
HETATM   18  C   UNL     1      -7.414   6.935  69.270  1.00  0.00    -0.094 A  
HETATM   19  F   UNL     1     -12.305   6.396  70.234  1.00  0.00    -0.403 F  
HETATM   20  C   UNL     1      -7.626   6.225  70.448  1.00  0.00    -0.096 A  
HETATM   21  C   UNL     1      -9.732   7.535  69.248  1.00  0.00    -0.163 A  
HETATM   22  C   UNL     1      -8.910   6.064  71.010  1.00  0.00    -0.139 A  
HETATM   23  C   UNL     1     -11.359   6.977  71.025  1.00  0.00    -0.287 C  
HETATM   24  C   UNL     1      -9.963   6.828  70.449  1.00  0.00    -0.193 A  
BRANCH  22  25
HETATM   25  C   UNL     1      -9.130   5.059  72.151  1.00  0.00    -0.147 C  
HETATM   26  C   UNL     1      -9.795   3.753  71.654  1.00  0.00    -0.240 C  
HETATM   27  C   UNL     1      -8.862   2.941  70.762  1.00  0.00    -0.147 C  
HETATM   28  C   UNL     1      -7.609   2.532  71.522  1.00  0.00    -0.040 C  
HETATM   29  C   UNL     1      -6.911   3.709  72.192  1.00  0.00    -0.023 C  
HETATM   30  C   UNL     1      -7.871   4.635  72.956  1.00  0.00    -0.096 C  
ENDBRANCH  22  25
ENDBRANCH  14  15
ENDBRANCH  13  14
ENDBRANCH  11  13
ENDBRANCH   9  11
ENDBRANCH   5   9
BRANCH   8  31
HETATM   31  C   UNL     1     -10.912  15.032  67.194  1.00  0.00    -0.329 C  
BRANCH  31  32
HETATM   32  N   UNL     1      -9.975  16.126  67.545  1.00  0.00    -0.239 NA 
HETATM   33  O   UNL     1      -7.867  18.118  68.542  1.00  0.00    -0.284 OA 
HETATM   34  O   UNL     1      -8.603  20.158  67.945  1.00  0.00    -0.290 OA 
HETATM   35  C   UNL     1      -9.607  16.937  66.353  1.00  0.00    -0.284 C  
HETATM   36  C   UNL     1      -8.747  18.939  67.903  1.00  0.00    -0.298 C  
HETATM   37  C   UNL     1     -10.783  17.285  68.037  1.00  0.00    -0.367 C  
HETATM   38  C   UNL     1      -9.899  18.209  67.180  1.00  0.00    -0.319 C  
ENDBRANCH  31  32
ENDBRANCH   8  31
ENDBRANCH   2   3
TORSDOF 9
ENDMDL
MODEL      188
REMARK 921   NORMALIZED FREE ENERGY PREDICTED BY IDOCK:   -5.53 KCAL/MOL
REMARK 922        TOTAL FREE ENERGY PREDICTED BY IDOCK:   -9.87 KCAL/MOL
REMARK 923 INTER-LIGAND FREE ENERGY PREDICTED BY IDOCK:   -8.56 KCAL/MOL
REMARK 924 INTRA-LIGAND FREE ENERGY PREDICTED BY IDOCK:   -1.31 KCAL/MOL
REMARK 927      BINDING AFFINITY PREDICTED BY RF-SCORE:    0.00 PKD
ROOT
HETATM    1  C   UNL     1      -8.019  10.355  62.360  1.00  0.00    -0.189 C  
HETATM    2  C   UNL     1      -8.042   9.410  63.550  1.00  0.00    -0.157 C  
ENDROOT
BRANCH   2   3
HETATM    3  C   UNL     1      -9.052   9.809  64.602  1.00  0.00    -0.294 A  
HETATM    4  C   UNL     1      -9.918  10.846  64.225  1.00  0.00    -0.392 A  
HETATM    5  C   UNL     1     -10.790  11.449  65.134  1.00  0.00    -0.302 A  
HETATM    6  C   UNL     1     -10.838  10.983  66.441  1.00  0.00    -0.253 A  
HETATM    7  C   UNL     1     -10.030   9.898  66.818  1.00  0.00    -0.272 A  
HETATM    8  C   UNL     1      -9.140   9.279  65.908  1.00  0.00    -0.246 A  
BRANCH   5   9
HETATM    9  C   UNL     1     -11.513  12.659  64.651  1.00  0.00    -0.330 C  
HETATM   10  C   UNL     1     -11.923  12.775  63.208  1.00  0.00    -0.522 C  
BRANCH   9  11
HETATM   11  N   UNL     1     -11.759  13.582  65.538  1.00  0.00    -0.329 NA 
HETATM   12  H   UNL     1     -12.696  13.860  65.829  1.00  0.00     0.000 HD 
BRANCH  11  13
HETATM   13  O   UNL     1     -10.586  14.144  66.042  1.00  0.00    -0.286 OA 
BRANCH  13  14
HETATM   14  C   UNL     1     -10.353  15.359  65.340  1.00  0.00    -0.394 C  
BRANCH  14  15
HETATM   15  C   UNL     1      -9.438  16.197  66.178  1.00  0.00    -0.362 A  
HETATM   16  F   UNL     1      -5.667  16.288  69.276  1.00  0.00    -0.116 F  
HETATM   17  F   UNL     1      -6.972  14.572  69.117  1.00  0.00    -0.102 F  
HETATM   18  C   UNL     1      -9.671  17.556  66.336  1.00  0.00    -0.299 A  
HETATM   19  F   UNL     1      -5.539  14.983  67.539  1.00  0.00    -0.127 F  
HETATM   20  C   UNL     1      -8.787  18.331  67.080  1.00  0.00    -0.260 A  
HETATM   21  C   UNL     1      -8.376  15.614  66.872  1.00  0.00    -0.287 A  
HETATM   22  C   UNL     1      -7.619  17.794  67.660  1.00  0.00    -0.215 A  
HETATM   23  C   UNL     1      -6.420  15.587  68.386  1.00  0.00    -0.114 C  
HETATM   24  C   UNL     1      -7.474  16.384  67.640  1.00  0.00    -0.153 A  
BRANCH  22  25
HETATM   25  C   UNL     1      -6.546  18.730  68.238  1.00  0.00    -0.240 C  
HETATM   26  C   UNL     1      -5.214  18.641  67.456  1.00  0.00    -0.152 C  
HETATM   27  C   UNL     1      -5.339  19.218  66.049  1.00  0.00    -0.172 C  
HETATM   28  C   UNL     1      -5.718  20.690  66.101  1.00  0.00    -0.233 C  
HETATM   29  C   UNL     1      -6.947  20.956  66.961  1.00  0.00    -0.393 C  
HETATM   30  C   UNL     1      -6.910  20.238  68.320  1.00  0.00    -0.320 C  
ENDBRANCH  22  25
ENDBRANCH  14  15
ENDBRANCH  13  14
ENDBRANCH  11  13
ENDBRANCH   9  11
ENDBRANCH   5   9
BRANCH   8  31
HETATM   31  C   UNL     1      -8.221   8.165  66.393  1.00  0.00    -0.108 C  
BRANCH  31  32
HETATM   32  N   UNL     1      -8.809   6.804  66.428  1.00  0.00    -0.140 NA 
HETATM   33  O   UNL     1     -10.371   4.167  66.344  1.00  0.00    -0.097 OA 
HETATM   34  O   UNL     1      -9.287   2.754  67.718  1.00  0.00    -0.194 OA 
HETATM   35  C   UNL     1      -7.802   5.763  66.088  1.00  0.00    -0.101 C  
HETATM   36  C   UNL     1      -9.329   3.848  67.162  1.00  0.00    -0.191 C  
HETATM   37  C   UNL     1      -8.774   6.323  67.844  1.00  0.00    -0.114 C  
HETATM   38  C   UNL     1      -8.273   4.963  67.323  1.00  0.00    -0.106 C  
ENDBRANCH  31  32
ENDBRANCH   8  31
ENDBRANCH   2   3
TORSDOF 9
ENDMDL
MODEL      189
REMARK 921   NORMALIZED FREE ENERGY PREDICTED BY IDOCK:   -5.52 KCAL/MOL
REMARK 922        TOTAL FREE ENERGY PREDICTED BY IDOCK:   -9.85 KCAL/MOL
REMARK 923 INTER-LIGAND FREE ENERGY PREDICTED BY IDOCK:   -7.11 KCAL/MOL
REMARK 924 INTRA-LIGAND FREE ENERGY PREDICTED BY IDOCK:   -2.74 KCAL/MOL
REMARK 927      BINDING AFFINITY PREDICTED BY RF-SCORE:    0.00 PKD
ROOT
HETATM    1  C   UNL     1     -12.295  12.623  65.240  1.00  0.00    -0.528 C  
HETATM    2  C   UNL     1     -12.152  13.041  66.694  1.00  0.00    -0.386 C  
ENDROOT
BRANCH   2   3
HETATM    3  C   UNL     1     -10.883  12.526  67.336  1.00  0.00    -0.272 A  
HETATM    4  C   UNL     1     -11.065  11.451  68.219  1.00  0.00    -0.300 A  
HETATM    5  C   UNL     1     -10.029  10.971  69.023  1.00  0.00    -0.184 A  
HETATM    6  C   UNL     1      -8.766  11.542  68.918  1.00  0.00     0.031 A  
HETATM    7  C   UNL     1      -8.549  12.571  67.988  1.00  0.00    -0.185 A  
HETATM    8  C   UNL     1      -9.590  13.068  67.168  1.00  0.00    -0.230 A  
BRANCH   5   9
HETATM    9  C   UNL     1     -10.404   9.957  70.048  1.00  0.00    -0.272 C  
HETATM   10  C   UNL     1     -11.776   9.340  70.041  1.00  0.00     0.079 C  
BRANCH   9  11
HETATM   11  N   UNL     1      -9.489   9.650  70.925  1.00  0.00    -0.300 NA 
HETATM   12  H   UNL     1      -8.713  10.262  71.179  1.00  0.00     0.000 HD 
BRANCH  11  13
HETATM   13  O   UNL     1      -9.698   8.385  71.473  1.00  0.00    -0.174 OA 
BRANCH  13  14
HETATM   14  C   UNL     1      -8.502   7.635  71.298  1.00  0.00    -0.115 C  
BRANCH  14  15
HETATM   15  C   UNL     1      -8.260   7.506  69.826  1.00  0.00    -0.128 A  
HETATM   16  F   UNL     1      -9.649   5.459  65.619  1.00  0.00    -0.172 F  
HETATM   17  F   UNL     1     -10.000   4.500  67.523  1.00  0.00    -0.200 F  
HETATM   18  C   UNL     1      -7.138   8.075  69.242  1.00  0.00    -0.068 A  
HETATM   19  F   UNL     1     -11.194   6.220  66.950  1.00  0.00    -0.402 F  
HETATM   20  C   UNL     1      -6.950   7.986  67.866  1.00  0.00    -0.078 A  
HETATM   21  C   UNL     1      -9.121   6.751  69.028  1.00  0.00    -0.137 A  
HETATM   22  C   UNL     1      -7.888   7.364  67.016  1.00  0.00    -0.116 A  
HETATM   23  C   UNL     1      -9.922   5.726  66.924  1.00  0.00    -0.171 C  
HETATM   24  C   UNL     1      -8.940   6.641  67.631  1.00  0.00    -0.111 A  
BRANCH  22  25
HETATM   25  C   UNL     1      -7.770   7.525  65.493  1.00  0.00    -0.103 C  
HETATM   26  C   UNL     1      -8.810   8.524  64.931  1.00  0.00    -0.029 C  
HETATM   27  C   UNL     1      -8.521   9.956  65.371  1.00  0.00    -0.155 C  
HETATM   28  C   UNL     1      -7.160  10.411  64.866  1.00  0.00    -0.043 C  
HETATM   29  C   UNL     1      -6.039   9.443  65.227  1.00  0.00    -0.065 C  
HETATM   30  C   UNL     1      -6.388   7.972  64.945  1.00  0.00    -0.048 C  
ENDBRANCH  22  25
ENDBRANCH  14  15
ENDBRANCH  13  14
ENDBRANCH  11  13
ENDBRANCH   9  11
ENDBRANCH   5   9
BRANCH   8  31
HETATM   31  C   UNL     1      -9.322  14.247  66.241  1.00  0.00    -0.208 C  
BRANCH  31  32
HETATM   32  N   UNL     1      -9.034  15.543  66.902  1.00  0.00    -0.227 NA 
HETATM   33  O   UNL     1      -8.081  18.044  68.398  1.00  0.00    -0.281 OA 
HETATM   34  O   UNL     1      -9.906  19.324  68.702  1.00  0.00    -0.383 OA 
HETATM   35  C   UNL     1      -9.511  16.692  66.088  1.00  0.00    -0.287 C  
HETATM   36  C   UNL     1      -9.402  18.319  68.206  1.00  0.00    -0.308 C  
HETATM   37  C   UNL     1     -10.137  15.820  67.873  1.00  0.00    -0.230 C  
HETATM   38  C   UNL     1     -10.161  17.272  67.363  1.00  0.00    -0.325 C  
ENDBRANCH  31  32
ENDBRANCH   8  31
ENDBRANCH   2   3
TORSDOF 9
ENDMDL
MODEL      190
REMARK 921   NORMALIZED FREE ENERGY PREDICTED BY IDOCK:   -5.51 KCAL/MOL
REMARK 922        TOTAL FREE ENERGY PREDICTED BY IDOCK:   -9.84 KCAL/MOL
REMARK 923 INTER-LIGAND FREE ENERGY PREDICTED BY IDOCK:   -8.11 KCAL/MOL
REMARK 924 INTRA-LIGAND FREE ENERGY PREDICTED BY IDOCK:   -1.73 KCAL/MOL
REMARK 927      BINDING AFFINITY PREDICTED BY RF-SCORE:    0.00 PKD
ROOT
HETATM    1  C   UNL     1      -9.976   9.568  68.662  1.00  0.00    -0.181 C  
HETATM    2  C   UNL     1      -8.543   9.257  68.262  1.00  0.00    -0.125 C  
ENDROOT
BRANCH   2   3
HETATM    3  C   UNL     1      -8.429   8.666  66.875  1.00  0.00    -0.113 A  
HETATM    4  C   UNL     1      -8.476   7.265  66.827  1.00  0.00    -0.121 A  
HETATM    5  C   UNL     1      -8.212   6.556  65.652  1.00  0.00    -0.137 A  
HETATM    6  C   UNL     1      -7.940   7.255  64.483  1.00  0.00    -0.112 A  
HETATM    7  C   UNL     1      -7.960   8.660  64.498  1.00  0.00    -0.144 A  
HETATM    8  C   UNL     1      -8.223   9.390  65.681  1.00  0.00    -0.121 A  
BRANCH   5   9
HETATM    9  C   UNL     1      -8.108   5.076  65.783  1.00  0.00    -0.113 C  
HETATM   10  C   UNL     1      -6.777   4.428  66.054  1.00  0.00    -0.053 C  
BRANCH   9  11
HETATM   11  N   UNL     1      -9.216   4.401  65.651  1.00  0.00    -0.139 NA 
HETATM   12  H   UNL     1      -9.643   4.175  64.752  1.00  0.00     0.000 HD 
BRANCH  11  13
HETATM   13  O   UNL     1      -9.746   4.025  66.884  1.00  0.00    -0.209 OA 
BRANCH  13  14
HETATM   14  C   UNL     1     -10.723   4.993  67.248  1.00  0.00     0.129 C  
BRANCH  14  15
HETATM   15  C   UNL     1     -10.530   5.307  68.699  1.00  0.00    -0.148 A  
HETATM   16  F   UNL     1     -11.923   8.009  72.518  1.00  0.00    -0.356 F  
HETATM   17  F   UNL     1     -12.125   8.717  70.486  1.00  0.00    -0.211 F  
HETATM   18  C   UNL     1      -9.478   4.747  69.409  1.00  0.00    -0.229 A  
HETATM   19  F   UNL     1     -13.467   7.181  71.227  1.00  0.00    -0.420 F  
HETATM   20  C   UNL     1      -9.337   5.012  70.768  1.00  0.00    -0.209 A  
HETATM   21  C   UNL     1     -11.362   6.224  69.345  1.00  0.00    -0.448 A  
HETATM   22  C   UNL     1     -10.258   5.810  71.479  1.00  0.00    -0.255 A  
HETATM   23  C   UNL     1     -12.164   7.583  71.249  1.00  0.00    -0.329 C  
HETATM   24  C   UNL     1     -11.228   6.513  70.722  1.00  0.00    -0.377 A  
BRANCH  22  25
HETATM   25  C   UNL     1     -10.213   5.854  73.014  1.00  0.00    -0.211 C  
HETATM   26  C   UNL     1     -11.285   4.939  73.654  1.00  0.00    -0.299 C  
HETATM   27  C   UNL     1     -10.984   3.461  73.423  1.00  0.00    -0.306 C  
HETATM   28  C   UNL     1      -9.652   3.077  74.047  1.00  0.00    -0.124 C  
HETATM   29  C   UNL     1      -8.509   3.987  73.614  1.00  0.00    -0.092 C  
HETATM   30  C   UNL     1      -8.860   5.482  73.681  1.00  0.00    -0.125 C  
ENDBRANCH  22  25
ENDBRANCH  14  15
ENDBRANCH  13  14
ENDBRANCH  11  13
ENDBRANCH   9  11
ENDBRANCH   5   9
BRANCH   8  31
HETATM   31  C   UNL     1      -8.143  10.911  65.661  1.00  0.00    -0.060 C  
BRANCH  31  32
HETATM   32  N   UNL     1      -9.388  11.624  65.283  1.00  0.00    -0.154 NA 
HETATM   33  O   UNL     1     -11.887  13.343  64.837  1.00  0.00    -0.344 OA 
HETATM   34  O   UNL     1     -13.234  12.149  63.488  1.00  0.00    -0.744 OA 
HETATM   35  C   UNL     1      -9.543  11.714  63.807  1.00  0.00    -0.189 C  
HETATM   36  C   UNL     1     -12.149  12.260  64.052  1.00  0.00    -0.471 C  
HETATM   37  C   UNL     1     -10.509  10.635  65.305  1.00  0.00    -0.194 C  
HETATM   38  C   UNL     1     -11.001  11.231  63.973  1.00  0.00    -0.377 C  
ENDBRANCH  31  32
ENDBRANCH   8  31
ENDBRANCH   2   3
TORSDOF 9
ENDMDL
MODEL      191
REMARK 921   NORMALIZED FREE ENERGY PREDICTED BY IDOCK:   -5.51 KCAL/MOL
REMARK 922        TOTAL FREE ENERGY PREDICTED BY IDOCK:   -9.84 KCAL/MOL
REMARK 923 INTER-LIGAND FREE ENERGY PREDICTED BY IDOCK:   -7.59 KCAL/MOL
REMARK 924 INTRA-LIGAND FREE ENERGY PREDICTED BY IDOCK:   -2.25 KCAL/MOL
REMARK 927      BINDING AFFINITY PREDICTED BY RF-SCORE:    0.00 PKD
ROOT
HETATM    1  C   UNL     1      -7.593  11.658  68.558  1.00  0.00    -0.127 C  
HETATM    2  C   UNL     1      -8.922  11.589  67.824  1.00  0.00    -0.160 C  
ENDROOT
BRANCH   2   3
HETATM    3  C   UNL     1     -10.077  12.126  68.640  1.00  0.00    -0.161 A  
HETATM    4  C   UNL     1     -10.629  11.213  69.550  1.00  0.00    -0.137 A  
HETATM    5  C   UNL     1     -11.805  11.489  70.253  1.00  0.00    -0.431 A  
HETATM    6  C   UNL     1     -12.426  12.719  70.083  1.00  0.00    -0.126 A  
HETATM    7  C   UNL     1     -11.847  13.673  69.229  1.00  0.00    -0.395 A  
HETATM    8  C   UNL     1     -10.658  13.406  68.510  1.00  0.00    -0.264 A  
BRANCH   5   9
HETATM    9  C   UNL     1     -12.383  10.363  71.039  1.00  0.00    -0.387 C  
HETATM   10  C   UNL     1     -13.357  10.636  72.154  1.00  0.00    -0.335 C  
BRANCH   9  11
HETATM   11  N   UNL     1     -11.999   9.163  70.706  1.00  0.00    -0.430 NA 
HETATM   12  H   UNL     1     -12.355   8.653  69.897  1.00  0.00     0.000 HD 
BRANCH  11  13
HETATM   13  O   UNL     1     -11.043   8.659  71.587  1.00  0.00    -0.261 OA 
BRANCH  13  14
HETATM   14  C   UNL     1     -10.999   7.247  71.415  1.00  0.00    -0.232 C  
BRANCH  14  15
HETATM   15  C   UNL     1     -10.028   6.957  70.312  1.00  0.00    -0.189 A  
HETATM   16  F   UNL     1      -8.759   3.976  66.662  1.00  0.00    -0.109 F  
HETATM   17  F   UNL     1      -9.873   3.271  68.375  1.00  0.00    -0.217 F  
HETATM   18  C   UNL     1      -8.869   7.706  70.177  1.00  0.00    -0.146 A  
HETATM   19  F   UNL     1     -10.862   4.496  66.880  1.00  0.00    -0.108 F  
HETATM   20  C   UNL     1      -7.998   7.455  69.120  1.00  0.00    -0.118 A  
HETATM   21  C   UNL     1     -10.238   5.883  69.445  1.00  0.00    -0.284 A  
HETATM   22  C   UNL     1      -8.268   6.479  68.138  1.00  0.00    -0.117 A  
HETATM   23  C   UNL     1      -9.694   4.363  67.572  1.00  0.00    -0.163 C  
HETATM   24  C   UNL     1      -9.360   5.607  68.373  1.00  0.00    -0.133 A  
BRANCH  22  25
HETATM   25  C   UNL     1      -7.421   6.422  66.857  1.00  0.00    -0.084 C  
HETATM   26  C   UNL     1      -8.133   7.098  65.660  1.00  0.00    -0.133 C  
HETATM   27  C   UNL     1      -8.240   8.609  65.840  1.00  0.00    -0.123 C  
HETATM   28  C   UNL     1      -6.859   9.240  65.942  1.00  0.00    -0.088 C  
HETATM   29  C   UNL     1      -5.981   8.580  66.998  1.00  0.00    -0.053 C  
HETATM   30  C   UNL     1      -6.000   7.044  66.935  1.00  0.00    -0.030 C  
ENDBRANCH  22  25
ENDBRANCH  14  15
ENDBRANCH  13  14
ENDBRANCH  11  13
ENDBRANCH   9  11
ENDBRANCH   5   9
BRANCH   8  31
HETATM   31  C   UNL     1     -10.123  14.442  67.528  1.00  0.00    -0.232 C  
BRANCH  31  32
HETATM   32  N   UNL     1     -10.063  15.838  68.023  1.00  0.00    -0.226 NA 
HETATM   33  O   UNL     1     -10.355  18.698  69.091  1.00  0.00    -0.221 OA 
HETATM   34  O   UNL     1      -8.473  19.780  68.503  1.00  0.00    -0.316 OA 
HETATM   35  C   UNL     1      -8.838  16.082  68.831  1.00  0.00    -0.233 C  
HETATM   36  C   UNL     1      -9.104  18.728  68.551  1.00  0.00    -0.342 C  
HETATM   37  C   UNL     1      -9.473  16.685  66.941  1.00  0.00    -0.235 C  
HETATM   38  C   UNL     1      -8.604  17.370  68.012  1.00  0.00    -0.240 C  
ENDBRANCH  31  32
ENDBRANCH   8  31
ENDBRANCH   2   3
TORSDOF 9
ENDMDL
MODEL      192
REMARK 921   NORMALIZED FREE ENERGY PREDICTED BY IDOCK:   -5.50 KCAL/MOL
REMARK 922        TOTAL FREE ENERGY PREDICTED BY IDOCK:   -9.82 KCAL/MOL
REMARK 923 INTER-LIGAND FREE ENERGY PREDICTED BY IDOCK:   -8.54 KCAL/MOL
REMARK 924 INTRA-LIGAND FREE ENERGY PREDICTED BY IDOCK:   -1.29 KCAL/MOL
REMARK 927      BINDING AFFINITY PREDICTED BY RF-SCORE:    0.00 PKD
ROOT
HETATM    1  C   UNL     1     -12.357  12.069  64.214  1.00  0.00    -0.401 C  
HETATM    2  C   UNL     1     -11.696  12.933  65.275  1.00  0.00    -0.399 C  
ENDROOT
BRANCH   2   3
HETATM    3  C   UNL     1     -10.333  12.425  65.689  1.00  0.00    -0.284 A  
HETATM    4  C   UNL     1     -10.012  11.146  65.210  1.00  0.00    -0.311 A  
HETATM    5  C   UNL     1      -8.873  10.461  65.638  1.00  0.00    -0.190 A  
HETATM    6  C   UNL     1      -8.004  11.076  66.530  1.00  0.00    -0.158 A  
HETATM    7  C   UNL     1      -8.273  12.385  66.965  1.00  0.00    -0.141 A  
HETATM    8  C   UNL     1      -9.424  13.090  66.541  1.00  0.00    -0.246 A  
BRANCH   5   9
HETATM    9  C   UNL     1      -8.752   9.042  65.198  1.00  0.00    -0.189 C  
HETATM   10  C   UNL     1      -7.767   8.659  64.127  1.00  0.00    -0.129 C  
BRANCH   9  11
HETATM   11  N   UNL     1      -9.534   8.182  65.788  1.00  0.00    -0.432 NA 
HETATM   12  H   UNL     1     -10.275   7.665  65.315  1.00  0.00     0.000 HD 
BRANCH  11  13
HETATM   13  O   UNL     1      -9.234   8.052  67.144  1.00  0.00    -0.134 OA 
BRANCH  13  14
HETATM   14  C   UNL     1     -10.463   8.077  67.862  1.00  0.00    -0.197 C  
BRANCH  14  15
HETATM   15  C   UNL     1     -10.392   7.017  68.917  1.00  0.00    -0.198 A  
HETATM   16  F   UNL     1      -9.535   2.324  69.947  1.00  0.00    -0.175 F  
HETATM   17  F   UNL     1     -10.249   2.954  68.007  1.00  0.00     0.169 F  
HETATM   18  C   UNL     1     -10.808   7.283  70.213  1.00  0.00    -0.264 A  
HETATM   19  F   UNL     1      -8.188   3.336  68.569  1.00  0.00    -0.066 F  
HETATM   20  C   UNL     1     -10.694   6.302  71.194  1.00  0.00    -0.301 A  
HETATM   21  C   UNL     1      -9.974   5.724  68.598  1.00  0.00    -0.201 A  
HETATM   22  C   UNL     1     -10.127   5.037  70.933  1.00  0.00    -0.302 A  
HETATM   23  C   UNL     1      -9.463   3.347  69.054  1.00  0.00    -0.132 C  
HETATM   24  C   UNL     1      -9.862   4.713  69.579  1.00  0.00    -0.286 A  
BRANCH  22  25
HETATM   25  C   UNL     1      -9.780   4.095  72.096  1.00  0.00    -0.225 C  
HETATM   26  C   UNL     1      -8.323   4.285  72.583  1.00  0.00    -0.101 C  
HETATM   27  C   UNL     1      -8.122   5.634  73.267  1.00  0.00    -0.114 C  
HETATM   28  C   UNL     1      -9.013   5.756  74.494  1.00  0.00    -0.128 C  
HETATM   29  C   UNL     1     -10.477   5.457  74.195  1.00  0.00    -0.310 C  
HETATM   30  C   UNL     1     -10.682   4.184  73.357  1.00  0.00    -0.303 C  
ENDBRANCH  22  25
ENDBRANCH  14  15
ENDBRANCH  13  14
ENDBRANCH  11  13
ENDBRANCH   9  11
ENDBRANCH   5   9
BRANCH   8  31
HETATM   31  C   UNL     1      -9.715  14.471  67.113  1.00  0.00    -0.240 C  
BRANCH  31  32
HETATM   32  N   UNL     1     -10.485  14.503  68.380  1.00  0.00    -0.240 NA 
HETATM   33  O   UNL     1     -12.248  14.205  70.872  1.00  0.00    -0.325 OA 
HETATM   34  O   UNL     1     -12.364  16.249  71.803  1.00  0.00    -0.404 OA 
HETATM   35  C   UNL     1      -9.681  15.064  69.498  1.00  0.00    -0.103 C  
HETATM   36  C   UNL     1     -11.887  15.517  70.940  1.00  0.00    -0.371 C  
HETATM   37  C   UNL     1     -11.304  15.754  68.389  1.00  0.00    -0.372 C  
HETATM   38  C   UNL     1     -10.883  15.966  69.855  1.00  0.00    -0.333 C  
ENDBRANCH  31  32
ENDBRANCH   8  31
ENDBRANCH   2   3
TORSDOF 9
ENDMDL
MODEL      193
REMARK 921   NORMALIZED FREE ENERGY PREDICTED BY IDOCK:   -5.49 KCAL/MOL
REMARK 922        TOTAL FREE ENERGY PREDICTED BY IDOCK:   -9.81 KCAL/MOL
REMARK 923 INTER-LIGAND FREE ENERGY PREDICTED BY IDOCK:   -8.14 KCAL/MOL
REMARK 924 INTRA-LIGAND FREE ENERGY PREDICTED BY IDOCK:   -1.67 KCAL/MOL
REMARK 927      BINDING AFFINITY PREDICTED BY RF-SCORE:    0.00 PKD
ROOT
HETATM    1  C   UNL     1      -5.816   9.656  63.926  1.00  0.00    -0.097 C  
HETATM    2  C   UNL     1      -6.245   9.392  65.359  1.00  0.00    -0.065 C  
ENDROOT
BRANCH   2   3
HETATM    3  C   UNL     1      -7.746   9.309  65.523  1.00  0.00    -0.095 A  
HETATM    4  C   UNL     1      -8.459  10.375  64.954  1.00  0.00    -0.179 A  
HETATM    5  C   UNL     1      -9.830  10.542  65.163  1.00  0.00    -0.359 A  
HETATM    6  C   UNL     1     -10.522   9.604  65.919  1.00  0.00     0.033 A  
HETATM    7  C   UNL     1      -9.837   8.493  66.436  1.00  0.00    -0.327 A  
HETATM    8  C   UNL     1      -8.448   8.312  66.234  1.00  0.00    -0.134 A  
BRANCH   5   9
HETATM    9  C   UNL     1     -10.424  11.813  64.661  1.00  0.00    -0.299 C  
HETATM   10  C   UNL     1     -11.453  11.790  63.563  1.00  0.00    -0.489 C  
BRANCH   9  11
HETATM   11  N   UNL     1     -10.005  12.912  65.223  1.00  0.00    -0.452 NA 
HETATM   12  H   UNL     1      -9.697  13.736  64.706  1.00  0.00     0.000 HD 
BRANCH  11  13
HETATM   13  O   UNL     1     -10.027  12.827  66.614  1.00  0.00    -0.234 OA 
BRANCH  13  14
HETATM   14  C   UNL     1     -11.365  13.055  67.039  1.00  0.00    -0.301 C  
BRANCH  14  15
HETATM   15  C   UNL     1     -11.543  12.370  68.359  1.00  0.00    -0.373 A  
HETATM   16  F   UNL     1     -13.009  12.753  72.999  1.00  0.00    -0.071 F  
HETATM   17  F   UNL     1     -12.289  14.460  71.886  1.00  0.00    -0.368 F  
HETATM   18  C   UNL     1     -11.045  11.092  68.565  1.00  0.00    -0.298 A  
HETATM   19  F   UNL     1     -14.253  13.645  71.452  1.00  0.00    -0.248 F  
HETATM   20  C   UNL     1     -11.257  10.451  69.781  1.00  0.00    -0.353 A  
HETATM   21  C   UNL     1     -12.150  13.033  69.428  1.00  0.00    -0.267 A  
HETATM   22  C   UNL     1     -12.005  11.038  70.823  1.00  0.00    -0.436 A  
HETATM   23  C   UNL     1     -12.972  13.284  71.747  1.00  0.00    -0.335 C  
HETATM   24  C   UNL     1     -12.365  12.401  70.673  1.00  0.00    -0.367 A  
BRANCH  22  25
HETATM   25  C   UNL     1     -12.436  10.194  72.032  1.00  0.00    -0.264 C  
HETATM   26  C   UNL     1     -13.949   9.870  72.005  1.00  0.00    -0.063 C  
HETATM   27  C   UNL     1     -14.307   8.912  70.872  1.00  0.00     0.191 C  
HETATM   28  C   UNL     1     -13.579   7.587  71.035  1.00  0.00    -0.120 C  
HETATM   29  C   UNL     1     -12.075   7.754  71.214  1.00  0.00    -0.328 C  
HETATM   30  C   UNL     1     -11.699   8.842  72.234  1.00  0.00    -0.398 C  
ENDBRANCH  22  25
ENDBRANCH  14  15
ENDBRANCH  13  14
ENDBRANCH  11  13
ENDBRANCH   9  11
ENDBRANCH   5   9
BRANCH   8  31
HETATM   31  C   UNL     1      -7.738   7.137  66.894  1.00  0.00    -0.106 C  
BRANCH  31  32
HETATM   32  N   UNL     1      -7.566   7.222  68.364  1.00  0.00    -0.115 NA 
HETATM   33  O   UNL     1      -7.120   6.987  71.389  1.00  0.00    -0.068 OA 
HETATM   34  O   UNL     1      -8.108   8.787  72.307  1.00  0.00    -0.356 OA 
HETATM   35  C   UNL     1      -6.952   8.514  68.771  1.00  0.00    -0.063 C  
HETATM   36  C   UNL     1      -7.773   8.180  71.294  1.00  0.00    -0.091 C  
HETATM   37  C   UNL     1      -8.858   7.692  68.953  1.00  0.00    -0.135 C  
HETATM   38  C   UNL     1      -8.051   8.648  69.849  1.00  0.00    -0.111 C  
ENDBRANCH  31  32
ENDBRANCH   8  31
ENDBRANCH   2   3
TORSDOF 9
ENDMDL
MODEL      194
REMARK 921   NORMALIZED FREE ENERGY PREDICTED BY IDOCK:   -5.48 KCAL/MOL
REMARK 922        TOTAL FREE ENERGY PREDICTED BY IDOCK:   -9.79 KCAL/MOL
REMARK 923 INTER-LIGAND FREE ENERGY PREDICTED BY IDOCK:   -7.69 KCAL/MOL
REMARK 924 INTRA-LIGAND FREE ENERGY PREDICTED BY IDOCK:   -2.09 KCAL/MOL
REMARK 927      BINDING AFFINITY PREDICTED BY RF-SCORE:    0.00 PKD
ROOT
HETATM    1  C   UNL     1      -7.975   7.805  72.950  1.00  0.00    -0.162 C  
HETATM    2  C   UNL     1      -9.465   7.540  72.817  1.00  0.00    -0.223 C  
ENDROOT
BRANCH   2   3
HETATM    3  C   UNL     1      -9.900   7.305  71.388  1.00  0.00    -0.191 A  
HETATM    4  C   UNL     1      -8.864   6.959  70.507  1.00  0.00    -0.155 A  
HETATM    5  C   UNL     1      -9.063   6.878  69.127  1.00  0.00    -0.136 A  
HETATM    6  C   UNL     1     -10.332   7.101  68.609  1.00  0.00    -0.200 A  
HETATM    7  C   UNL     1     -11.396   7.379  69.483  1.00  0.00     0.075 A  
HETATM    8  C   UNL     1     -11.209   7.466  70.883  1.00  0.00    -0.292 A  
BRANCH   5   9
HETATM    9  C   UNL     1      -7.843   6.688  68.294  1.00  0.00    -0.110 C  
HETATM   10  C   UNL     1      -7.676   5.446  67.460  1.00  0.00    -0.092 C  
BRANCH   9  11
HETATM   11  N   UNL     1      -6.956   7.643  68.336  1.00  0.00    -0.070 NA 
HETATM   12  H   UNL     1      -6.050   7.562  68.797  1.00  0.00     0.000 HD 
BRANCH  11  13
HETATM   13  O   UNL     1      -7.395   8.789  67.673  1.00  0.00    -0.083 OA 
BRANCH  13  14
HETATM   14  C   UNL     1      -7.440   9.846  68.624  1.00  0.00    -0.075 C  
BRANCH  14  15
HETATM   15  C   UNL     1      -8.361  10.898  68.087  1.00  0.00    -0.123 A  
HETATM   16  F   UNL     1      -9.155  15.661  67.372  1.00  0.00    -0.185 F  
HETATM   17  F   UNL     1      -7.918  14.941  68.991  1.00  0.00    -0.135 F  
HETATM   18  C   UNL     1      -9.632  10.563  67.643  1.00  0.00    -0.175 A  
HETATM   19  F   UNL     1      -7.168  14.876  66.955  1.00  0.00    -0.213 F  
HETATM   20  C   UNL     1     -10.460  11.543  67.105  1.00  0.00    -0.259 A  
HETATM   21  C   UNL     1      -7.984  12.242  68.091  1.00  0.00    -0.155 A  
HETATM   22  C   UNL     1     -10.043  12.882  66.951  1.00  0.00    -0.241 A  
HETATM   23  C   UNL     1      -8.288  14.667  67.704  1.00  0.00    -0.177 C  
HETATM   24  C   UNL     1      -8.817  13.252  67.557  1.00  0.00    -0.206 A  
BRANCH  22  25
HETATM   25  C   UNL     1     -10.883  13.859  66.115  1.00  0.00    -0.290 C  
HETATM   26  C   UNL     1     -10.307  14.050  64.691  1.00  0.00    -0.337 C  
HETATM   27  C   UNL     1     -10.447  12.789  63.844  1.00  0.00    -0.402 C  
HETATM   28  C   UNL     1     -11.911  12.411  63.677  1.00  0.00    -0.626 C  
HETATM   29  C   UNL     1     -12.656  12.319  65.003  1.00  0.00    -0.157 C  
HETATM   30  C   UNL     1     -12.386  13.509  65.939  1.00  0.00    -0.507 C  
ENDBRANCH  22  25
ENDBRANCH  14  15
ENDBRANCH  13  14
ENDBRANCH  11  13
ENDBRANCH   9  11
ENDBRANCH   5   9
BRANCH   8  31
HETATM   31  C   UNL     1     -12.378   7.859  71.776  1.00  0.00    -0.320 C  
BRANCH  31  32
HETATM   32  N   UNL     1     -12.580   9.314  71.983  1.00  0.00    -0.381 NA 
HETATM   33  O   UNL     1     -13.137  12.219  72.792  1.00  0.00     0.100 OA 
HETATM   34  O   UNL     1     -13.232  13.394  70.877  1.00  0.00    -0.114 OA 
HETATM   35  C   UNL     1     -11.512  10.115  71.327  1.00  0.00    -0.249 C  
HETATM   36  C   UNL     1     -13.014  12.324  71.439  1.00  0.00    -0.256 C  
HETATM   37  C   UNL     1     -13.534   9.799  70.938  1.00  0.00    -0.109 C  
HETATM   38  C   UNL     1     -12.614  11.015  70.725  1.00  0.00    -0.463 C  
ENDBRANCH  31  32
ENDBRANCH   8  31
ENDBRANCH   2   3
TORSDOF 9
ENDMDL
MODEL      195
REMARK 921   NORMALIZED FREE ENERGY PREDICTED BY IDOCK:   -5.47 KCAL/MOL
REMARK 922        TOTAL FREE ENERGY PREDICTED BY IDOCK:   -9.78 KCAL/MOL
REMARK 923 INTER-LIGAND FREE ENERGY PREDICTED BY IDOCK:   -7.69 KCAL/MOL
REMARK 924 INTRA-LIGAND FREE ENERGY PREDICTED BY IDOCK:   -2.10 KCAL/MOL
REMARK 927      BINDING AFFINITY PREDICTED BY RF-SCORE:    0.00 PKD
ROOT
HETATM    1  C   UNL     1      -8.773  10.668  67.754  1.00  0.00    -0.129 C  
HETATM    2  C   UNL     1     -10.131  11.310  67.520  1.00  0.00    -0.207 C  
ENDROOT
BRANCH   2   3
HETATM    3  C   UNL     1     -10.564  12.209  68.656  1.00  0.00    -0.248 A  
HETATM    4  C   UNL     1     -11.456  11.620  69.565  1.00  0.00    -0.371 A  
HETATM    5  C   UNL     1     -12.086  12.361  70.567  1.00  0.00    -0.363 A  
HETATM    6  C   UNL     1     -11.792  13.712  70.702  1.00  0.00    -0.232 A  
HETATM    7  C   UNL     1     -10.847  14.302  69.845  1.00  0.00     0.027 A  
HETATM    8  C   UNL     1     -10.203  13.564  68.824  1.00  0.00    -0.139 A  
BRANCH   5   9
HETATM    9  C   UNL     1     -13.148  11.657  71.340  1.00  0.00    -0.243 C  
HETATM   10  C   UNL     1     -13.900  12.376  72.428  1.00  0.00    -0.069 C  
BRANCH   9  11
HETATM   11  N   UNL     1     -13.374  10.414  71.018  1.00  0.00    -0.276 NA 
HETATM   12  H   UNL     1     -13.608  10.101  70.076  1.00  0.00     0.000 HD 
BRANCH  11  13
HETATM   13  O   UNL     1     -13.259   9.564  72.117  1.00  0.00    -0.407 OA 
BRANCH  13  14
HETATM   14  C   UNL     1     -13.087   8.241  71.622  1.00  0.00    -0.334 C  
BRANCH  14  15
HETATM   15  C   UNL     1     -11.652   8.089  71.223  1.00  0.00    -0.306 A  
HETATM   16  F   UNL     1      -8.487   6.491  67.869  1.00  0.00    -0.116 F  
HETATM   17  F   UNL     1     -10.440   5.599  68.110  1.00  0.00    -0.203 F  
HETATM   18  C   UNL     1     -10.635   8.402  72.113  1.00  0.00    -0.400 A  
HETATM   19  F   UNL     1     -10.259   7.554  67.185  1.00  0.00    -0.233 F  
HETATM   20  C   UNL     1      -9.306   8.300  71.714  1.00  0.00    -0.266 A  
HETATM   21  C   UNL     1     -11.313   7.564  69.975  1.00  0.00    -0.115 A  
HETATM   22  C   UNL     1      -8.939   7.923  70.405  1.00  0.00    -0.147 A  
HETATM   23  C   UNL     1      -9.772   6.788  68.203  1.00  0.00    -0.129 C  
HETATM   24  C   UNL     1      -9.968   7.444  69.556  1.00  0.00    -0.179 A  
BRANCH  22  25
HETATM   25  C   UNL     1      -7.485   8.083  69.937  1.00  0.00    -0.078 C  
HETATM   26  C   UNL     1      -6.822   9.352  70.523  1.00  0.00    -0.098 C  
HETATM   27  C   UNL     1      -6.604   9.239  72.029  1.00  0.00     0.204 C  
HETATM   28  C   UNL     1      -5.682   8.074  72.355  1.00  0.00    -0.038 C  
HETATM   29  C   UNL     1      -6.136   6.763  71.723  1.00  0.00    -0.038 C  
HETATM   30  C   UNL     1      -6.522   6.902  70.241  1.00  0.00    -0.043 C  
ENDBRANCH  22  25
ENDBRANCH  14  15
ENDBRANCH  13  14
ENDBRANCH  11  13
ENDBRANCH   9  11
ENDBRANCH   5   9
BRANCH   8  31
HETATM   31  C   UNL     1      -9.255  14.273  67.865  1.00  0.00    -0.194 C  
BRANCH  31  32
HETATM   32  N   UNL     1      -9.893  15.097  66.810  1.00  0.00    -0.235 NA 
HETATM   33  O   UNL     1     -11.123  17.131  64.872  1.00  0.00    -0.737 OA 
HETATM   34  O   UNL     1     -12.466  15.956  63.502  1.00  0.00    -0.385 OA 
HETATM   35  C   UNL     1      -9.603  14.568  65.451  1.00  0.00     0.012 C  
HETATM   36  C   UNL     1     -11.637  15.957  64.408  1.00  0.00    -0.234 C  
HETATM   37  C   UNL     1     -11.305  14.630  66.651  1.00  0.00    -0.356 C  
HETATM   38  C   UNL     1     -11.108  14.696  65.125  1.00  0.00    -0.382 C  
ENDBRANCH  31  32
ENDBRANCH   8  31
ENDBRANCH   2   3
TORSDOF 9
ENDMDL
MODEL      196
REMARK 921   NORMALIZED FREE ENERGY PREDICTED BY IDOCK:   -5.47 KCAL/MOL
REMARK 922        TOTAL FREE ENERGY PREDICTED BY IDOCK:   -9.77 KCAL/MOL
REMARK 923 INTER-LIGAND FREE ENERGY PREDICTED BY IDOCK:   -8.55 KCAL/MOL
REMARK 924 INTRA-LIGAND FREE ENERGY PREDICTED BY IDOCK:   -1.22 KCAL/MOL
REMARK 927      BINDING AFFINITY PREDICTED BY RF-SCORE:    0.00 PKD
ROOT
HETATM    1  C   UNL     1     -11.811   9.670  71.390  1.00  0.00    -0.484 C  
HETATM    2  C   UNL     1     -10.574   8.964  71.921  1.00  0.00    -0.419 C  
ENDROOT
BRANCH   2   3
HETATM    3  C   UNL     1      -9.594   8.588  70.833  1.00  0.00    -0.228 A  
HETATM    4  C   UNL     1      -8.614   9.556  70.563  1.00  0.00    -0.231 A  
HETATM    5  C   UNL     1      -7.744   9.443  69.477  1.00  0.00    -0.089 A  
HETATM    6  C   UNL     1      -7.814   8.320  68.662  1.00  0.00    -0.120 A  
HETATM    7  C   UNL     1      -8.741   7.308  68.960  1.00  0.00    -0.132 A  
HETATM    8  C   UNL     1      -9.630   7.409  70.056  1.00  0.00    -0.168 A  
BRANCH   5   9
HETATM    9  C   UNL     1      -6.884  10.627  69.194  1.00  0.00    -0.079 C  
HETATM   10  C   UNL     1      -6.060  11.247  70.291  1.00  0.00    -0.146 C  
BRANCH   9  11
HETATM   11  N   UNL     1      -6.894  11.074  67.970  1.00  0.00    -0.066 NA 
HETATM   12  H   UNL     1      -6.308  10.704  67.221  1.00  0.00     0.000 HD 
BRANCH  11  13
HETATM   13  O   UNL     1      -7.802  12.120  67.806  1.00  0.00    -0.127 OA 
BRANCH  13  14
HETATM   14  C   UNL     1      -7.061  13.284  67.460  1.00  0.00    -0.149 C  
BRANCH  14  15
HETATM   15  C   UNL     1      -8.014  14.440  67.452  1.00  0.00    -0.220 A  
HETATM   16  F   UNL     1     -12.391  16.141  68.783  1.00  0.00    -0.239 F  
HETATM   17  F   UNL     1     -12.040  14.036  68.447  1.00  0.00    -0.366 F  
HETATM   18  C   UNL     1      -7.736  15.579  66.710  1.00  0.00    -0.111 A  
HETATM   19  F   UNL     1     -11.253  14.984  70.234  1.00  0.00    -0.244 F  
HETATM   20  C   UNL     1      -8.607  16.663  66.748  1.00  0.00    -0.268 A  
HETATM   21  C   UNL     1      -9.230  14.364  68.133  1.00  0.00    -0.199 A  
HETATM   22  C   UNL     1      -9.765  16.672  67.554  1.00  0.00    -0.247 A  
HETATM   23  C   UNL     1     -11.438  15.177  68.896  1.00  0.00    -0.320 C  
HETATM   24  C   UNL     1     -10.132  15.451  68.174  1.00  0.00    -0.222 A  
BRANCH  22  25
HETATM   25  C   UNL     1     -10.544  17.978  67.768  1.00  0.00    -0.409 C  
HETATM   26  C   UNL     1      -9.963  18.818  68.931  1.00  0.00    -0.423 C  
HETATM   27  C   UNL     1      -8.586  19.383  68.593  1.00  0.00    -0.394 C  
HETATM   28  C   UNL     1      -8.662  20.303  67.384  1.00  0.00    -0.428 C  
HETATM   29  C   UNL     1      -9.344  19.654  66.186  1.00  0.00    -0.416 C  
HETATM   30  C   UNL     1     -10.653  18.931  66.546  1.00  0.00    -0.462 C  
ENDBRANCH  22  25
ENDBRANCH  14  15
ENDBRANCH  13  14
ENDBRANCH  11  13
ENDBRANCH   9  11
ENDBRANCH   5   9
BRANCH   8  31
HETATM   31  C   UNL     1     -10.676   6.325  70.281  1.00  0.00    -0.280 C  
BRANCH  31  32
HETATM   32  N   UNL     1     -10.195   5.080  70.928  1.00  0.00    -0.228 NA 
HETATM   33  O   UNL     1      -9.354   2.307  71.931  1.00  0.00    -0.085 OA 
HETATM   34  O   UNL     1      -8.997   2.524  74.141  1.00  0.00    -0.073 OA 
HETATM   35  C   UNL     1      -8.911   5.297  71.647  1.00  0.00    -0.135 C  
HETATM   36  C   UNL     1      -9.256   3.056  73.066  1.00  0.00    -0.090 C  
HETATM   37  C   UNL     1     -10.876   4.959  72.255  1.00  0.00    -0.102 C  
HETATM   38  C   UNL     1      -9.518   4.565  72.865  1.00  0.00    -0.153 C  
ENDBRANCH  31  32
ENDBRANCH   8  31
ENDBRANCH   2   3
TORSDOF 9
ENDMDL
MODEL      197
REMARK 921   NORMALIZED FREE ENERGY PREDICTED BY IDOCK:   -5.41 KCAL/MOL
REMARK 922        TOTAL FREE ENERGY PREDICTED BY IDOCK:   -9.69 KCAL/MOL
REMARK 923 INTER-LIGAND FREE ENERGY PREDICTED BY IDOCK:   -8.53 KCAL/MOL
REMARK 924 INTRA-LIGAND FREE ENERGY PREDICTED BY IDOCK:   -1.16 KCAL/MOL
REMARK 927      BINDING AFFINITY PREDICTED BY RF-SCORE:    0.00 PKD
ROOT
HETATM    1  C   UNL     1     -12.034  13.972  68.017  1.00  0.00    -0.386 C  
HETATM    2  C   UNL     1     -10.670  13.410  67.651  1.00  0.00    -0.257 C  
ENDROOT
BRANCH   2   3
HETATM    3  C   UNL     1     -10.382  12.080  68.309  1.00  0.00    -0.211 A  
HETATM    4  C   UNL     1     -11.415  11.590  69.123  1.00  0.00    -0.362 A  
HETATM    5  C   UNL     1     -11.245  10.468  69.937  1.00  0.00    -0.374 A  
HETATM    6  C   UNL     1     -10.035   9.785  69.912  1.00  0.00    -0.282 A  
HETATM    7  C   UNL     1      -9.015  10.220  69.050  1.00  0.00    -0.175 A  
HETATM    8  C   UNL     1      -9.172  11.356  68.221  1.00  0.00    -0.183 A  
BRANCH   5   9
HETATM    9  C   UNL     1     -12.352  10.169  70.888  1.00  0.00    -0.363 C  
HETATM   10  C   UNL     1     -12.970  11.271  71.707  1.00  0.00    -0.519 C  
BRANCH   9  11
HETATM   11  N   UNL     1     -12.738   8.926  70.961  1.00  0.00    -0.497 NA 
HETATM   12  H   UNL     1     -13.056   8.378  70.161  1.00  0.00     0.000 HD 
BRANCH  11  13
HETATM   13  O   UNL     1     -12.663   8.433  72.263  1.00  0.00    -0.343 OA 
BRANCH  13  14
HETATM   14  C   UNL     1     -11.289   8.217  72.565  1.00  0.00    -0.401 C  
BRANCH  14  15
HETATM   15  C   UNL     1     -10.985   6.778  72.280  1.00  0.00    -0.276 A  
HETATM   16  F   UNL     1      -9.581   3.473  68.974  1.00  0.00    -0.222 F  
HETATM   17  F   UNL     1     -10.598   5.293  68.406  1.00  0.00    -0.240 F  
HETATM   18  C   UNL     1     -11.249   5.800  73.227  1.00  0.00    -0.187 A  
HETATM   19  F   UNL     1      -8.524   5.374  69.039  1.00  0.00    -0.097 F  
HETATM   20  C   UNL     1     -10.919   4.473  72.966  1.00  0.00    -0.308 A  
HETATM   21  C   UNL     1     -10.498   6.389  71.031  1.00  0.00    -0.268 A  
HETATM   22  C   UNL     1     -10.280   4.076  71.773  1.00  0.00    -0.135 A  
HETATM   23  C   UNL     1      -9.720   4.781  69.319  1.00  0.00    -0.196 C  
HETATM   24  C   UNL     1     -10.167   5.045  70.745  1.00  0.00    -0.299 A  
BRANCH  22  25
HETATM   25  C   UNL     1      -9.699   2.660  71.646  1.00  0.00    -0.226 C  
HETATM   26  C   UNL     1      -8.161   2.644  71.822  1.00  0.00    -0.061 C  
HETATM   27  C   UNL     1      -7.748   2.972  73.253  1.00  0.00    -0.056 C  
HETATM   28  C   UNL     1      -8.310   1.947  74.226  1.00  0.00    -0.057 C  
HETATM   29  C   UNL     1      -9.814   1.748  74.076  1.00  0.00    -0.114 C  
HETATM   30  C   UNL     1     -10.265   1.586  72.615  1.00  0.00    -0.204 C  
ENDBRANCH  22  25
ENDBRANCH  14  15
ENDBRANCH  13  14
ENDBRANCH  11  13
ENDBRANCH   9  11
ENDBRANCH   5   9
BRANCH   8  31
HETATM   31  C   UNL     1      -8.002  11.838  67.373  1.00  0.00    -0.155 C  
BRANCH  31  32
HETATM   32  N   UNL     1      -7.802  11.136  66.082  1.00  0.00    -0.119 NA 
HETATM   33  O   UNL     1      -7.073   9.956  63.346  1.00  0.00    -0.118 OA 
HETATM   34  O   UNL     1      -8.861   8.763  62.684  1.00  0.00    -0.156 OA 
HETATM   35  C   UNL     1      -8.044   9.674  66.208  1.00  0.00    -0.112 C  
HETATM   36  C   UNL     1      -8.311   9.426  63.559  1.00  0.00    -0.184 C  
HETATM   37  C   UNL     1      -9.071  11.242  65.298  1.00  0.00    -0.126 C  
HETATM   38  C   UNL     1      -8.922   9.752  64.939  1.00  0.00    -0.257 C  
ENDBRANCH  31  32
ENDBRANCH   8  31
ENDBRANCH   2   3
TORSDOF 9
ENDMDL
MODEL      198
REMARK 921   NORMALIZED FREE ENERGY PREDICTED BY IDOCK:   -5.40 KCAL/MOL
REMARK 922        TOTAL FREE ENERGY PREDICTED BY IDOCK:   -9.68 KCAL/MOL
REMARK 923 INTER-LIGAND FREE ENERGY PREDICTED BY IDOCK:   -8.81 KCAL/MOL
REMARK 924 INTRA-LIGAND FREE ENERGY PREDICTED BY IDOCK:   -0.87 KCAL/MOL
REMARK 927      BINDING AFFINITY PREDICTED BY RF-SCORE:    0.00 PKD
ROOT
HETATM    1  C   UNL     1     -13.775  14.271  71.742  1.00  0.00    -0.496 C  
HETATM    2  C   UNL     1     -13.291  12.898  72.182  1.00  0.00    -0.615 C  
ENDROOT
BRANCH   2   3
HETATM    3  C   UNL     1     -12.659  12.105  71.061  1.00  0.00    -0.359 A  
HETATM    4  C   UNL     1     -12.080  12.881  70.045  1.00  0.00    -0.357 A  
HETATM    5  C   UNL     1     -11.610  12.314  68.859  1.00  0.00    -0.367 A  
HETATM    6  C   UNL     1     -11.675  10.937  68.691  1.00  0.00    -0.334 A  
HETATM    7  C   UNL     1     -12.187  10.138  69.727  1.00  0.00     0.018 A  
HETATM    8  C   UNL     1     -12.668  10.699  70.933  1.00  0.00    -0.498 A  
BRANCH   5   9
HETATM    9  C   UNL     1     -11.195  13.266  67.791  1.00  0.00    -0.280 C  
HETATM   10  C   UNL     1     -11.989  14.519  67.538  1.00  0.00    -0.358 C  
BRANCH   9  11
HETATM   11  N   UNL     1     -10.128  12.950  67.112  1.00  0.00    -0.240 NA 
HETATM   12  H   UNL     1      -9.245  12.663  67.535  1.00  0.00     0.000 HD 
BRANCH  11  13
HETATM   13  O   UNL     1     -10.338  13.051  65.737  1.00  0.00    -0.277 OA 
BRANCH  13  14
HETATM   14  C   UNL     1     -10.796  11.785  65.276  1.00  0.00    -0.290 C  
BRANCH  14  15
HETATM   15  C   UNL     1      -9.708  10.789  65.536  1.00  0.00    -0.290 A  
HETATM   16  F   UNL     1      -7.683   7.682  68.710  1.00  0.00    -0.105 F  
HETATM   17  F   UNL     1      -8.793   9.417  69.363  1.00  0.00    -0.131 F  
HETATM   18  C   UNL     1      -8.683  10.608  64.620  1.00  0.00    -0.161 A  
HETATM   19  F   UNL     1      -9.854   7.711  68.542  1.00  0.00    -0.154 F  
HETATM   20  C   UNL     1      -7.704   9.647  64.854  1.00  0.00    -0.120 A  
HETATM   21  C   UNL     1      -9.669  10.077  66.737  1.00  0.00    -0.239 A  
HETATM   22  C   UNL     1      -7.730   8.804  65.985  1.00  0.00    -0.097 A  
HETATM   23  C   UNL     1      -8.736   8.475  68.375  1.00  0.00    -0.143 C  
HETATM   24  C   UNL     1      -8.677   9.104  66.995  1.00  0.00    -0.131 A  
BRANCH  22  25
HETATM   25  C   UNL     1      -6.790   7.591  66.063  1.00  0.00    -0.057 C  
HETATM   26  C   UNL     1      -7.551   6.254  65.897  1.00  0.00    -0.084 C  
HETATM   27  C   UNL     1      -8.094   6.078  64.482  1.00  0.00    -0.126 C  
HETATM   28  C   UNL     1      -6.960   6.065  63.467  1.00  0.00    -0.045 C  
HETATM   29  C   UNL     1      -6.031   7.266  63.599  1.00  0.00    -0.044 C  
HETATM   30  C   UNL     1      -5.613   7.557  65.050  1.00  0.00    -0.033 C  
ENDBRANCH  22  25
ENDBRANCH  14  15
ENDBRANCH  13  14
ENDBRANCH  11  13
ENDBRANCH   9  11
ENDBRANCH   5   9
BRANCH   8  31
HETATM   31  C   UNL     1     -13.296   9.795  71.987  1.00  0.00    -0.451 C  
BRANCH  31  32
HETATM   32  N   UNL     1     -12.430   8.716  72.519  1.00  0.00    -0.366 NA 
HETATM   33  O   UNL     1     -10.713   6.649  73.998  1.00  0.00    -0.262 OA 
HETATM   34  O   UNL     1      -9.372   5.726  72.446  1.00  0.00    -0.144 OA 
HETATM   35  C   UNL     1     -12.612   7.445  71.767  1.00  0.00    -0.335 C  
HETATM   36  C   UNL     1     -10.301   6.484  72.709  1.00  0.00    -0.202 C  
HETATM   37  C   UNL     1     -11.081   8.854  71.887  1.00  0.00    -0.372 C  
HETATM   38  C   UNL     1     -11.074   7.329  71.673  1.00  0.00    -0.262 C  
ENDBRANCH  31  32
ENDBRANCH   8  31
ENDBRANCH   2   3
TORSDOF 9
ENDMDL
MODEL      199
REMARK 921   NORMALIZED FREE ENERGY PREDICTED BY IDOCK:   -5.39 KCAL/MOL
REMARK 922        TOTAL FREE ENERGY PREDICTED BY IDOCK:   -9.66 KCAL/MOL
REMARK 923 INTER-LIGAND FREE ENERGY PREDICTED BY IDOCK:   -9.35 KCAL/MOL
REMARK 924 INTRA-LIGAND FREE ENERGY PREDICTED BY IDOCK:   -0.31 KCAL/MOL
REMARK 927      BINDING AFFINITY PREDICTED BY RF-SCORE:    0.00 PKD
ROOT
HETATM    1  C   UNL     1     -11.891  11.077  69.654  1.00  0.00    -0.414 C  
HETATM    2  C   UNL     1     -11.099   9.779  69.636  1.00  0.00    -0.251 C  
ENDROOT
BRANCH   2   3
HETATM    3  C   UNL     1      -9.863   9.852  68.768  1.00  0.00    -0.177 A  
HETATM    4  C   UNL     1      -9.392  11.150  68.522  1.00  0.00    -0.190 A  
HETATM    5  C   UNL     1      -8.370  11.404  67.604  1.00  0.00    -0.129 A  
HETATM    6  C   UNL     1      -7.768  10.340  66.944  1.00  0.00    -0.105 A  
HETATM    7  C   UNL     1      -8.180   9.028  67.231  1.00  0.00    -0.103 A  
HETATM    8  C   UNL     1      -9.215   8.756  68.157  1.00  0.00    -0.145 A  
BRANCH   5   9
HETATM    9  C   UNL     1      -8.097  12.837  67.300  1.00  0.00    -0.172 C  
HETATM   10  C   UNL     1      -6.841  13.495  67.803  1.00  0.00    -0.168 C  
BRANCH   9  11
HETATM   11  N   UNL     1      -8.994  13.462  66.590  1.00  0.00    -0.421 NA 
HETATM   12  H   UNL     1      -9.032  14.476  66.482  1.00  0.00     0.000 HD 
BRANCH  11  13
HETATM   13  O   UNL     1      -9.894  12.579  65.995  1.00  0.00    -0.254 OA 
BRANCH  13  14
HETATM   14  C   UNL     1     -11.192  13.155  66.092  1.00  0.00    -0.295 C  
BRANCH  14  15
HETATM   15  C   UNL     1     -11.038  14.515  66.699  1.00  0.00    -0.333 A  
HETATM   16  F   UNL     1     -11.385  17.260  70.720  1.00  0.00     0.098 F  
HETATM   17  F   UNL     1     -12.588  15.486  70.444  1.00  0.00    -0.385 F  
HETATM   18  C   UNL     1     -10.779  15.620  65.901  1.00  0.00    -0.336 A  
HETATM   19  F   UNL     1     -10.474  15.291  70.896  1.00  0.00    -0.306 F  
HETATM   20  C   UNL     1     -10.593  16.870  66.484  1.00  0.00    -0.185 A  
HETATM   21  C   UNL     1     -11.225  14.707  68.070  1.00  0.00    -0.307 A  
HETATM   22  C   UNL     1     -10.620  17.061  67.881  1.00  0.00    -0.365 A  
HETATM   23  C   UNL     1     -11.362  16.021  70.161  1.00  0.00    -0.365 C  
HETATM   24  C   UNL     1     -11.051  15.971  68.677  1.00  0.00    -0.349 A  
BRANCH  22  25
HETATM   25  C   UNL     1     -10.149  18.394  68.484  1.00  0.00    -0.413 C  
HETATM   26  C   UNL     1      -8.608  18.462  68.610  1.00  0.00    -0.315 C  
HETATM   27  C   UNL     1      -7.927  18.534  67.246  1.00  0.00    -0.241 C  
HETATM   28  C   UNL     1      -8.360  19.781  66.491  1.00  0.00    -0.373 C  
HETATM   29  C   UNL     1      -9.875  19.926  66.404  1.00  0.00    -0.572 C  
HETATM   30  C   UNL     1     -10.589  19.686  67.744  1.00  0.00    -0.530 C  
ENDBRANCH  22  25
ENDBRANCH  14  15
ENDBRANCH  13  14
ENDBRANCH  11  13
ENDBRANCH   9  11
ENDBRANCH   5   9
BRANCH   8  31
HETATM   31  C   UNL     1      -9.683   7.321  68.363  1.00  0.00    -0.148 C  
BRANCH  31  32
HETATM   32  N   UNL     1      -9.418   6.383  67.246  1.00  0.00    -0.121 NA 
HETATM   33  O   UNL     1      -8.772   4.783  64.711  1.00  0.00    -0.143 OA 
HETATM   34  O   UNL     1      -9.736   2.768  64.981  1.00  0.00    -0.078 OA 
HETATM   35  C   UNL     1      -8.807   5.115  67.728  1.00  0.00    -0.105 C  
HETATM   36  C   UNL     1      -9.455   3.866  65.454  1.00  0.00    -0.170 C  
HETATM   37  C   UNL     1     -10.679   5.628  66.970  1.00  0.00    -0.250 C  
HETATM   38  C   UNL     1      -9.836   4.343  66.872  1.00  0.00    -0.235 C  
ENDBRANCH  31  32
ENDBRANCH   8  31
ENDBRANCH   2   3
TORSDOF 9
ENDMDL
MODEL      200
REMARK 921   NORMALIZED FREE ENERGY PREDICTED BY IDOCK:   -5.38 KCAL/MOL
REMARK 922        TOTAL FREE ENERGY PREDICTED BY IDOCK:   -9.64 KCAL/MOL
REMARK 923 INTER-LIGAND FREE ENERGY PREDICTED BY IDOCK:   -8.05 KCAL/MOL
REMARK 924 INTRA-LIGAND FREE ENERGY PREDICTED BY IDOCK:   -1.59 KCAL/MOL
REMARK 927      BINDING AFFINITY PREDICTED BY RF-SCORE:    0.00 PKD
ROOT
HETATM    1  C   UNL     1     -12.545  12.789  65.130  1.00  0.00    -0.513 C  
HETATM    2  C   UNL     1     -12.175  13.750  66.248  1.00  0.00    -0.489 C  
ENDROOT
BRANCH   2   3
HETATM    3  C   UNL     1     -10.766  13.548  66.760  1.00  0.00    -0.278 A  
HETATM    4  C   UNL     1     -10.583  12.393  67.536  1.00  0.00    -0.240 A  
HETATM    5  C   UNL     1      -9.393  12.148  68.226  1.00  0.00    -0.198 A  
HETATM    6  C   UNL     1      -8.341  13.048  68.110  1.00  0.00    -0.164 A  
HETATM    7  C   UNL     1      -8.484  14.173  67.281  1.00  0.00    -0.228 A  
HETATM    8  C   UNL     1      -9.683  14.435  66.578  1.00  0.00    -0.305 A  
BRANCH   5   9
HETATM    9  C   UNL     1      -9.399  10.987  69.159  1.00  0.00    -0.021 C  
HETATM   10  C   UNL     1     -10.701  10.374  69.602  1.00  0.00    -0.304 C  
BRANCH   9  11
HETATM   11  N   UNL     1      -8.236  10.551  69.553  1.00  0.00    -0.332 NA 
HETATM   12  H   UNL     1      -7.358  10.751  69.073  1.00  0.00     0.000 HD 
BRANCH  11  13
HETATM   13  O   UNL     1      -8.334   9.778  70.710  1.00  0.00    -0.229 OA 
BRANCH  13  14
HETATM   14  C   UNL     1      -7.176   8.955  70.779  1.00  0.00    -0.083 C  
BRANCH  14  15
HETATM   15  C   UNL     1      -7.375   7.815  69.828  1.00  0.00    -0.080 A  
HETATM   16  F   UNL     1     -10.396   4.367  68.152  1.00  0.00    -0.104 F  
HETATM   17  F   UNL     1     -10.555   5.143  70.162  1.00  0.00    -0.343 F  
HETATM   18  C   UNL     1      -6.313   7.326  69.081  1.00  0.00    -0.036 A  
HETATM   19  F   UNL     1     -11.198   6.362  68.485  1.00  0.00    -0.336 F  
HETATM   20  C   UNL     1      -6.522   6.296  68.168  1.00  0.00    -0.049 A  
HETATM   21  C   UNL     1      -8.614   7.179  69.729  1.00  0.00    -0.141 A  
HETATM   22  C   UNL     1      -7.799   5.744  67.934  1.00  0.00    -0.097 A  
HETATM   23  C   UNL     1     -10.221   5.499  68.885  1.00  0.00    -0.214 C  
HETATM   24  C   UNL     1      -8.842   6.126  68.815  1.00  0.00    -0.121 A  
BRANCH  22  25
HETATM   25  C   UNL     1      -8.024   4.806  66.738  1.00  0.00    -0.103 C  
HETATM   26  C   UNL     1      -8.727   5.525  65.561  1.00  0.00    -0.154 C  
HETATM   27  C   UNL     1      -7.826   6.571  64.912  1.00  0.00    -0.114 C  
HETATM   28  C   UNL     1      -6.571   5.924  64.344  1.00  0.00    -0.041 C  
HETATM   29  C   UNL     1      -5.836   5.060  65.361  1.00  0.00    -0.018 C  
HETATM   30  C   UNL     1      -6.764   4.118  66.146  1.00  0.00    -0.049 C  
ENDBRANCH  22  25
ENDBRANCH  14  15
ENDBRANCH  13  14
ENDBRANCH  11  13
ENDBRANCH   9  11
ENDBRANCH   5   9
BRANCH   8  31
HETATM   31  C   UNL     1      -9.815  15.716  65.764  1.00  0.00    -0.351 C  
BRANCH  31  32
HETATM   32  N   UNL     1      -9.521  16.979  66.486  1.00  0.00    -0.264 NA 
HETATM   33  O   UNL     1      -8.515  19.456  67.986  1.00  0.00    -0.302 OA 
HETATM   34  O   UNL     1     -10.332  20.409  68.909  1.00  0.00    -0.232 OA 
HETATM   35  C   UNL     1     -10.342  18.107  65.973  1.00  0.00    -0.353 C  
HETATM   36  C   UNL     1      -9.862  19.541  68.178  1.00  0.00    -0.407 C  
HETATM   37  C   UNL     1     -10.342  16.996  67.736  1.00  0.00    -0.335 C  
HETATM   38  C   UNL     1     -10.686  18.467  67.436  1.00  0.00    -0.424 C  
ENDBRANCH  31  32
ENDBRANCH   8  31
ENDBRANCH   2   3
TORSDOF 9
ENDMDL
MODEL      201
REMARK 921   NORMALIZED FREE ENERGY PREDICTED BY IDOCK:   -5.34 KCAL/MOL
REMARK 922        TOTAL FREE ENERGY PREDICTED BY IDOCK:   -9.58 KCAL/MOL
REMARK 923 INTER-LIGAND FREE ENERGY PREDICTED BY IDOCK:   -7.83 KCAL/MOL
REMARK 924 INTRA-LIGAND FREE ENERGY PREDICTED BY IDOCK:   -1.75 KCAL/MOL
REMARK 927      BINDING AFFINITY PREDICTED BY RF-SCORE:    0.00 PKD
ROOT
HETATM    1  C   UNL     1     -10.069  10.506  65.194  1.00  0.00    -0.383 C  
HETATM    2  C   UNL     1      -9.245   9.263  65.488  1.00  0.00    -0.292 C  
ENDROOT
BRANCH   2   3
HETATM    3  C   UNL     1      -9.091   8.991  66.967  1.00  0.00    -0.155 A  
HETATM    4  C   UNL     1      -8.233   9.874  67.641  1.00  0.00    -0.114 A  
HETATM    5  C   UNL     1      -7.846   9.661  68.966  1.00  0.00    -0.079 A  
HETATM    6  C   UNL     1      -8.356   8.568  69.657  1.00  0.00    -0.121 A  
HETATM    7  C   UNL     1      -9.271   7.714  69.019  1.00  0.00    -0.140 A  
HETATM    8  C   UNL     1      -9.671   7.917  67.677  1.00  0.00    -0.196 A  
BRANCH   5   9
HETATM    9  C   UNL     1      -6.788  10.565  69.497  1.00  0.00    -0.098 C  
HETATM   10  C   UNL     1      -5.427  10.022  69.843  1.00  0.00    -0.038 C  
BRANCH   9  11
HETATM   11  N   UNL     1      -7.111  11.820  69.638  1.00  0.00    -0.343 NA 
HETATM   12  H   UNL     1      -7.986  12.141  70.053  1.00  0.00     0.000 HD 
BRANCH  11  13
HETATM   13  O   UNL     1      -6.118  12.670  69.153  1.00  0.00    -0.079 OA 
BRANCH  13  14
HETATM   14  C   UNL     1      -6.592  13.236  67.936  1.00  0.00    -0.145 C  
BRANCH  14  15
HETATM   15  C   UNL     1      -7.905  13.894  68.225  1.00  0.00    -0.146 A  
HETATM   16  F   UNL     1     -12.570  14.464  66.908  1.00  0.00    -0.417 F  
HETATM   17  F   UNL     1     -11.035  13.956  65.475  1.00  0.00    -0.289 F  
HETATM   18  C   UNL     1      -8.004  14.874  69.202  1.00  0.00    -0.165 A  
HETATM   19  F   UNL     1     -11.732  12.455  66.879  1.00  0.00    -0.374 F  
HETATM   20  C   UNL     1      -9.240  15.445  69.491  1.00  0.00    -0.240 A  
HETATM   21  C   UNL     1      -9.036  13.586  67.467  1.00  0.00    -0.214 A  
HETATM   22  C   UNL     1     -10.428  15.036  68.848  1.00  0.00    -0.241 A  
HETATM   23  C   UNL     1     -11.405  13.775  66.778  1.00  0.00    -0.330 C  
HETATM   24  C   UNL     1     -10.297  14.164  67.739  1.00  0.00    -0.242 A  
BRANCH  22  25
HETATM   25  C   UNL     1     -11.791  15.500  69.384  1.00  0.00    -0.392 C  
HETATM   26  C   UNL     1     -12.770  14.318  69.581  1.00  0.00     0.070 C  
HETATM   27  C   UNL     1     -12.336  13.401  70.721  1.00  0.00    -0.433 C  
HETATM   28  C   UNL     1     -12.295  14.159  72.038  1.00  0.00    -0.234 C  
HETATM   29  C   UNL     1     -11.470  15.439  71.962  1.00  0.00    -0.521 C  
HETATM   30  C   UNL     1     -11.781  16.291  70.720  1.00  0.00    -0.224 C  
ENDBRANCH  22  25
ENDBRANCH  14  15
ENDBRANCH  13  14
ENDBRANCH  11  13
ENDBRANCH   9  11
ENDBRANCH   5   9
BRANCH   8  31
HETATM   31  C   UNL     1     -10.596   6.910  67.006  1.00  0.00    -0.333 C  
BRANCH  31  32
HETATM   32  N   UNL     1     -10.060   5.536  66.852  1.00  0.00    -0.179 NA 
HETATM   33  O   UNL     1      -8.850   2.719  66.940  1.00  0.00    -0.122 OA 
HETATM   34  O   UNL     1      -8.432   2.152  64.803  1.00  0.00    -0.086 OA 
HETATM   35  C   UNL     1     -10.891   4.723  65.924  1.00  0.00    -0.051 C  
HETATM   36  C   UNL     1      -8.911   2.955  65.598  1.00  0.00    -0.143 C  
HETATM   37  C   UNL     1      -8.992   5.573  65.804  1.00  0.00    -0.154 C  
HETATM   38  C   UNL     1      -9.593   4.285  65.210  1.00  0.00    -0.186 C  
ENDBRANCH  31  32
ENDBRANCH   8  31
ENDBRANCH   2   3
TORSDOF 9
ENDMDL
MODEL      202
REMARK 921   NORMALIZED FREE ENERGY PREDICTED BY IDOCK:   -5.34 KCAL/MOL
REMARK 922        TOTAL FREE ENERGY PREDICTED BY IDOCK:   -9.57 KCAL/MOL
REMARK 923 INTER-LIGAND FREE ENERGY PREDICTED BY IDOCK:   -9.01 KCAL/MOL
REMARK 924 INTRA-LIGAND FREE ENERGY PREDICTED BY IDOCK:   -0.56 KCAL/MOL
REMARK 927      BINDING AFFINITY PREDICTED BY RF-SCORE:    0.00 PKD
ROOT
HETATM    1  C   UNL     1     -10.537  16.691  69.403  1.00  0.00    -0.333 C  
HETATM    2  C   UNL     1     -10.107  15.248  69.611  1.00  0.00    -0.246 C  
ENDROOT
BRANCH   2   3
HETATM    3  C   UNL     1     -10.762  14.289  68.642  1.00  0.00    -0.256 A  
HETATM    4  C   UNL     1     -10.398  14.469  67.299  1.00  0.00    -0.260 A  
HETATM    5  C   UNL     1     -11.037  13.787  66.262  1.00  0.00    -0.302 A  
HETATM    6  C   UNL     1     -12.034  12.869  66.565  1.00  0.00    -0.447 A  
HETATM    7  C   UNL     1     -12.362  12.624  67.909  1.00  0.00     0.342 A  
HETATM    8  C   UNL     1     -11.724  13.309  68.969  1.00  0.00    -0.368 A  
BRANCH   5   9
HETATM    9  C   UNL     1     -10.685  14.211  64.878  1.00  0.00    -0.428 C  
HETATM   10  C   UNL     1     -11.294  15.452  64.284  1.00  0.00    -0.136 C  
BRANCH   9  11
HETATM   11  N   UNL     1      -9.838  13.455  64.236  1.00  0.00    -0.700 NA 
HETATM   12  H   UNL     1      -8.840  13.410  64.444  1.00  0.00     0.000 HD 
BRANCH  11  13
HETATM   13  O   UNL     1     -10.460  12.715  63.231  1.00  0.00    -0.286 OA 
BRANCH  13  14
HETATM   14  C   UNL     1     -11.132  11.625  63.850  1.00  0.00    -0.401 C  
BRANCH  14  15
HETATM   15  C   UNL     1     -10.088  10.708  64.407  1.00  0.00    -0.418 A  
HETATM   16  F   UNL     1      -8.282   8.490  68.363  1.00  0.00    -0.116 F  
HETATM   17  F   UNL     1      -9.359  10.359  68.495  1.00  0.00    -0.139 F  
HETATM   18  C   UNL     1      -9.035  10.273  63.616  1.00  0.00    -0.259 A  
HETATM   19  F   UNL     1     -10.442   8.521  68.098  1.00  0.00    -0.233 F  
HETATM   20  C   UNL     1      -8.097   9.385  64.133  1.00  0.00    -0.145 A  
HETATM   21  C   UNL     1     -10.115  10.332  65.752  1.00  0.00    -0.325 A  
HETATM   22  C   UNL     1      -8.192   8.865  65.441  1.00  0.00    -0.131 A  
HETATM   23  C   UNL     1      -9.296   9.191  67.788  1.00  0.00    -0.136 C  
HETATM   24  C   UNL     1      -9.165   9.439  66.297  1.00  0.00    -0.229 A  
BRANCH  22  25
HETATM   25  C   UNL     1      -7.295   7.695  65.872  1.00  0.00    -0.074 C  
HETATM   26  C   UNL     1      -8.112   6.526  66.472  1.00  0.00    -0.111 C  
HETATM   27  C   UNL     1      -8.969   5.829  65.420  1.00  0.00    -0.047 C  
HETATM   28  C   UNL     1      -8.099   5.236  64.322  1.00  0.00    -0.121 C  
HETATM   29  C   UNL     1      -7.130   6.247  63.721  1.00  0.00    -0.050 C  
HETATM   30  C   UNL     1      -6.382   7.078  64.776  1.00  0.00    -0.037 C  
ENDBRANCH  22  25
ENDBRANCH  14  15
ENDBRANCH  13  14
ENDBRANCH  11  13
ENDBRANCH   9  11
ENDBRANCH   5   9
BRANCH   8  31
HETATM   31  C   UNL     1     -12.181  13.071  70.403  1.00  0.00    -0.310 C  
BRANCH  31  32
HETATM   32  N   UNL     1     -11.954  11.708  70.941  1.00  0.00    -0.202 NA 
HETATM   33  O   UNL     1     -11.084   9.007  72.104  1.00  0.00    -0.350 OA 
HETATM   34  O   UNL     1     -12.682   7.533  71.524  1.00  0.00    -0.335 OA 
HETATM   35  C   UNL     1     -13.116  11.232  71.739  1.00  0.00    -0.422 C  
HETATM   36  C   UNL     1     -12.289   8.696  71.547  1.00  0.00    -0.324 C  
HETATM   37  C   UNL     1     -12.328  10.724  69.878  1.00  0.00    -0.271 C  
HETATM   38  C   UNL     1     -13.054   9.901  70.958  1.00  0.00    -0.406 C  
ENDBRANCH  31  32
ENDBRANCH   8  31
ENDBRANCH   2   3
TORSDOF 9
ENDMDL
MODEL      203
REMARK 921   NORMALIZED FREE ENERGY PREDICTED BY IDOCK:   -5.32 KCAL/MOL
REMARK 922        TOTAL FREE ENERGY PREDICTED BY IDOCK:   -9.55 KCAL/MOL
REMARK 923 INTER-LIGAND FREE ENERGY PREDICTED BY IDOCK:   -8.31 KCAL/MOL
REMARK 924 INTRA-LIGAND FREE ENERGY PREDICTED BY IDOCK:   -1.24 KCAL/MOL
REMARK 927      BINDING AFFINITY PREDICTED BY RF-SCORE:    0.00 PKD
ROOT
HETATM    1  C   UNL     1      -7.651  14.924  68.972  1.00  0.00    -0.151 C  
HETATM    2  C   UNL     1      -9.088  15.418  69.021  1.00  0.00    -0.233 C  
ENDROOT
BRANCH   2   3
HETATM    3  C   UNL     1      -9.812  15.262  67.703  1.00  0.00    -0.217 A  
HETATM    4  C   UNL     1      -9.800  13.962  67.175  1.00  0.00    -0.241 A  
HETATM    5  C   UNL     1     -10.271  13.681  65.891  1.00  0.00    -0.318 A  
HETATM    6  C   UNL     1     -10.808  14.707  65.124  1.00  0.00    -0.414 A  
HETATM    7  C   UNL     1     -10.893  16.001  65.664  1.00  0.00    -0.273 A  
HETATM    8  C   UNL     1     -10.419  16.300  66.963  1.00  0.00    -0.306 A  
BRANCH   5   9
HETATM    9  C   UNL     1     -10.026  12.301  65.385  1.00  0.00    -0.244 C  
HETATM   10  C   UNL     1     -10.265  11.968  63.937  1.00  0.00    -0.424 C  
BRANCH   9  11
HETATM   11  N   UNL     1      -9.604  11.428  66.256  1.00  0.00    -0.207 NA 
HETATM   12  H   UNL     1      -8.624  11.306  66.514  1.00  0.00     0.000 HD 
BRANCH  11  13
HETATM   13  O   UNL     1     -10.652  10.682  66.794  1.00  0.00    -0.248 OA 
BRANCH  13  14
HETATM   14  C   UNL     1     -10.176   9.358  67.003  1.00  0.00    -0.255 C  
BRANCH  14  15
HETATM   15  C   UNL     1     -10.034   9.155  68.480  1.00  0.00    -0.192 A  
HETATM   16  F   UNL     1     -12.207   7.875  72.659  1.00  0.00    -0.331 F  
HETATM   17  F   UNL     1     -13.317   8.722  71.009  1.00  0.00    -0.253 F  
HETATM   18  C   UNL     1      -8.873   9.535  69.136  1.00  0.00    -0.147 A  
HETATM   19  F   UNL     1     -12.602   6.676  70.885  1.00  0.00    -0.407 F  
HETATM   20  C   UNL     1      -8.737   9.299  70.501  1.00  0.00    -0.276 A  
HETATM   21  C   UNL     1     -11.095   8.648  69.233  1.00  0.00     0.116 A  
HETATM   22  C   UNL     1      -9.732   8.643  71.255  1.00  0.00    -0.305 A  
HETATM   23  C   UNL     1     -12.245   7.925  71.300  1.00  0.00    -0.294 C  
HETATM   24  C   UNL     1     -10.978   8.411  70.621  1.00  0.00    -0.266 A  
BRANCH  22  25
HETATM   25  C   UNL     1      -9.428   8.170  72.685  1.00  0.00    -0.346 C  
HETATM   26  C   UNL     1      -9.007   6.681  72.727  1.00  0.00    -0.130 C  
HETATM   27  C   UNL     1      -7.645   6.454  72.078  1.00  0.00    -0.095 C  
HETATM   28  C   UNL     1      -6.563   7.236  72.807  1.00  0.00    -0.063 C  
HETATM   29  C   UNL     1      -6.903   8.713  72.967  1.00  0.00    -0.001 C  
HETATM   30  C   UNL     1      -8.338   8.959  73.461  1.00  0.00     0.642 C  
ENDBRANCH  22  25
ENDBRANCH  14  15
ENDBRANCH  13  14
ENDBRANCH  11  13
ENDBRANCH   9  11
ENDBRANCH   5   9
BRANCH   8  31
HETATM   31  C   UNL     1     -10.453  17.738  67.465  1.00  0.00    -0.372 C  
BRANCH  31  32
HETATM   32  N   UNL     1      -9.137  18.402  67.629  1.00  0.00    -0.272 NA 
HETATM   33  O   UNL     1      -6.394  19.576  68.338  1.00  0.00    -0.231 OA 
HETATM   34  O   UNL     1      -6.121  21.371  67.010  1.00  0.00    -0.331 OA 
HETATM   35  C   UNL     1      -8.408  18.502  66.337  1.00  0.00    -0.259 C  
HETATM   36  C   UNL     1      -6.794  20.392  67.322  1.00  0.00    -0.267 C  
HETATM   37  C   UNL     1      -9.358  19.880  67.578  1.00  0.00    -0.353 C  
HETATM   38  C   UNL     1      -8.127  19.987  66.658  1.00  0.00    -0.351 C  
ENDBRANCH  31  32
ENDBRANCH   8  31
ENDBRANCH   2   3
TORSDOF 9
ENDMDL
MODEL      204
REMARK 921   NORMALIZED FREE ENERGY PREDICTED BY IDOCK:   -5.32 KCAL/MOL
REMARK 922        TOTAL FREE ENERGY PREDICTED BY IDOCK:   -9.54 KCAL/MOL
REMARK 923 INTER-LIGAND FREE ENERGY PREDICTED BY IDOCK:   -8.09 KCAL/MOL
REMARK 924 INTRA-LIGAND FREE ENERGY PREDICTED BY IDOCK:   -1.45 KCAL/MOL
REMARK 927      BINDING AFFINITY PREDICTED BY RF-SCORE:    0.00 PKD
ROOT
HETATM    1  C   UNL     1     -14.397   8.836  72.343  1.00  0.00    -0.419 C  
HETATM    2  C   UNL     1     -13.373   7.877  71.758  1.00  0.00    -0.364 C  
ENDROOT
BRANCH   2   3
HETATM    3  C   UNL     1     -12.286   8.578  70.975  1.00  0.00    -0.190 A  
HETATM    4  C   UNL     1     -12.335   9.979  71.025  1.00  0.00    -0.458 A  
HETATM    5  C   UNL     1     -11.515  10.777  70.222  1.00  0.00    -0.406 A  
HETATM    6  C   UNL     1     -10.591  10.171  69.380  1.00  0.00    -0.261 A  
HETATM    7  C   UNL     1     -10.480   8.771  69.370  1.00  0.00    -0.228 A  
HETATM    8  C   UNL     1     -11.304   7.951  70.176  1.00  0.00    -0.099 A  
BRANCH   5   9
HETATM    9  C   UNL     1     -11.800  12.239  70.235  1.00  0.00    -0.240 C  
HETATM   10  C   UNL     1     -12.441  12.878  71.437  1.00  0.00    -0.234 C  
BRANCH   9  11
HETATM   11  N   UNL     1     -11.467  12.906  69.166  1.00  0.00    -0.291 NA 
HETATM   12  H   UNL     1     -11.771  12.664  68.223  1.00  0.00     0.000 HD 
BRANCH  11  13
HETATM   13  O   UNL     1     -10.643  13.991  69.466  1.00  0.00    -0.076 OA 
BRANCH  13  14
HETATM   14  C   UNL     1     -10.130  14.496  68.239  1.00  0.00    -0.232 C  
BRANCH  14  15
HETATM   15  C   UNL     1      -9.838  13.324  67.354  1.00  0.00    -0.227 A  
HETATM   16  F   UNL     1     -11.143  10.740  63.424  1.00  0.00    -0.210 F  
HETATM   17  F   UNL     1     -12.581  11.874  64.573  1.00  0.00    -0.383 F  
HETATM   18  C   UNL     1      -8.858  12.405  67.701  1.00  0.00    -0.177 A  
HETATM   19  F   UNL     1     -11.177  12.912  63.284  1.00  0.00    -0.472 F  
HETATM   20  C   UNL     1      -8.566  11.345  66.847  1.00  0.00    -0.154 A  
HETATM   21  C   UNL     1     -10.593  13.096  66.203  1.00  0.00    -0.288 A  
HETATM   22  C   UNL     1      -9.206  11.183  65.601  1.00  0.00    -0.238 A  
HETATM   23  C   UNL     1     -11.277  11.874  64.163  1.00  0.00    -0.376 C  
HETATM   24  C   UNL     1     -10.317  12.020  65.329  1.00  0.00    -0.311 A  
BRANCH  22  25
HETATM   25  C   UNL     1      -8.667  10.164  64.586  1.00  0.00    -0.205 C  
HETATM   26  C   UNL     1      -7.122  10.194  64.497  1.00  0.00    -0.119 C  
HETATM   27  C   UNL     1      -6.467   9.669  65.771  1.00  0.00    -0.079 C  
HETATM   28  C   UNL     1      -6.863   8.223  66.025  1.00  0.00    -0.064 C  
HETATM   29  C   UNL     1      -8.372   8.008  66.004  1.00  0.00    -0.126 C  
HETATM   30  C   UNL     1      -9.067   8.680  64.809  1.00  0.00     0.176 C  
ENDBRANCH  22  25
ENDBRANCH  14  15
ENDBRANCH  13  14
ENDBRANCH  11  13
ENDBRANCH   9  11
ENDBRANCH   5   9
BRANCH   8  31
HETATM   31  C   UNL     1     -11.204   6.436  70.059  1.00  0.00    -0.411 C  
BRANCH  31  32
HETATM   32  N   UNL     1      -9.987   5.913  69.392  1.00  0.00    -0.166 NA 
HETATM   33  O   UNL     1      -7.324   5.225  68.037  1.00  0.00    -0.070 OA 
HETATM   34  O   UNL     1      -7.651   3.270  66.974  1.00  0.00    -0.073 OA 
HETATM   35  C   UNL     1      -9.658   4.537  69.851  1.00  0.00    -0.199 C  
HETATM   36  C   UNL     1      -8.085   4.138  67.726  1.00  0.00    -0.094 C  
HETATM   37  C   UNL     1     -10.396   5.336  68.074  1.00  0.00    -0.118 C  
HETATM   38  C   UNL     1      -9.487   4.129  68.371  1.00  0.00    -0.212 C  
ENDBRANCH  31  32
ENDBRANCH   8  31
ENDBRANCH   2   3
TORSDOF 9
ENDMDL
MODEL      205
REMARK 921   NORMALIZED FREE ENERGY PREDICTED BY IDOCK:   -5.31 KCAL/MOL
REMARK 922        TOTAL FREE ENERGY PREDICTED BY IDOCK:   -9.53 KCAL/MOL
REMARK 923 INTER-LIGAND FREE ENERGY PREDICTED BY IDOCK:   -8.37 KCAL/MOL
REMARK 924 INTRA-LIGAND FREE ENERGY PREDICTED BY IDOCK:   -1.17 KCAL/MOL
REMARK 927      BINDING AFFINITY PREDICTED BY RF-SCORE:    0.00 PKD
ROOT
HETATM    1  C   UNL     1     -13.081  15.545  72.787  1.00  0.00    -0.579 C  
HETATM    2  C   UNL     1     -11.822  15.724  71.955  1.00  0.00    -0.568 C  
ENDROOT
BRANCH   2   3
HETATM    3  C   UNL     1     -11.592  14.591  70.979  1.00  0.00    -0.231 A  
HETATM    4  C   UNL     1     -12.380  13.452  71.203  1.00  0.00    -0.348 A  
HETATM    5  C   UNL     1     -12.171  12.260  70.506  1.00  0.00    -0.387 A  
HETATM    6  C   UNL     1     -11.185  12.207  69.529  1.00  0.00    -0.201 A  
HETATM    7  C   UNL     1     -10.434  13.360  69.242  1.00  0.00     0.130 A  
HETATM    8  C   UNL     1     -10.634  14.573  69.942  1.00  0.00     0.057 A  
BRANCH   5   9
HETATM    9  C   UNL     1     -12.948  11.078  70.973  1.00  0.00    -0.276 C  
HETATM   10  C   UNL     1     -13.802  11.169  72.209  1.00  0.00     0.363 C  
BRANCH   9  11
HETATM   11  N   UNL     1     -12.840   9.992  70.259  1.00  0.00    -0.566 NA 
HETATM   12  H   UNL     1     -13.206   9.893  69.312  1.00  0.00     0.000 HD 
BRANCH  11  13
HETATM   13  O   UNL     1     -12.166   8.983  70.946  1.00  0.00    -0.262 OA 
BRANCH  13  14
HETATM   14  C   UNL     1     -10.864   9.468  71.256  1.00  0.00    -0.343 C  
BRANCH  14  15
HETATM   15  C   UNL     1      -9.931   8.969  70.196  1.00  0.00    -0.216 A  
HETATM   16  F   UNL     1      -9.313   6.040  66.341  1.00  0.00    -0.144 F  
HETATM   17  F   UNL     1     -10.755   5.598  67.890  1.00  0.00    -0.253 F  
HETATM   18  C   UNL     1      -8.587   9.312  70.220  1.00  0.00    -0.234 A  
HETATM   19  F   UNL     1     -11.156   7.192  66.472  1.00  0.00    -0.311 F  
HETATM   20  C   UNL     1      -7.741   8.878  69.204  1.00  0.00    -0.092 A  
HETATM   21  C   UNL     1     -10.382   8.093  69.207  1.00  0.00    -0.222 A  
HETATM   22  C   UNL     1      -8.206   8.123  68.107  1.00  0.00    -0.129 A  
HETATM   23  C   UNL     1     -10.163   6.633  67.222  1.00  0.00    -0.198 C  
HETATM   24  C   UNL     1      -9.535   7.635  68.173  1.00  0.00    -0.150 A  
BRANCH  22  25
HETATM   25  C   UNL     1      -7.299   7.899  66.888  1.00  0.00    -0.090 C  
HETATM   26  C   UNL     1      -7.912   8.485  65.593  1.00  0.00    -0.107 C  
HETATM   27  C   UNL     1      -7.949  10.010  65.618  1.00  0.00    -0.140 C  
HETATM   28  C   UNL     1      -6.544  10.582  65.736  1.00  0.00    -0.123 C  
HETATM   29  C   UNL     1      -5.758   9.990  66.899  1.00  0.00    -0.050 C  
HETATM   30  C   UNL     1      -5.853   8.458  66.984  1.00  0.00    -0.042 C  
ENDBRANCH  22  25
ENDBRANCH  14  15
ENDBRANCH  13  14
ENDBRANCH  11  13
ENDBRANCH   9  11
ENDBRANCH   5   9
BRANCH   8  31
HETATM   31  C   UNL     1      -9.731  15.766  69.653  1.00  0.00    -0.248 C  
BRANCH  31  32
HETATM   32  N   UNL     1     -10.007  16.502  68.396  1.00  0.00    -0.240 NA 
HETATM   33  O   UNL     1     -10.478  17.667  65.599  1.00  0.00    -0.606 OA 
HETATM   34  O   UNL     1     -10.421  19.903  65.835  1.00  0.00    -0.503 OA 
HETATM   35  C   UNL     1     -11.141  17.452  68.553  1.00  0.00     0.077 C  
HETATM   36  C   UNL     1     -10.402  18.794  66.362  1.00  0.00    -0.439 C  
HETATM   37  C   UNL     1      -9.081  17.676  68.337  1.00  0.00    -0.277 C  
HETATM   38  C   UNL     1     -10.272  18.536  67.878  1.00  0.00    -0.415 C  
ENDBRANCH  31  32
ENDBRANCH   8  31
ENDBRANCH   2   3
TORSDOF 9
ENDMDL
MODEL      206
REMARK 921   NORMALIZED FREE ENERGY PREDICTED BY IDOCK:   -5.31 KCAL/MOL
REMARK 922        TOTAL FREE ENERGY PREDICTED BY IDOCK:   -9.53 KCAL/MOL
REMARK 923 INTER-LIGAND FREE ENERGY PREDICTED BY IDOCK:   -8.11 KCAL/MOL
REMARK 924 INTRA-LIGAND FREE ENERGY PREDICTED BY IDOCK:   -1.42 KCAL/MOL
REMARK 927      BINDING AFFINITY PREDICTED BY RF-SCORE:    0.00 PKD
ROOT
HETATM    1  C   UNL     1     -12.242  12.634  63.512  1.00  0.00    -0.638 C  
HETATM    2  C   UNL     1     -11.964  13.489  64.738  1.00  0.00    -0.424 C  
ENDROOT
BRANCH   2   3
HETATM    3  C   UNL     1     -10.784  13.000  65.546  1.00  0.00    -0.299 A  
HETATM    4  C   UNL     1     -10.066  11.946  64.961  1.00  0.00    -0.297 A  
HETATM    5  C   UNL     1      -9.060  11.265  65.649  1.00  0.00    -0.203 A  
HETATM    6  C   UNL     1      -8.724  11.667  66.936  1.00  0.00    -0.185 A  
HETATM    7  C   UNL     1      -9.384  12.766  67.511  1.00  0.00    -0.189 A  
HETATM    8  C   UNL     1     -10.407  13.464  66.825  1.00  0.00    -0.263 A  
BRANCH   5   9
HETATM    9  C   UNL     1      -8.511  10.050  64.984  1.00  0.00    -0.160 C  
HETATM   10  C   UNL     1      -7.101  10.043  64.458  1.00  0.00    -0.139 C  
BRANCH   9  11
HETATM   11  N   UNL     1      -9.311   9.025  64.893  1.00  0.00    -0.435 NA 
HETATM   12  H   UNL     1     -10.024   8.919  64.171  1.00  0.00     0.000 HD 
BRANCH  11  13
HETATM   13  O   UNL     1      -9.075   8.090  65.900  1.00  0.00    -0.168 OA 
BRANCH  13  14
HETATM   14  C   UNL     1     -10.217   8.073  66.749  1.00  0.00    -0.297 C  
BRANCH  14  15
HETATM   15  C   UNL     1      -9.877   7.243  67.948  1.00  0.00    -0.172 A  
HETATM   16  F   UNL     1      -6.383   4.979  70.496  1.00  0.00    -0.022 F  
HETATM   17  F   UNL     1      -6.212   5.305  68.367  1.00  0.00    -0.026 F  
HETATM   18  C   UNL     1     -10.879   6.717  68.750  1.00  0.00    -0.321 A  
HETATM   19  F   UNL     1      -5.968   6.975  69.732  1.00  0.00    -0.021 F  
HETATM   20  C   UNL     1     -10.547   5.985  69.886  1.00  0.00    -0.345 A  
HETATM   21  C   UNL     1      -8.549   6.924  68.238  1.00  0.00    -0.125 A  
HETATM   22  C   UNL     1      -9.211   5.783  70.289  1.00  0.00    -0.174 A  
HETATM   23  C   UNL     1      -6.717   5.856  69.511  1.00  0.00    -0.059 C  
HETATM   24  C   UNL     1      -8.194   6.174  69.382  1.00  0.00    -0.113 A  
BRANCH  22  25
HETATM   25  C   UNL     1      -8.905   5.206  71.680  1.00  0.00    -0.145 C  
HETATM   26  C   UNL     1      -8.371   6.284  72.653  1.00  0.00    -0.120 C  
HETATM   27  C   UNL     1      -9.445   7.303  73.020  1.00  0.00    -0.212 C  
HETATM   28  C   UNL     1     -10.616   6.626  73.717  1.00  0.00    -0.302 C  
HETATM   29  C   UNL     1     -11.168   5.441  72.934  1.00  0.00    -0.372 C  
HETATM   30  C   UNL     1     -10.076   4.494  72.410  1.00  0.00    -0.243 C  
ENDBRANCH  22  25
ENDBRANCH  14  15
ENDBRANCH  13  14
ENDBRANCH  11  13
ENDBRANCH   9  11
ENDBRANCH   5   9
BRANCH   8  31
HETATM   31  C   UNL     1     -11.152  14.590  67.530  1.00  0.00    -0.307 C  
BRANCH  31  32
HETATM   32  N   UNL     1     -11.811  14.235  68.810  1.00  0.00    -0.334 NA 
HETATM   33  O   UNL     1     -13.327  13.166  71.252  1.00  0.00    -0.199 OA 
HETATM   34  O   UNL     1     -13.513  14.896  72.678  1.00  0.00    -0.407 OA 
HETATM   35  C   UNL     1     -10.958  14.574  69.979  1.00  0.00    -0.059 C  
HETATM   36  C   UNL     1     -13.059  14.449  71.628  1.00  0.00    -0.350 C  
HETATM   37  C   UNL     1     -12.717  15.364  69.190  1.00  0.00     0.425 C  
HETATM   38  C   UNL     1     -12.188  15.243  70.631  1.00  0.00    -0.412 C  
ENDBRANCH  31  32
ENDBRANCH   8  31
ENDBRANCH   2   3
TORSDOF 9
ENDMDL
MODEL      207
REMARK 921   NORMALIZED FREE ENERGY PREDICTED BY IDOCK:   -5.31 KCAL/MOL
REMARK 922        TOTAL FREE ENERGY PREDICTED BY IDOCK:   -9.53 KCAL/MOL
REMARK 923 INTER-LIGAND FREE ENERGY PREDICTED BY IDOCK:   -7.94 KCAL/MOL
REMARK 924 INTRA-LIGAND FREE ENERGY PREDICTED BY IDOCK:   -1.60 KCAL/MOL
REMARK 927      BINDING AFFINITY PREDICTED BY RF-SCORE:    0.00 PKD
ROOT
HETATM    1  C   UNL     1     -12.403  15.180  64.226  1.00  0.00    -0.198 C  
HETATM    2  C   UNL     1     -12.694  13.974  65.105  1.00  0.00    -0.419 C  
ENDROOT
BRANCH   2   3
HETATM    3  C   UNL     1     -11.443  13.328  65.657  1.00  0.00    -0.342 A  
HETATM    4  C   UNL     1     -11.007  12.195  64.954  1.00  0.00    -0.355 A  
HETATM    5  C   UNL     1      -9.975  11.382  65.428  1.00  0.00    -0.289 A  
HETATM    6  C   UNL     1      -9.327  11.725  66.608  1.00  0.00    -0.205 A  
HETATM    7  C   UNL     1      -9.703  12.896  67.287  1.00  0.00    -0.220 A  
HETATM    8  C   UNL     1     -10.747  13.727  66.819  1.00  0.00    -0.276 A  
BRANCH   5   9
HETATM    9  C   UNL     1      -9.742  10.111  64.686  1.00  0.00    -0.309 C  
HETATM   10  C   UNL     1      -9.473  10.134  63.205  1.00  0.00    -0.302 C  
BRANCH   9  11
HETATM   11  N   UNL     1      -9.783   9.013  65.387  1.00  0.00    -0.444 NA 
HETATM   12  H   UNL     1     -10.533   8.778  66.037  1.00  0.00     0.000 HD 
BRANCH  11  13
HETATM   13  O   UNL     1      -8.680   8.196  65.139  1.00  0.00    -0.122 OA 
BRANCH  13  14
HETATM   14  C   UNL     1      -7.583   8.718  65.880  1.00  0.00    -0.090 C  
BRANCH  14  15
HETATM   15  C   UNL     1      -7.587   8.054  67.222  1.00  0.00    -0.097 A  
HETATM   16  F   UNL     1      -7.871   8.621  72.062  1.00  0.00    -0.148 F  
HETATM   17  F   UNL     1      -7.105  10.179  70.774  1.00  0.00    -0.127 F  
HETATM   18  C   UNL     1      -7.311   6.700  67.342  1.00  0.00    -0.095 A  
HETATM   19  F   UNL     1      -9.236   9.766  70.811  1.00  0.00    -0.278 F  
HETATM   20  C   UNL     1      -7.363   6.088  68.591  1.00  0.00    -0.085 A  
HETATM   21  C   UNL     1      -7.800   8.801  68.383  1.00  0.00    -0.104 A  
HETATM   22  C   UNL     1      -7.731   6.788  69.758  1.00  0.00    -0.113 A  
HETATM   23  C   UNL     1      -8.014   9.159  70.821  1.00  0.00    -0.163 C  
HETATM   24  C   UNL     1      -7.846   8.197  69.660  1.00  0.00    -0.103 A  
BRANCH  22  25
HETATM   25  C   UNL     1      -8.033   6.019  71.054  1.00  0.00    -0.116 C  
HETATM   26  C   UNL     1      -9.553   5.895  71.315  1.00  0.00    -0.195 C  
HETATM   27  C   UNL     1     -10.234   4.981  70.300  1.00  0.00    -0.328 C  
HETATM   28  C   UNL     1      -9.661   3.574  70.372  1.00  0.00    -0.241 C  
HETATM   29  C   UNL     1      -8.141   3.546  70.267  1.00  0.00    -0.056 C  
HETATM   30  C   UNL     1      -7.447   4.585  71.164  1.00  0.00    -0.060 C  
ENDBRANCH  22  25
ENDBRANCH  14  15
ENDBRANCH  13  14
ENDBRANCH  11  13
ENDBRANCH   9  11
ENDBRANCH   5   9
BRANCH   8  31
HETATM   31  C   UNL     1     -11.175  14.936  67.642  1.00  0.00    -0.323 C  
BRANCH  31  32
HETATM   32  N   UNL     1     -12.103  14.663  68.766  1.00  0.00    -0.249 NA 
HETATM   33  O   UNL     1     -14.227  14.445  70.967  1.00  0.00    -0.159 OA 
HETATM   34  O   UNL     1     -13.364  13.081  72.534  1.00  0.00    -0.519 OA 
HETATM   35  C   UNL     1     -12.323  13.205  68.954  1.00  0.00     0.118 C  
HETATM   36  C   UNL     1     -13.259  13.602  71.427  1.00  0.00    -0.283 C  
HETATM   37  C   UNL     1     -11.306  14.670  70.032  1.00  0.00    -0.242 C  
HETATM   38  C   UNL     1     -12.068  13.404  70.465  1.00  0.00    -0.399 C  
ENDBRANCH  31  32
ENDBRANCH   8  31
ENDBRANCH   2   3
TORSDOF 9
ENDMDL
MODEL      208
REMARK 921   NORMALIZED FREE ENERGY PREDICTED BY IDOCK:   -5.31 KCAL/MOL
REMARK 922        TOTAL FREE ENERGY PREDICTED BY IDOCK:   -9.53 KCAL/MOL
REMARK 923 INTER-LIGAND FREE ENERGY PREDICTED BY IDOCK:   -8.28 KCAL/MOL
REMARK 924 INTRA-LIGAND FREE ENERGY PREDICTED BY IDOCK:   -1.24 KCAL/MOL
REMARK 927      BINDING AFFINITY PREDICTED BY RF-SCORE:    0.00 PKD
ROOT
HETATM    1  C   UNL     1      -6.555  14.431  69.831  1.00  0.00    -0.133 C  
HETATM    2  C   UNL     1      -6.754  13.962  68.399  1.00  0.00    -0.099 C  
ENDROOT
BRANCH   2   3
HETATM    3  C   UNL     1      -7.863  14.699  67.683  1.00  0.00    -0.196 A  
HETATM    4  C   UNL     1      -9.109  14.055  67.708  1.00  0.00    -0.192 A  
HETATM    5  C   UNL     1     -10.192  14.510  66.953  1.00  0.00    -0.264 A  
HETATM    6  C   UNL     1     -10.051  15.660  66.186  1.00  0.00    -0.333 A  
HETATM    7  C   UNL     1      -8.832  16.357  66.205  1.00  0.00    -0.367 A  
HETATM    8  C   UNL     1      -7.726  15.906  66.964  1.00  0.00    -0.268 A  
BRANCH   5   9
HETATM    9  C   UNL     1     -11.394  13.630  66.924  1.00  0.00    -0.327 C  
HETATM   10  C   UNL     1     -12.623  14.046  66.162  1.00  0.00    -0.407 C  
BRANCH   9  11
HETATM   11  N   UNL     1     -11.309  12.509  67.583  1.00  0.00    -0.285 NA 
HETATM   12  H   UNL     1     -10.950  12.431  68.535  1.00  0.00     0.000 HD 
BRANCH  11  13
HETATM   13  O   UNL     1     -11.769  11.428  66.831  1.00  0.00    -0.507 OA 
BRANCH  13  14
HETATM   14  C   UNL     1     -10.821  11.186  65.798  1.00  0.00    -0.151 C  
BRANCH  14  15
HETATM   15  C   UNL     1     -10.172   9.866  66.079  1.00  0.00    -0.269 A  
HETATM   16  F   UNL     1      -6.898   6.535  64.663  1.00  0.00    -0.042 F  
HETATM   17  F   UNL     1      -7.868   7.852  63.251  1.00  0.00    -0.117 F  
HETATM   18  C   UNL     1     -10.646   9.049  67.095  1.00  0.00    -0.291 A  
HETATM   19  F   UNL     1      -6.333   8.635  64.571  1.00  0.00    -0.064 F  
HETATM   20  C   UNL     1     -10.005   7.846  67.375  1.00  0.00    -0.261 A  
HETATM   21  C   UNL     1      -9.126   9.403  65.279  1.00  0.00    -0.287 A  
HETATM   22  C   UNL     1      -8.848   7.430  66.684  1.00  0.00    -0.157 A  
HETATM   23  C   UNL     1      -7.404   7.791  64.535  1.00  0.00    -0.089 C  
HETATM   24  C   UNL     1      -8.470   8.180  65.542  1.00  0.00    -0.174 A  
BRANCH  22  25
HETATM   25  C   UNL     1      -8.029   6.238  67.202  1.00  0.00    -0.109 C  
HETATM   26  C   UNL     1      -6.998   6.664  68.276  1.00  0.00    -0.077 C  
HETATM   27  C   UNL     1      -7.674   7.104  69.571  1.00  0.00    -0.113 C  
HETATM   28  C   UNL     1      -8.486   5.966  70.171  1.00  0.00    -0.126 C  
HETATM   29  C   UNL     1      -9.460   5.345  69.177  1.00  0.00    -0.177 C  
HETATM   30  C   UNL     1      -8.831   5.052  67.805  1.00  0.00    -0.106 C  
ENDBRANCH  22  25
ENDBRANCH  14  15
ENDBRANCH  13  14
ENDBRANCH  11  13
ENDBRANCH   9  11
ENDBRANCH   5   9
BRANCH   8  31
HETATM   31  C   UNL     1      -6.399  16.650  66.877  1.00  0.00    -0.173 C  
BRANCH  31  32
HETATM   32  N   UNL     1      -6.354  17.980  67.532  1.00  0.00    -0.169 NA 
HETATM   33  O   UNL     1      -6.171  20.882  68.505  1.00  0.00    -0.331 OA 
HETATM   34  O   UNL     1      -5.894  20.778  70.735  1.00  0.00    -0.553 OA 
HETATM   35  C   UNL     1      -7.378  18.099  68.604  1.00  0.00    -0.286 C  
HETATM   36  C   UNL     1      -6.102  20.190  69.677  1.00  0.00    -0.354 C  
HETATM   37  C   UNL     1      -5.301  17.935  68.593  1.00  0.00    -0.154 C  
HETATM   38  C   UNL     1      -6.280  18.663  69.533  1.00  0.00    -0.278 C  
ENDBRANCH  31  32
ENDBRANCH   8  31
ENDBRANCH   2   3
TORSDOF 9
ENDMDL
MODEL      209
REMARK 921   NORMALIZED FREE ENERGY PREDICTED BY IDOCK:   -5.31 KCAL/MOL
REMARK 922        TOTAL FREE ENERGY PREDICTED BY IDOCK:   -9.53 KCAL/MOL
REMARK 923 INTER-LIGAND FREE ENERGY PREDICTED BY IDOCK:   -7.60 KCAL/MOL
REMARK 924 INTRA-LIGAND FREE ENERGY PREDICTED BY IDOCK:   -1.93 KCAL/MOL
REMARK 927      BINDING AFFINITY PREDICTED BY RF-SCORE:    0.00 PKD
ROOT
HETATM    1  C   UNL     1      -8.946  12.015  67.901  1.00  0.00    -0.182 C  
HETATM    2  C   UNL     1      -8.927  13.141  68.922  1.00  0.00     0.300 C  
ENDROOT
BRANCH   2   3
HETATM    3  C   UNL     1      -7.616  13.894  68.949  1.00  0.00    -0.060 A  
HETATM    4  C   UNL     1      -7.679  15.202  68.446  1.00  0.00    -0.118 A  
HETATM    5  C   UNL     1      -6.531  15.970  68.238  1.00  0.00    -0.122 A  
HETATM    6  C   UNL     1      -5.290  15.446  68.580  1.00  0.00    -0.097 A  
HETATM    7  C   UNL     1      -5.216  14.165  69.152  1.00  0.00    -0.077 A  
HETATM    8  C   UNL     1      -6.370  13.375  69.365  1.00  0.00    -0.111 A  
BRANCH   5   9
HETATM    9  C   UNL     1      -6.722  17.264  67.525  1.00  0.00    -0.148 C  
HETATM   10  C   UNL     1      -6.090  17.491  66.178  1.00  0.00    -0.235 C  
BRANCH   9  11
HETATM   11  N   UNL     1      -7.453  18.159  68.129  1.00  0.00    -0.250 NA 
HETATM   12  H   UNL     1      -7.403  18.358  69.128  1.00  0.00     0.000 HD 
BRANCH  11  13
HETATM   13  O   UNL     1      -8.312  18.811  67.245  1.00  0.00    -0.263 OA 
BRANCH  13  14
HETATM   14  C   UNL     1      -9.614  18.799  67.819  1.00  0.00    -0.312 C  
BRANCH  14  15
HETATM   15  C   UNL     1     -10.221  17.460  67.534  1.00  0.00    -0.332 A  
HETATM   16  F   UNL     1     -12.467  13.521  69.341  1.00  0.00    -0.331 F  
HETATM   17  F   UNL     1     -11.137  14.727  70.544  1.00  0.00    -0.271 F  
HETATM   18  C   UNL     1     -10.105  16.885  66.277  1.00  0.00    -0.335 A  
HETATM   19  F   UNL     1     -13.109  15.480  70.038  1.00  0.00    -0.275 F  
HETATM   20  C   UNL     1     -10.713  15.661  66.014  1.00  0.00    -0.322 A  
HETATM   21  C   UNL     1     -10.852  16.736  68.547  1.00  0.00    -0.345 A  
HETATM   22  C   UNL     1     -11.491  14.984  66.976  1.00  0.00    -0.288 A  
HETATM   23  C   UNL     1     -12.045  14.801  69.524  1.00  0.00    -0.290 C  
HETATM   24  C   UNL     1     -11.467  15.487  68.301  1.00  0.00    -0.359 A  
BRANCH  22  25
HETATM   25  C   UNL     1     -12.355  13.783  66.561  1.00  0.00    -0.432 C  
HETATM   26  C   UNL     1     -13.150  14.061  65.263  1.00  0.00    -0.176 C  
HETATM   27  C   UNL     1     -12.237  14.164  64.045  1.00  0.00    -0.369 C  
HETATM   28  C   UNL     1     -11.481  12.862  63.825  1.00  0.00    -0.519 C  
HETATM   29  C   UNL     1     -10.751  12.382  65.073  1.00  0.00    -0.329 C  
HETATM   30  C   UNL     1     -11.614  12.435  66.344  1.00  0.00    -0.442 C  
ENDBRANCH  22  25
ENDBRANCH  14  15
ENDBRANCH  13  14
ENDBRANCH  11  13
ENDBRANCH   9  11
ENDBRANCH   5   9
BRANCH   8  31
HETATM   31  C   UNL     1      -6.224  11.958  69.904  1.00  0.00    -0.139 C  
BRANCH  31  32
HETATM   32  N   UNL     1      -6.380  10.865  68.914  1.00  0.00    -0.044 NA 
HETATM   33  O   UNL     1      -6.941   8.875  66.650  1.00  0.00    -0.078 OA 
HETATM   34  O   UNL     1      -6.461   6.838  67.475  1.00  0.00    -0.042 OA 
HETATM   35  C   UNL     1      -5.129  10.073  68.770  1.00  0.00    -0.036 C  
HETATM   36  C   UNL     1      -6.465   8.056  67.630  1.00  0.00    -0.057 C  
HETATM   37  C   UNL     1      -6.997   9.695  69.612  1.00  0.00    -0.071 C  
HETATM   38  C   UNL     1      -5.977   8.788  68.899  1.00  0.00    -0.044 C  
ENDBRANCH  31  32
ENDBRANCH   8  31
ENDBRANCH   2   3
TORSDOF 9
ENDMDL
MODEL      210
REMARK 921   NORMALIZED FREE ENERGY PREDICTED BY IDOCK:   -5.28 KCAL/MOL
REMARK 922        TOTAL FREE ENERGY PREDICTED BY IDOCK:   -9.49 KCAL/MOL
REMARK 923 INTER-LIGAND FREE ENERGY PREDICTED BY IDOCK:   -8.13 KCAL/MOL
REMARK 924 INTRA-LIGAND FREE ENERGY PREDICTED BY IDOCK:   -1.37 KCAL/MOL
REMARK 927      BINDING AFFINITY PREDICTED BY RF-SCORE:    0.00 PKD
ROOT
HETATM    1  C   UNL     1      -5.891   5.977  69.545  1.00  0.00    -0.020 C  
HETATM    2  C   UNL     1      -7.161   6.349  70.292  1.00  0.00    -0.078 C  
ENDROOT
BRANCH   2   3
HETATM    3  C   UNL     1      -8.407   6.211  69.448  1.00  0.00    -0.116 A  
HETATM    4  C   UNL     1      -8.172   5.993  68.082  1.00  0.00    -0.113 A  
HETATM    5  C   UNL     1      -9.203   6.017  67.141  1.00  0.00    -0.117 A  
HETATM    6  C   UNL     1     -10.510   6.217  67.568  1.00  0.00    -0.301 A  
HETATM    7  C   UNL     1     -10.772   6.365  68.941  1.00  0.00    -0.339 A  
HETATM    8  C   UNL     1      -9.737   6.346  69.905  1.00  0.00    -0.185 A  
BRANCH   5   9
HETATM    9  C   UNL     1      -8.793   5.961  65.710  1.00  0.00    -0.139 C  
HETATM   10  C   UNL     1      -8.798   4.651  64.968  1.00  0.00    -0.150 C  
BRANCH   9  11
HETATM   11  N   UNL     1      -8.440   7.089  65.161  1.00  0.00    -0.314 NA 
HETATM   12  H   UNL     1      -7.682   7.184  64.484  1.00  0.00     0.000 HD 
BRANCH  11  13
HETATM   13  O   UNL     1      -9.222   8.153  65.610  1.00  0.00    -0.108 OA 
BRANCH  13  14
HETATM   14  C   UNL     1      -9.006   9.250  64.730  1.00  0.00    -0.168 C  
BRANCH  14  15
HETATM   15  C   UNL     1      -9.903  10.365  65.169  1.00  0.00    -0.378 A  
HETATM   16  F   UNL     1     -12.352  12.437  68.848  1.00  0.00    -0.264 F  
HETATM   17  F   UNL     1     -11.918  10.320  68.816  1.00  0.00    -0.208 F  
HETATM   18  C   UNL     1     -10.454  11.235  64.240  1.00  0.00    -0.419 A  
HETATM   19  F   UNL     1     -10.326  11.737  69.227  1.00  0.00    -0.179 F  
HETATM   20  C   UNL     1     -11.249  12.295  64.666  1.00  0.00    -0.363 A  
HETATM   21  C   UNL     1     -10.257  10.506  66.512  1.00  0.00    -0.288 A  
HETATM   22  C   UNL     1     -11.493  12.552  66.031  1.00  0.00    -0.423 A  
HETATM   23  C   UNL     1     -11.420  11.535  68.438  1.00  0.00    -0.298 C  
HETATM   24  C   UNL     1     -11.072  11.570  66.962  1.00  0.00    -0.365 A  
BRANCH  22  25
HETATM   25  C   UNL     1     -12.147  13.875  66.460  1.00  0.00    -0.484 C  
HETATM   26  C   UNL     1     -11.105  14.906  66.955  1.00  0.00    -0.337 C  
HETATM   27  C   UNL     1     -10.215  15.406  65.821  1.00  0.00    -0.378 C  
HETATM   28  C   UNL     1     -11.043  16.101  64.751  1.00  0.00    -0.345 C  
HETATM   29  C   UNL     1     -12.208  15.251  64.257  1.00  0.00    -0.205 C  
HETATM   30  C   UNL     1     -13.013  14.600  65.394  1.00  0.00     0.109 C  
ENDBRANCH  22  25
ENDBRANCH  14  15
ENDBRANCH  13  14
ENDBRANCH  11  13
ENDBRANCH   9  11
ENDBRANCH   5   9
BRANCH   8  31
HETATM   31  C   UNL     1     -10.067   6.602  71.370  1.00  0.00    -0.190 C  
BRANCH  31  32
HETATM   32  N   UNL     1      -9.836   5.468  72.297  1.00  0.00    -0.159 NA 
HETATM   33  O   UNL     1      -8.951   3.163  74.116  1.00  0.00    -0.079 OA 
HETATM   34  O   UNL     1     -10.803   1.959  74.543  1.00  0.00    -0.132 OA 
HETATM   35  C   UNL     1     -10.736   5.534  73.479  1.00  0.00    -0.283 C  
HETATM   36  C   UNL     1     -10.296   2.956  74.035  1.00  0.00    -0.156 C  
HETATM   37  C   UNL     1     -10.628   4.300  71.803  1.00  0.00     0.149 C  
HETATM   38  C   UNL     1     -11.069   4.042  73.256  1.00  0.00    -0.301 C  
ENDBRANCH  31  32
ENDBRANCH   8  31
ENDBRANCH   2   3
TORSDOF 9
ENDMDL
MODEL      211
REMARK 921   NORMALIZED FREE ENERGY PREDICTED BY IDOCK:   -5.28 KCAL/MOL
REMARK 922        TOTAL FREE ENERGY PREDICTED BY IDOCK:   -9.49 KCAL/MOL
REMARK 923 INTER-LIGAND FREE ENERGY PREDICTED BY IDOCK:   -7.30 KCAL/MOL
REMARK 924 INTRA-LIGAND FREE ENERGY PREDICTED BY IDOCK:   -2.19 KCAL/MOL
REMARK 927      BINDING AFFINITY PREDICTED BY RF-SCORE:    0.00 PKD
ROOT
HETATM    1  C   UNL     1      -9.135  11.016  67.480  1.00  0.00    -0.138 C  
HETATM    2  C   UNL     1      -9.086  11.976  68.657  1.00  0.00    -0.030 C  
ENDROOT
BRANCH   2   3
HETATM    3  C   UNL     1      -7.700  12.521  68.919  1.00  0.00     0.085 A  
HETATM    4  C   UNL     1      -7.586  13.916  68.816  1.00  0.00    -0.108 A  
HETATM    5  C   UNL     1      -6.349  14.562  68.856  1.00  0.00    -0.089 A  
HETATM    6  C   UNL     1      -5.196  13.811  69.049  1.00  0.00    -0.070 A  
HETATM    7  C   UNL     1      -5.298  12.421  69.225  1.00  0.00    -0.069 A  
HETATM    8  C   UNL     1      -6.545  11.754  69.184  1.00  0.00    -0.102 A  
BRANCH   5   9
HETATM    9  C   UNL     1      -6.354  16.019  68.546  1.00  0.00    -0.115 C  
HETATM   10  C   UNL     1      -5.413  16.580  67.515  1.00  0.00    -0.170 C  
BRANCH   9  11
HETATM   11  N   UNL     1      -7.204  16.751  69.210  1.00  0.00    -0.219 NA 
HETATM   12  H   UNL     1      -7.440  16.606  70.192  1.00  0.00     0.000 HD 
BRANCH  11  13
HETATM   13  O   UNL     1      -7.753  17.758  68.416  1.00  0.00    -0.258 OA 
BRANCH  13  14
HETATM   14  C   UNL     1      -9.116  17.911  68.794  1.00  0.00    -0.206 C  
BRANCH  14  15
HETATM   15  C   UNL     1      -9.872  16.739  68.249  1.00  0.00    -0.257 A  
HETATM   16  F   UNL     1     -12.639  12.841  69.235  1.00  0.00    -0.096 F  
HETATM   17  F   UNL     1     -11.214  13.618  70.661  1.00  0.00    -0.035 F  
HETATM   18  C   UNL     1      -9.784  16.405  66.905  1.00  0.00    -0.260 A  
HETATM   19  F   UNL     1     -13.061  14.695  70.293  1.00  0.00    -0.364 F  
HETATM   20  C   UNL     1     -10.527  15.341  66.404  1.00  0.00    -0.307 A  
HETATM   21  C   UNL     1     -10.620  15.919  69.096  1.00  0.00    -0.246 A  
HETATM   22  C   UNL     1     -11.413  14.595  67.208  1.00  0.00    -0.386 A  
HETATM   23  C   UNL     1     -12.070  13.998  69.667  1.00  0.00    -0.355 C  
HETATM   24  C   UNL     1     -11.373  14.828  68.605  1.00  0.00    -0.305 A  
BRANCH  22  25
HETATM   25  C   UNL     1     -12.402  13.614  66.559  1.00  0.00    -0.412 C  
HETATM   26  C   UNL     1     -12.980  14.164  65.233  1.00  0.00    -0.268 C  
HETATM   27  C   UNL     1     -11.922  14.238  64.136  1.00  0.00    -0.401 C  
HETATM   28  C   UNL     1     -11.364  12.857  63.831  1.00  0.00    -0.489 C  
HETATM   29  C   UNL     1     -10.875  12.125  65.075  1.00  0.00    -0.344 C  
HETATM   30  C   UNL     1     -11.866  12.190  66.249  1.00  0.00    -0.320 C  
ENDBRANCH  22  25
ENDBRANCH  14  15
ENDBRANCH  13  14
ENDBRANCH  11  13
ENDBRANCH   9  11
ENDBRANCH   5   9
BRANCH   8  31
HETATM   31  C   UNL     1      -6.590  10.235  69.291  1.00  0.00    -0.055 C  
BRANCH  31  32
HETATM   32  N   UNL     1      -7.027   9.686  70.597  1.00  0.00    -0.174 NA 
HETATM   33  O   UNL     1      -8.015   8.949  73.405  1.00  0.00    -0.372 OA 
HETATM   34  O   UNL     1      -7.220   6.887  73.826  1.00  0.00    -0.081 OA 
HETATM   35  C   UNL     1      -7.710   8.374  70.441  1.00  0.00    -0.078 C  
HETATM   36  C   UNL     1      -7.362   7.812  73.031  1.00  0.00    -0.100 C  
HETATM   37  C   UNL     1      -5.866   8.967  71.207  1.00  0.00    -0.050 C  
HETATM   38  C   UNL     1      -6.828   7.825  71.583  1.00  0.00    -0.058 C  
ENDBRANCH  31  32
ENDBRANCH   8  31
ENDBRANCH   2   3
TORSDOF 9
ENDMDL
MODEL      212
REMARK 921   NORMALIZED FREE ENERGY PREDICTED BY IDOCK:   -5.28 KCAL/MOL
REMARK 922        TOTAL FREE ENERGY PREDICTED BY IDOCK:   -9.48 KCAL/MOL
REMARK 923 INTER-LIGAND FREE ENERGY PREDICTED BY IDOCK:   -8.82 KCAL/MOL
REMARK 924 INTRA-LIGAND FREE ENERGY PREDICTED BY IDOCK:   -0.66 KCAL/MOL
REMARK 927      BINDING AFFINITY PREDICTED BY RF-SCORE:    0.00 PKD
ROOT
HETATM    1  C   UNL     1      -8.905  10.646  68.509  1.00  0.00    -0.148 C  
HETATM    2  C   UNL     1     -10.059  11.616  68.703  1.00  0.00    -0.206 C  
ENDROOT
BRANCH   2   3
HETATM    3  C   UNL     1     -11.042  11.163  69.759  1.00  0.00    -0.271 A  
HETATM    4  C   UNL     1     -10.925   9.815  70.133  1.00  0.00    -0.339 A  
HETATM    5  C   UNL     1     -11.861   9.194  70.963  1.00  0.00    -0.354 A  
HETATM    6  C   UNL     1     -12.917   9.939  71.473  1.00  0.00    -0.523 A  
HETATM    7  C   UNL     1     -13.009  11.307  71.167  1.00  0.00    -0.369 A  
HETATM    8  C   UNL     1     -12.069  11.948  70.326  1.00  0.00    -0.409 A  
BRANCH   5   9
HETATM    9  C   UNL     1     -11.723   7.720  71.125  1.00  0.00    -0.284 C  
HETATM   10  C   UNL     1     -12.884   6.897  71.616  1.00  0.00    -0.383 C  
BRANCH   9  11
HETATM   11  N   UNL     1     -10.564   7.207  70.822  1.00  0.00    -0.220 NA 
HETATM   12  H   UNL     1      -9.670   7.659  71.016  1.00  0.00     0.000 HD 
BRANCH  11  13
HETATM   13  O   UNL     1     -10.691   5.965  70.202  1.00  0.00    -0.265 OA 
BRANCH  13  14
HETATM   14  C   UNL     1     -11.105   6.192  68.860  1.00  0.00    -0.345 C  
BRANCH  14  15
HETATM   15  C   UNL     1      -9.927   6.735  68.110  1.00  0.00    -0.161 A  
HETATM   16  F   UNL     1      -5.234   8.064  68.276  1.00  0.00    -0.027 F  
HETATM   17  F   UNL     1      -6.501   8.135  70.025  1.00  0.00    -0.032 F  
HETATM   18  C   UNL     1     -10.072   7.206  66.814  1.00  0.00    -0.278 A  
HETATM   19  F   UNL     1      -5.815   6.218  69.272  1.00  0.00    -0.016 F  
HETATM   20  C   UNL     1      -8.960   7.665  66.113  1.00  0.00    -0.197 A  
HETATM   21  C   UNL     1      -8.679   6.842  68.727  1.00  0.00    -0.125 A  
HETATM   22  C   UNL     1      -7.660   7.635  66.659  1.00  0.00    -0.097 A  
HETATM   23  C   UNL     1      -6.282   7.435  68.871  1.00  0.00    -0.031 C  
HETATM   24  C   UNL     1      -7.542   7.315  68.034  1.00  0.00    -0.115 A  
BRANCH  22  25
HETATM   25  C   UNL     1      -6.442   7.898  65.761  1.00  0.00    -0.042 C  
HETATM   26  C   UNL     1      -6.590   7.233  64.371  1.00  0.00    -0.040 C  
HETATM   27  C   UNL     1      -7.683   7.894  63.536  1.00  0.00    -0.136 C  
HETATM   28  C   UNL     1      -7.360   9.360  63.287  1.00  0.00    -0.101 C  
HETATM   29  C   UNL     1      -7.050  10.125  64.568  1.00  0.00    -0.119 C  
HETATM   30  C   UNL     1      -6.077   9.386  65.501  1.00  0.00    -0.063 C  
ENDBRANCH  22  25
ENDBRANCH  14  15
ENDBRANCH  13  14
ENDBRANCH  11  13
ENDBRANCH   9  11
ENDBRANCH   5   9
BRANCH   8  31
HETATM   31  C   UNL     1     -12.268  13.412  69.953  1.00  0.00    -0.271 C  
BRANCH  31  32
HETATM   32  N   UNL     1     -12.765  14.297  71.034  1.00  0.00    -0.339 NA 
HETATM   33  O   UNL     1     -14.120  16.207  73.014  1.00  0.00    -0.469 OA 
HETATM   34  O   UNL     1     -12.527  16.822  74.478  1.00  0.00    -0.713 OA 
HETATM   35  C   UNL     1     -12.472  13.738  72.381  1.00  0.00     0.083 C  
HETATM   36  C   UNL     1     -12.858  16.124  73.524  1.00  0.00    -0.549 C  
HETATM   37  C   UNL     1     -11.729  15.346  71.284  1.00  0.00    -0.380 C  
HETATM   38  C   UNL     1     -11.934  15.126  72.794  1.00  0.00    -0.482 C  
ENDBRANCH  31  32
ENDBRANCH   8  31
ENDBRANCH   2   3
TORSDOF 9
ENDMDL
MODEL      213
REMARK 921   NORMALIZED FREE ENERGY PREDICTED BY IDOCK:   -5.27 KCAL/MOL
REMARK 922        TOTAL FREE ENERGY PREDICTED BY IDOCK:   -9.47 KCAL/MOL
REMARK 923 INTER-LIGAND FREE ENERGY PREDICTED BY IDOCK:   -7.72 KCAL/MOL
REMARK 924 INTRA-LIGAND FREE ENERGY PREDICTED BY IDOCK:   -1.75 KCAL/MOL
REMARK 927      BINDING AFFINITY PREDICTED BY RF-SCORE:    0.00 PKD
ROOT
HETATM    1  C   UNL     1      -7.761  10.390  67.763  1.00  0.00    -0.089 C  
HETATM    2  C   UNL     1      -9.131  10.709  67.187  1.00  0.00    -0.154 C  
ENDROOT
BRANCH   2   3
HETATM    3  C   UNL     1     -10.000  11.507  68.133  1.00  0.00    -0.197 A  
HETATM    4  C   UNL     1     -10.655  10.746  69.114  1.00  0.00    -0.254 A  
HETATM    5  C   UNL     1     -11.624  11.298  69.953  1.00  0.00    -0.413 A  
HETATM    6  C   UNL     1     -11.923  12.651  69.849  1.00  0.00    -0.365 A  
HETATM    7  C   UNL     1     -11.226  13.443  68.921  1.00  0.00    -0.320 A  
HETATM    8  C   UNL     1     -10.243  12.896  68.064  1.00  0.00    -0.229 A  
BRANCH   5   9
HETATM    9  C   UNL     1     -12.373  10.342  70.816  1.00  0.00    -0.367 C  
HETATM   10  C   UNL     1     -13.334  10.849  71.857  1.00  0.00    -0.429 C  
BRANCH   9  11
HETATM   11  N   UNL     1     -12.146   9.075  70.613  1.00  0.00    -0.477 NA 
HETATM   12  H   UNL     1     -12.364   8.587  69.744  1.00  0.00     0.000 HD 
BRANCH  11  13
HETATM   13  O   UNL     1     -11.568   8.466  71.727  1.00  0.00    -0.272 OA 
BRANCH  13  14
HETATM   14  C   UNL     1     -10.171   8.730  71.687  1.00  0.00    -0.324 C  
BRANCH  14  15
HETATM   15  C   UNL     1      -9.481   7.460  71.295  1.00  0.00    -0.159 A  
HETATM   16  F   UNL     1      -7.062   5.024  67.825  1.00  0.00    -0.060 F  
HETATM   17  F   UNL     1      -8.490   6.574  67.346  1.00  0.00    -0.117 F  
HETATM   18  C   UNL     1      -9.531   6.346  72.120  1.00  0.00    -0.152 A  
HETATM   19  F   UNL     1      -6.552   7.114  68.160  1.00  0.00    -0.042 F  
HETATM   20  C   UNL     1      -8.847   5.187  71.764  1.00  0.00    -0.144 A  
HETATM   21  C   UNL     1      -8.836   7.353  70.061  1.00  0.00    -0.141 A  
HETATM   22  C   UNL     1      -8.057   5.106  70.598  1.00  0.00    -0.106 A  
HETATM   23  C   UNL     1      -7.562   6.205  68.279  1.00  0.00    -0.098 C  
HETATM   24  C   UNL     1      -8.145   6.181  69.679  1.00  0.00    -0.112 A  
BRANCH  22  25
HETATM   25  C   UNL     1      -7.116   3.910  70.388  1.00  0.00    -0.038 C  
HETATM   26  C   UNL     1      -5.636   4.282  70.648  1.00  0.00    -0.012 C  
HETATM   27  C   UNL     1      -5.371   4.572  72.122  1.00  0.00    -0.004 C  
HETATM   28  C   UNL     1      -5.671   3.348  72.975  1.00  0.00    -0.004 C  
HETATM   29  C   UNL     1      -7.062   2.777  72.725  1.00  0.00    -0.035 C  
HETATM   30  C   UNL     1      -7.406   2.640  71.233  1.00  0.00    -0.033 C  
ENDBRANCH  22  25
ENDBRANCH  14  15
ENDBRANCH  13  14
ENDBRANCH  11  13
ENDBRANCH   9  11
ENDBRANCH   5   9
BRANCH   8  31
HETATM   31  C   UNL     1      -9.583  13.781  67.014  1.00  0.00    -0.251 C  
BRANCH  31  32
HETATM   32  N   UNL     1      -9.912  15.225  67.079  1.00  0.00    -0.232 NA 
HETATM   33  O   UNL     1     -10.803  18.119  67.566  1.00  0.00    -0.389 OA 
HETATM   34  O   UNL     1     -10.570  19.184  65.598  1.00  0.00    -0.523 OA 
HETATM   35  C   UNL     1      -8.783  16.068  66.604  1.00  0.00    -0.274 C  
HETATM   36  C   UNL     1     -10.408  18.164  66.262  1.00  0.00    -0.397 C  
HETATM   37  C   UNL     1     -10.656  15.584  65.832  1.00  0.00    -0.339 C  
HETATM   38  C   UNL     1      -9.788  16.852  65.733  1.00  0.00    -0.166 C  
ENDBRANCH  31  32
ENDBRANCH   8  31
ENDBRANCH   2   3
TORSDOF 9
ENDMDL
MODEL      214
REMARK 921   NORMALIZED FREE ENERGY PREDICTED BY IDOCK:   -5.26 KCAL/MOL
REMARK 922        TOTAL FREE ENERGY PREDICTED BY IDOCK:   -9.45 KCAL/MOL
REMARK 923 INTER-LIGAND FREE ENERGY PREDICTED BY IDOCK:   -7.49 KCAL/MOL
REMARK 924 INTRA-LIGAND FREE ENERGY PREDICTED BY IDOCK:   -1.97 KCAL/MOL
REMARK 927      BINDING AFFINITY PREDICTED BY RF-SCORE:    0.00 PKD
ROOT
HETATM    1  C   UNL     1      -7.972   9.252  69.123  1.00  0.00    -0.097 C  
HETATM    2  C   UNL     1      -8.776  10.213  68.262  1.00  0.00    -0.120 C  
ENDROOT
BRANCH   2   3
HETATM    3  C   UNL     1      -9.967  10.801  68.986  1.00  0.00    -0.214 A  
HETATM    4  C   UNL     1     -10.462  10.016  70.038  1.00  0.00    -0.337 A  
HETATM    5  C   UNL     1     -11.656  10.326  70.693  1.00  0.00    -0.435 A  
HETATM    6  C   UNL     1     -12.356  11.470  70.327  1.00  0.00    -0.355 A  
HETATM    7  C   UNL     1     -11.836  12.305  69.324  1.00  0.00    -0.363 A  
HETATM    8  C   UNL     1     -10.629  12.002  68.651  1.00  0.00    -0.253 A  
BRANCH   5   9
HETATM    9  C   UNL     1     -12.163   9.311  71.658  1.00  0.00    -0.370 C  
HETATM   10  C   UNL     1     -13.508   9.486  72.310  1.00  0.00    -0.521 C  
BRANCH   9  11
HETATM   11  N   UNL     1     -11.385   8.291  71.891  1.00  0.00    -0.286 NA 
HETATM   12  H   UNL     1     -10.375   8.359  72.014  1.00  0.00     0.000 HD 
BRANCH  11  13
HETATM   13  O   UNL     1     -12.100   7.096  71.954  1.00  0.00    -0.300 OA 
BRANCH  13  14
HETATM   14  C   UNL     1     -12.455   6.734  70.624  1.00  0.00    -0.081 C  
BRANCH  14  15
HETATM   15  C   UNL     1     -11.199   6.333  69.915  1.00  0.00    -0.498 A  
HETATM   16  F   UNL     1      -6.471   5.185  70.304  1.00  0.00    -0.029 F  
HETATM   17  F   UNL     1      -7.452   6.476  71.733  1.00  0.00    -0.086 F  
HETATM   18  C   UNL     1     -11.144   6.319  68.529  1.00  0.00    -0.397 A  
HETATM   19  F   UNL     1      -7.856   4.343  71.757  1.00  0.00    -0.077 F  
HETATM   20  C   UNL     1      -9.985   5.900  67.883  1.00  0.00    -0.157 A  
HETATM   21  C   UNL     1     -10.040   6.034  70.634  1.00  0.00    -0.246 A  
HETATM   22  C   UNL     1      -8.853   5.442  68.588  1.00  0.00    -0.107 A  
HETATM   23  C   UNL     1      -7.666   5.400  70.917  1.00  0.00    -0.090 C  
HETATM   24  C   UNL     1      -8.851   5.616  69.995  1.00  0.00    -0.136 A  
BRANCH  22  25
HETATM   25  C   UNL     1      -7.709   4.744  67.837  1.00  0.00    -0.082 C  
HETATM   26  C   UNL     1      -7.796   3.203  67.948  1.00  0.00    -0.067 C  
HETATM   27  C   UNL     1      -8.993   2.643  67.185  1.00  0.00    -0.178 C  
HETATM   28  C   UNL     1      -8.890   2.970  65.703  1.00  0.00    -0.138 C  
HETATM   29  C   UNL     1      -8.661   4.453  65.438  1.00  0.00    -0.122 C  
HETATM   30  C   UNL     1      -7.568   5.071  66.326  1.00  0.00    -0.087 C  
ENDBRANCH  22  25
ENDBRANCH  14  15
ENDBRANCH  13  14
ENDBRANCH  11  13
ENDBRANCH   9  11
ENDBRANCH   5   9
BRANCH   8  31
HETATM   31  C   UNL     1     -10.159  12.894  67.509  1.00  0.00    -0.214 C  
BRANCH  31  32
HETATM   32  N   UNL     1      -8.883  13.617  67.731  1.00  0.00    -0.178 NA 
HETATM   33  O   UNL     1      -6.073  14.733  68.239  1.00  0.00    -0.103 OA 
HETATM   34  O   UNL     1      -6.350  16.895  68.794  1.00  0.00    -0.154 OA 
HETATM   35  C   UNL     1      -8.778  14.822  66.865  1.00  0.00    -0.236 C  
HETATM   36  C   UNL     1      -6.849  15.841  68.411  1.00  0.00    -0.116 C  
HETATM   37  C   UNL     1      -9.066  14.523  68.907  1.00  0.00    -0.111 C  
HETATM   38  C   UNL     1      -8.348  15.628  68.111  1.00  0.00    -0.146 C  
ENDBRANCH  31  32
ENDBRANCH   8  31
ENDBRANCH   2   3
TORSDOF 9
ENDMDL
MODEL      215
REMARK 921   NORMALIZED FREE ENERGY PREDICTED BY IDOCK:   -5.26 KCAL/MOL
REMARK 922        TOTAL FREE ENERGY PREDICTED BY IDOCK:   -9.45 KCAL/MOL
REMARK 923 INTER-LIGAND FREE ENERGY PREDICTED BY IDOCK:   -7.94 KCAL/MOL
REMARK 924 INTRA-LIGAND FREE ENERGY PREDICTED BY IDOCK:   -1.51 KCAL/MOL
REMARK 927      BINDING AFFINITY PREDICTED BY RF-SCORE:    0.00 PKD
ROOT
HETATM    1  C   UNL     1      -8.042  10.712  68.651  1.00  0.00    -0.132 C  
HETATM    2  C   UNL     1      -9.417  11.325  68.438  1.00  0.00    -0.192 C  
ENDROOT
BRANCH   2   3
HETATM    3  C   UNL     1     -10.442  10.840  69.438  1.00  0.00    -0.229 A  
HETATM    4  C   UNL     1     -10.309   9.495  69.812  1.00  0.00    -0.251 A  
HETATM    5  C   UNL     1     -11.271   8.844  70.588  1.00  0.00    -0.308 A  
HETATM    6  C   UNL     1     -12.373   9.557  71.043  1.00  0.00    -0.363 A  
HETATM    7  C   UNL     1     -12.487  10.923  70.736  1.00  0.00    -0.489 A  
HETATM    8  C   UNL     1     -11.521  11.594  69.950  1.00  0.00    -0.308 A  
BRANCH   5   9
HETATM    9  C   UNL     1     -11.102   7.373  70.753  1.00  0.00    -0.265 C  
HETATM   10  C   UNL     1     -11.906   6.626  71.783  1.00  0.00    -0.380 C  
BRANCH   9  11
HETATM   11  N   UNL     1     -10.236   6.796  69.969  1.00  0.00    -0.188 NA 
HETATM   12  H   UNL     1      -9.250   7.055  69.915  1.00  0.00     0.000 HD 
BRANCH  11  13
HETATM   13  O   UNL     1     -10.818   5.780  69.211  1.00  0.00    -0.311 OA 
BRANCH  13  14
HETATM   14  C   UNL     1     -11.342   6.371  68.028  1.00  0.00     0.028 C  
BRANCH  14  15
HETATM   15  C   UNL     1     -10.197   6.595  67.089  1.00  0.00    -0.275 A  
HETATM   16  F   UNL     1      -6.505   4.605  64.593  1.00  0.00    -0.034 F  
HETATM   17  F   UNL     1      -7.247   3.729  66.423  1.00  0.00    -0.060 F  
HETATM   18  C   UNL     1      -9.811   7.882  66.740  1.00  0.00    -0.318 A  
HETATM   19  F   UNL     1      -8.418   3.565  64.603  1.00  0.00    -0.094 F  
HETATM   20  C   UNL     1      -8.775   8.074  65.831  1.00  0.00    -0.184 A  
HETATM   21  C   UNL     1      -9.453   5.518  66.604  1.00  0.00    -0.154 A  
HETATM   22  C   UNL     1      -8.112   6.998  65.206  1.00  0.00    -0.134 A  
HETATM   23  C   UNL     1      -7.642   4.429  65.318  1.00  0.00    -0.085 C  
HETATM   24  C   UNL     1      -8.391   5.695  65.689  1.00  0.00    -0.135 A  
BRANCH  22  25
HETATM   25  C   UNL     1      -7.168   7.259  64.022  1.00  0.00    -0.077 C  
HETATM   26  C   UNL     1      -7.939   7.437  62.692  1.00  0.00    -0.126 C  
HETATM   27  C   UNL     1      -8.753   8.727  62.672  1.00  0.00    -0.097 C  
HETATM   28  C   UNL     1      -7.845   9.940  62.816  1.00  0.00    -0.134 C  
HETATM   29  C   UNL     1      -6.916   9.845  64.020  1.00  0.00    -0.125 C  
HETATM   30  C   UNL     1      -6.217   8.481  64.147  1.00  0.00    -0.067 C  
ENDBRANCH  22  25
ENDBRANCH  14  15
ENDBRANCH  13  14
ENDBRANCH  11  13
ENDBRANCH   9  11
ENDBRANCH   5   9
BRANCH   8  31
HETATM   31  C   UNL     1     -11.739  13.054  69.572  1.00  0.00    -0.317 C  
BRANCH  31  32
HETATM   32  N   UNL     1     -11.277  13.453  68.221  1.00  0.00    -0.263 NA 
HETATM   33  O   UNL     1     -10.073  13.939  65.442  1.00  0.00    -0.326 OA 
HETATM   34  O   UNL     1     -10.490  16.094  64.950  1.00  0.00    -0.605 OA 
HETATM   35  C   UNL     1     -12.384  14.025  67.409  1.00  0.00    -0.115 C  
HETATM   36  C   UNL     1     -10.645  15.146  65.715  1.00  0.00    -0.351 C  
HETATM   37  C   UNL     1     -10.689  14.825  68.321  1.00  0.00    -0.242 C  
HETATM   38  C   UNL     1     -11.447  15.195  67.033  1.00  0.00    -0.230 C  
ENDBRANCH  31  32
ENDBRANCH   8  31
ENDBRANCH   2   3
TORSDOF 9
ENDMDL
MODEL      216
REMARK 921   NORMALIZED FREE ENERGY PREDICTED BY IDOCK:   -5.25 KCAL/MOL
REMARK 922        TOTAL FREE ENERGY PREDICTED BY IDOCK:   -9.45 KCAL/MOL
REMARK 923 INTER-LIGAND FREE ENERGY PREDICTED BY IDOCK:   -8.53 KCAL/MOL
REMARK 924 INTRA-LIGAND FREE ENERGY PREDICTED BY IDOCK:   -0.91 KCAL/MOL
REMARK 927      BINDING AFFINITY PREDICTED BY RF-SCORE:    0.00 PKD
ROOT
HETATM    1  C   UNL     1      -6.946   8.494  70.784  1.00  0.00    -0.050 C  
HETATM    2  C   UNL     1      -7.470   8.693  72.197  1.00  0.00    -0.059 C  
ENDROOT
BRANCH   2   3
HETATM    3  C   UNL     1      -8.928   8.321  72.346  1.00  0.00    -0.297 A  
HETATM    4  C   UNL     1      -9.814   9.100  71.588  1.00  0.00    -0.295 A  
HETATM    5  C   UNL     1     -11.199   9.004  71.741  1.00  0.00    -0.448 A  
HETATM    6  C   UNL     1     -11.723   8.080  72.636  1.00  0.00    -0.418 A  
HETATM    7  C   UNL     1     -10.851   7.242  73.352  1.00  0.00    -0.370 A  
HETATM    8  C   UNL     1      -9.446   7.330  73.208  1.00  0.00    -0.240 A  
BRANCH   5   9
HETATM    9  C   UNL     1     -12.015  10.017  71.015  1.00  0.00    -0.376 C  
HETATM   10  C   UNL     1     -12.582  11.204  71.747  1.00  0.00    -0.282 C  
BRANCH   9  11
HETATM   11  N   UNL     1     -12.199   9.813  69.741  1.00  0.00    -0.318 NA 
HETATM   12  H   UNL     1     -12.987   9.293  69.353  1.00  0.00     0.000 HD 
BRANCH  11  13
HETATM   13  O   UNL     1     -11.190  10.389  68.971  1.00  0.00    -0.229 OA 
BRANCH  13  14
HETATM   14  C   UNL     1     -11.766  10.786  67.732  1.00  0.00     0.111 C  
BRANCH  14  15
HETATM   15  C   UNL     1     -11.303  12.181  67.444  1.00  0.00    -0.393 A  
HETATM   16  F   UNL     1     -11.089  15.835  64.215  1.00  0.00    -0.366 F  
HETATM   17  F   UNL     1     -11.227  13.770  63.593  1.00  0.00    -0.204 F  
HETATM   18  C   UNL     1     -10.479  12.850  68.338  1.00  0.00    -0.260 A  
HETATM   19  F   UNL     1     -12.970  14.759  64.427  1.00  0.00    -0.280 F  
HETATM   20  C   UNL     1     -10.094  14.162  68.080  1.00  0.00    -0.233 A  
HETATM   21  C   UNL     1     -11.632  12.806  66.240  1.00  0.00    -0.433 A  
HETATM   22  C   UNL     1     -10.544  14.870  66.946  1.00  0.00    -0.300 A  
HETATM   23  C   UNL     1     -11.620  14.636  64.575  1.00  0.00    -0.370 C  
HETATM   24  C   UNL     1     -11.241  14.134  65.956  1.00  0.00    -0.319 A  
BRANCH  22  25
HETATM   25  C   UNL     1     -10.312  16.385  66.843  1.00  0.00    -0.300 C  
HETATM   26  C   UNL     1     -10.623  17.113  68.173  1.00  0.00    -0.380 C  
HETATM   27  C   UNL     1      -9.615  16.765  69.264  1.00  0.00    -0.112 C  
HETATM   28  C   UNL     1      -8.211  17.183  68.855  1.00  0.00    -0.192 C  
HETATM   29  C   UNL     1      -7.808  16.650  67.485  1.00  0.00    -0.191 C  
HETATM   30  C   UNL     1      -8.892  16.844  66.412  1.00  0.00    -0.322 C  
ENDBRANCH  22  25
ENDBRANCH  14  15
ENDBRANCH  13  14
ENDBRANCH  11  13
ENDBRANCH   9  11
ENDBRANCH   5   9
BRANCH   8  31
HETATM   31  C   UNL     1      -8.545   6.460  74.075  1.00  0.00    -0.121 C  
BRANCH  31  32
HETATM   32  N   UNL     1      -8.272   5.094  73.566  1.00  0.00    -0.110 NA 
HETATM   33  O   UNL     1      -7.821   2.136  72.895  1.00  0.00    -0.047 OA 
HETATM   34  O   UNL     1      -6.513   2.103  71.065  1.00  0.00    -0.022 OA 
HETATM   35  C   UNL     1      -8.670   4.951  72.140  1.00  0.00    -0.128 C  
HETATM   36  C   UNL     1      -7.163   2.757  71.876  1.00  0.00    -0.039 C  
HETATM   37  C   UNL     1      -6.841   5.040  73.135  1.00  0.00    -0.073 C  
HETATM   38  C   UNL     1      -7.298   4.295  71.867  1.00  0.00    -0.068 C  
ENDBRANCH  31  32
ENDBRANCH   8  31
ENDBRANCH   2   3
TORSDOF 9
ENDMDL
MODEL      217
REMARK 921   NORMALIZED FREE ENERGY PREDICTED BY IDOCK:   -5.25 KCAL/MOL
REMARK 922        TOTAL FREE ENERGY PREDICTED BY IDOCK:   -9.44 KCAL/MOL
REMARK 923 INTER-LIGAND FREE ENERGY PREDICTED BY IDOCK:   -8.13 KCAL/MOL
REMARK 924 INTRA-LIGAND FREE ENERGY PREDICTED BY IDOCK:   -1.31 KCAL/MOL
REMARK 927      BINDING AFFINITY PREDICTED BY RF-SCORE:    0.00 PKD
ROOT
HETATM    1  C   UNL     1      -7.908  10.903  67.379  1.00  0.00    -0.113 C  
HETATM    2  C   UNL     1      -9.317  11.231  66.915  1.00  0.00    -0.190 C  
ENDROOT
BRANCH   2   3
HETATM    3  C   UNL     1     -10.114  12.006  67.940  1.00  0.00    -0.199 A  
HETATM    4  C   UNL     1     -10.707  11.221  68.941  1.00  0.00    -0.246 A  
HETATM    5  C   UNL     1     -11.613  11.755  69.859  1.00  0.00    -0.351 A  
HETATM    6  C   UNL     1     -11.906  13.112  69.815  1.00  0.00    -0.386 A  
HETATM    7  C   UNL     1     -11.267  13.926  68.865  1.00  0.00    -0.304 A  
HETATM    8  C   UNL     1     -10.348  13.398  67.927  1.00  0.00    -0.238 A  
BRANCH   5   9
HETATM    9  C   UNL     1     -12.310  10.779  70.743  1.00  0.00    -0.383 C  
HETATM   10  C   UNL     1     -13.159  11.261  71.888  1.00  0.00    -0.510 C  
BRANCH   9  11
HETATM   11  N   UNL     1     -12.139   9.517  70.465  1.00  0.00    -0.457 NA 
HETATM   12  H   UNL     1     -12.249   9.117  69.533  1.00  0.00     0.000 HD 
BRANCH  11  13
HETATM   13  O   UNL     1     -11.788   8.779  71.594  1.00  0.00    -0.288 OA 
BRANCH  13  14
HETATM   14  C   UNL     1     -10.411   9.022  71.859  1.00  0.00    -0.303 C  
BRANCH  14  15
HETATM   15  C   UNL     1      -9.666   7.752  71.584  1.00  0.00    -0.200 A  
HETATM   16  F   UNL     1      -5.442   5.332  71.935  1.00  0.00    -0.010 F  
HETATM   17  F   UNL     1      -5.515   7.489  71.830  1.00  0.00    -0.034 F  
HETATM   18  C   UNL     1     -10.244   6.745  70.825  1.00  0.00    -0.215 A  
HETATM   19  F   UNL     1      -6.114   6.482  73.657  1.00  0.00    -0.059 F  
HETATM   20  C   UNL     1      -9.558   5.552  70.617  1.00  0.00    -0.221 A  
HETATM   21  C   UNL     1      -8.353   7.589  72.027  1.00  0.00    -0.121 A  
HETATM   22  C   UNL     1      -8.293   5.300  71.187  1.00  0.00    -0.122 A  
HETATM   23  C   UNL     1      -6.199   6.402  72.298  1.00  0.00    -0.049 C  
HETATM   24  C   UNL     1      -7.638   6.388  71.816  1.00  0.00    -0.095 A  
BRANCH  22  25
HETATM   25  C   UNL     1      -7.701   3.883  71.151  1.00  0.00    -0.055 C  
HETATM   26  C   UNL     1      -7.967   3.109  72.465  1.00  0.00    -0.063 C  
HETATM   27  C   UNL     1      -9.445   2.774  72.640  1.00  0.00    -0.159 C  
HETATM   28  C   UNL     1      -9.937   1.890  71.504  1.00  0.00    -0.172 C  
HETATM   29  C   UNL     1      -9.619   2.462  70.127  1.00  0.00    -0.076 C  
HETATM   30  C   UNL     1      -8.171   2.962  69.993  1.00  0.00    -0.068 C  
ENDBRANCH  22  25
ENDBRANCH  14  15
ENDBRANCH  13  14
ENDBRANCH  11  13
ENDBRANCH   9  11
ENDBRANCH   5   9
BRANCH   8  31
HETATM   31  C   UNL     1      -9.753  14.309  66.861  1.00  0.00    -0.264 C  
BRANCH  31  32
HETATM   32  N   UNL     1     -10.087  15.749  66.974  1.00  0.00    -0.255 NA 
HETATM   33  O   UNL     1     -11.029  18.615  67.526  1.00  0.00    -0.392 OA 
HETATM   34  O   UNL     1     -10.555  19.796  65.671  1.00  0.00    -0.507 OA 
HETATM   35  C   UNL     1      -8.907  16.610  66.695  1.00  0.00    -0.248 C  
HETATM   36  C   UNL     1     -10.477  18.736  66.286  1.00  0.00    -0.435 C  
HETATM   37  C   UNL     1     -10.672  16.190  65.670  1.00  0.00    -0.310 C  
HETATM   38  C   UNL     1      -9.798  17.455  65.756  1.00  0.00    -0.028 C  
ENDBRANCH  31  32
ENDBRANCH   8  31
ENDBRANCH   2   3
TORSDOF 9
ENDMDL
MODEL      218
REMARK 921   NORMALIZED FREE ENERGY PREDICTED BY IDOCK:   -5.24 KCAL/MOL
REMARK 922        TOTAL FREE ENERGY PREDICTED BY IDOCK:   -9.43 KCAL/MOL
REMARK 923 INTER-LIGAND FREE ENERGY PREDICTED BY IDOCK:   -8.15 KCAL/MOL
REMARK 924 INTRA-LIGAND FREE ENERGY PREDICTED BY IDOCK:   -1.28 KCAL/MOL
REMARK 927      BINDING AFFINITY PREDICTED BY RF-SCORE:    0.00 PKD
ROOT
HETATM    1  C   UNL     1     -11.522  16.463  68.997  1.00  0.00    -0.205 C  
HETATM    2  C   UNL     1     -10.446  17.081  68.121  1.00  0.00    -0.357 C  
ENDROOT
BRANCH   2   3
HETATM    3  C   UNL     1      -9.144  16.312  68.149  1.00  0.00    -0.188 A  
HETATM    4  C   UNL     1      -9.273  14.930  67.947  1.00  0.00    -0.183 A  
HETATM    5  C   UNL     1      -8.198  14.055  68.114  1.00  0.00    -0.155 A  
HETATM    6  C   UNL     1      -6.950  14.566  68.447  1.00  0.00    -0.107 A  
HETATM    7  C   UNL     1      -6.787  15.955  68.583  1.00  0.00    -0.125 A  
HETATM    8  C   UNL     1      -7.868  16.853  68.419  1.00  0.00    -0.229 A  
BRANCH   5   9
HETATM    9  C   UNL     1      -8.515  12.600  68.055  1.00  0.00    -0.177 C  
HETATM   10  C   UNL     1      -7.552  11.637  67.413  1.00  0.00    -0.139 C  
BRANCH   9  11
HETATM   11  N   UNL     1      -9.648  12.230  68.581  1.00  0.00    -0.390 NA 
HETATM   12  H   UNL     1     -10.118  12.729  69.336  1.00  0.00     0.000 HD 
BRANCH  11  13
HETATM   13  O   UNL     1     -10.142  11.069  67.988  1.00  0.00    -0.172 OA 
BRANCH  13  14
HETATM   14  C   UNL     1     -11.111  10.512  68.868  1.00  0.00    -0.261 C  
BRANCH  14  15
HETATM   15  C   UNL     1     -10.544   9.240  69.419  1.00  0.00    -0.234 A  
HETATM   16  F   UNL     1     -10.843   5.776  72.844  1.00  0.00    -0.227 F  
HETATM   17  F   UNL     1     -11.543   7.790  73.195  1.00  0.00    -0.402 F  
HETATM   18  C   UNL     1      -9.359   8.721  68.919  1.00  0.00    -0.145 A  
HETATM   19  F   UNL     1     -12.687   6.463  71.914  1.00  0.00    -0.386 F  
HETATM   20  C   UNL     1      -8.868   7.515  69.409  1.00  0.00    -0.136 A  
HETATM   21  C   UNL     1     -11.160   8.594  70.492  1.00  0.00    -0.268 A  
HETATM   22  C   UNL     1      -9.555   6.761  70.383  1.00  0.00    -0.174 A  
HETATM   23  C   UNL     1     -11.413   6.841  72.220  1.00  0.00    -0.276 C  
HETATM   24  C   UNL     1     -10.670   7.373  71.009  1.00  0.00    -0.244 A  
BRANCH  22  25
HETATM   25  C   UNL     1      -9.116   5.322  70.694  1.00  0.00    -0.175 C  
HETATM   26  C   UNL     1      -9.909   4.281  69.869  1.00  0.00    -0.267 C  
HETATM   27  C   UNL     1      -9.565   4.348  68.384  1.00  0.00    -0.203 C  
HETATM   28  C   UNL     1      -8.090   4.053  68.157  1.00  0.00    -0.084 C  
HETATM   29  C   UNL     1      -7.174   4.916  69.016  1.00  0.00    -0.053 C  
HETATM   30  C   UNL     1      -7.611   4.994  70.488  1.00  0.00    -0.070 C  
ENDBRANCH  22  25
ENDBRANCH  14  15
ENDBRANCH  13  14
ENDBRANCH  11  13
ENDBRANCH   9  11
ENDBRANCH   5   9
BRANCH   8  31
HETATM   31  C   UNL     1      -7.656  18.341  68.667  1.00  0.00    -0.296 C  
BRANCH  31  32
HETATM   32  N   UNL     1      -6.946  19.085  67.599  1.00  0.00    -0.213 NA 
HETATM   33  O   UNL     1      -5.208  20.740  65.690  1.00  0.00    -0.180 OA 
HETATM   34  O   UNL     1      -6.475  21.131  63.872  1.00  0.00    -0.316 OA 
HETATM   35  C   UNL     1      -6.973  18.349  66.306  1.00  0.00    -0.243 C  
HETATM   36  C   UNL     1      -6.345  20.570  64.957  1.00  0.00    -0.287 C  
HETATM   37  C   UNL     1      -7.902  20.074  67.013  1.00  0.00    -0.310 C  
HETATM   38  C   UNL     1      -7.405  19.661  65.616  1.00  0.00    -0.270 C  
ENDBRANCH  31  32
ENDBRANCH   8  31
ENDBRANCH   2   3
TORSDOF 9
ENDMDL
MODEL      219
REMARK 921   NORMALIZED FREE ENERGY PREDICTED BY IDOCK:   -5.19 KCAL/MOL
REMARK 922        TOTAL FREE ENERGY PREDICTED BY IDOCK:   -9.35 KCAL/MOL
REMARK 923 INTER-LIGAND FREE ENERGY PREDICTED BY IDOCK:   -7.18 KCAL/MOL
REMARK 924 INTRA-LIGAND FREE ENERGY PREDICTED BY IDOCK:   -2.17 KCAL/MOL
REMARK 927      BINDING AFFINITY PREDICTED BY RF-SCORE:    0.00 PKD
ROOT
HETATM    1  C   UNL     1      -6.461  11.137  68.471  1.00  0.00    -0.058 C  
HETATM    2  C   UNL     1      -7.874  11.312  69.002  1.00  0.00    -0.079 C  
ENDROOT
BRANCH   2   3
HETATM    3  C   UNL     1      -8.936  10.971  67.981  1.00  0.00    -0.145 A  
HETATM    4  C   UNL     1      -9.181   9.599  67.822  1.00  0.00    -0.135 A  
HETATM    5  C   UNL     1     -10.001   9.108  66.803  1.00  0.00    -0.322 A  
HETATM    6  C   UNL     1     -10.632  10.001  65.946  1.00  0.00     0.001 A  
HETATM    7  C   UNL     1     -10.454  11.382  66.136  1.00  0.00    -0.303 A  
HETATM    8  C   UNL     1      -9.625  11.893  67.162  1.00  0.00    -0.192 A  
BRANCH   5   9
HETATM    9  C   UNL     1     -10.024   7.628  66.630  1.00  0.00    -0.214 C  
HETATM   10  C   UNL     1     -11.180   6.819  67.156  1.00  0.00    -0.276 C  
BRANCH   9  11
HETATM   11  N   UNL     1      -9.007   7.099  66.011  1.00  0.00    -0.278 NA 
HETATM   12  H   UNL     1      -9.035   6.762  65.049  1.00  0.00     0.000 HD 
BRANCH  11  13
HETATM   13  O   UNL     1      -7.874   7.048  66.822  1.00  0.00    -0.103 OA 
BRANCH  13  14
HETATM   14  C   UNL     1      -7.756   5.719  67.317  1.00  0.00    -0.101 C  
BRANCH  14  15
HETATM   15  C   UNL     1      -7.949   5.771  68.801  1.00  0.00    -0.101 A  
HETATM   16  F   UNL     1      -7.899   8.512  72.839  1.00  0.00    -0.189 F  
HETATM   17  F   UNL     1      -6.687   8.996  71.118  1.00  0.00    -0.061 F  
HETATM   18  C   UNL     1      -8.143   4.605  69.529  1.00  0.00    -0.065 A  
HETATM   19  F   UNL     1      -8.830   9.333  71.051  1.00  0.00    -0.236 F  
HETATM   20  C   UNL     1      -8.366   4.671  70.900  1.00  0.00    -0.097 A  
HETATM   21  C   UNL     1      -7.867   6.983  69.487  1.00  0.00    -0.119 A  
HETATM   22  C   UNL     1      -8.446   5.898  71.593  1.00  0.00    -0.128 A  
HETATM   23  C   UNL     1      -7.885   8.448  71.481  1.00  0.00    -0.120 C  
HETATM   24  C   UNL     1      -8.081   7.068  70.882  1.00  0.00    -0.109 A  
BRANCH  22  25
HETATM   25  C   UNL     1      -8.956   5.932  73.041  1.00  0.00    -0.121 C  
HETATM   26  C   UNL     1     -10.297   6.694  73.168  1.00  0.00    -0.256 C  
HETATM   27  C   UNL     1     -11.445   5.942  72.501  1.00  0.00    -0.347 C  
HETATM   28  C   UNL     1     -11.651   4.583  73.152  1.00  0.00    -0.221 C  
HETATM   29  C   UNL     1     -10.370   3.761  73.227  1.00  0.00    -0.242 C  
HETATM   30  C   UNL     1      -9.161   4.559  73.739  1.00  0.00    -0.105 C  
ENDBRANCH  22  25
ENDBRANCH  14  15
ENDBRANCH  13  14
ENDBRANCH  11  13
ENDBRANCH   9  11
ENDBRANCH   5   9
BRANCH   8  31
HETATM   31  C   UNL     1      -9.395  13.396  67.267  1.00  0.00    -0.233 C  
BRANCH  31  32
HETATM   32  N   UNL     1      -9.972  14.062  68.460  1.00  0.00    -0.231 NA 
HETATM   33  O   UNL     1     -10.842  15.273  71.139  1.00  0.00    -0.281 OA 
HETATM   34  O   UNL     1     -13.009  15.828  70.899  1.00  0.00    -0.468 OA 
HETATM   35  C   UNL     1     -10.563  15.383  68.119  1.00  0.00    -0.263 C  
HETATM   36  C   UNL     1     -11.973  15.409  70.390  1.00  0.00    -0.354 C  
HETATM   37  C   UNL     1     -11.358  13.534  68.656  1.00  0.00    -0.288 C  
HETATM   38  C   UNL     1     -11.823  14.979  68.915  1.00  0.00    -0.337 C  
ENDBRANCH  31  32
ENDBRANCH   8  31
ENDBRANCH   2   3
TORSDOF 9
ENDMDL
MODEL      220
REMARK 921   NORMALIZED FREE ENERGY PREDICTED BY IDOCK:   -5.18 KCAL/MOL
REMARK 922        TOTAL FREE ENERGY PREDICTED BY IDOCK:   -9.34 KCAL/MOL
REMARK 923 INTER-LIGAND FREE ENERGY PREDICTED BY IDOCK:   -8.19 KCAL/MOL
REMARK 924 INTRA-LIGAND FREE ENERGY PREDICTED BY IDOCK:   -1.14 KCAL/MOL
REMARK 927      BINDING AFFINITY PREDICTED BY RF-SCORE:    0.00 PKD
ROOT
HETATM    1  C   UNL     1      -6.812   6.799  69.706  1.00  0.00    -0.054 C  
HETATM    2  C   UNL     1      -8.222   7.009  70.232  1.00  0.00    -0.128 C  
ENDROOT
BRANCH   2   3
HETATM    3  C   UNL     1      -8.838   8.311  69.773  1.00  0.00    -0.142 A  
HETATM    4  C   UNL     1      -8.247   8.871  68.630  1.00  0.00    -0.116 A  
HETATM    5  C   UNL     1      -8.577  10.151  68.178  1.00  0.00    -0.118 A  
HETATM    6  C   UNL     1      -9.552  10.879  68.850  1.00  0.00    -0.192 A  
HETATM    7  C   UNL     1     -10.204  10.305  69.953  1.00  0.00    -0.250 A  
HETATM    8  C   UNL     1      -9.878   9.011  70.423  1.00  0.00    -0.242 A  
BRANCH   5   9
HETATM    9  C   UNL     1      -7.742  10.696  67.071  1.00  0.00    -0.117 C  
HETATM   10  C   UNL     1      -8.310  10.825  65.683  1.00  0.00    -0.144 C  
BRANCH   9  11
HETATM   11  N   UNL     1      -6.524  11.043  67.378  1.00  0.00    -0.063 NA 
HETATM   12  H   UNL     1      -5.840  10.415  67.802  1.00  0.00     0.000 HD 
BRANCH  11  13
HETATM   13  O   UNL     1      -6.267  12.376  67.059  1.00  0.00    -0.191 OA 
BRANCH  13  14
HETATM   14  C   UNL     1      -6.667  13.171  68.169  1.00  0.00    -0.111 C  
BRANCH  14  15
HETATM   15  C   UNL     1      -7.391  14.366  67.631  1.00  0.00    -0.197 A  
HETATM   16  F   UNL     1     -11.023  16.027  64.825  1.00  0.00    -0.420 F  
HETATM   17  F   UNL     1     -10.076  14.120  64.454  1.00  0.00    -0.418 F  
HETATM   18  C   UNL     1      -6.898  15.645  67.845  1.00  0.00    -0.159 A  
HETATM   19  F   UNL     1     -11.428  14.338  66.137  1.00  0.00    -0.323 F  
HETATM   20  C   UNL     1      -7.605  16.749  67.378  1.00  0.00    -0.188 A  
HETATM   21  C   UNL     1      -8.534  14.211  66.844  1.00  0.00    -0.117 A  
HETATM   22  C   UNL     1      -8.845  16.626  66.718  1.00  0.00    -0.259 A  
HETATM   23  C   UNL     1     -10.433  14.977  65.457  1.00  0.00    -0.365 C  
HETATM   24  C   UNL     1      -9.259  15.321  66.353  1.00  0.00    -0.342 A  
BRANCH  22  25
HETATM   25  C   UNL     1      -9.708  17.871  66.463  1.00  0.00    -0.331 C  
HETATM   26  C   UNL     1     -10.904  17.960  67.441  1.00  0.00    -0.218 C  
HETATM   27  C   UNL     1     -10.451  18.241  68.871  1.00  0.00    -0.041 C  
HETATM   28  C   UNL     1      -9.718  19.571  68.954  1.00  0.00    -0.497 C  
HETATM   29  C   UNL     1      -8.585  19.688  67.941  1.00  0.00    -0.360 C  
HETATM   30  C   UNL     1      -8.984  19.244  66.524  1.00  0.00    -0.373 C  
ENDBRANCH  22  25
ENDBRANCH  14  15
ENDBRANCH  13  14
ENDBRANCH  11  13
ENDBRANCH   9  11
ENDBRANCH   5   9
BRANCH   8  31
HETATM   31  C   UNL     1     -10.553   8.473  71.679  1.00  0.00    -0.283 C  
BRANCH  31  32
HETATM   32  N   UNL     1     -10.430   7.013  71.910  1.00  0.00    -0.200 NA 
HETATM   33  O   UNL     1     -10.019   3.975  71.998  1.00  0.00    -0.168 OA 
HETATM   34  O   UNL     1     -11.313   3.219  73.675  1.00  0.00    -0.224 OA 
HETATM   35  C   UNL     1     -10.050   6.710  73.315  1.00  0.00    -0.212 C  
HETATM   36  C   UNL     1     -10.859   4.175  73.053  1.00  0.00    -0.164 C  
HETATM   37  C   UNL     1     -11.796   6.477  72.202  1.00  0.00    -0.305 C  
HETATM   38  C   UNL     1     -11.179   5.656  73.350  1.00  0.00    -0.158 C  
ENDBRANCH  31  32
ENDBRANCH   8  31
ENDBRANCH   2   3
TORSDOF 9
ENDMDL
MODEL      221
REMARK 921   NORMALIZED FREE ENERGY PREDICTED BY IDOCK:   -5.17 KCAL/MOL
REMARK 922        TOTAL FREE ENERGY PREDICTED BY IDOCK:   -9.31 KCAL/MOL
REMARK 923 INTER-LIGAND FREE ENERGY PREDICTED BY IDOCK:   -8.93 KCAL/MOL
REMARK 924 INTRA-LIGAND FREE ENERGY PREDICTED BY IDOCK:   -0.38 KCAL/MOL
REMARK 927      BINDING AFFINITY PREDICTED BY RF-SCORE:    0.00 PKD
ROOT
HETATM    1  C   UNL     1      -7.641  10.012  62.338  1.00  0.00    -0.134 C  
HETATM    2  C   UNL     1      -7.366   9.286  63.645  1.00  0.00    -0.101 C  
ENDROOT
BRANCH   2   3
HETATM    3  C   UNL     1      -8.460   9.479  64.671  1.00  0.00    -0.177 A  
HETATM    4  C   UNL     1      -9.543  10.257  64.237  1.00  0.00    -0.375 A  
HETATM    5  C   UNL     1     -10.550  10.674  65.110  1.00  0.00    -0.190 A  
HETATM    6  C   UNL     1     -10.508  10.273  66.439  1.00  0.00    -0.233 A  
HETATM    7  C   UNL     1      -9.469   9.434  66.874  1.00  0.00    -0.204 A  
HETATM    8  C   UNL     1      -8.441   9.005  66.001  1.00  0.00    -0.138 A  
BRANCH   5   9
HETATM    9  C   UNL     1     -11.535  11.650  64.563  1.00  0.00    -0.198 C  
HETATM   10  C   UNL     1     -11.511  12.019  63.104  1.00  0.00    -0.254 C  
BRANCH   9  11
HETATM   11  N   UNL     1     -12.394  12.146  65.410  1.00  0.00    -0.479 NA 
HETATM   12  H   UNL     1     -13.370  11.856  65.470  1.00  0.00     0.000 HD 
BRANCH  11  13
HETATM   13  O   UNL     1     -11.817  13.121  66.224  1.00  0.00    -0.363 OA 
BRANCH  13  14
HETATM   14  C   UNL     1     -11.085  14.006  65.384  1.00  0.00    -0.318 C  
BRANCH  14  15
HETATM   15  C   UNL     1     -10.846  15.267  66.157  1.00  0.00    -0.320 A  
HETATM   16  F   UNL     1     -10.812  17.441  70.526  1.00  0.00     0.027 F  
HETATM   17  F   UNL     1     -12.086  15.747  70.105  1.00  0.00    -0.329 F  
HETATM   18  C   UNL     1     -10.611  16.464  65.498  1.00  0.00    -0.346 A  
HETATM   19  F   UNL     1      -9.952  15.448  70.363  1.00  0.00    -0.291 F  
HETATM   20  C   UNL     1     -10.345  17.619  66.228  1.00  0.00    -0.342 A  
HETATM   21  C   UNL     1     -10.925  15.272  67.550  1.00  0.00    -0.315 A  
HETATM   22  C   UNL     1     -10.263  17.618  67.636  1.00  0.00    -0.351 A  
HETATM   23  C   UNL     1     -10.868  16.290  69.804  1.00  0.00    -0.356 C  
HETATM   24  C   UNL     1     -10.668  16.438  68.308  1.00  0.00    -0.337 A  
BRANCH  22  25
HETATM   25  C   UNL     1      -9.708  18.845  68.375  1.00  0.00    -0.432 C  
HETATM   26  C   UNL     1      -8.264  18.614  68.882  1.00  0.00    -0.228 C  
HETATM   27  C   UNL     1      -7.264  18.523  67.733  1.00  0.00    -0.228 C  
HETATM   28  C   UNL     1      -7.246  19.815  66.930  1.00  0.00    -0.241 C  
HETATM   29  C   UNL     1      -8.633  20.251  66.474  1.00  0.00    -0.269 C  
HETATM   30  C   UNL     1      -9.691  20.183  67.587  1.00  0.00    -0.551 C  
ENDBRANCH  22  25
ENDBRANCH  14  15
ENDBRANCH  13  14
ENDBRANCH  11  13
ENDBRANCH   9  11
ENDBRANCH   5   9
BRANCH   8  31
HETATM   31  C   UNL     1      -7.289   8.171  66.546  1.00  0.00    -0.081 C  
BRANCH  31  32
HETATM   32  N   UNL     1      -7.505   6.704  66.577  1.00  0.00    -0.077 NA 
HETATM   33  O   UNL     1      -7.583   3.650  66.842  1.00  0.00    -0.078 OA 
HETATM   34  O   UNL     1      -9.079   2.929  65.325  1.00  0.00    -0.142 OA 
HETATM   35  C   UNL     1      -8.939   6.364  66.773  1.00  0.00    -0.130 C  
HETATM   36  C   UNL     1      -8.534   3.873  65.892  1.00  0.00    -0.110 C  
HETATM   37  C   UNL     1      -7.622   6.226  65.164  1.00  0.00    -0.092 C  
HETATM   38  C   UNL     1      -8.819   5.362  65.603  1.00  0.00    -0.153 C  
ENDBRANCH  31  32
ENDBRANCH   8  31
ENDBRANCH   2   3
TORSDOF 9
ENDMDL
MODEL      222
REMARK 921   NORMALIZED FREE ENERGY PREDICTED BY IDOCK:   -5.15 KCAL/MOL
REMARK 922        TOTAL FREE ENERGY PREDICTED BY IDOCK:   -9.29 KCAL/MOL
REMARK 923 INTER-LIGAND FREE ENERGY PREDICTED BY IDOCK:   -8.03 KCAL/MOL
REMARK 924 INTRA-LIGAND FREE ENERGY PREDICTED BY IDOCK:   -1.26 KCAL/MOL
REMARK 927      BINDING AFFINITY PREDICTED BY RF-SCORE:    0.00 PKD
ROOT
HETATM    1  C   UNL     1     -13.002  15.600  72.686  1.00  0.00    -0.554 C  
HETATM    2  C   UNL     1     -11.813  15.959  71.809  1.00  0.00    -0.579 C  
ENDROOT
BRANCH   2   3
HETATM    3  C   UNL     1     -11.574  14.960  70.699  1.00  0.00    -0.341 A  
HETATM    4  C   UNL     1     -12.262  13.745  70.842  1.00  0.00    -0.427 A  
HETATM    5  C   UNL     1     -12.020  12.655  70.004  1.00  0.00    -0.377 A  
HETATM    6  C   UNL     1     -11.104  12.784  68.967  1.00  0.00    -0.285 A  
HETATM    7  C   UNL     1     -10.458  14.016  68.766  1.00  0.00    -0.238 A  
HETATM    8  C   UNL     1     -10.693  15.127  69.609  1.00  0.00    -0.289 A  
BRANCH   5   9
HETATM    9  C   UNL     1     -12.677  11.373  70.382  1.00  0.00    -0.092 C  
HETATM   10  C   UNL     1     -13.382  11.240  71.705  1.00  0.00    -0.371 C  
BRANCH   9  11
HETATM   11  N   UNL     1     -12.602  10.402  69.514  1.00  0.00    -0.637 NA 
HETATM   12  H   UNL     1     -13.068  10.410  68.607  1.00  0.00     0.000 HD 
BRANCH  11  13
HETATM   13  O   UNL     1     -11.809   9.352  69.976  1.00  0.00    -0.047 OA 
BRANCH  13  14
HETATM   14  C   UNL     1     -10.484   9.846  70.128  1.00  0.00    -0.285 C  
BRANCH  14  15
HETATM   15  C   UNL     1      -9.753   9.580  68.848  1.00  0.00    -0.166 A  
HETATM   16  F   UNL     1      -6.122  10.894  65.863  1.00  0.00    -0.110 F  
HETATM   17  F   UNL     1      -7.088  12.312  67.177  1.00  0.00    -0.130 F  
HETATM   18  C   UNL     1     -10.233   8.646  67.942  1.00  0.00    -0.273 A  
HETATM   19  F   UNL     1      -5.724  10.839  68.002  1.00  0.00    -0.043 F  
HETATM   20  C   UNL     1      -9.520   8.375  66.778  1.00  0.00    -0.255 A  
HETATM   21  C   UNL     1      -8.616  10.317  68.512  1.00  0.00    -0.126 A  
HETATM   22  C   UNL     1      -8.284   8.993  66.491  1.00  0.00    -0.114 A  
HETATM   23  C   UNL     1      -6.717  11.000  67.081  1.00  0.00    -0.096 C  
HETATM   24  C   UNL     1      -7.884  10.063  67.330  1.00  0.00    -0.102 A  
BRANCH  22  25
HETATM   25  C   UNL     1      -7.412   8.470  65.340  1.00  0.00    -0.086 C  
HETATM   26  C   UNL     1      -6.073   7.881  65.846  1.00  0.00    -0.038 C  
HETATM   27  C   UNL     1      -6.279   6.588  66.629  1.00  0.00    -0.040 C  
HETATM   28  C   UNL     1      -6.924   5.523  65.754  1.00  0.00    -0.066 C  
HETATM   29  C   UNL     1      -8.195   6.008  65.068  1.00  0.00    -0.136 C  
HETATM   30  C   UNL     1      -8.048   7.394  64.418  1.00  0.00    -0.070 C  
ENDBRANCH  22  25
ENDBRANCH  14  15
ENDBRANCH  13  14
ENDBRANCH  11  13
ENDBRANCH   9  11
ENDBRANCH   5   9
BRANCH   8  31
HETATM   31  C   UNL     1      -9.899  16.411  69.401  1.00  0.00    -0.186 C  
BRANCH  31  32
HETATM   32  N   UNL     1     -10.140  17.127  68.125  1.00  0.00    -0.294 NA 
HETATM   33  O   UNL     1     -10.486  18.263  65.298  1.00  0.00    -0.492 OA 
HETATM   34  O   UNL     1     -10.689  20.490  65.540  1.00  0.00    -0.034 OA 
HETATM   35  C   UNL     1     -11.378  17.948  68.182  1.00  0.00     0.692 C  
HETATM   36  C   UNL     1     -10.598  19.384  66.066  1.00  0.00    -0.480 C  
HETATM   37  C   UNL     1      -9.343  18.392  68.149  1.00  0.00    -0.317 C  
HETATM   38  C   UNL     1     -10.575  19.126  67.587  1.00  0.00    -0.546 C  
ENDBRANCH  31  32
ENDBRANCH   8  31
ENDBRANCH   2   3
TORSDOF 9
ENDMDL
MODEL      223
REMARK 921   NORMALIZED FREE ENERGY PREDICTED BY IDOCK:   -5.14 KCAL/MOL
REMARK 922        TOTAL FREE ENERGY PREDICTED BY IDOCK:   -9.28 KCAL/MOL
REMARK 923 INTER-LIGAND FREE ENERGY PREDICTED BY IDOCK:   -8.29 KCAL/MOL
REMARK 924 INTRA-LIGAND FREE ENERGY PREDICTED BY IDOCK:   -0.99 KCAL/MOL
REMARK 927      BINDING AFFINITY PREDICTED BY RF-SCORE:    0.00 PKD
ROOT
HETATM    1  C   UNL     1      -6.795  10.055  69.803  1.00  0.00    -0.094 C  
HETATM    2  C   UNL     1      -7.871  10.583  68.869  1.00  0.00    -0.124 C  
ENDROOT
BRANCH   2   3
HETATM    3  C   UNL     1      -9.243  10.614  69.504  1.00  0.00     0.008 A  
HETATM    4  C   UNL     1      -9.508   9.555  70.385  1.00  0.00    -0.317 A  
HETATM    5  C   UNL     1     -10.780   9.338  70.919  1.00  0.00    -0.371 A  
HETATM    6  C   UNL     1     -11.808  10.219  70.608  1.00  0.00    -0.439 A  
HETATM    7  C   UNL     1     -11.543  11.325  69.784  1.00  0.00    -0.408 A  
HETATM    8  C   UNL     1     -10.260  11.556  69.234  1.00  0.00     0.049 A  
BRANCH   5   9
HETATM    9  C   UNL     1     -10.968   8.074  71.685  1.00  0.00    -0.239 C  
HETATM   10  C   UNL     1     -11.966   8.007  72.810  1.00  0.00    -0.246 C  
BRANCH   9  11
HETATM   11  N   UNL     1     -10.230   7.061  71.326  1.00  0.00    -0.191 NA 
HETATM   12  H   UNL     1      -9.216   7.023  71.439  1.00  0.00     0.000 HD 
BRANCH  11  13
HETATM   13  O   UNL     1     -10.992   6.034  70.770  1.00  0.00    -0.278 OA 
BRANCH  13  14
HETATM   14  C   UNL     1     -11.454   6.479  69.500  1.00  0.00    -0.319 C  
BRANCH  14  15
HETATM   15  C   UNL     1     -10.678   5.743  68.453  1.00  0.00    -0.283 A  
HETATM   16  F   UNL     1      -6.935   2.768  67.473  1.00  0.00    -0.045 F  
HETATM   17  F   UNL     1      -6.935   4.071  69.197  1.00  0.00    -0.043 F  
HETATM   18  C   UNL     1     -10.936   5.951  67.106  1.00  0.00    -0.289 A  
HETATM   19  F   UNL     1      -8.195   2.304  69.186  1.00  0.00    -0.057 F  
HETATM   20  C   UNL     1     -10.238   5.227  66.144  1.00  0.00    -0.223 A  
HETATM   21  C   UNL     1      -9.633   4.889  68.811  1.00  0.00    -0.219 A  
HETATM   22  C   UNL     1      -9.288   4.242  66.486  1.00  0.00    -0.174 A  
HETATM   23  C   UNL     1      -7.759   3.328  68.399  1.00  0.00    -0.055 C  
HETATM   24  C   UNL     1      -8.907   4.153  67.848  1.00  0.00    -0.131 A  
BRANCH  22  25
HETATM   25  C   UNL     1      -8.745   3.290  65.409  1.00  0.00    -0.124 C  
HETATM   26  C   UNL     1      -9.871   2.725  64.511  1.00  0.00    -0.048 C  
HETATM   27  C   UNL     1     -10.490   3.802  63.625  1.00  0.00    -0.251 C  
HETATM   28  C   UNL     1      -9.446   4.399  62.693  1.00  0.00    -0.118 C  
HETATM   29  C   UNL     1      -8.201   4.881  63.428  1.00  0.00    -0.110 C  
HETATM   30  C   UNL     1      -7.665   3.867  64.452  1.00  0.00    -0.080 C  
ENDBRANCH  22  25
ENDBRANCH  14  15
ENDBRANCH  13  14
ENDBRANCH  11  13
ENDBRANCH   9  11
ENDBRANCH   5   9
BRANCH   8  31
HETATM   31  C   UNL     1     -10.050  12.721  68.275  1.00  0.00    -0.237 C  
BRANCH  31  32
HETATM   32  N   UNL     1     -10.961  12.773  67.105  1.00  0.00    -0.256 NA 
HETATM   33  O   UNL     1     -13.118  12.673  64.928  1.00  0.00    -0.850 OA 
HETATM   34  O   UNL     1     -12.062  13.077  62.983  1.00  0.00    -0.448 OA 
HETATM   35  C   UNL     1     -10.830  14.057  66.365  1.00  0.00    -0.299 C  
HETATM   36  C   UNL     1     -12.009  13.005  64.208  1.00  0.00    -0.402 C  
HETATM   37  C   UNL     1     -10.282  12.088  65.962  1.00  0.00    -0.226 C  
HETATM   38  C   UNL     1     -10.740  13.244  65.055  1.00  0.00    -0.346 C  
ENDBRANCH  31  32
ENDBRANCH   8  31
ENDBRANCH   2   3
TORSDOF 9
ENDMDL
MODEL      224
REMARK 921   NORMALIZED FREE ENERGY PREDICTED BY IDOCK:   -5.14 KCAL/MOL
REMARK 922        TOTAL FREE ENERGY PREDICTED BY IDOCK:   -9.28 KCAL/MOL
REMARK 923 INTER-LIGAND FREE ENERGY PREDICTED BY IDOCK:   -8.00 KCAL/MOL
REMARK 924 INTRA-LIGAND FREE ENERGY PREDICTED BY IDOCK:   -1.27 KCAL/MOL
REMARK 927      BINDING AFFINITY PREDICTED BY RF-SCORE:    0.00 PKD
ROOT
HETATM    1  C   UNL     1     -11.293  16.411  69.032  1.00  0.00    -0.253 C  
HETATM    2  C   UNL     1     -10.172  16.917  68.140  1.00  0.00    -0.311 C  
ENDROOT
BRANCH   2   3
HETATM    3  C   UNL     1      -8.892  16.127  68.290  1.00  0.00    -0.188 A  
HETATM    4  C   UNL     1      -9.026  14.745  68.086  1.00  0.00    -0.179 A  
HETATM    5  C   UNL     1      -7.985  13.853  68.355  1.00  0.00    -0.144 A  
HETATM    6  C   UNL     1      -6.764  14.346  68.796  1.00  0.00    -0.093 A  
HETATM    7  C   UNL     1      -6.590  15.733  68.938  1.00  0.00    -0.119 A  
HETATM    8  C   UNL     1      -7.636  16.648  68.670  1.00  0.00    -0.214 A  
BRANCH   5   9
HETATM    9  C   UNL     1      -8.321  12.404  68.277  1.00  0.00    -0.169 C  
HETATM   10  C   UNL     1      -7.664  11.525  67.247  1.00  0.00    -0.150 C  
BRANCH   9  11
HETATM   11  N   UNL     1      -9.197  11.962  69.136  1.00  0.00    -0.272 NA 
HETATM   12  H   UNL     1      -9.154  12.141  70.139  1.00  0.00     0.000 HD 
BRANCH  11  13
HETATM   13  O   UNL     1     -10.200  11.216  68.518  1.00  0.00    -0.183 OA 
BRANCH  13  14
HETATM   14  C   UNL     1     -11.216  10.976  69.484  1.00  0.00    -0.279 C  
BRANCH  14  15
HETATM   15  C   UNL     1     -11.085   9.554  69.935  1.00  0.00    -0.244 A  
HETATM   16  F   UNL     1      -9.665   5.021  68.808  1.00  0.00    -0.161 F  
HETATM   17  F   UNL     1     -10.299   6.428  67.294  1.00  0.00    -0.164 F  
HETATM   18  C   UNL     1     -11.639   9.140  71.138  1.00  0.00    -0.386 A  
HETATM   19  F   UNL     1      -8.365   6.675  68.248  1.00  0.00    -0.114 F  
HETATM   20  C   UNL     1     -11.469   7.827  71.565  1.00  0.00    -0.298 A  
HETATM   21  C   UNL     1     -10.465   8.604  69.121  1.00  0.00    -0.223 A  
HETATM   22  C   UNL     1     -10.711   6.888  70.835  1.00  0.00    -0.258 A  
HETATM   23  C   UNL     1      -9.664   6.347  68.502  1.00  0.00    -0.132 C  
HETATM   24  C   UNL     1     -10.293   7.264  69.534  1.00  0.00    -0.230 A  
BRANCH  22  25
HETATM   25  C   UNL     1     -10.332   5.542  71.472  1.00  0.00    -0.282 C  
HETATM   26  C   UNL     1      -8.801   5.387  71.634  1.00  0.00    -0.143 C  
HETATM   27  C   UNL     1      -8.238   6.343  72.681  1.00  0.00    -0.108 C  
HETATM   28  C   UNL     1      -8.852   6.072  74.046  1.00  0.00    -0.126 C  
HETATM   29  C   UNL     1     -10.375   6.055  74.019  1.00  0.00    -0.301 C  
HETATM   30  C   UNL     1     -10.956   5.229  72.860  1.00  0.00    -0.343 C  
ENDBRANCH  22  25
ENDBRANCH  14  15
ENDBRANCH  13  14
ENDBRANCH  11  13
ENDBRANCH   9  11
ENDBRANCH   5   9
BRANCH   8  31
HETATM   31  C   UNL     1      -7.421  18.134  68.927  1.00  0.00    -0.234 C  
BRANCH  31  32
HETATM   32  N   UNL     1      -6.792  18.901  67.825  1.00  0.00    -0.207 NA 
HETATM   33  O   UNL     1      -5.239  20.648  65.840  1.00  0.00    -0.172 OA 
HETATM   34  O   UNL     1      -6.533  20.814  64.008  1.00  0.00    -0.301 OA 
HETATM   35  C   UNL     1      -6.733  18.108  66.568  1.00  0.00    -0.212 C  
HETATM   36  C   UNL     1      -6.347  20.320  65.117  1.00  0.00    -0.276 C  
HETATM   37  C   UNL     1      -7.849  19.752  67.195  1.00  0.00    -0.273 C  
HETATM   38  C   UNL     1      -7.304  19.332  65.818  1.00  0.00    -0.260 C  
ENDBRANCH  31  32
ENDBRANCH   8  31
ENDBRANCH   2   3
TORSDOF 9
ENDMDL
MODEL      225
REMARK 921   NORMALIZED FREE ENERGY PREDICTED BY IDOCK:   -5.13 KCAL/MOL
REMARK 922        TOTAL FREE ENERGY PREDICTED BY IDOCK:   -9.25 KCAL/MOL
REMARK 923 INTER-LIGAND FREE ENERGY PREDICTED BY IDOCK:   -7.92 KCAL/MOL
REMARK 924 INTRA-LIGAND FREE ENERGY PREDICTED BY IDOCK:   -1.33 KCAL/MOL
REMARK 927      BINDING AFFINITY PREDICTED BY RF-SCORE:    0.00 PKD
ROOT
HETATM    1  C   UNL     1      -5.786   8.930  64.358  1.00  0.00    -0.064 C  
HETATM    2  C   UNL     1      -6.314   8.594  65.744  1.00  0.00    -0.056 C  
ENDROOT
BRANCH   2   3
HETATM    3  C   UNL     1      -7.816   8.726  65.853  1.00  0.00    -0.102 A  
HETATM    4  C   UNL     1      -8.356   9.849  65.209  1.00  0.00    -0.153 A  
HETATM    5  C   UNL     1      -9.697  10.213  65.357  1.00  0.00    -0.355 A  
HETATM    6  C   UNL     1     -10.536   9.419  66.128  1.00  0.00    -0.027 A  
HETATM    7  C   UNL     1     -10.028   8.251  66.723  1.00  0.00    -0.355 A  
HETATM    8  C   UNL     1      -8.672   7.872  66.582  1.00  0.00    -0.154 A  
BRANCH   5   9
HETATM    9  C   UNL     1     -10.093  11.526  64.775  1.00  0.00    -0.269 C  
HETATM   10  C   UNL     1     -11.026  11.585  63.596  1.00  0.00    -0.482 C  
BRANCH   9  11
HETATM   11  N   UNL     1      -9.591  12.588  65.341  1.00  0.00    -0.456 NA 
HETATM   12  H   UNL     1      -9.221  13.388  64.827  1.00  0.00     0.000 HD 
BRANCH  11  13
HETATM   13  O   UNL     1      -9.620  12.499  66.732  1.00  0.00    -0.218 OA 
BRANCH  13  14
HETATM   14  C   UNL     1     -10.870  13.018  67.171  1.00  0.00    -0.260 C  
BRANCH  14  15
HETATM   15  C   UNL     1     -11.203  12.354  68.472  1.00  0.00    -0.321 A  
HETATM   16  F   UNL     1     -13.072  12.847  72.954  1.00  0.00    -0.384 F  
HETATM   17  F   UNL     1     -12.168  14.507  71.906  1.00  0.00    -0.363 F  
HETATM   18  C   UNL     1     -10.790  11.055  68.727  1.00  0.00    -0.253 A  
HETATM   19  F   UNL     1     -14.121  13.786  71.294  1.00  0.00    -0.272 F  
HETATM   20  C   UNL     1     -11.146  10.435  69.921  1.00  0.00    -0.367 A  
HETATM   21  C   UNL     1     -11.873  13.055  69.476  1.00  0.00    -0.385 A  
HETATM   22  C   UNL     1     -11.957  11.067  70.886  1.00  0.00    -0.391 A  
HETATM   23  C   UNL     1     -12.892  13.365  71.709  1.00  0.00    -0.289 C  
HETATM   24  C   UNL     1     -12.233  12.444  70.699  1.00  0.00    -0.368 A  
BRANCH  22  25
HETATM   25  C   UNL     1     -12.539  10.255  72.053  1.00  0.00    -0.315 C  
HETATM   26  C   UNL     1     -14.045   9.953  71.857  1.00  0.00     0.084 C  
HETATM   27  C   UNL     1     -14.286   8.977  70.709  1.00  0.00     0.385 C  
HETATM   28  C   UNL     1     -13.604   7.645  70.981  1.00  0.00    -0.084 C  
HETATM   29  C   UNL     1     -12.128   7.794  71.331  1.00  0.00    -0.335 C  
HETATM   30  C   UNL     1     -11.854   8.897  72.366  1.00  0.00    -0.292 C  
ENDBRANCH  22  25
ENDBRANCH  14  15
ENDBRANCH  13  14
ENDBRANCH  11  13
ENDBRANCH   9  11
ENDBRANCH   5   9
BRANCH   8  31
HETATM   31  C   UNL     1      -8.153   6.646  67.322  1.00  0.00    -0.121 C  
BRANCH  31  32
HETATM   32  N   UNL     1      -8.329   5.345  66.632  1.00  0.00    -0.108 NA 
HETATM   33  O   UNL     1      -8.346   2.533  65.408  1.00  0.00    -0.090 OA 
HETATM   34  O   UNL     1      -9.660   2.653  63.586  1.00  0.00    -0.104 OA 
HETATM   35  C   UNL     1      -9.765   4.986  66.495  1.00  0.00    -0.180 C  
HETATM   36  C   UNL     1      -9.202   3.202  64.584  1.00  0.00    -0.142 C  
HETATM   37  C   UNL     1      -8.289   5.597  65.158  1.00  0.00    -0.146 C  
HETATM   38  C   UNL     1      -9.499   4.657  65.009  1.00  0.00    -0.128 C  
ENDBRANCH  31  32
ENDBRANCH   8  31
ENDBRANCH   2   3
TORSDOF 9
ENDMDL
MODEL      226
REMARK 921   NORMALIZED FREE ENERGY PREDICTED BY IDOCK:   -5.12 KCAL/MOL
REMARK 922        TOTAL FREE ENERGY PREDICTED BY IDOCK:   -9.24 KCAL/MOL
REMARK 923 INTER-LIGAND FREE ENERGY PREDICTED BY IDOCK:   -8.09 KCAL/MOL
REMARK 924 INTRA-LIGAND FREE ENERGY PREDICTED BY IDOCK:   -1.15 KCAL/MOL
REMARK 927      BINDING AFFINITY PREDICTED BY RF-SCORE:    0.00 PKD
ROOT
HETATM    1  C   UNL     1     -10.638   5.495  69.502  1.00  0.00    -0.366 C  
HETATM    2  C   UNL     1      -9.527   4.943  68.624  1.00  0.00    -0.198 C  
ENDROOT
BRANCH   2   3
HETATM    3  C   UNL     1      -8.720   6.024  67.940  1.00  0.00    -0.112 A  
HETATM    4  C   UNL     1      -8.809   7.291  68.537  1.00  0.00    -0.129 A  
HETATM    5  C   UNL     1      -8.269   8.430  67.936  1.00  0.00    -0.127 A  
HETATM    6  C   UNL     1      -7.584   8.306  66.734  1.00  0.00    -0.091 A  
HETATM    7  C   UNL     1      -7.424   7.034  66.159  1.00  0.00    -0.080 A  
HETATM    8  C   UNL     1      -7.967   5.872  66.756  1.00  0.00    -0.102 A  
BRANCH   5   9
HETATM    9  C   UNL     1      -8.598   9.734  68.578  1.00  0.00    -0.120 C  
HETATM   10  C   UNL     1      -8.224   9.991  70.013  1.00  0.00    -0.139 C  
BRANCH   9  11
HETATM   11  N   UNL     1      -9.213  10.610  67.834  1.00  0.00    -0.147 NA 
HETATM   12  H   UNL     1      -8.819  11.514  67.571  1.00  0.00     0.000 HD 
BRANCH  11  13
HETATM   13  O   UNL     1     -10.474  10.164  67.440  1.00  0.00    -0.221 OA 
BRANCH  13  14
HETATM   14  C   UNL     1     -11.414  10.616  68.408  1.00  0.00    -0.259 C  
BRANCH  14  15
HETATM   15  C   UNL     1     -11.414  12.113  68.374  1.00  0.00    -0.356 A  
HETATM   16  F   UNL     1     -12.414  16.257  70.751  1.00  0.00    -0.325 F  
HETATM   17  F   UNL     1     -13.471  14.419  71.169  1.00  0.00    -0.391 F  
HETATM   18  C   UNL     1     -11.119  12.793  67.201  1.00  0.00    -0.315 A  
HETATM   19  F   UNL     1     -11.423  14.658  71.846  1.00  0.00    -0.380 F  
HETATM   20  C   UNL     1     -11.079  14.183  67.195  1.00  0.00    -0.315 A  
HETATM   21  C   UNL     1     -11.781  12.850  69.502  1.00  0.00    -0.387 A  
HETATM   22  C   UNL     1     -11.290  14.948  68.361  1.00  0.00    -0.320 A  
HETATM   23  C   UNL     1     -12.252  14.907  70.792  1.00  0.00    -0.325 C  
HETATM   24  C   UNL     1     -11.756  14.263  69.511  1.00  0.00    -0.366 A  
BRANCH  22  25
HETATM   25  C   UNL     1     -10.974  16.452  68.363  1.00  0.00    -0.353 C  
HETATM   26  C   UNL     1      -9.810  16.800  69.323  1.00  0.00    -0.168 C  
HETATM   27  C   UNL     1      -8.477  16.250  68.825  1.00  0.00    -0.240 C  
HETATM   28  C   UNL     1      -8.120  16.843  67.471  1.00  0.00    -0.188 C  
HETATM   29  C   UNL     1      -9.239  16.698  66.446  1.00  0.00    -0.318 C  
HETATM   30  C   UNL     1     -10.621  17.090  66.992  1.00  0.00    -0.226 C  
ENDBRANCH  22  25
ENDBRANCH  14  15
ENDBRANCH  13  14
ENDBRANCH  11  13
ENDBRANCH   9  11
ENDBRANCH   5   9
BRANCH   8  31
HETATM   31  C   UNL     1      -7.842   4.531  66.044  1.00  0.00    -0.095 C  
BRANCH  31  32
HETATM   32  N   UNL     1      -8.799   4.289  64.937  1.00  0.00    -0.132 NA 
HETATM   33  O   UNL     1     -10.875   4.197  62.682  1.00  0.00    -0.158 OA 
HETATM   34  O   UNL     1     -11.409   2.028  62.413  1.00  0.00    -0.196 OA 
HETATM   35  C   UNL     1      -8.263   3.313  63.951  1.00  0.00    -0.089 C  
HETATM   36  C   UNL     1     -10.709   2.873  62.963  1.00  0.00    -0.211 C  
HETATM   37  C   UNL     1      -9.770   3.244  65.388  1.00  0.00    -0.009 C  
HETATM   38  C   UNL     1      -9.616   2.571  64.012  1.00  0.00    -0.140 C  
ENDBRANCH  31  32
ENDBRANCH   8  31
ENDBRANCH   2   3
TORSDOF 9
ENDMDL
MODEL      227
REMARK 921   NORMALIZED FREE ENERGY PREDICTED BY IDOCK:   -5.10 KCAL/MOL
REMARK 922        TOTAL FREE ENERGY PREDICTED BY IDOCK:   -9.21 KCAL/MOL
REMARK 923 INTER-LIGAND FREE ENERGY PREDICTED BY IDOCK:   -8.36 KCAL/MOL
REMARK 924 INTRA-LIGAND FREE ENERGY PREDICTED BY IDOCK:   -0.86 KCAL/MOL
REMARK 927      BINDING AFFINITY PREDICTED BY RF-SCORE:    0.00 PKD
ROOT
HETATM    1  C   UNL     1      -8.329  10.626  68.858  1.00  0.00    -0.150 C  
HETATM    2  C   UNL     1      -9.631  11.393  68.690  1.00  0.00    -0.179 C  
ENDROOT
BRANCH   2   3
HETATM    3  C   UNL     1     -10.700  10.967  69.670  1.00  0.00    -0.232 A  
HETATM    4  C   UNL     1     -10.613   9.631  70.091  1.00  0.00    -0.320 A  
HETATM    5  C   UNL     1     -11.616   9.030  70.855  1.00  0.00    -0.344 A  
HETATM    6  C   UNL     1     -12.714   9.784  71.250  1.00  0.00    -0.464 A  
HETATM    7  C   UNL     1     -12.782  11.142  70.897  1.00  0.00    -0.438 A  
HETATM    8  C   UNL     1     -11.774  11.763  70.122  1.00  0.00    -0.354 A  
BRANCH   5   9
HETATM    9  C   UNL     1     -11.491   7.561  71.071  1.00  0.00    -0.278 C  
HETATM   10  C   UNL     1     -12.548   6.812  71.837  1.00  0.00    -0.328 C  
BRANCH   9  11
HETATM   11  N   UNL     1     -10.434   6.987  70.568  1.00  0.00    -0.205 NA 
HETATM   12  H   UNL     1      -9.476   7.232  70.819  1.00  0.00     0.000 HD 
BRANCH  11  13
HETATM   13  O   UNL     1     -10.770   5.999  69.644  1.00  0.00    -0.265 OA 
BRANCH  13  14
HETATM   14  C   UNL     1     -11.361   6.641  68.520  1.00  0.00    -0.034 C  
BRANCH  14  15
HETATM   15  C   UNL     1     -10.299   6.792  67.475  1.00  0.00    -0.267 A  
HETATM   16  F   UNL     1      -8.264   9.669  64.099  1.00  0.00    -0.125 F  
HETATM   17  F   UNL     1     -10.341   9.865  64.662  1.00  0.00    -0.321 F  
HETATM   18  C   UNL     1      -9.514   5.710  67.105  1.00  0.00    -0.120 A  
HETATM   19  F   UNL     1      -8.791  10.551  66.018  1.00  0.00    -0.147 F  
HETATM   20  C   UNL     1      -8.501   5.875  66.166  1.00  0.00    -0.132 A  
HETATM   21  C   UNL     1     -10.128   8.004  66.805  1.00  0.00    -0.357 A  
HETATM   22  C   UNL     1      -8.204   7.128  65.590  1.00  0.00    -0.138 A  
HETATM   23  C   UNL     1      -9.109   9.542  65.157  1.00  0.00    -0.228 C  
HETATM   24  C   UNL     1      -9.111   8.188  65.841  1.00  0.00    -0.183 A  
BRANCH  22  25
HETATM   25  C   UNL     1      -6.918   7.313  64.770  1.00  0.00    -0.051 C  
HETATM   26  C   UNL     1      -5.707   6.604  65.421  1.00  0.00    -0.030 C  
HETATM   27  C   UNL     1      -5.838   5.085  65.368  1.00  0.00    -0.018 C  
HETATM   28  C   UNL     1      -5.907   4.599  63.929  1.00  0.00    -0.017 C  
HETATM   29  C   UNL     1      -6.976   5.314  63.112  1.00  0.00    -0.038 C  
HETATM   30  C   UNL     1      -6.963   6.841  63.291  1.00  0.00    -0.055 C  
ENDBRANCH  22  25
ENDBRANCH  14  15
ENDBRANCH  13  14
ENDBRANCH  11  13
ENDBRANCH   9  11
ENDBRANCH   5   9
BRANCH   8  31
HETATM   31  C   UNL     1     -11.943  13.215  69.692  1.00  0.00    -0.306 C  
BRANCH  31  32
HETATM   32  N   UNL     1     -11.291  13.595  68.415  1.00  0.00    -0.275 NA 
HETATM   33  O   UNL     1      -9.588  14.233  65.946  1.00  0.00    -0.274 OA 
HETATM   34  O   UNL     1     -10.758  15.739  64.753  1.00  0.00    -0.500 OA 
HETATM   35  C   UNL     1     -12.188  13.367  67.251  1.00  0.00    -0.233 C  
HETATM   36  C   UNL     1     -10.707  14.977  65.714  1.00  0.00    -0.342 C  
HETATM   37  C   UNL     1     -11.477  15.067  68.224  1.00  0.00    -0.332 C  
HETATM   38  C   UNL     1     -11.833  14.785  66.753  1.00  0.00    -0.272 C  
ENDBRANCH  31  32
ENDBRANCH   8  31
ENDBRANCH   2   3
TORSDOF 9
ENDMDL
MODEL      228
REMARK 921   NORMALIZED FREE ENERGY PREDICTED BY IDOCK:   -5.06 KCAL/MOL
REMARK 922        TOTAL FREE ENERGY PREDICTED BY IDOCK:   -9.16 KCAL/MOL
REMARK 923 INTER-LIGAND FREE ENERGY PREDICTED BY IDOCK:   -7.01 KCAL/MOL
REMARK 924 INTRA-LIGAND FREE ENERGY PREDICTED BY IDOCK:   -2.14 KCAL/MOL
REMARK 927      BINDING AFFINITY PREDICTED BY RF-SCORE:    0.00 PKD
ROOT
HETATM    1  C   UNL     1      -6.158   8.059  71.489  1.00  0.00    -0.035 C  
HETATM    2  C   UNL     1      -7.238   9.100  71.246  1.00  0.00    -0.058 C  
ENDROOT
BRANCH   2   3
HETATM    3  C   UNL     1      -8.017   8.860  69.972  1.00  0.00    -0.109 A  
HETATM    4  C   UNL     1      -7.233   8.763  68.813  1.00  0.00    -0.075 A  
HETATM    5  C   UNL     1      -7.802   8.716  67.538  1.00  0.00    -0.102 A  
HETATM    6  C   UNL     1      -9.185   8.719  67.409  1.00  0.00    -0.158 A  
HETATM    7  C   UNL     1      -9.985   8.743  68.564  1.00  0.00    -0.200 A  
HETATM    8  C   UNL     1      -9.423   8.793  69.861  1.00  0.00    -0.174 A  
BRANCH   5   9
HETATM    9  C   UNL     1      -6.857   8.806  66.390  1.00  0.00    -0.075 C  
HETATM   10  C   UNL     1      -7.094   7.996  65.144  1.00  0.00    -0.063 C  
BRANCH   9  11
HETATM   11  N   UNL     1      -5.841   9.611  66.534  1.00  0.00    -0.054 NA 
HETATM   12  H   UNL     1      -4.944   9.334  66.932  1.00  0.00     0.000 HD 
BRANCH  11  13
HETATM   13  O   UNL     1      -6.129  10.897  66.078  1.00  0.00    -0.127 OA 
BRANCH  13  14
HETATM   14  C   UNL     1      -5.831  11.805  67.133  1.00  0.00    -0.136 C  
BRANCH  14  15
HETATM   15  C   UNL     1      -7.030  12.681  67.327  1.00  0.00    -0.104 A  
HETATM   16  F   UNL     1      -8.714  17.201  68.078  1.00  0.00    -0.203 F  
HETATM   17  F   UNL     1      -6.745  16.594  68.730  1.00  0.00    -0.143 F  
HETATM   18  C   UNL     1      -8.293  12.127  67.478  1.00  0.00    -0.166 A  
HETATM   19  F   UNL     1      -7.122  16.926  66.618  1.00  0.00    -0.197 F  
HETATM   20  C   UNL     1      -9.403  12.954  67.612  1.00  0.00    -0.195 A  
HETATM   21  C   UNL     1      -6.889  14.066  67.430  1.00  0.00    -0.025 A  
HETATM   22  C   UNL     1      -9.306  14.360  67.561  1.00  0.00    -0.198 A  
HETATM   23  C   UNL     1      -7.672  16.392  67.746  1.00  0.00    -0.149 C  
HETATM   24  C   UNL     1      -8.005  14.921  67.577  1.00  0.00    -0.198 A  
BRANCH  22  25
HETATM   25  C   UNL     1     -10.577  15.216  67.445  1.00  0.00    -0.271 C  
HETATM   26  C   UNL     1     -10.580  16.082  66.163  1.00  0.00    -0.302 C  
HETATM   27  C   UNL     1     -10.716  15.234  64.902  1.00  0.00    -0.423 C  
HETATM   28  C   UNL     1     -12.026  14.460  64.910  1.00  0.00    -0.430 C  
HETATM   29  C   UNL     1     -12.232  13.657  66.188  1.00  0.00    -0.490 C  
HETATM   30  C   UNL     1     -11.932  14.456  67.467  1.00  0.00    -0.389 C  
ENDBRANCH  22  25
ENDBRANCH  14  15
ENDBRANCH  13  14
ENDBRANCH  11  13
ENDBRANCH   9  11
ENDBRANCH   5   9
BRANCH   8  31
HETATM   31  C   UNL     1     -10.336   8.909  71.074  1.00  0.00    -0.253 C  
BRANCH  31  32
HETATM   32  N   UNL     1     -10.845   7.632  71.631  1.00  0.00    -0.225 NA 
HETATM   33  O   UNL     1     -12.267   5.099  72.615  1.00  0.00    -0.011 OA 
HETATM   34  O   UNL     1     -10.980   4.259  74.259  1.00  0.00    -0.214 OA 
HETATM   35  C   UNL     1      -9.823   6.554  71.555  1.00  0.00    -0.168 C  
HETATM   36  C   UNL     1     -11.134   5.096  73.373  1.00  0.00    -0.320 C  
HETATM   37  C   UNL     1     -10.647   7.665  73.114  1.00  0.00    -0.379 C  
HETATM   38  C   UNL     1     -10.128   6.217  73.031  1.00  0.00    -0.194 C  
ENDBRANCH  31  32
ENDBRANCH   8  31
ENDBRANCH   2   3
TORSDOF 9
ENDMDL
MODEL      229
REMARK 921   NORMALIZED FREE ENERGY PREDICTED BY IDOCK:   -5.05 KCAL/MOL
REMARK 922        TOTAL FREE ENERGY PREDICTED BY IDOCK:   -9.14 KCAL/MOL
REMARK 923 INTER-LIGAND FREE ENERGY PREDICTED BY IDOCK:   -6.81 KCAL/MOL
REMARK 924 INTRA-LIGAND FREE ENERGY PREDICTED BY IDOCK:   -2.33 KCAL/MOL
REMARK 927      BINDING AFFINITY PREDICTED BY RF-SCORE:    0.00 PKD
ROOT
HETATM    1  C   UNL     1      -7.966   7.813  72.950  1.00  0.00    -0.162 C  
HETATM    2  C   UNL     1      -9.454   7.626  72.704  1.00  0.00    -0.230 C  
ENDROOT
BRANCH   2   3
HETATM    3  C   UNL     1      -9.795   7.454  71.241  1.00  0.00    -0.182 A  
HETATM    4  C   UNL     1      -8.727   7.033  70.434  1.00  0.00    -0.147 A  
HETATM    5  C   UNL     1      -8.824   6.992  69.041  1.00  0.00    -0.134 A  
HETATM    6  C   UNL     1     -10.025   7.334  68.433  1.00  0.00    -0.172 A  
HETATM    7  C   UNL     1     -11.126   7.689  69.230  1.00  0.00     0.066 A  
HETATM    8  C   UNL     1     -11.041   7.737  70.641  1.00  0.00    -0.264 A  
BRANCH   5   9
HETATM    9  C   UNL     1      -7.563   6.711  68.299  1.00  0.00    -0.104 C  
HETATM   10  C   UNL     1      -7.461   5.508  67.400  1.00  0.00    -0.084 C  
BRANCH   9  11
HETATM   11  N   UNL     1      -6.584   7.553  68.476  1.00  0.00    -0.048 NA 
HETATM   12  H   UNL     1      -5.746   7.349  69.021  1.00  0.00     0.000 HD 
BRANCH  11  13
HETATM   13  O   UNL     1      -6.818   8.767  67.830  1.00  0.00    -0.068 OA 
BRANCH  13  14
HETATM   14  C   UNL     1      -6.792   9.792  68.816  1.00  0.00    -0.051 C  
BRANCH  14  15
HETATM   15  C   UNL     1      -7.451  11.002  68.228  1.00  0.00    -0.092 A  
HETATM   16  F   UNL     1     -11.146  12.756  65.565  1.00  0.00    -0.293 F  
HETATM   17  F   UNL     1     -10.402  10.745  65.297  1.00  0.00    -0.311 F  
HETATM   18  C   UNL     1      -6.833  12.242  68.288  1.00  0.00    -0.075 A  
HETATM   19  F   UNL     1     -11.586  11.228  67.051  1.00  0.00    -0.362 F  
HETATM   20  C   UNL     1      -7.478  13.365  67.778  1.00  0.00    -0.160 A  
HETATM   21  C   UNL     1      -8.664  10.889  67.547  1.00  0.00    -0.130 A  
HETATM   22  C   UNL     1      -8.775  13.304  67.226  1.00  0.00    -0.214 A  
HETATM   23  C   UNL     1     -10.599  11.712  66.243  1.00  0.00    -0.258 C  
HETATM   24  C   UNL     1      -9.329  12.017  67.014  1.00  0.00    -0.191 A  
BRANCH  22  25
HETATM   25  C   UNL     1      -9.544  14.599  66.925  1.00  0.00    -0.253 C  
HETATM   26  C   UNL     1     -10.572  14.935  68.032  1.00  0.00    -0.248 C  
HETATM   27  C   UNL     1      -9.893  15.330  69.340  1.00  0.00    -0.253 C  
HETATM   28  C   UNL     1      -9.033  16.570  69.150  1.00  0.00    -0.171 C  
HETATM   29  C   UNL     1      -8.053  16.440  67.990  1.00  0.00    -0.159 C  
HETATM   30  C   UNL     1      -8.693  15.880  66.709  1.00  0.00    -0.303 C  
ENDBRANCH  22  25
ENDBRANCH  14  15
ENDBRANCH  13  14
ENDBRANCH  11  13
ENDBRANCH   9  11
ENDBRANCH   5   9
BRANCH   8  31
HETATM   31  C   UNL     1     -12.239   8.215  71.452  1.00  0.00    -0.297 C  
BRANCH  31  32
HETATM   32  N   UNL     1     -12.343   9.680  71.658  1.00  0.00    -0.380 NA 
HETATM   33  O   UNL     1     -12.729  12.616  72.455  1.00  0.00    -0.014 OA 
HETATM   34  O   UNL     1     -12.610  13.802  70.547  1.00  0.00    -0.327 OA 
HETATM   35  C   UNL     1     -11.177  10.400  71.080  1.00  0.00    -0.010 C  
HETATM   36  C   UNL     1     -12.510  12.717  71.113  1.00  0.00    -0.228 C  
HETATM   37  C   UNL     1     -13.187  10.240  70.558  1.00  0.00    -0.047 C  
HETATM   38  C   UNL     1     -12.165  11.383  70.416  1.00  0.00    -0.450 C  
ENDBRANCH  31  32
ENDBRANCH   8  31
ENDBRANCH   2   3
TORSDOF 9
ENDMDL
MODEL      230
REMARK 921   NORMALIZED FREE ENERGY PREDICTED BY IDOCK:   -5.04 KCAL/MOL
REMARK 922        TOTAL FREE ENERGY PREDICTED BY IDOCK:   -9.13 KCAL/MOL
REMARK 923 INTER-LIGAND FREE ENERGY PREDICTED BY IDOCK:   -7.85 KCAL/MOL
REMARK 924 INTRA-LIGAND FREE ENERGY PREDICTED BY IDOCK:   -1.28 KCAL/MOL
REMARK 927      BINDING AFFINITY PREDICTED BY RF-SCORE:    0.00 PKD
ROOT
HETATM    1  C   UNL     1     -10.611   6.889  66.916  1.00  0.00    -0.372 C  
HETATM    2  C   UNL     1     -10.846   8.318  67.377  1.00  0.00    -0.105 C  
ENDROOT
BRANCH   2   3
HETATM    3  C   UNL     1      -9.885   9.307  66.756  1.00  0.00    -0.289 A  
HETATM    4  C   UNL     1     -10.495  10.366  66.066  1.00  0.00    -0.211 A  
HETATM    5  C   UNL     1      -9.758  11.265  65.292  1.00  0.00    -0.280 A  
HETATM    6  C   UNL     1      -8.375  11.139  65.234  1.00  0.00     0.147 A  
HETATM    7  C   UNL     1      -7.743  10.128  65.976  1.00  0.00    -0.120 A  
HETATM    8  C   UNL     1      -8.477   9.209  66.763  1.00  0.00    -0.125 A  
BRANCH   5   9
HETATM    9  C   UNL     1     -10.544  12.222  64.464  1.00  0.00    -0.311 C  
HETATM   10  C   UNL     1     -11.872  11.813  63.884  1.00  0.00    -0.449 C  
BRANCH   9  11
HETATM   11  N   UNL     1     -10.019  13.401  64.281  1.00  0.00    -0.746 NA 
HETATM   12  H   UNL     1      -9.076  13.558  63.926  1.00  0.00     0.000 HD 
BRANCH  11  13
HETATM   13  O   UNL     1     -10.902  14.422  64.630  1.00  0.00    -0.392 OA 
BRANCH  13  14
HETATM   14  C   UNL     1     -11.036  14.413  66.047  1.00  0.00    -0.316 C  
BRANCH  14  15
HETATM   15  C   UNL     1     -10.201  15.532  66.587  1.00  0.00    -0.280 A  
HETATM   16  F   UNL     1      -6.779  16.906  69.785  1.00  0.00    -0.233 F  
HETATM   17  F   UNL     1      -8.086  15.228  70.164  1.00  0.00    -0.134 F  
HETATM   18  C   UNL     1     -10.428  16.840  66.185  1.00  0.00    -0.282 A  
HETATM   19  F   UNL     1      -6.488  15.037  68.708  1.00  0.00    -0.081 F  
HETATM   20  C   UNL     1      -9.615  17.865  66.660  1.00  0.00    -0.311 A  
HETATM   21  C   UNL     1      -9.228  15.289  67.558  1.00  0.00    -0.202 A  
HETATM   22  C   UNL     1      -8.524  17.623  67.520  1.00  0.00    -0.220 A  
HETATM   23  C   UNL     1      -7.444  15.898  69.160  1.00  0.00    -0.210 C  
HETATM   24  C   UNL     1      -8.400  16.319  68.060  1.00  0.00    -0.165 A  
BRANCH  22  25
HETATM   25  C   UNL     1      -7.504  18.737  67.801  1.00  0.00    -0.245 C  
HETATM   26  C   UNL     1      -6.189  18.534  67.011  1.00  0.00    -0.188 C  
HETATM   27  C   UNL     1      -6.388  18.730  65.511  1.00  0.00    -0.313 C  
HETATM   28  C   UNL     1      -6.866  20.142  65.209  1.00  0.00    -0.334 C  
HETATM   29  C   UNL     1      -8.089  20.542  66.026  1.00  0.00     0.105 C  
HETATM   30  C   UNL     1      -7.968  20.192  67.518  1.00  0.00    -0.352 C  
ENDBRANCH  22  25
ENDBRANCH  14  15
ENDBRANCH  13  14
ENDBRANCH  11  13
ENDBRANCH   9  11
ENDBRANCH   5   9
BRANCH   8  31
HETATM   31  C   UNL     1      -7.748   8.077  67.474  1.00  0.00    -0.106 C  
BRANCH  31  32
HETATM   32  N   UNL     1      -7.619   8.208  68.946  1.00  0.00    -0.096 NA 
HETATM   33  O   UNL     1      -7.455   8.883  71.933  1.00  0.00    -0.294 OA 
HETATM   34  O   UNL     1      -6.250   7.237  72.880  1.00  0.00    -0.055 OA 
HETATM   35  C   UNL     1      -8.099   6.989  69.650  1.00  0.00    -0.130 C  
HETATM   36  C   UNL     1      -6.800   7.689  71.880  1.00  0.00    -0.062 C  
HETATM   37  C   UNL     1      -6.221   7.830  69.321  1.00  0.00    -0.035 C  
HETATM   38  C   UNL     1      -6.803   7.015  70.491  1.00  0.00    -0.057 C  
ENDBRANCH  31  32
ENDBRANCH   8  31
ENDBRANCH   2   3
TORSDOF 9
ENDMDL
MODEL      231
REMARK 921   NORMALIZED FREE ENERGY PREDICTED BY IDOCK:   -5.02 KCAL/MOL
REMARK 922        TOTAL FREE ENERGY PREDICTED BY IDOCK:   -9.09 KCAL/MOL
REMARK 923 INTER-LIGAND FREE ENERGY PREDICTED BY IDOCK:   -7.69 KCAL/MOL
REMARK 924 INTRA-LIGAND FREE ENERGY PREDICTED BY IDOCK:   -1.40 KCAL/MOL
REMARK 927      BINDING AFFINITY PREDICTED BY RF-SCORE:    0.00 PKD
ROOT
HETATM    1  C   UNL     1     -10.566  16.823  69.203  1.00  0.00    -0.343 C  
HETATM    2  C   UNL     1      -9.729  16.209  68.092  1.00  0.00    -0.222 C  
ENDROOT
BRANCH   2   3
HETATM    3  C   UNL     1      -8.287  15.986  68.491  1.00  0.00    -0.191 A  
HETATM    4  C   UNL     1      -7.909  14.640  68.604  1.00  0.00    -0.138 A  
HETATM    5  C   UNL     1      -6.672  14.261  69.128  1.00  0.00    -0.118 A  
HETATM    6  C   UNL     1      -5.765  15.242  69.510  1.00  0.00    -0.101 A  
HETATM    7  C   UNL     1      -6.100  16.596  69.338  1.00  0.00    -0.200 A  
HETATM    8  C   UNL     1      -7.351  16.994  68.810  1.00  0.00    -0.236 A  
BRANCH   5   9
HETATM    9  C   UNL     1      -6.474  12.804  69.368  1.00  0.00    -0.096 C  
HETATM   10  C   UNL     1      -5.192  12.299  69.974  1.00  0.00    -0.089 C  
BRANCH   9  11
HETATM   11  N   UNL     1      -7.459  12.020  69.027  1.00  0.00    -0.300 NA 
HETATM   12  H   UNL     1      -8.230  12.300  68.421  1.00  0.00     0.000 HD 
BRANCH  11  13
HETATM   13  O   UNL     1      -7.331  10.751  69.591  1.00  0.00    -0.145 OA 
BRANCH  13  14
HETATM   14  C   UNL     1      -8.118   9.853  68.817  1.00  0.00    -0.102 C  
BRANCH  14  15
HETATM   15  C   UNL     1      -9.259  10.634  68.241  1.00  0.00    -0.153 A  
HETATM   16  F   UNL     1     -13.012  13.632  69.108  1.00  0.00     0.143 F  
HETATM   17  F   UNL     1     -12.288  12.249  70.603  1.00  0.00    -0.405 F  
HETATM   18  C   UNL     1      -9.611  10.491  66.907  1.00  0.00    -0.206 A  
HETATM   19  F   UNL     1     -11.129  14.021  70.128  1.00  0.00    -0.203 F  
HETATM   20  C   UNL     1     -10.644  11.256  66.374  1.00  0.00    -0.316 A  
HETATM   21  C   UNL     1     -10.034  11.464  69.053  1.00  0.00    -0.087 A  
HETATM   22  C   UNL     1     -11.339  12.218  67.136  1.00  0.00    -0.398 A  
HETATM   23  C   UNL     1     -11.878  13.033  69.561  1.00  0.00    -0.323 C  
HETATM   24  C   UNL     1     -11.093  12.241  68.532  1.00  0.00    -0.290 A  
BRANCH  22  25
HETATM   25  C   UNL     1     -12.279  13.216  66.443  1.00  0.00    -0.396 C  
HETATM   26  C   UNL     1     -11.543  14.511  66.022  1.00  0.00    -0.356 C  
HETATM   27  C   UNL     1     -10.546  14.260  64.895  1.00  0.00    -0.452 C  
HETATM   28  C   UNL     1     -11.253  13.736  63.655  1.00  0.00     0.384 C  
HETATM   29  C   UNL     1     -12.138  12.529  63.942  1.00  0.00    -0.581 C  
HETATM   30  C   UNL     1     -13.028  12.705  65.182  1.00  0.00     0.091 C  
ENDBRANCH  22  25
ENDBRANCH  14  15
ENDBRANCH  13  14
ENDBRANCH  11  13
ENDBRANCH   9  11
ENDBRANCH   5   9
BRANCH   8  31
HETATM   31  C   UNL     1      -7.697  18.475  68.728  1.00  0.00    -0.280 C  
BRANCH  31  32
HETATM   32  N   UNL     1      -7.041  19.238  67.639  1.00  0.00    -0.223 NA 
HETATM   33  O   UNL     1      -5.540  21.069  65.690  1.00  0.00    -0.216 OA 
HETATM   34  O   UNL     1      -6.433  20.687  63.661  1.00  0.00    -0.197 OA 
HETATM   35  C   UNL     1      -6.550  18.342  66.559  1.00  0.00    -0.202 C  
HETATM   36  C   UNL     1      -6.374  20.391  64.851  1.00  0.00    -0.291 C  
HETATM   37  C   UNL     1      -8.108  19.717  66.706  1.00  0.00    -0.304 C  
HETATM   38  C   UNL     1      -7.211  19.286  65.531  1.00  0.00    -0.153 C  
ENDBRANCH  31  32
ENDBRANCH   8  31
ENDBRANCH   2   3
TORSDOF 9
ENDMDL
MODEL      232
REMARK 921   NORMALIZED FREE ENERGY PREDICTED BY IDOCK:   -4.99 KCAL/MOL
REMARK 922        TOTAL FREE ENERGY PREDICTED BY IDOCK:   -9.04 KCAL/MOL
REMARK 923 INTER-LIGAND FREE ENERGY PREDICTED BY IDOCK:   -6.92 KCAL/MOL
REMARK 924 INTRA-LIGAND FREE ENERGY PREDICTED BY IDOCK:   -2.12 KCAL/MOL
REMARK 927      BINDING AFFINITY PREDICTED BY RF-SCORE:    0.00 PKD
ROOT
HETATM    1  C   UNL     1      -9.894  11.502  63.126  1.00  0.00    -0.413 C  
HETATM    2  C   UNL     1     -10.076  11.136  64.590  1.00  0.00    -0.358 C  
ENDROOT
BRANCH   2   3
HETATM    3  C   UNL     1      -8.890  10.398  65.168  1.00  0.00    -0.207 A  
HETATM    4  C   UNL     1      -8.730   9.084  64.701  1.00  0.00    -0.169 A  
HETATM    5  C   UNL     1      -7.795   8.210  65.259  1.00  0.00    -0.115 A  
HETATM    6  C   UNL     1      -6.963   8.662  66.276  1.00  0.00    -0.077 A  
HETATM    7  C   UNL     1      -7.061   9.996  66.706  1.00  0.00    -0.091 A  
HETATM    8  C   UNL     1      -8.006  10.892  66.152  1.00  0.00    -0.155 A  
BRANCH   5   9
HETATM    9  C   UNL     1      -7.860   6.794  64.802  1.00  0.00    -0.119 C  
HETATM   10  C   UNL     1      -6.634   6.115  64.253  1.00  0.00    -0.034 C  
BRANCH   9  11
HETATM   11  N   UNL     1      -9.016   6.201  64.907  1.00  0.00    -0.348 NA 
HETATM   12  H   UNL     1      -9.512   5.773  64.125  1.00  0.00     0.000 HD 
BRANCH  11  13
HETATM   13  O   UNL     1      -9.494   6.222  66.216  1.00  0.00    -0.157 OA 
BRANCH  13  14
HETATM   14  C   UNL     1      -8.808   5.210  66.943  1.00  0.00    -0.110 C  
BRANCH  14  15
HETATM   15  C   UNL     1      -8.821   5.603  68.388  1.00  0.00    -0.108 A  
HETATM   16  F   UNL     1      -9.275   9.215  71.640  1.00  0.00    -0.310 F  
HETATM   17  F   UNL     1      -8.547   9.569  69.636  1.00  0.00    -0.128 F  
HETATM   18  C   UNL     1      -8.483   4.685  69.372  1.00  0.00    -0.094 A  
HETATM   19  F   UNL     1     -10.656   9.166  69.957  1.00  0.00    -0.201 F  
HETATM   20  C   UNL     1      -8.543   5.051  70.713  1.00  0.00    -0.132 A  
HETATM   21  C   UNL     1      -9.103   6.917  68.765  1.00  0.00    -0.133 A  
HETATM   22  C   UNL     1      -8.979   6.327  71.128  1.00  0.00    -0.146 A  
HETATM   23  C   UNL     1      -9.408   8.787  70.355  1.00  0.00    -0.180 C  
HETATM   24  C   UNL     1      -9.159   7.309  70.122  1.00  0.00    -0.148 A  
BRANCH  22  25
HETATM   25  C   UNL     1      -9.282   6.593  72.610  1.00  0.00    -0.148 C  
HETATM   26  C   UNL     1     -10.796   6.786  72.868  1.00  0.00    -0.304 C  
HETATM   27  C   UNL     1     -11.578   5.492  72.666  1.00  0.00    -0.293 C  
HETATM   28  C   UNL     1     -11.103   4.417  73.632  1.00  0.00    -0.361 C  
HETATM   29  C   UNL     1      -9.594   4.208  73.592  1.00  0.00    -0.128 C  
HETATM   30  C   UNL     1      -8.794   5.521  73.623  1.00  0.00    -0.125 C  
ENDBRANCH  22  25
ENDBRANCH  14  15
ENDBRANCH  13  14
ENDBRANCH  11  13
ENDBRANCH   9  11
ENDBRANCH   5   9
BRANCH   8  31
HETATM   31  C   UNL     1      -8.130  12.301  66.717  1.00  0.00    -0.024 C  
BRANCH  31  32
HETATM   32  N   UNL     1      -9.504  12.752  67.045  1.00  0.00    -0.225 NA 
HETATM   33  O   UNL     1     -12.413  13.687  67.307  1.00  0.00    -0.232 OA 
HETATM   34  O   UNL     1     -12.605  14.560  69.371  1.00  0.00    -0.162 OA 
HETATM   35  C   UNL     1     -10.013  12.107  68.285  1.00  0.00    -0.212 C  
HETATM   36  C   UNL     1     -11.917  13.967  68.545  1.00  0.00    -0.359 C  
HETATM   37  C   UNL     1      -9.399  14.038  67.801  1.00  0.00    -0.205 C  
HETATM   38  C   UNL     1     -10.463  13.501  68.776  1.00  0.00    -0.212 C  
ENDBRANCH  31  32
ENDBRANCH   8  31
ENDBRANCH   2   3
TORSDOF 9
ENDMDL
MODEL      233
REMARK 921   NORMALIZED FREE ENERGY PREDICTED BY IDOCK:   -4.95 KCAL/MOL
REMARK 922        TOTAL FREE ENERGY PREDICTED BY IDOCK:   -8.99 KCAL/MOL
REMARK 923 INTER-LIGAND FREE ENERGY PREDICTED BY IDOCK:   -8.02 KCAL/MOL
REMARK 924 INTRA-LIGAND FREE ENERGY PREDICTED BY IDOCK:   -0.96 KCAL/MOL
REMARK 927      BINDING AFFINITY PREDICTED BY RF-SCORE:    0.00 PKD
ROOT
HETATM    1  C   UNL     1      -6.591  12.630  67.639  1.00  0.00    -0.143 C  
HETATM    2  C   UNL     1      -6.820  14.130  67.733  1.00  0.00    -0.188 C  
ENDROOT
BRANCH   2   3
HETATM    3  C   UNL     1      -8.280  14.513  67.633  1.00  0.00    -0.187 A  
HETATM    4  C   UNL     1      -9.072  13.622  66.893  1.00  0.00    -0.249 A  
HETATM    5  C   UNL     1     -10.397  13.914  66.559  1.00  0.00    -0.286 A  
HETATM    6  C   UNL     1     -10.966  15.100  67.007  1.00  0.00    -0.322 A  
HETATM    7  C   UNL     1     -10.208  15.970  67.809  1.00  0.00    -0.260 A  
HETATM    8  C   UNL     1      -8.865  15.688  68.153  1.00  0.00    -0.174 A  
BRANCH   5   9
HETATM    9  C   UNL     1     -11.062  12.974  65.615  1.00  0.00    -0.276 C  
HETATM   10  C   UNL     1     -10.581  12.856  64.193  1.00  0.00    -0.442 C  
BRANCH   9  11
HETATM   11  N   UNL     1     -12.059  12.280  66.089  1.00  0.00    -0.627 NA 
HETATM   12  H   UNL     1     -13.007  12.313  65.714  1.00  0.00     0.000 HD 
BRANCH  11  13
HETATM   13  O   UNL     1     -11.673  11.488  67.170  1.00  0.00    -0.567 OA 
BRANCH  13  14
HETATM   14  C   UNL     1     -10.952  10.376  66.655  1.00  0.00     0.003 C  
BRANCH  14  15
HETATM   15  C   UNL     1     -10.319   9.670  67.814  1.00  0.00    -0.286 A  
HETATM   16  F   UNL     1     -10.962   6.731  71.657  1.00  0.00    -0.241 F  
HETATM   17  F   UNL     1     -12.552   7.985  70.903  1.00  0.00    -0.258 F  
HETATM   18  C   UNL     1      -8.997   9.915  68.153  1.00  0.00    -0.118 A  
HETATM   19  F   UNL     1     -11.960   6.217  69.792  1.00  0.00    -0.479 F  
HETATM   20  C   UNL     1      -8.409   9.219  69.205  1.00  0.00    -0.124 A  
HETATM   21  C   UNL     1     -11.069   8.809  68.617  1.00  0.00     0.230 A  
HETATM   22  C   UNL     1      -9.100   8.227  69.932  1.00  0.00    -0.147 A  
HETATM   23  C   UNL     1     -11.460   7.264  70.509  1.00  0.00    -0.279 C  
HETATM   24  C   UNL     1     -10.491   8.101  69.696  1.00  0.00    -0.224 A  
BRANCH  22  25
HETATM   25  C   UNL     1      -8.335   7.307  70.896  1.00  0.00    -0.116 C  
HETATM   26  C   UNL     1      -8.418   5.821  70.470  1.00  0.00    -0.127 C  
HETATM   27  C   UNL     1      -7.646   5.554  69.181  1.00  0.00    -0.086 C  
HETATM   28  C   UNL     1      -6.170   5.877  69.359  1.00  0.00    -0.033 C  
HETATM   29  C   UNL     1      -5.931   7.277  69.911  1.00  0.00    -0.024 C  
HETATM   30  C   UNL     1      -6.829   7.621  71.111  1.00  0.00    -0.049 C  
ENDBRANCH  22  25
ENDBRANCH  14  15
ENDBRANCH  13  14
ENDBRANCH  11  13
ENDBRANCH   9  11
ENDBRANCH   5   9
BRANCH   8  31
HETATM   31  C   UNL     1      -8.062  16.708  68.949  1.00  0.00    -0.235 C  
BRANCH  31  32
HETATM   32  N   UNL     1      -7.458  17.814  68.168  1.00  0.00    -0.229 NA 
HETATM   33  O   UNL     1      -6.092  20.262  66.923  1.00  0.00    -0.176 OA 
HETATM   34  O   UNL     1      -6.906  20.435  64.833  1.00  0.00    -0.308 OA 
HETATM   35  C   UNL     1      -6.865  17.326  66.894  1.00  0.00    -0.196 C  
HETATM   36  C   UNL     1      -6.844  19.802  65.883  1.00  0.00    -0.270 C  
HETATM   37  C   UNL     1      -8.545  18.462  67.371  1.00  0.00    -0.257 C  
HETATM   38  C   UNL     1      -7.589  18.479  66.164  1.00  0.00    -0.273 C  
ENDBRANCH  31  32
ENDBRANCH   8  31
ENDBRANCH   2   3
TORSDOF 9
ENDMDL
MODEL      234
REMARK 921   NORMALIZED FREE ENERGY PREDICTED BY IDOCK:   -4.94 KCAL/MOL
REMARK 922        TOTAL FREE ENERGY PREDICTED BY IDOCK:   -8.98 KCAL/MOL
REMARK 923 INTER-LIGAND FREE ENERGY PREDICTED BY IDOCK:   -8.98 KCAL/MOL
REMARK 924 INTRA-LIGAND FREE ENERGY PREDICTED BY IDOCK:    0.00 KCAL/MOL
REMARK 927      BINDING AFFINITY PREDICTED BY RF-SCORE:    0.00 PKD
ROOT
HETATM    1  C   UNL     1     -10.831  13.262  66.040  1.00  0.00    -0.284 C  
HETATM    2  C   UNL     1     -11.497  14.622  66.158  1.00  0.00    -0.339 C  
ENDROOT
BRANCH   2   3
HETATM    3  C   UNL     1     -11.379  15.221  67.542  1.00  0.00    -0.300 A  
HETATM    4  C   UNL     1     -11.817  14.388  68.583  1.00  0.00    -0.366 A  
HETATM    5  C   UNL     1     -11.938  14.848  69.896  1.00  0.00    -0.376 A  
HETATM    6  C   UNL     1     -11.574  16.155  70.196  1.00  0.00    -0.254 A  
HETATM    7  C   UNL     1     -11.066  16.980  69.179  1.00  0.00     0.067 A  
HETATM    8  C   UNL     1     -10.940  16.528  67.844  1.00  0.00    -0.288 A  
BRANCH   5   9
HETATM    9  C   UNL     1     -12.592  13.921  70.862  1.00  0.00    -0.361 C  
HETATM   10  C   UNL     1     -13.828  14.348  71.608  1.00  0.00    -0.492 C  
BRANCH   9  11
HETATM   11  N   UNL     1     -12.038  12.751  71.012  1.00  0.00    -0.382 NA 
HETATM   12  H   UNL     1     -11.117  12.504  70.648  1.00  0.00     0.000 HD 
BRANCH  11  13
HETATM   13  O   UNL     1     -12.854  11.877  71.728  1.00  0.00    -0.358 OA 
BRANCH  13  14
HETATM   14  C   UNL     1     -12.848  10.626  71.050  1.00  0.00    -0.402 C  
BRANCH  14  15
HETATM   15  C   UNL     1     -11.426  10.307  70.703  1.00  0.00    -0.435 A  
HETATM   16  F   UNL     1      -7.244   8.219  72.108  1.00  0.00    -0.072 F  
HETATM   17  F   UNL     1      -8.666   8.999  73.537  1.00  0.00     0.082 F  
HETATM   18  C   UNL     1     -10.843  10.834  69.560  1.00  0.00    -0.288 A  
HETATM   19  F   UNL     1      -9.103   7.151  72.485  1.00  0.00    -0.134 F  
HETATM   20  C   UNL     1      -9.536  10.493  69.226  1.00  0.00    -0.191 A  
HETATM   21  C   UNL     1     -10.642   9.532  71.560  1.00  0.00    -0.219 A  
HETATM   22  C   UNL     1      -8.775   9.585  69.992  1.00  0.00    -0.242 A  
HETATM   23  C   UNL     1      -8.577   8.398  72.312  1.00  0.00    -0.197 C  
HETATM   24  C   UNL     1      -9.310   9.184  71.242  1.00  0.00    -0.285 A  
BRANCH  22  25
HETATM   25  C   UNL     1      -7.449   9.038  69.443  1.00  0.00    -0.077 C  
HETATM   26  C   UNL     1      -7.592   7.591  68.913  1.00  0.00    -0.105 C  
HETATM   27  C   UNL     1      -8.447   7.528  67.651  1.00  0.00    -0.117 C  
HETATM   28  C   UNL     1      -7.818   8.344  66.531  1.00  0.00    -0.092 C  
HETATM   29  C   UNL     1      -7.487   9.771  66.951  1.00  0.00    -0.091 C  
HETATM   30  C   UNL     1      -6.774   9.859  68.310  1.00  0.00    -0.060 C  
ENDBRANCH  22  25
ENDBRANCH  14  15
ENDBRANCH  13  14
ENDBRANCH  11  13
ENDBRANCH   9  11
ENDBRANCH   5   9
BRANCH   8  31
HETATM   31  C   UNL     1     -10.468  17.493  66.764  1.00  0.00    -0.270 C  
BRANCH  31  32
HETATM   32  N   UNL     1      -9.168  18.163  67.010  1.00  0.00    -0.263 NA 
HETATM   33  O   UNL     1      -6.339  19.331  67.188  1.00  0.00    -0.190 OA 
HETATM   34  O   UNL     1      -6.137  20.166  69.268  1.00  0.00    -0.285 OA 
HETATM   35  C   UNL     1      -9.351  19.564  67.473  1.00  0.00    -0.318 C  
HETATM   36  C   UNL     1      -6.849  19.648  68.412  1.00  0.00    -0.294 C  
HETATM   37  C   UNL     1      -8.720  17.804  68.392  1.00  0.00    -0.292 C  
HETATM   38  C   UNL     1      -8.337  19.280  68.603  1.00  0.00    -0.407 C  
ENDBRANCH  31  32
ENDBRANCH   8  31
ENDBRANCH   2   3
TORSDOF 9
ENDMDL
MODEL      235
REMARK 921   NORMALIZED FREE ENERGY PREDICTED BY IDOCK:   -4.92 KCAL/MOL
REMARK 922        TOTAL FREE ENERGY PREDICTED BY IDOCK:   -8.94 KCAL/MOL
REMARK 923 INTER-LIGAND FREE ENERGY PREDICTED BY IDOCK:   -7.38 KCAL/MOL
REMARK 924 INTRA-LIGAND FREE ENERGY PREDICTED BY IDOCK:   -1.56 KCAL/MOL
REMARK 927      BINDING AFFINITY PREDICTED BY RF-SCORE:    0.00 PKD
ROOT
HETATM    1  C   UNL     1     -10.354  11.921  63.264  1.00  0.00    -0.432 C  
HETATM    2  C   UNL     1     -10.965  11.139  64.416  1.00  0.00    -0.270 C  
ENDROOT
BRANCH   2   3
HETATM    3  C   UNL     1     -10.027  10.989  65.593  1.00  0.00    -0.299 A  
HETATM    4  C   UNL     1      -9.164   9.885  65.520  1.00  0.00    -0.255 A  
HETATM    5  C   UNL     1      -8.360   9.504  66.596  1.00  0.00    -0.116 A  
HETATM    6  C   UNL     1      -8.377  10.261  67.761  1.00  0.00    -0.110 A  
HETATM    7  C   UNL     1      -9.182  11.411  67.825  1.00  0.00    -0.159 A  
HETATM    8  C   UNL     1     -10.003  11.808  66.743  1.00  0.00    -0.224 A  
BRANCH   5   9
HETATM    9  C   UNL     1      -7.637   8.209  66.454  1.00  0.00    -0.091 C  
HETATM   10  C   UNL     1      -6.205   8.084  66.900  1.00  0.00    -0.054 C  
BRANCH   9  11
HETATM   11  N   UNL     1      -8.309   7.221  65.932  1.00  0.00    -0.138 NA 
HETATM   12  H   UNL     1      -8.805   7.275  65.042  1.00  0.00     0.000 HD 
BRANCH  11  13
HETATM   13  O   UNL     1      -8.269   6.083  66.736  1.00  0.00    -0.105 OA 
BRANCH  13  14
HETATM   14  C   UNL     1      -9.578   5.872  67.252  1.00  0.00    -0.116 C  
BRANCH  14  15
HETATM   15  C   UNL     1      -9.488   5.921  68.746  1.00  0.00    -0.143 A  
HETATM   16  F   UNL     1      -7.807   8.293  72.667  1.00  0.00    -0.144 F  
HETATM   17  F   UNL     1      -6.812   8.405  70.752  1.00  0.00    -0.036 F  
HETATM   18  C   UNL     1      -9.949   4.862  69.515  1.00  0.00    -0.295 A  
HETATM   19  F   UNL     1      -8.682   9.464  71.054  1.00  0.00    -0.241 F  
HETATM   20  C   UNL     1      -9.900   4.940  70.904  1.00  0.00    -0.277 A  
HETATM   21  C   UNL     1      -8.875   6.999  69.387  1.00  0.00    -0.136 A  
HETATM   22  C   UNL     1      -9.431   6.086  71.579  1.00  0.00    -0.164 A  
HETATM   23  C   UNL     1      -8.046   8.289  71.328  1.00  0.00    -0.120 C  
HETATM   24  C   UNL     1      -8.808   7.090  70.795  1.00  0.00    -0.149 A  
BRANCH  22  25
HETATM   25  C   UNL     1      -9.645   6.229  73.093  1.00  0.00    -0.154 C  
HETATM   26  C   UNL     1     -11.060   5.776  73.526  1.00  0.00    -0.118 C  
HETATM   27  C   UNL     1     -11.247   4.269  73.373  1.00  0.00    -0.361 C  
HETATM   28  C   UNL     1     -10.259   3.511  74.246  1.00  0.00    -0.228 C  
HETATM   29  C   UNL     1      -8.816   3.952  74.030  1.00  0.00    -0.092 C  
HETATM   30  C   UNL     1      -8.641   5.480  74.011  1.00  0.00    -0.114 C  
ENDBRANCH  22  25
ENDBRANCH  14  15
ENDBRANCH  13  14
ENDBRANCH  11  13
ENDBRANCH   9  11
ENDBRANCH   5   9
BRANCH   8  31
HETATM   31  C   UNL     1     -10.924  13.011  66.898  1.00  0.00    -0.265 C  
BRANCH  31  32
HETATM   32  N   UNL     1     -10.701  13.851  68.100  1.00  0.00    -0.245 NA 
HETATM   33  O   UNL     1      -9.842  15.455  70.569  1.00  0.00     0.069 OA 
HETATM   34  O   UNL     1     -11.735  15.975  71.666  1.00  0.00    -0.444 OA 
HETATM   35  C   UNL     1     -11.494  15.108  68.046  1.00  0.00    -0.342 C  
HETATM   36  C   UNL     1     -11.200  15.481  70.677  1.00  0.00    -0.347 C  
HETATM   37  C   UNL     1     -11.616  13.364  69.178  1.00  0.00    -0.315 C  
HETATM   38  C   UNL     1     -11.953  14.833  69.495  1.00  0.00    -0.351 C  
ENDBRANCH  31  32
ENDBRANCH   8  31
ENDBRANCH   2   3
TORSDOF 9
ENDMDL
MODEL      236
REMARK 921   NORMALIZED FREE ENERGY PREDICTED BY IDOCK:   -4.91 KCAL/MOL
REMARK 922        TOTAL FREE ENERGY PREDICTED BY IDOCK:   -8.92 KCAL/MOL
REMARK 923 INTER-LIGAND FREE ENERGY PREDICTED BY IDOCK:   -7.41 KCAL/MOL
REMARK 924 INTRA-LIGAND FREE ENERGY PREDICTED BY IDOCK:   -1.50 KCAL/MOL
REMARK 927      BINDING AFFINITY PREDICTED BY RF-SCORE:    0.00 PKD
ROOT
HETATM    1  C   UNL     1     -10.845  16.575  66.343  1.00  0.00    -0.042 C  
HETATM    2  C   UNL     1      -9.386  16.987  66.233  1.00  0.00    -0.276 C  
ENDROOT
BRANCH   2   3
HETATM    3  C   UNL     1      -8.430  15.908  66.689  1.00  0.00    -0.322 A  
HETATM    4  C   UNL     1      -8.969  14.612  66.704  1.00  0.00    -0.267 A  
HETATM    5  C   UNL     1      -8.280  13.531  67.260  1.00  0.00    -0.164 A  
HETATM    6  C   UNL     1      -7.005  13.729  67.775  1.00  0.00    -0.178 A  
HETATM    7  C   UNL     1      -6.422  15.005  67.704  1.00  0.00    -0.175 A  
HETATM    8  C   UNL     1      -7.109  16.109  67.145  1.00  0.00    -0.253 A  
BRANCH   5   9
HETATM    9  C   UNL     1      -9.041  12.256  67.381  1.00  0.00    -0.184 C  
HETATM   10  C   UNL     1      -8.839  11.360  68.574  1.00  0.00    -0.151 C  
BRANCH   9  11
HETATM   11  N   UNL     1      -9.869  11.978  66.413  1.00  0.00    -0.215 NA 
HETATM   12  H   UNL     1     -10.838  12.296  66.381  1.00  0.00     0.000 HD 
BRANCH  11  13
HETATM   13  O   UNL     1      -9.271  11.194  65.427  1.00  0.00    -0.210 OA 
BRANCH  13  14
HETATM   14  C   UNL     1     -10.111  10.067  65.204  1.00  0.00    -0.198 C  
BRANCH  14  15
HETATM   15  C   UNL     1      -9.429   8.872  65.794  1.00  0.00    -0.272 A  
HETATM   16  F   UNL     1      -8.954   5.928  69.658  1.00  0.00    -0.125 F  
HETATM   17  F   UNL     1      -9.576   7.987  69.863  1.00  0.00    -0.167 F  
HETATM   18  C   UNL     1      -8.376   8.260  65.130  1.00  0.00    -0.167 A  
HETATM   19  F   UNL     1     -10.961   6.522  69.059  1.00  0.00    -0.254 F  
HETATM   20  C   UNL     1      -7.782   7.122  65.668  1.00  0.00    -0.102 A  
HETATM   21  C   UNL     1      -9.793   8.396  67.055  1.00  0.00    -0.296 A  
HETATM   22  C   UNL     1      -8.237   6.529  66.864  1.00  0.00    -0.113 A  
HETATM   23  C   UNL     1      -9.654   6.909  69.027  1.00  0.00    -0.136 C  
HETATM   24  C   UNL     1      -9.194   7.248  67.622  1.00  0.00    -0.130 A  
BRANCH  22  25
HETATM   25  C   UNL     1      -7.730   5.137  67.273  1.00  0.00    -0.092 C  
HETATM   26  C   UNL     1      -8.883   4.112  67.397  1.00  0.00    -0.128 C  
HETATM   27  C   UNL     1      -9.500   3.781  66.041  1.00  0.00    -0.178 C  
HETATM   28  C   UNL     1      -8.464   3.165  65.113  1.00  0.00    -0.097 C  
HETATM   29  C   UNL     1      -7.197   4.003  64.997  1.00  0.00    -0.067 C  
HETATM   30  C   UNL     1      -6.659   4.488  66.354  1.00  0.00    -0.046 C  
ENDBRANCH  22  25
ENDBRANCH  14  15
ENDBRANCH  13  14
ENDBRANCH  11  13
ENDBRANCH   9  11
ENDBRANCH   5   9
BRANCH   8  31
HETATM   31  C   UNL     1      -6.466  17.490  67.175  1.00  0.00    -0.161 C  
BRANCH  31  32
HETATM   32  N   UNL     1      -6.047  17.985  68.509  1.00  0.00    -0.187 NA 
HETATM   33  O   UNL     1      -5.126  18.603  71.368  1.00  0.00    -0.395 OA 
HETATM   34  O   UNL     1      -5.817  20.698  71.808  1.00  0.00    -0.631 OA 
HETATM   35  C   UNL     1      -5.285  19.257  68.408  1.00  0.00    -0.187 C  
HETATM   36  C   UNL     1      -5.698  19.784  70.997  1.00  0.00    -0.266 C  
HETATM   37  C   UNL     1      -7.188  18.757  69.093  1.00  0.00    -0.221 C  
HETATM   38  C   UNL     1      -6.177  19.833  69.530  1.00  0.00    -0.359 C  
ENDBRANCH  31  32
ENDBRANCH   8  31
ENDBRANCH   2   3
TORSDOF 9
ENDMDL
MODEL      237
REMARK 921   NORMALIZED FREE ENERGY PREDICTED BY IDOCK:   -4.90 KCAL/MOL
REMARK 922        TOTAL FREE ENERGY PREDICTED BY IDOCK:   -8.90 KCAL/MOL
REMARK 923 INTER-LIGAND FREE ENERGY PREDICTED BY IDOCK:   -8.14 KCAL/MOL
REMARK 924 INTRA-LIGAND FREE ENERGY PREDICTED BY IDOCK:   -0.76 KCAL/MOL
REMARK 927      BINDING AFFINITY PREDICTED BY RF-SCORE:    0.00 PKD
ROOT
HETATM    1  C   UNL     1     -12.309  14.869  64.488  1.00  0.00    -0.330 C  
HETATM    2  C   UNL     1     -12.662  14.079  65.738  1.00  0.00    -0.487 C  
ENDROOT
BRANCH   2   3
HETATM    3  C   UNL     1     -11.450  13.684  66.551  1.00  0.00    -0.357 A  
HETATM    4  C   UNL     1     -10.836  12.488  66.150  1.00  0.00    -0.304 A  
HETATM    5  C   UNL     1      -9.817  11.893  66.897  1.00  0.00    -0.217 A  
HETATM    6  C   UNL     1      -9.362  12.522  68.049  1.00  0.00    -0.205 A  
HETATM    7  C   UNL     1      -9.917  13.756  68.427  1.00  0.00    -0.229 A  
HETATM    8  C   UNL     1     -10.951  14.369  67.681  1.00  0.00    -0.294 A  
BRANCH   5   9
HETATM    9  C   UNL     1      -9.386  10.535  66.461  1.00  0.00    -0.163 C  
HETATM   10  C   UNL     1      -9.034  10.274  65.021  1.00  0.00    -0.225 C  
BRANCH   9  11
HETATM   11  N   UNL     1      -9.336   9.617  67.385  1.00  0.00    -0.133 NA 
HETATM   12  H   UNL     1      -8.472   9.198  67.728  1.00  0.00     0.000 HD 
BRANCH  11  13
HETATM   13  O   UNL     1     -10.606   9.276  67.849  1.00  0.00    -0.244 OA 
BRANCH  13  14
HETATM   14  C   UNL     1     -10.908   7.973  67.363  1.00  0.00    -0.076 C  
BRANCH  14  15
HETATM   15  C   UNL     1     -10.436   6.989  68.388  1.00  0.00    -0.231 A  
HETATM   16  F   UNL     1      -6.695   4.396  70.150  1.00  0.00    -0.030 F  
HETATM   17  F   UNL     1      -6.785   5.005  68.078  1.00  0.00    -0.048 F  
HETATM   18  C   UNL     1     -11.340   6.361  69.233  1.00  0.00    -0.405 A  
HETATM   19  F   UNL     1      -6.341   6.475  69.612  1.00  0.00    -0.032 F  
HETATM   20  C   UNL     1     -10.883   5.483  70.211  1.00  0.00    -0.285 A  
HETATM   21  C   UNL     1      -9.089   6.631  68.463  1.00  0.00    -0.128 A  
HETATM   22  C   UNL     1      -9.510   5.226  70.411  1.00  0.00    -0.222 A  
HETATM   23  C   UNL     1      -7.132   5.398  69.341  1.00  0.00    -0.063 C  
HETATM   24  C   UNL     1      -8.608   5.733  69.443  1.00  0.00    -0.111 A  
BRANCH  22  25
HETATM   25  C   UNL     1      -9.044   4.466  71.662  1.00  0.00    -0.174 C  
HETATM   26  C   UNL     1      -8.105   5.322  72.546  1.00  0.00    -0.103 C  
HETATM   27  C   UNL     1      -8.843   6.485  73.202  1.00  0.00    -0.135 C  
HETATM   28  C   UNL     1      -9.954   5.977  74.109  1.00  0.00    -0.257 C  
HETATM   29  C   UNL     1     -10.892   5.002  73.408  1.00  0.00    -0.360 C  
HETATM   30  C   UNL     1     -10.156   3.921  72.599  1.00  0.00    -0.228 C  
ENDBRANCH  22  25
ENDBRANCH  14  15
ENDBRANCH  13  14
ENDBRANCH  11  13
ENDBRANCH   9  11
ENDBRANCH   5   9
BRANCH   8  31
HETATM   31  C   UNL     1     -11.579  15.662  68.185  1.00  0.00    -0.283 C  
BRANCH  31  32
HETATM   32  N   UNL     1     -10.768  16.892  68.009  1.00  0.00    -0.364 NA 
HETATM   33  O   UNL     1      -9.336  19.602  67.945  1.00  0.00    -0.319 OA 
HETATM   34  O   UNL     1      -8.222  19.674  65.991  1.00  0.00    -0.345 OA 
HETATM   35  C   UNL     1      -9.341  16.574  67.739  1.00  0.00    -0.210 C  
HETATM   36  C   UNL     1      -8.910  19.033  66.781  1.00  0.00    -0.310 C  
HETATM   37  C   UNL     1     -10.902  17.332  66.586  1.00  0.00     0.049 C  
HETATM   38  C   UNL     1      -9.382  17.579  66.567  1.00  0.00    -0.281 C  
ENDBRANCH  31  32
ENDBRANCH   8  31
ENDBRANCH   2   3
TORSDOF 9
ENDMDL
MODEL      238
REMARK 921   NORMALIZED FREE ENERGY PREDICTED BY IDOCK:   -4.86 KCAL/MOL
REMARK 922        TOTAL FREE ENERGY PREDICTED BY IDOCK:   -8.85 KCAL/MOL
REMARK 923 INTER-LIGAND FREE ENERGY PREDICTED BY IDOCK:   -7.57 KCAL/MOL
REMARK 924 INTRA-LIGAND FREE ENERGY PREDICTED BY IDOCK:   -1.28 KCAL/MOL
REMARK 927      BINDING AFFINITY PREDICTED BY RF-SCORE:    0.00 PKD
ROOT
HETATM    1  C   UNL     1     -10.116   9.096  67.424  1.00  0.00    -0.289 C  
HETATM    2  C   UNL     1      -9.676   9.797  68.699  1.00  0.00    -0.162 C  
ENDROOT
BRANCH   2   3
HETATM    3  C   UNL     1     -10.837  10.264  69.548  1.00  0.00    -0.292 A  
HETATM    4  C   UNL     1     -11.229   9.366  70.553  1.00  0.00    -0.329 A  
HETATM    5  C   UNL     1     -12.387   9.563  71.309  1.00  0.00    -0.430 A  
HETATM    6  C   UNL     1     -13.153  10.702  71.096  1.00  0.00    -0.415 A  
HETATM    7  C   UNL     1     -12.736  11.647  70.144  1.00  0.00     0.022 A  
HETATM    8  C   UNL     1     -11.567  11.459  69.369  1.00  0.00    -0.391 A  
BRANCH   5   9
HETATM    9  C   UNL     1     -12.787   8.444  72.207  1.00  0.00    -0.317 C  
HETATM   10  C   UNL     1     -13.966   7.575  71.859  1.00  0.00    -0.391 C  
BRANCH   9  11
HETATM   11  N   UNL     1     -12.069   8.274  73.281  1.00  0.00    -0.287 NA 
HETATM   12  H   UNL     1     -12.389   8.494  74.224  1.00  0.00     0.000 HD 
BRANCH  11  13
HETATM   13  O   UNL     1     -10.808   7.754  72.987  1.00  0.00    -0.373 OA 
BRANCH  13  14
HETATM   14  C   UNL     1     -10.871   6.344  73.164  1.00  0.00    -0.254 C  
BRANCH  14  15
HETATM   15  C   UNL     1     -10.029   5.717  72.095  1.00  0.00    -0.214 A  
HETATM   16  F   UNL     1      -8.412   1.584  70.063  1.00  0.00    -0.057 F  
HETATM   17  F   UNL     1      -8.978   1.685  72.146  1.00  0.00    -0.069 F  
HETATM   18  C   UNL     1      -9.205   6.496  71.297  1.00  0.00    -0.155 A  
HETATM   19  F   UNL     1     -10.515   1.705  70.613  1.00  0.00     0.130 F  
HETATM   20  C   UNL     1      -8.464   5.906  70.278  1.00  0.00    -0.127 A  
HETATM   21  C   UNL     1     -10.005   4.331  71.931  1.00  0.00    -0.255 A  
HETATM   22  C   UNL     1      -8.544   4.528  69.989  1.00  0.00    -0.103 A  
HETATM   23  C   UNL     1      -9.279   2.196  70.914  1.00  0.00    -0.119 C  
HETATM   24  C   UNL     1      -9.251   3.713  70.909  1.00  0.00    -0.199 A  
BRANCH  22  25
HETATM   25  C   UNL     1      -7.920   3.974  68.699  1.00  0.00    -0.071 C  
HETATM   26  C   UNL     1      -8.136   4.923  67.496  1.00  0.00    -0.102 C  
HETATM   27  C   UNL     1      -7.341   6.217  67.640  1.00  0.00    -0.084 C  
HETATM   28  C   UNL     1      -5.849   5.929  67.708  1.00  0.00    -0.013 C  
HETATM   29  C   UNL     1      -5.492   4.895  68.769  1.00  0.00    -0.011 C  
HETATM   30  C   UNL     1      -6.400   3.655  68.743  1.00  0.00    -0.032 C  
ENDBRANCH  22  25
ENDBRANCH  14  15
ENDBRANCH  13  14
ENDBRANCH  11  13
ENDBRANCH   9  11
ENDBRANCH   5   9
BRANCH   8  31
HETATM   31  C   UNL     1     -11.210  12.470  68.287  1.00  0.00    -0.266 C  
BRANCH  31  32
HETATM   32  N   UNL     1     -10.938  13.852  68.751  1.00  0.00    -0.256 NA 
HETATM   33  O   UNL     1     -10.497  16.576  70.090  1.00  0.00    -0.157 OA 
HETATM   34  O   UNL     1     -10.445  18.089  68.426  1.00  0.00    -0.366 OA 
HETATM   35  C   UNL     1      -9.758  14.440  68.063  1.00  0.00    -0.221 C  
HETATM   36  C   UNL     1     -10.499  16.911  68.768  1.00  0.00    -0.343 C  
HETATM   37  C   UNL     1     -11.811  14.781  67.968  1.00  0.00    -0.294 C  
HETATM   38  C   UNL     1     -10.596  15.711  67.801  1.00  0.00    -0.281 C  
ENDBRANCH  31  32
ENDBRANCH   8  31
ENDBRANCH   2   3
TORSDOF 9
ENDMDL
MODEL      239
REMARK 921   NORMALIZED FREE ENERGY PREDICTED BY IDOCK:   -4.85 KCAL/MOL
REMARK 922        TOTAL FREE ENERGY PREDICTED BY IDOCK:   -8.83 KCAL/MOL
REMARK 923 INTER-LIGAND FREE ENERGY PREDICTED BY IDOCK:   -7.65 KCAL/MOL
REMARK 924 INTRA-LIGAND FREE ENERGY PREDICTED BY IDOCK:   -1.18 KCAL/MOL
REMARK 927      BINDING AFFINITY PREDICTED BY RF-SCORE:    0.00 PKD
ROOT
HETATM    1  C   UNL     1      -7.566  17.073  68.087  1.00  0.00    -0.194 C  
HETATM    2  C   UNL     1      -7.517  15.964  67.049  1.00  0.00    -0.254 C  
ENDROOT
BRANCH   2   3
HETATM    3  C   UNL     1      -7.922  14.617  67.602  1.00  0.00    -0.193 A  
HETATM    4  C   UNL     1      -6.854  13.802  68.006  1.00  0.00    -0.140 A  
HETATM    5  C   UNL     1      -7.041  12.468  68.376  1.00  0.00    -0.107 A  
HETATM    6  C   UNL     1      -8.325  11.939  68.389  1.00  0.00    -0.157 A  
HETATM    7  C   UNL     1      -9.414  12.761  68.055  1.00  0.00    -0.213 A  
HETATM    8  C   UNL     1      -9.239  14.114  67.677  1.00  0.00    -0.193 A  
BRANCH   5   9
HETATM    9  C   UNL     1      -5.806  11.666  68.600  1.00  0.00    -0.046 C  
HETATM   10  C   UNL     1      -5.159  11.628  69.958  1.00  0.00    -0.074 C  
BRANCH   9  11
HETATM   11  N   UNL     1      -5.338  11.018  67.569  1.00  0.00    -0.040 NA 
HETATM   12  H   UNL     1      -4.808  11.453  66.814  1.00  0.00     0.000 HD 
BRANCH  11  13
HETATM   13  O   UNL     1      -5.648   9.660  67.624  1.00  0.00    -0.037 OA 
BRANCH  13  14
HETATM   14  C   UNL     1      -6.301   9.317  66.407  1.00  0.00    -0.066 C  
BRANCH  14  15
HETATM   15  C   UNL     1      -7.011   8.017  66.626  1.00  0.00    -0.072 A  
HETATM   16  F   UNL     1     -11.069   5.781  68.162  1.00  0.00    -0.315 F  
HETATM   17  F   UNL     1     -10.469   7.710  68.931  1.00  0.00    -0.201 F  
HETATM   18  C   UNL     1      -6.345   6.812  66.460  1.00  0.00    -0.045 A  
HETATM   19  F   UNL     1     -11.281   7.559  66.924  1.00  0.00    -0.380 F  
HETATM   20  C   UNL     1      -7.029   5.611  66.622  1.00  0.00    -0.064 A  
HETATM   21  C   UNL     1      -8.335   7.995  67.070  1.00  0.00    -0.116 A  
HETATM   22  C   UNL     1      -8.408   5.563  66.916  1.00  0.00    -0.108 A  
HETATM   23  C   UNL     1     -10.446   6.936  67.804  1.00  0.00    -0.223 C  
HETATM   24  C   UNL     1      -9.042   6.785  67.250  1.00  0.00    -0.121 A  
BRANCH  22  25
HETATM   25  C   UNL     1      -9.169   4.232  66.821  1.00  0.00    -0.156 C  
HETATM   26  C   UNL     1     -10.081   4.171  65.572  1.00  0.00    -0.198 C  
HETATM   27  C   UNL     1      -9.274   4.107  64.279  1.00  0.00    -0.150 C  
HETATM   28  C   UNL     1      -8.404   2.860  64.246  1.00  0.00    -0.083 C  
HETATM   29  C   UNL     1      -7.539   2.707  65.492  1.00  0.00    -0.076 C  
HETATM   30  C   UNL     1      -8.308   2.939  66.802  1.00  0.00    -0.094 C  
ENDBRANCH  22  25
ENDBRANCH  14  15
ENDBRANCH  13  14
ENDBRANCH  11  13
ENDBRANCH   9  11
ENDBRANCH   5   9
BRANCH   8  31
HETATM   31  C   UNL     1     -10.445  14.935  67.238  1.00  0.00    -0.263 C  
BRANCH  31  32
HETATM   32  N   UNL     1     -11.100  14.507  65.978  1.00  0.00    -0.323 NA 
HETATM   33  O   UNL     1     -12.534  14.031  63.309  1.00  0.00    -0.795 OA 
HETATM   34  O   UNL     1     -13.103  11.855  63.285  1.00  0.00    -0.674 OA 
HETATM   35  C   UNL     1     -10.386  13.365  65.348  1.00  0.00    -0.312 C  
HETATM   36  C   UNL     1     -12.519  12.778  63.846  1.00  0.00    -0.367 C  
HETATM   37  C   UNL     1     -12.211  13.570  66.332  1.00  0.00    -0.400 C  
HETATM   38  C   UNL     1     -11.750  12.659  65.179  1.00  0.00    -0.407 C  
ENDBRANCH  31  32
ENDBRANCH   8  31
ENDBRANCH   2   3
TORSDOF 9
ENDMDL
MODEL      240
REMARK 921   NORMALIZED FREE ENERGY PREDICTED BY IDOCK:   -4.84 KCAL/MOL
REMARK 922        TOTAL FREE ENERGY PREDICTED BY IDOCK:   -8.81 KCAL/MOL
REMARK 923 INTER-LIGAND FREE ENERGY PREDICTED BY IDOCK:   -7.53 KCAL/MOL
REMARK 924 INTRA-LIGAND FREE ENERGY PREDICTED BY IDOCK:   -1.28 KCAL/MOL
REMARK 927      BINDING AFFINITY PREDICTED BY RF-SCORE:    0.00 PKD
ROOT
HETATM    1  C   UNL     1     -10.645   8.039  69.740  1.00  0.00    -0.238 C  
HETATM    2  C   UNL     1      -9.725   6.830  69.787  1.00  0.00    -0.162 C  
ENDROOT
BRANCH   2   3
HETATM    3  C   UNL     1      -8.364   7.097  69.185  1.00  0.00    -0.129 A  
HETATM    4  C   UNL     1      -7.884   8.402  69.373  1.00  0.00    -0.103 A  
HETATM    5  C   UNL     1      -6.729   8.863  68.736  1.00  0.00    -0.054 A  
HETATM    6  C   UNL     1      -6.006   7.996  67.927  1.00  0.00    -0.042 A  
HETATM    7  C   UNL     1      -6.434   6.666  67.785  1.00  0.00    -0.053 A  
HETATM    8  C   UNL     1      -7.602   6.186  68.422  1.00  0.00    -0.092 A  
BRANCH   5   9
HETATM    9  C   UNL     1      -6.437  10.318  68.871  1.00  0.00    -0.051 C  
HETATM   10  C   UNL     1      -6.194  10.922  70.228  1.00  0.00    -0.141 C  
BRANCH   9  11
HETATM   11  N   UNL     1      -6.408  11.010  67.767  1.00  0.00    -0.057 NA 
HETATM   12  H   UNL     1      -5.566  11.443  67.386  1.00  0.00     0.000 HD 
BRANCH  11  13
HETATM   13  O   UNL     1      -7.665  11.089  67.169  1.00  0.00    -0.119 OA 
BRANCH  13  14
HETATM   14  C   UNL     1      -8.507  11.844  68.032  1.00  0.00    -0.162 C  
BRANCH  14  15
HETATM   15  C   UNL     1      -8.657  13.210  67.437  1.00  0.00    -0.204 A  
HETATM   16  F   UNL     1     -11.107  16.071  64.333  1.00  0.00    -0.452 F  
HETATM   17  F   UNL     1     -10.958  13.935  64.040  1.00  0.00    -0.327 F  
HETATM   18  C   UNL     1      -7.720  14.199  67.696  1.00  0.00    -0.186 A  
HETATM   19  F   UNL     1     -12.246  14.718  65.601  1.00  0.00    -0.320 F  
HETATM   20  C   UNL     1      -7.896  15.477  67.173  1.00  0.00    -0.256 A  
HETATM   21  C   UNL     1      -9.702  13.490  66.554  1.00  0.00    -0.287 A  
HETATM   22  C   UNL     1      -9.028  15.829  66.408  1.00  0.00    -0.366 A  
HETATM   23  C   UNL     1     -11.030  14.895  65.011  1.00  0.00    -0.420 C  
HETATM   24  C   UNL     1      -9.890  14.779  66.006  1.00  0.00    -0.350 A  
BRANCH  22  25
HETATM   25  C   UNL     1      -9.308  17.304  66.083  1.00  0.00    -0.196 C  
HETATM   26  C   UNL     1     -10.508  17.858  66.887  1.00  0.00    -0.334 C  
HETATM   27  C   UNL     1     -10.193  17.971  68.376  1.00  0.00    -0.399 C  
HETATM   28  C   UNL     1      -9.031  18.924  68.611  1.00  0.00    -0.386 C  
HETATM   29  C   UNL     1      -7.805  18.583  67.772  1.00  0.00    -0.257 C  
HETATM   30  C   UNL     1      -8.135  18.299  66.297  1.00  0.00    -0.254 C  
ENDBRANCH  22  25
ENDBRANCH  14  15
ENDBRANCH  13  14
ENDBRANCH  11  13
ENDBRANCH   9  11
ENDBRANCH   5   9
BRANCH   8  31
HETATM   31  C   UNL     1      -8.071   4.760  68.161  1.00  0.00    -0.085 C  
BRANCH  31  32
HETATM   32  N   UNL     1      -8.365   4.419  66.748  1.00  0.00    -0.105 NA 
HETATM   33  O   UNL     1      -8.576   3.825  63.747  1.00  0.00    -0.091 OA 
HETATM   34  O   UNL     1     -10.775   3.778  63.273  1.00  0.00    -0.232 OA 
HETATM   35  C   UNL     1      -9.270   3.243  66.644  1.00  0.00    -0.160 C  
HETATM   36  C   UNL     1      -9.888   3.863  64.118  1.00  0.00    -0.181 C  
HETATM   37  C   UNL     1      -9.496   5.284  66.292  1.00  0.00    -0.156 C  
HETATM   38  C   UNL     1     -10.123   4.041  65.633  1.00  0.00    -0.127 C  
ENDBRANCH  31  32
ENDBRANCH   8  31
ENDBRANCH   2   3
TORSDOF 9
ENDMDL
MODEL      241
REMARK 921   NORMALIZED FREE ENERGY PREDICTED BY IDOCK:   -4.83 KCAL/MOL
REMARK 922        TOTAL FREE ENERGY PREDICTED BY IDOCK:   -8.81 KCAL/MOL
REMARK 923 INTER-LIGAND FREE ENERGY PREDICTED BY IDOCK:   -7.29 KCAL/MOL
REMARK 924 INTRA-LIGAND FREE ENERGY PREDICTED BY IDOCK:   -1.52 KCAL/MOL
REMARK 927      BINDING AFFINITY PREDICTED BY RF-SCORE:    0.00 PKD
ROOT
HETATM    1  C   UNL     1     -12.249  12.794  70.952  1.00  0.00    -0.284 C  
HETATM    2  C   UNL     1     -12.025  11.966  69.697  1.00  0.00    -0.365 C  
ENDROOT
BRANCH   2   3
HETATM    3  C   UNL     1     -10.806  11.076  69.783  1.00  0.00    -0.205 A  
HETATM    4  C   UNL     1     -10.924  10.001  70.677  1.00  0.00    -0.392 A  
HETATM    5  C   UNL     1      -9.836   9.189  71.005  1.00  0.00    -0.366 A  
HETATM    6  C   UNL     1      -8.607   9.420  70.398  1.00  0.00    -0.266 A  
HETATM    7  C   UNL     1      -8.489  10.448  69.447  1.00  0.00    -0.145 A  
HETATM    8  C   UNL     1      -9.583  11.279  69.107  1.00  0.00     0.038 A  
BRANCH   5   9
HETATM    9  C   UNL     1     -10.052   8.208  72.104  1.00  0.00    -0.253 C  
HETATM   10  C   UNL     1      -9.280   8.325  73.391  1.00  0.00    -0.221 C  
BRANCH   9  11
HETATM   11  N   UNL     1     -10.929   7.269  71.882  1.00  0.00    -0.227 NA 
HETATM   12  H   UNL     1     -10.960   6.384  72.389  1.00  0.00     0.000 HD 
BRANCH  11  13
HETATM   13  O   UNL     1     -11.820   7.620  70.869  1.00  0.00    -0.289 OA 
BRANCH  13  14
HETATM   14  C   UNL     1     -12.148   6.435  70.153  1.00  0.00     0.176 C  
BRANCH  14  15
HETATM   15  C   UNL     1     -10.940   6.036  69.363  1.00  0.00    -0.455 A  
HETATM   16  F   UNL     1      -7.310   2.824  68.784  1.00  0.00    -0.047 F  
HETATM   17  F   UNL     1      -8.222   3.180  70.711  1.00  0.00    -0.051 F  
HETATM   18  C   UNL     1     -10.425   6.876  68.387  1.00  0.00    -0.235 A  
HETATM   19  F   UNL     1      -9.304   2.057  69.202  1.00  0.00    -0.156 F  
HETATM   20  C   UNL     1      -9.330   6.473  67.629  1.00  0.00    -0.118 A  
HETATM   21  C   UNL     1     -10.269   4.844  69.644  1.00  0.00    -0.265 A  
HETATM   22  C   UNL     1      -8.731   5.205  67.786  1.00  0.00    -0.103 A  
HETATM   23  C   UNL     1      -8.495   3.141  69.372  1.00  0.00    -0.062 C  
HETATM   24  C   UNL     1      -9.149   4.423  68.891  1.00  0.00    -0.175 A  
BRANCH  22  25
HETATM   25  C   UNL     1      -7.707   4.705  66.756  1.00  0.00    -0.095 C  
HETATM   26  C   UNL     1      -8.331   3.700  65.757  1.00  0.00    -0.106 C  
HETATM   27  C   UNL     1      -9.337   4.371  64.826  1.00  0.00    -0.160 C  
HETATM   28  C   UNL     1      -8.666   5.454  63.996  1.00  0.00     0.045 C  
HETATM   29  C   UNL     1      -7.886   6.453  64.842  1.00  0.00    -0.113 C  
HETATM   30  C   UNL     1      -6.993   5.789  65.903  1.00  0.00    -0.065 C  
ENDBRANCH  22  25
ENDBRANCH  14  15
ENDBRANCH  13  14
ENDBRANCH  11  13
ENDBRANCH   9  11
ENDBRANCH   5   9
BRANCH   8  31
HETATM   31  C   UNL     1      -9.377  12.436  68.138  1.00  0.00    -0.209 C  
BRANCH  31  32
HETATM   32  N   UNL     1      -9.670  12.151  66.712  1.00  0.00    -0.203 NA 
HETATM   33  O   UNL     1      -9.871  11.644  63.695  1.00  0.00    -0.310 OA 
HETATM   34  O   UNL     1     -12.058  11.780  63.183  1.00  0.00    -0.389 OA 
HETATM   35  C   UNL     1     -10.662  11.053  66.565  1.00  0.00    -0.241 C  
HETATM   36  C   UNL     1     -11.182  11.777  64.044  1.00  0.00    -0.385 C  
HETATM   37  C   UNL     1     -10.723  13.113  66.258  1.00  0.00    -0.284 C  
HETATM   38  C   UNL     1     -11.431  11.938  65.559  1.00  0.00    -0.311 C  
ENDBRANCH  31  32
ENDBRANCH   8  31
ENDBRANCH   2   3
TORSDOF 9
ENDMDL
MODEL      242
REMARK 921   NORMALIZED FREE ENERGY PREDICTED BY IDOCK:   -4.83 KCAL/MOL
REMARK 922        TOTAL FREE ENERGY PREDICTED BY IDOCK:   -8.80 KCAL/MOL
REMARK 923 INTER-LIGAND FREE ENERGY PREDICTED BY IDOCK:   -7.84 KCAL/MOL
REMARK 924 INTRA-LIGAND FREE ENERGY PREDICTED BY IDOCK:   -0.96 KCAL/MOL
REMARK 927      BINDING AFFINITY PREDICTED BY RF-SCORE:    0.00 PKD
ROOT
HETATM    1  C   UNL     1      -8.353  17.870  67.220  1.00  0.00    -0.232 C  
HETATM    2  C   UNL     1      -8.091  16.577  66.466  1.00  0.00    -0.341 C  
ENDROOT
BRANCH   2   3
HETATM    3  C   UNL     1      -8.398  15.342  67.284  1.00  0.00    -0.224 A  
HETATM    4  C   UNL     1      -7.272  14.689  67.808  1.00  0.00    -0.191 A  
HETATM    5  C   UNL     1      -7.365  13.445  68.436  1.00  0.00    -0.112 A  
HETATM    6  C   UNL     1      -8.611  12.852  68.589  1.00  0.00     0.053 A  
HETATM    7  C   UNL     1      -9.757  13.525  68.134  1.00  0.00    -0.233 A  
HETATM    8  C   UNL     1      -9.678  14.784  67.494  1.00  0.00    -0.213 A  
BRANCH   5   9
HETATM    9  C   UNL     1      -6.076  12.779  68.775  1.00  0.00    -0.071 C  
HETATM   10  C   UNL     1      -5.266  13.246  69.955  1.00  0.00    -0.088 C  
BRANCH   9  11
HETATM   11  N   UNL     1      -5.709  11.794  68.004  1.00  0.00    -0.044 NA 
HETATM   12  H   UNL     1      -5.142  11.906  67.164  1.00  0.00     0.000 HD 
BRANCH  11  13
HETATM   13  O   UNL     1      -6.187  10.567  68.465  1.00  0.00    -0.047 OA 
BRANCH  13  14
HETATM   14  C   UNL     1      -6.488   9.766  67.329  1.00  0.00    -0.069 C  
BRANCH  14  15
HETATM   15  C   UNL     1      -7.499   8.745  67.750  1.00  0.00    -0.093 A  
HETATM   16  F   UNL     1      -8.530   4.011  68.339  1.00  0.00    -0.087 F  
HETATM   17  F   UNL     1      -7.092   4.692  66.876  1.00  0.00    -0.067 F  
HETATM   18  C   UNL     1      -8.800   9.122  68.049  1.00  0.00    -0.129 A  
HETATM   19  F   UNL     1      -6.577   4.726  68.984  1.00  0.00    -0.038 F  
HETATM   20  C   UNL     1      -9.717   8.170  68.483  1.00  0.00    -0.170 A  
HETATM   21  C   UNL     1      -7.170   7.389  67.781  1.00  0.00    -0.091 A  
HETATM   22  C   UNL     1      -9.365   6.817  68.674  1.00  0.00    -0.131 A  
HETATM   23  C   UNL     1      -7.597   4.975  68.114  1.00  0.00    -0.079 C  
HETATM   24  C   UNL     1      -8.091   6.407  68.209  1.00  0.00    -0.113 A  
BRANCH  22  25
HETATM   25  C   UNL     1     -10.328   5.867  69.403  1.00  0.00    -0.313 C  
HETATM   26  C   UNL     1      -9.669   5.207  70.638  1.00  0.00    -0.257 C  
HETATM   27  C   UNL     1      -9.402   6.217  71.750  1.00  0.00    -0.159 C  
HETATM   28  C   UNL     1     -10.700   6.847  72.231  1.00  0.00    -0.253 C  
HETATM   29  C   UNL     1     -11.536   7.425  71.096  1.00  0.00    -0.303 C  
HETATM   30  C   UNL     1     -11.670   6.478  69.892  1.00  0.00    -0.349 C  
ENDBRANCH  22  25
ENDBRANCH  14  15
ENDBRANCH  13  14
ENDBRANCH  11  13
ENDBRANCH   9  11
ENDBRANCH   5   9
BRANCH   8  31
HETATM   31  C   UNL     1     -10.942  15.428  66.939  1.00  0.00    -0.294 C  
BRANCH  31  32
HETATM   32  N   UNL     1     -11.486  14.829  65.697  1.00  0.00    -0.346 NA 
HETATM   33  O   UNL     1     -12.782  13.967  63.054  1.00  0.00    -0.586 OA 
HETATM   34  O   UNL     1     -12.840  11.719  63.091  1.00  0.00    -0.571 OA 
HETATM   35  C   UNL     1     -10.533  13.863  65.089  1.00  0.00    -0.393 C  
HETATM   36  C   UNL     1     -12.481  12.766  63.623  1.00  0.00    -0.389 C  
HETATM   37  C   UNL     1     -12.353  13.673  66.084  1.00  0.00    -0.426 C  
HETATM   38  C   UNL     1     -11.700  12.861  64.951  1.00  0.00    -0.388 C  
ENDBRANCH  31  32
ENDBRANCH   8  31
ENDBRANCH   2   3
TORSDOF 9
ENDMDL
MODEL      243
REMARK 921   NORMALIZED FREE ENERGY PREDICTED BY IDOCK:   -4.82 KCAL/MOL
REMARK 922        TOTAL FREE ENERGY PREDICTED BY IDOCK:   -8.78 KCAL/MOL
REMARK 923 INTER-LIGAND FREE ENERGY PREDICTED BY IDOCK:   -8.53 KCAL/MOL
REMARK 924 INTRA-LIGAND FREE ENERGY PREDICTED BY IDOCK:   -0.25 KCAL/MOL
REMARK 927      BINDING AFFINITY PREDICTED BY RF-SCORE:    0.00 PKD
ROOT
HETATM    1  C   UNL     1     -12.242  12.223  68.944  1.00  0.00    -0.009 C  
HETATM    2  C   UNL     1     -10.888  11.635  68.581  1.00  0.00    -0.253 C  
ENDROOT
BRANCH   2   3
HETATM    3  C   UNL     1     -10.712  11.426  67.094  1.00  0.00    -0.292 A  
HETATM    4  C   UNL     1      -9.965  10.291  66.744  1.00  0.00    -0.261 A  
HETATM    5  C   UNL     1      -9.564  10.047  65.428  1.00  0.00    -0.342 A  
HETATM    6  C   UNL     1      -9.951  10.926  64.425  1.00  0.00    -0.381 A  
HETATM    7  C   UNL     1     -10.759  12.029  64.747  1.00  0.00    -0.352 A  
HETATM    8  C   UNL     1     -11.171  12.290  66.076  1.00  0.00    -0.375 A  
BRANCH   5   9
HETATM    9  C   UNL     1      -8.619   8.913  65.226  1.00  0.00    -0.184 C  
HETATM   10  C   UNL     1      -7.476   9.040  64.255  1.00  0.00    -0.106 C  
BRANCH   9  11
HETATM   11  N   UNL     1      -8.843   7.837  65.927  1.00  0.00    -0.246 NA 
HETATM   12  H   UNL     1      -9.744   7.359  65.969  1.00  0.00     0.000 HD 
BRANCH  11  13
HETATM   13  O   UNL     1      -7.704   7.416  66.611  1.00  0.00    -0.097 OA 
BRANCH  13  14
HETATM   14  C   UNL     1      -7.445   8.362  67.642  1.00  0.00    -0.094 C  
BRANCH  14  15
HETATM   15  C   UNL     1      -7.951   7.781  68.926  1.00  0.00    -0.124 A  
HETATM   16  F   UNL     1     -11.254   8.042  72.511  1.00  0.00    -0.326 F  
HETATM   17  F   UNL     1     -10.659   9.784  71.380  1.00  0.00    -0.388 F  
HETATM   18  C   UNL     1      -7.240   6.785  69.580  1.00  0.00    -0.081 A  
HETATM   19  F   UNL     1     -11.941   8.293  70.460  1.00  0.00    -0.236 F  
HETATM   20  C   UNL     1      -7.745   6.223  70.748  1.00  0.00    -0.102 A  
HETATM   21  C   UNL     1      -9.109   8.282  69.525  1.00  0.00    -0.154 A  
HETATM   22  C   UNL     1      -8.992   6.601  71.288  1.00  0.00    -0.144 A  
HETATM   23  C   UNL     1     -10.854   8.436  71.272  1.00  0.00    -0.239 C  
HETATM   24  C   UNL     1      -9.631   7.730  70.717  1.00  0.00    -0.167 A  
BRANCH  22  25
HETATM   25  C   UNL     1      -9.625   5.773  72.417  1.00  0.00    -0.164 C  
HETATM   26  C   UNL     1      -9.432   4.252  72.200  1.00  0.00    -0.186 C  
HETATM   27  C   UNL     1      -7.972   3.835  72.352  1.00  0.00    -0.073 C  
HETATM   28  C   UNL     1      -7.465   4.145  73.752  1.00  0.00    -0.076 C  
HETATM   29  C   UNL     1      -7.713   5.591  74.166  1.00  0.00    -0.099 C  
HETATM   30  C   UNL     1      -9.138   6.078  73.860  1.00  0.00    -0.127 C  
ENDBRANCH  22  25
ENDBRANCH  14  15
ENDBRANCH  13  14
ENDBRANCH  11  13
ENDBRANCH   9  11
ENDBRANCH   5   9
BRANCH   8  31
HETATM   31  C   UNL     1     -11.971  13.549  66.383  1.00  0.00    -0.414 C  
BRANCH  31  32
HETATM   32  N   UNL     1     -11.180  14.777  66.638  1.00  0.00    -0.341 NA 
HETATM   33  O   UNL     1      -9.893  17.470  67.343  1.00  0.00    -0.280 OA 
HETATM   34  O   UNL     1      -8.061  17.644  66.050  1.00  0.00    -0.485 OA 
HETATM   35  C   UNL     1      -9.767  14.460  66.978  1.00  0.00    -0.254 C  
HETATM   36  C   UNL     1      -9.008  16.966  66.437  1.00  0.00    -0.283 C  
HETATM   37  C   UNL     1     -10.707  15.303  65.320  1.00  0.00    -0.415 C  
HETATM   38  C   UNL     1      -9.324  15.533  65.958  1.00  0.00    -0.379 C  
ENDBRANCH  31  32
ENDBRANCH   8  31
ENDBRANCH   2   3
TORSDOF 9
ENDMDL
MODEL      244
REMARK 921   NORMALIZED FREE ENERGY PREDICTED BY IDOCK:   -4.80 KCAL/MOL
REMARK 922        TOTAL FREE ENERGY PREDICTED BY IDOCK:   -8.76 KCAL/MOL
REMARK 923 INTER-LIGAND FREE ENERGY PREDICTED BY IDOCK:   -7.92 KCAL/MOL
REMARK 924 INTRA-LIGAND FREE ENERGY PREDICTED BY IDOCK:   -0.83 KCAL/MOL
REMARK 927      BINDING AFFINITY PREDICTED BY RF-SCORE:    0.00 PKD
ROOT
HETATM    1  C   UNL     1      -5.849   7.643  64.848  1.00  0.00    -0.038 C  
HETATM    2  C   UNL     1      -6.420   8.733  65.739  1.00  0.00    -0.057 C  
ENDROOT
BRANCH   2   3
HETATM    3  C   UNL     1      -7.821   8.431  66.221  1.00  0.00    -0.098 A  
HETATM    4  C   UNL     1      -7.888   7.608  67.356  1.00  0.00    -0.118 A  
HETATM    5  C   UNL     1      -9.098   7.092  67.825  1.00  0.00    -0.127 A  
HETATM    6  C   UNL     1     -10.279   7.437  67.181  1.00  0.00    -0.347 A  
HETATM    7  C   UNL     1     -10.238   8.317  66.087  1.00  0.00     0.214 A  
HETATM    8  C   UNL     1      -9.019   8.845  65.600  1.00  0.00    -0.249 A  
BRANCH   5   9
HETATM    9  C   UNL     1      -9.006   6.085  68.919  1.00  0.00    -0.123 C  
HETATM   10  C   UNL     1      -7.791   5.206  69.043  1.00  0.00    -0.081 C  
BRANCH   9  11
HETATM   11  N   UNL     1     -10.020   6.018  69.735  1.00  0.00    -0.167 NA 
HETATM   12  H   UNL     1     -10.421   5.145  70.080  1.00  0.00     0.000 HD 
BRANCH  11  13
HETATM   13  O   UNL     1     -10.492   7.284  70.082  1.00  0.00    -0.208 OA 
BRANCH  13  14
HETATM   14  C   UNL     1      -9.371   8.074  70.459  1.00  0.00    -0.155 C  
BRANCH  14  15
HETATM   15  C   UNL     1      -9.623   9.472  69.985  1.00  0.00    -0.272 A  
HETATM   16  F   UNL     1      -7.777  13.475  67.889  1.00  0.00    -0.104 F  
HETATM   17  F   UNL     1      -6.540  12.098  69.005  1.00  0.00    -0.073 F  
HETATM   18  C   UNL     1     -10.826  10.105  70.261  1.00  0.00    -0.370 A  
HETATM   19  F   UNL     1      -7.263  11.539  67.037  1.00  0.00    -0.111 F  
HETATM   20  C   UNL     1     -11.064  11.387  69.776  1.00  0.00    -0.198 A  
HETATM   21  C   UNL     1      -8.626  10.188  69.320  1.00  0.00    -0.180 A  
HETATM   22  C   UNL     1     -10.134  12.071  68.966  1.00  0.00     0.070 A  
HETATM   23  C   UNL     1      -7.638  12.156  68.194  1.00  0.00    -0.125 C  
HETATM   24  C   UNL     1      -8.847  11.494  68.829  1.00  0.00    -0.047 A  
BRANCH  22  25
HETATM   25  C   UNL     1     -10.547  13.360  68.239  1.00  0.00    -0.264 C  
HETATM   26  C   UNL     1     -12.076  13.596  68.299  1.00  0.00    -0.306 C  
HETATM   27  C   UNL     1     -12.547  13.926  69.712  1.00  0.00    -0.113 C  
HETATM   28  C   UNL     1     -11.888  15.200  70.217  1.00  0.00    -0.352 C  
HETATM   29  C   UNL     1     -10.369  15.172  70.092  1.00  0.00    -0.146 C  
HETATM   30  C   UNL     1      -9.878  14.676  68.722  1.00  0.00    -0.227 C  
ENDBRANCH  22  25
ENDBRANCH  14  15
ENDBRANCH  13  14
ENDBRANCH  11  13
ENDBRANCH   9  11
ENDBRANCH   5   9
BRANCH   8  31
HETATM   31  C   UNL     1      -9.023   9.722  64.355  1.00  0.00    -0.245 C  
BRANCH  31  32
HETATM   32  N   UNL     1     -10.240  10.542  64.139  1.00  0.00    -0.303 NA 
HETATM   33  O   UNL     1     -12.956  11.873  63.634  1.00  0.00    -0.692 OA 
HETATM   34  O   UNL     1     -12.516  14.020  63.128  1.00  0.00    -0.733 OA 
HETATM   35  C   UNL     1     -10.264  11.733  65.030  1.00  0.00    -0.272 C  
HETATM   36  C   UNL     1     -12.099  12.923  63.492  1.00  0.00    -0.555 C  
HETATM   37  C   UNL     1      -9.980  11.457  62.984  1.00  0.00    -0.322 C  
HETATM   38  C   UNL     1     -10.622  12.595  63.798  1.00  0.00    -0.432 C  
ENDBRANCH  31  32
ENDBRANCH   8  31
ENDBRANCH   2   3
TORSDOF 9
ENDMDL
MODEL      245
REMARK 921   NORMALIZED FREE ENERGY PREDICTED BY IDOCK:   -4.79 KCAL/MOL
REMARK 922        TOTAL FREE ENERGY PREDICTED BY IDOCK:   -8.74 KCAL/MOL
REMARK 923 INTER-LIGAND FREE ENERGY PREDICTED BY IDOCK:   -7.51 KCAL/MOL
REMARK 924 INTRA-LIGAND FREE ENERGY PREDICTED BY IDOCK:   -1.23 KCAL/MOL
REMARK 927      BINDING AFFINITY PREDICTED BY RF-SCORE:    0.00 PKD
ROOT
HETATM    1  C   UNL     1     -11.097  16.646  68.428  1.00  0.00    -0.305 C  
HETATM    2  C   UNL     1      -9.980  16.441  67.417  1.00  0.00    -0.251 C  
ENDROOT
BRANCH   2   3
HETATM    3  C   UNL     1      -8.639  16.174  68.063  1.00  0.00    -0.171 A  
HETATM    4  C   UNL     1      -8.289  14.818  68.155  1.00  0.00    -0.144 A  
HETATM    5  C   UNL     1      -7.172  14.390  68.874  1.00  0.00    -0.125 A  
HETATM    6  C   UNL     1      -6.352  15.333  69.483  1.00  0.00    -0.145 A  
HETATM    7  C   UNL     1      -6.648  16.699  69.341  1.00  0.00    -0.222 A  
HETATM    8  C   UNL     1      -7.778  17.146  68.616  1.00  0.00    -0.260 A  
BRANCH   5   9
HETATM    9  C   UNL     1      -7.023  12.918  69.049  1.00  0.00    -0.058 C  
HETATM   10  C   UNL     1      -5.888  12.360  69.865  1.00  0.00    -0.139 C  
BRANCH   9  11
HETATM   11  N   UNL     1      -7.917  12.170  68.466  1.00  0.00    -0.213 NA 
HETATM   12  H   UNL     1      -8.921  12.348  68.499  1.00  0.00     0.000 HD 
BRANCH  11  13
HETATM   13  O   UNL     1      -7.336  11.097  67.790  1.00  0.00    -0.088 OA 
BRANCH  13  14
HETATM   14  C   UNL     1      -8.388  10.317  67.235  1.00  0.00    -0.121 C  
BRANCH  14  15
HETATM   15  C   UNL     1      -8.910   9.425  68.318  1.00  0.00    -0.128 A  
HETATM   16  F   UNL     1      -7.884   6.797  72.301  1.00  0.00    -0.093 F  
HETATM   17  F   UNL     1      -6.406   7.170  70.769  1.00  0.00    -0.036 F  
HETATM   18  C   UNL     1     -10.218   8.963  68.283  1.00  0.00    -0.239 A  
HETATM   19  F   UNL     1      -6.988   8.772  72.114  1.00  0.00    -0.103 F  
HETATM   20  C   UNL     1     -10.703   8.172  69.320  1.00  0.00    -0.141 A  
HETATM   21  C   UNL     1      -8.071   8.986  69.344  1.00  0.00    -0.108 A  
HETATM   22  C   UNL     1      -9.922   7.845  70.448  1.00  0.00    -0.192 A  
HETATM   23  C   UNL     1      -7.487   7.728  71.392  1.00  0.00    -0.076 C  
HETATM   24  C   UNL     1      -8.544   8.174  70.400  1.00  0.00    -0.131 A  
BRANCH  22  25
HETATM   25  C   UNL     1     -10.579   7.202  71.679  1.00  0.00    -0.229 C  
HETATM   26  C   UNL     1     -11.055   8.261  72.703  1.00  0.00    -0.400 C  
HETATM   27  C   UNL     1     -12.229   9.079  72.174  1.00  0.00    -0.427 C  
HETATM   28  C   UNL     1     -13.423   8.183  71.883  1.00  0.00    -0.354 C  
HETATM   29  C   UNL     1     -13.074   7.001  70.987  1.00  0.00    -0.170 C  
HETATM   30  C   UNL     1     -11.791   6.269  71.413  1.00  0.00    -0.268 C  
ENDBRANCH  22  25
ENDBRANCH  14  15
ENDBRANCH  13  14
ENDBRANCH  11  13
ENDBRANCH   9  11
ENDBRANCH   5   9
BRANCH   8  31
HETATM   31  C   UNL     1      -8.102  18.634  68.570  1.00  0.00    -0.341 C  
BRANCH  31  32
HETATM   32  N   UNL     1      -7.286  19.450  67.638  1.00  0.00    -0.241 NA 
HETATM   33  O   UNL     1      -5.496  21.366  66.049  1.00  0.00    -0.228 OA 
HETATM   34  O   UNL     1      -6.094  21.136  63.892  1.00  0.00    -0.300 OA 
HETATM   35  C   UNL     1      -6.658  18.613  66.582  1.00  0.00    -0.189 C  
HETATM   36  C   UNL     1      -6.211  20.763  65.057  1.00  0.00    -0.269 C  
HETATM   37  C   UNL     1      -8.201  20.013  66.598  1.00  0.00    -0.314 C  
HETATM   38  C   UNL     1      -7.152  19.637  65.535  1.00  0.00    -0.288 C  
ENDBRANCH  31  32
ENDBRANCH   8  31
ENDBRANCH   2   3
TORSDOF 9
ENDMDL
MODEL      246
REMARK 921   NORMALIZED FREE ENERGY PREDICTED BY IDOCK:   -4.78 KCAL/MOL
REMARK 922        TOTAL FREE ENERGY PREDICTED BY IDOCK:   -8.73 KCAL/MOL
REMARK 923 INTER-LIGAND FREE ENERGY PREDICTED BY IDOCK:   -6.45 KCAL/MOL
REMARK 924 INTRA-LIGAND FREE ENERGY PREDICTED BY IDOCK:   -2.27 KCAL/MOL
REMARK 927      BINDING AFFINITY PREDICTED BY RF-SCORE:    0.00 PKD
ROOT
HETATM    1  C   UNL     1      -9.348  10.782  62.732  1.00  0.00    -0.352 C  
HETATM    2  C   UNL     1      -9.732  10.481  64.172  1.00  0.00    -0.388 C  
ENDROOT
BRANCH   2   3
HETATM    3  C   UNL     1      -8.665   9.717  64.922  1.00  0.00    -0.207 A  
HETATM    4  C   UNL     1      -8.534   8.370  64.551  1.00  0.00    -0.078 A  
HETATM    5  C   UNL     1      -7.721   7.483  65.260  1.00  0.00    -0.112 A  
HETATM    6  C   UNL     1      -6.982   7.952  66.339  1.00  0.00    -0.067 A  
HETATM    7  C   UNL     1      -7.046   9.313  66.680  1.00  0.00    -0.082 A  
HETATM    8  C   UNL     1      -7.867  10.222  65.971  1.00  0.00    -0.133 A  
BRANCH   5   9
HETATM    9  C   UNL     1      -7.821   6.047  64.878  1.00  0.00    -0.106 C  
HETATM   10  C   UNL     1      -6.641   5.338  64.270  1.00  0.00    -0.042 C  
BRANCH   9  11
HETATM   11  N   UNL     1      -8.966   5.464  65.099  1.00  0.00    -0.299 NA 
HETATM   12  H   UNL     1      -9.290   4.633  64.603  1.00  0.00     0.000 HD 
BRANCH  11  13
HETATM   13  O   UNL     1      -9.694   6.111  66.096  1.00  0.00    -0.110 OA 
BRANCH  13  14
HETATM   14  C   UNL     1      -9.917   5.175  67.145  1.00  0.00    -0.191 C  
BRANCH  14  15
HETATM   15  C   UNL     1     -10.086   5.951  68.415  1.00  0.00    -0.206 A  
HETATM   16  F   UNL     1      -8.001   8.838  71.752  1.00  0.00    -0.153 F  
HETATM   17  F   UNL     1      -6.853   7.421  70.593  1.00  0.00    -0.046 F  
HETATM   18  C   UNL     1     -11.254   5.846  69.155  1.00  0.00    -0.217 A  
HETATM   19  F   UNL     1      -7.589   9.232  69.651  1.00  0.00    -0.067 F  
HETATM   20  C   UNL     1     -11.416   6.607  70.309  1.00  0.00    -0.449 A  
HETATM   21  C   UNL     1      -9.045   6.736  68.912  1.00  0.00    -0.133 A  
HETATM   22  C   UNL     1     -10.442   7.528  70.747  1.00  0.00    -0.217 A  
HETATM   23  C   UNL     1      -7.939   8.248  70.528  1.00  0.00    -0.099 C  
HETATM   24  C   UNL     1      -9.188   7.508  70.087  1.00  0.00    -0.154 A  
BRANCH  22  25
HETATM   25  C   UNL     1     -10.777   8.529  71.863  1.00  0.00    -0.394 C  
HETATM   26  C   UNL     1     -10.892   9.978  71.329  1.00  0.00     0.043 C  
HETATM   27  C   UNL     1     -12.115  10.160  70.435  1.00  0.00    -0.332 C  
HETATM   28  C   UNL     1     -13.395   9.874  71.206  1.00  0.00    -0.419 C  
HETATM   29  C   UNL     1     -13.374   8.523  71.911  1.00  0.00    -0.401 C  
HETATM   30  C   UNL     1     -12.070   8.255  72.679  1.00  0.00    -0.326 C  
ENDBRANCH  22  25
ENDBRANCH  14  15
ENDBRANCH  13  14
ENDBRANCH  11  13
ENDBRANCH   9  11
ENDBRANCH   5   9
BRANCH   8  31
HETATM   31  C   UNL     1      -7.968  11.668  66.440  1.00  0.00     0.005 C  
BRANCH  31  32
HETATM   32  N   UNL     1      -7.202  12.012  67.663  1.00  0.00    -0.107 NA 
HETATM   33  O   UNL     1      -5.515  12.316  70.205  1.00  0.00    -0.108 OA 
HETATM   34  O   UNL     1      -6.153  14.255  71.150  1.00  0.00    -0.208 OA 
HETATM   35  C   UNL     1      -6.569  13.353  67.555  1.00  0.00    -0.131 C  
HETATM   36  C   UNL     1      -6.231  13.476  70.204  1.00  0.00    -0.077 C  
HETATM   37  C   UNL     1      -8.159  12.585  68.659  1.00  0.00    -0.013 C  
HETATM   38  C   UNL     1      -7.121  13.681  68.960  1.00  0.00    -0.077 C  
ENDBRANCH  31  32
ENDBRANCH   8  31
ENDBRANCH   2   3
TORSDOF 9
ENDMDL
MODEL      247
REMARK 921   NORMALIZED FREE ENERGY PREDICTED BY IDOCK:   -4.75 KCAL/MOL
REMARK 922        TOTAL FREE ENERGY PREDICTED BY IDOCK:   -8.68 KCAL/MOL
REMARK 923 INTER-LIGAND FREE ENERGY PREDICTED BY IDOCK:   -6.85 KCAL/MOL
REMARK 924 INTRA-LIGAND FREE ENERGY PREDICTED BY IDOCK:   -1.83 KCAL/MOL
REMARK 927      BINDING AFFINITY PREDICTED BY RF-SCORE:    0.00 PKD
ROOT
HETATM    1  C   UNL     1      -9.886  10.868  63.168  1.00  0.00    -0.392 C  
HETATM    2  C   UNL     1      -8.961  10.129  64.122  1.00  0.00    -0.267 C  
ENDROOT
BRANCH   2   3
HETATM    3  C   UNL     1      -8.807  10.825  65.455  1.00  0.00    -0.202 A  
HETATM    4  C   UNL     1      -9.968  11.453  65.929  1.00  0.00    -0.274 A  
HETATM    5  C   UNL     1      -9.954  12.282  67.053  1.00  0.00    -0.220 A  
HETATM    6  C   UNL     1      -8.768  12.459  67.753  1.00  0.00    -0.176 A  
HETATM    7  C   UNL     1      -7.611  11.781  67.333  1.00  0.00    -0.143 A  
HETATM    8  C   UNL     1      -7.610  10.940  66.196  1.00  0.00    -0.119 A  
BRANCH   5   9
HETATM    9  C   UNL     1     -11.210  13.033  67.334  1.00  0.00    -0.288 C  
HETATM   10  C   UNL     1     -11.861  13.858  66.257  1.00  0.00    -0.431 C  
BRANCH   9  11
HETATM   11  N   UNL     1     -11.691  12.931  68.542  1.00  0.00    -0.320 NA 
HETATM   12  H   UNL     1     -12.420  13.536  68.920  1.00  0.00     0.000 HD 
BRANCH  11  13
HETATM   13  O   UNL     1     -11.089  11.895  69.255  1.00  0.00    -0.240 OA 
BRANCH  13  14
HETATM   14  C   UNL     1     -11.913  10.743  69.121  1.00  0.00    -0.230 C  
BRANCH  14  15
HETATM   15  C   UNL     1     -11.286   9.643  69.921  1.00  0.00    -0.244 A  
HETATM   16  F   UNL     1      -9.711   5.024  69.990  1.00  0.00    -0.195 F  
HETATM   17  F   UNL     1     -11.285   5.672  68.658  1.00  0.00    -0.293 F  
HETATM   18  C   UNL     1     -11.073   9.793  71.284  1.00  0.00    -0.375 A  
HETATM   19  F   UNL     1      -9.231   6.247  68.255  1.00  0.00    -0.116 F  
HETATM   20  C   UNL     1     -10.448   8.781  72.005  1.00  0.00    -0.414 A  
HETATM   21  C   UNL     1     -10.970   8.421  69.324  1.00  0.00     0.028 A  
HETATM   22  C   UNL     1      -9.976   7.601  71.394  1.00  0.00    -0.203 A  
HETATM   23  C   UNL     1     -10.135   6.094  69.265  1.00  0.00    -0.174 C  
HETATM   24  C   UNL     1     -10.344   7.379  70.044  1.00  0.00    -0.224 A  
BRANCH  22  25
HETATM   25  C   UNL     1      -9.063   6.643  72.174  1.00  0.00    -0.138 C  
HETATM   26  C   UNL     1      -7.606   6.674  71.653  1.00  0.00    -0.093 C  
HETATM   27  C   UNL     1      -6.919   8.001  71.959  1.00  0.00    -0.076 C  
HETATM   28  C   UNL     1      -6.852   8.241  73.459  1.00  0.00    -0.149 C  
HETATM   29  C   UNL     1      -8.207   8.105  74.143  1.00  0.00    -0.310 C  
HETATM   30  C   UNL     1      -8.986   6.852  73.711  1.00  0.00    -0.187 C  
ENDBRANCH  22  25
ENDBRANCH  14  15
ENDBRANCH  13  14
ENDBRANCH  11  13
ENDBRANCH   9  11
ENDBRANCH   5   9
BRANCH   8  31
HETATM   31  C   UNL     1      -6.308  10.301  65.733  1.00  0.00    -0.111 C  
BRANCH  31  32
HETATM   32  N   UNL     1      -6.081   8.899  66.162  1.00  0.00    -0.055 NA 
HETATM   33  O   UNL     1      -5.612   5.907  66.639  1.00  0.00    -0.012 OA 
HETATM   34  O   UNL     1      -6.172   5.521  68.783  1.00  0.00    -0.030 OA 
HETATM   35  C   UNL     1      -5.198   8.827  67.356  1.00  0.00    -0.034 C  
HETATM   36  C   UNL     1      -6.001   6.329  67.875  1.00  0.00    -0.020 C  
HETATM   37  C   UNL     1      -7.229   8.492  67.030  1.00  0.00    -0.079 C  
HETATM   38  C   UNL     1      -6.213   7.854  67.996  1.00  0.00    -0.046 C  
ENDBRANCH  31  32
ENDBRANCH   8  31
ENDBRANCH   2   3
TORSDOF 9
ENDMDL
MODEL      248
REMARK 921   NORMALIZED FREE ENERGY PREDICTED BY IDOCK:   -4.75 KCAL/MOL
REMARK 922        TOTAL FREE ENERGY PREDICTED BY IDOCK:   -8.68 KCAL/MOL
REMARK 923 INTER-LIGAND FREE ENERGY PREDICTED BY IDOCK:   -6.94 KCAL/MOL
REMARK 924 INTRA-LIGAND FREE ENERGY PREDICTED BY IDOCK:   -1.74 KCAL/MOL
REMARK 927      BINDING AFFINITY PREDICTED BY RF-SCORE:    0.00 PKD
ROOT
HETATM    1  C   UNL     1      -9.326   9.759  70.253  1.00  0.00    -0.236 C  
HETATM    2  C   UNL     1     -10.498   9.255  69.427  1.00  0.00    -0.229 C  
ENDROOT
BRANCH   2   3
HETATM    3  C   UNL     1     -10.226   9.274  67.939  1.00  0.00    -0.263 A  
HETATM    4  C   UNL     1      -9.658   8.097  67.429  1.00  0.00    -0.204 A  
HETATM    5  C   UNL     1      -9.187   8.012  66.117  1.00  0.00    -0.219 A  
HETATM    6  C   UNL     1      -9.322   9.108  65.273  1.00  0.00    -0.224 A  
HETATM    7  C   UNL     1      -9.953  10.270  65.747  1.00  0.00    -0.337 A  
HETATM    8  C   UNL     1     -10.433  10.371  67.074  1.00  0.00    -0.309 A  
BRANCH   5   9
HETATM    9  C   UNL     1      -8.439   6.774  65.763  1.00  0.00    -0.147 C  
HETATM   10  C   UNL     1      -7.731   6.664  64.439  1.00  0.00    -0.113 C  
BRANCH   9  11
HETATM   11  N   UNL     1      -8.438   5.820  66.653  1.00  0.00    -0.113 NA 
HETATM   12  H   UNL     1      -9.223   5.614  67.270  1.00  0.00     0.000 HD 
BRANCH  11  13
HETATM   13  O   UNL     1      -7.235   5.116  66.658  1.00  0.00    -0.077 OA 
BRANCH  13  14
HETATM   14  C   UNL     1      -6.366   5.752  67.588  1.00  0.00    -0.038 C  
BRANCH  14  15
HETATM   15  C   UNL     1      -7.017   5.683  68.935  1.00  0.00    -0.067 A  
HETATM   16  F   UNL     1      -9.721   3.061  72.041  1.00  0.00    -0.179 F  
HETATM   17  F   UNL     1      -9.874   2.807  69.900  1.00  0.00    -0.180 F  
HETATM   18  C   UNL     1      -7.046   6.795  69.764  1.00  0.00    -0.068 A  
HETATM   19  F   UNL     1      -8.134   2.046  70.950  1.00  0.00    -0.047 F  
HETATM   20  C   UNL     1      -7.614   6.704  71.031  1.00  0.00    -0.085 A  
HETATM   21  C   UNL     1      -7.669   4.520  69.351  1.00  0.00    -0.055 A  
HETATM   22  C   UNL     1      -8.138   5.496  71.536  1.00  0.00    -0.118 A  
HETATM   23  C   UNL     1      -8.988   3.108  70.896  1.00  0.00    -0.096 C  
HETATM   24  C   UNL     1      -8.260   4.413  70.630  1.00  0.00    -0.074 A  
BRANCH  22  25
HETATM   25  C   UNL     1      -8.506   5.379  73.023  1.00  0.00    -0.118 C  
HETATM   26  C   UNL     1      -7.449   6.044  73.938  1.00  0.00    -0.092 C  
HETATM   27  C   UNL     1      -7.438   7.562  73.786  1.00  0.00    -0.129 C  
HETATM   28  C   UNL     1      -8.785   8.154  74.172  1.00  0.00    -0.114 C  
HETATM   29  C   UNL     1      -9.952   7.496  73.446  1.00  0.00    -0.378 C  
HETATM   30  C   UNL     1      -9.883   5.960  73.446  1.00  0.00    -0.167 C  
ENDBRANCH  22  25
ENDBRANCH  14  15
ENDBRANCH  13  14
ENDBRANCH  11  13
ENDBRANCH   9  11
ENDBRANCH   5   9
BRANCH   8  31
HETATM   31  C   UNL     1     -11.028  11.686  67.562  1.00  0.00    -0.259 C  
BRANCH  31  32
HETATM   32  N   UNL     1     -10.790  12.868  66.699  1.00  0.00    -0.265 NA 
HETATM   33  O   UNL     1     -10.030  15.069  64.703  1.00  0.00    -0.088 OA 
HETATM   34  O   UNL     1     -10.644  17.013  65.653  1.00  0.00    -0.468 OA 
HETATM   35  C   UNL     1     -12.035  13.654  66.490  1.00  0.00    -0.424 C  
HETATM   36  C   UNL     1     -10.630  15.786  65.695  1.00  0.00    -0.377 C  
HETATM   37  C   UNL     1     -10.280  13.975  67.566  1.00  0.00    -0.244 C  
HETATM   38  C   UNL     1     -11.236  14.932  66.830  1.00  0.00    -0.338 C  
ENDBRANCH  31  32
ENDBRANCH   8  31
ENDBRANCH   2   3
TORSDOF 9
ENDMDL
MODEL      249
REMARK 921   NORMALIZED FREE ENERGY PREDICTED BY IDOCK:   -4.73 KCAL/MOL
REMARK 922        TOTAL FREE ENERGY PREDICTED BY IDOCK:   -8.65 KCAL/MOL
REMARK 923 INTER-LIGAND FREE ENERGY PREDICTED BY IDOCK:   -8.25 KCAL/MOL
REMARK 924 INTRA-LIGAND FREE ENERGY PREDICTED BY IDOCK:   -0.40 KCAL/MOL
REMARK 927      BINDING AFFINITY PREDICTED BY RF-SCORE:    0.00 PKD
ROOT
HETATM    1  C   UNL     1      -7.486  13.764  68.336  1.00  0.00    -0.119 C  
HETATM    2  C   UNL     1      -8.761  14.325  68.945  1.00  0.00    -0.027 C  
ENDROOT
BRANCH   2   3
HETATM    3  C   UNL     1      -9.989  14.048  68.108  1.00  0.00    -0.242 A  
HETATM    4  C   UNL     1     -10.005  12.791  67.485  1.00  0.00    -0.210 A  
HETATM    5  C   UNL     1     -10.977  12.445  66.543  1.00  0.00    -0.312 A  
HETATM    6  C   UNL     1     -11.986  13.351  66.242  1.00  0.00    -0.460 A  
HETATM    7  C   UNL     1     -12.025  14.587  66.909  1.00  0.00    -0.371 A  
HETATM    8  C   UNL     1     -11.047  14.951  67.864  1.00  0.00    -0.304 A  
BRANCH   5   9
HETATM    9  C   UNL     1     -10.768  11.158  65.822  1.00  0.00    -0.188 C  
HETATM   10  C   UNL     1     -10.740  11.125  64.317  1.00  0.00    -0.403 C  
BRANCH   9  11
HETATM   11  N   UNL     1     -10.617  10.095  66.561  1.00  0.00    -0.154 NA 
HETATM   12  H   UNL     1     -11.111   9.934  67.439  1.00  0.00     0.000 HD 
BRANCH  11  13
HETATM   13  O   UNL     1      -9.698   9.204  66.008  1.00  0.00    -0.263 OA 
BRANCH  13  14
HETATM   14  C   UNL     1      -8.467   9.365  66.704  1.00  0.00    -0.126 C  
BRANCH  14  15
HETATM   15  C   UNL     1      -8.630   8.747  68.058  1.00  0.00    -0.134 A  
HETATM   16  F   UNL     1     -11.042   5.525  70.820  1.00  0.00    -0.325 F  
HETATM   17  F   UNL     1     -11.950   6.451  69.091  1.00  0.00    -0.302 F  
HETATM   18  C   UNL     1      -7.940   9.250  69.151  1.00  0.00    -0.097 A  
HETATM   19  F   UNL     1     -10.440   4.916  68.819  1.00  0.00    -0.224 F  
HETATM   20  C   UNL     1      -8.066   8.638  70.395  1.00  0.00    -0.107 A  
HETATM   21  C   UNL     1      -9.533   7.701  68.259  1.00  0.00    -0.148 A  
HETATM   22  C   UNL     1      -8.849   7.481  70.589  1.00  0.00    -0.146 A  
HETATM   23  C   UNL     1     -10.754   6.004  69.580  1.00  0.00    -0.335 C  
HETATM   24  C   UNL     1      -9.681   7.074  69.516  1.00  0.00    -0.160 A  
BRANCH  22  25
HETATM   25  C   UNL     1      -8.745   6.693  71.904  1.00  0.00    -0.128 C  
HETATM   26  C   UNL     1      -8.747   5.164  71.666  1.00  0.00    -0.140 C  
HETATM   27  C   UNL     1      -7.472   4.692  70.974  1.00  0.00    -0.067 C  
HETATM   28  C   UNL     1      -6.250   5.001  71.824  1.00  0.00    -0.030 C  
HETATM   29  C   UNL     1      -6.182   6.461  72.258  1.00  0.00    -0.049 C  
HETATM   30  C   UNL     1      -7.515   6.999  72.802  1.00  0.00    -0.084 C  
ENDBRANCH  22  25
ENDBRANCH  14  15
ENDBRANCH  13  14
ENDBRANCH  11  13
ENDBRANCH   9  11
ENDBRANCH   5   9
BRANCH   8  31
HETATM   31  C   UNL     1     -11.086  16.339  68.490  1.00  0.00    -0.368 C  
BRANCH  31  32
HETATM   32  N   UNL     1     -10.629  17.456  67.628  1.00  0.00    -0.365 NA 
HETATM   33  O   UNL     1     -10.062  19.739  65.661  1.00  0.00    -0.388 OA 
HETATM   34  O   UNL     1      -7.827  19.991  65.624  1.00  0.00    -0.305 OA 
HETATM   35  C   UNL     1      -9.789  18.424  68.383  1.00  0.00    -0.371 C  
HETATM   36  C   UNL     1      -8.810  19.441  66.112  1.00  0.00    -0.283 C  
HETATM   37  C   UNL     1      -9.399  17.007  66.906  1.00  0.00    -0.251 C  
HETATM   38  C   UNL     1      -8.766  18.373  67.226  1.00  0.00    -0.261 C  
ENDBRANCH  31  32
ENDBRANCH   8  31
ENDBRANCH   2   3
TORSDOF 9
ENDMDL
MODEL      250
REMARK 921   NORMALIZED FREE ENERGY PREDICTED BY IDOCK:   -4.71 KCAL/MOL
REMARK 922        TOTAL FREE ENERGY PREDICTED BY IDOCK:   -8.61 KCAL/MOL
REMARK 923 INTER-LIGAND FREE ENERGY PREDICTED BY IDOCK:   -7.23 KCAL/MOL
REMARK 924 INTRA-LIGAND FREE ENERGY PREDICTED BY IDOCK:   -1.38 KCAL/MOL
REMARK 927      BINDING AFFINITY PREDICTED BY RF-SCORE:    0.00 PKD
ROOT
HETATM    1  C   UNL     1     -14.198   9.828  72.505  1.00  0.00     0.258 C  
HETATM    2  C   UNL     1     -13.026   9.106  71.859  1.00  0.00    -0.473 C  
ENDROOT
BRANCH   2   3
HETATM    3  C   UNL     1     -12.223   9.991  70.932  1.00  0.00    -0.441 A  
HETATM    4  C   UNL     1     -12.554  11.354  70.988  1.00  0.00    -0.487 A  
HETATM    5  C   UNL     1     -12.033  12.278  70.079  1.00  0.00    -0.379 A  
HETATM    6  C   UNL     1     -11.126  11.850  69.118  1.00  0.00    -0.285 A  
HETATM    7  C   UNL     1     -10.730  10.502  69.093  1.00  0.00    -0.266 A  
HETATM    8  C   UNL     1     -11.251   9.555  70.006  1.00  0.00    -0.243 A  
BRANCH   5   9
HETATM    9  C   UNL     1     -12.610  13.651  70.131  1.00  0.00    -0.151 C  
HETATM   10  C   UNL     1     -13.212  14.176  71.406  1.00  0.00    -0.418 C  
BRANCH   9  11
HETATM   11  N   UNL     1     -12.558  14.345  69.028  1.00  0.00    -0.496 NA 
HETATM   12  H   UNL     1     -12.495  13.934  68.096  1.00  0.00     0.000 HD 
BRANCH  11  13
HETATM   13  O   UNL     1     -12.601  15.716  69.275  1.00  0.00    -0.040 OA 
BRANCH  13  14
HETATM   14  C   UNL     1     -11.645  16.338  68.425  1.00  0.00    -0.154 C  
BRANCH  14  15
HETATM   15  C   UNL     1     -10.565  15.337  68.150  1.00  0.00    -0.254 A  
HETATM   16  F   UNL     1      -9.056  11.602  65.394  1.00  0.00    -0.207 F  
HETATM   17  F   UNL     1     -11.154  12.018  65.702  1.00  0.00    -0.311 F  
HETATM   18  C   UNL     1      -9.487  15.207  69.013  1.00  0.00    -0.221 A  
HETATM   19  F   UNL     1      -9.984  13.303  64.401  1.00  0.00    -0.357 F  
HETATM   20  C   UNL     1      -8.468  14.305  68.722  1.00  0.00    -0.094 A  
HETATM   21  C   UNL     1     -10.661  14.469  67.062  1.00  0.00    -0.278 A  
HETATM   22  C   UNL     1      -8.463  13.528  67.545  1.00  0.00    -0.192 A  
HETATM   23  C   UNL     1      -9.935  12.623  65.583  1.00  0.00    -0.242 C  
HETATM   24  C   UNL     1      -9.641  13.539  66.756  1.00  0.00    -0.268 A  
BRANCH  22  25
HETATM   25  C   UNL     1      -7.200  12.753  67.139  1.00  0.00    -0.014 C  
HETATM   26  C   UNL     1      -5.906  13.496  67.549  1.00  0.00     0.002 C  
HETATM   27  C   UNL     1      -5.722  13.527  69.064  1.00  0.00    -0.076 C  
HETATM   28  C   UNL     1      -5.614  12.117  69.624  1.00  0.00    -0.090 C  
HETATM   29  C   UNL     1      -6.762  11.215  69.187  1.00  0.00    -0.092 C  
HETATM   30  C   UNL     1      -7.069  11.304  67.683  1.00  0.00    -0.090 C  
ENDBRANCH  22  25
ENDBRANCH  14  15
ENDBRANCH  13  14
ENDBRANCH  11  13
ENDBRANCH   9  11
ENDBRANCH   5   9
BRANCH   8  31
HETATM   31  C   UNL     1     -10.857   8.089  69.878  1.00  0.00    -0.217 C  
BRANCH  31  32
HETATM   32  N   UNL     1      -9.456   7.758  70.235  1.00  0.00    -0.160 NA 
HETATM   33  O   UNL     1      -6.570   7.418  71.214  1.00  0.00    -0.043 OA 
HETATM   34  O   UNL     1      -5.576   6.021  69.757  1.00  0.00    -0.011 OA 
HETATM   35  C   UNL     1      -9.250   6.289  70.345  1.00  0.00    -0.154 C  
HETATM   36  C   UNL     1      -6.600   6.582  70.138  1.00  0.00    -0.045 C  
HETATM   37  C   UNL     1      -8.651   7.739  68.974  1.00  0.00    -0.135 C  
HETATM   38  C   UNL     1      -7.986   6.442  69.471  1.00  0.00    -0.113 C  
ENDBRANCH  31  32
ENDBRANCH   8  31
ENDBRANCH   2   3
TORSDOF 9
ENDMDL
MODEL      251
REMARK 921   NORMALIZED FREE ENERGY PREDICTED BY IDOCK:   -4.71 KCAL/MOL
REMARK 922        TOTAL FREE ENERGY PREDICTED BY IDOCK:   -8.61 KCAL/MOL
REMARK 923 INTER-LIGAND FREE ENERGY PREDICTED BY IDOCK:   -8.53 KCAL/MOL
REMARK 924 INTRA-LIGAND FREE ENERGY PREDICTED BY IDOCK:   -0.08 KCAL/MOL
REMARK 927      BINDING AFFINITY PREDICTED BY RF-SCORE:    0.00 PKD
ROOT
HETATM    1  C   UNL     1     -12.247  13.427  66.459  1.00  0.00    -0.414 C  
HETATM    2  C   UNL     1     -11.057  12.669  65.895  1.00  0.00    -0.323 C  
ENDROOT
BRANCH   2   3
HETATM    3  C   UNL     1      -9.803  12.835  66.723  1.00  0.00    -0.242 A  
HETATM    4  C   UNL     1      -9.412  11.691  67.435  1.00  0.00    -0.171 A  
HETATM    5  C   UNL     1      -8.382  11.722  68.378  1.00  0.00    -0.153 A  
HETATM    6  C   UNL     1      -7.690  12.908  68.589  1.00  0.00    -0.067 A  
HETATM    7  C   UNL     1      -8.021  14.045  67.833  1.00  0.00    -0.158 A  
HETATM    8  C   UNL     1      -9.063  14.027  66.877  1.00  0.00    -0.262 A  
BRANCH   5   9
HETATM    9  C   UNL     1      -8.197  10.491  69.195  1.00  0.00    -0.150 C  
HETATM   10  C   UNL     1      -6.930  10.283  69.981  1.00  0.00    -0.152 C  
BRANCH   9  11
HETATM   11  N   UNL     1      -9.177   9.632  69.183  1.00  0.00    -0.160 NA 
HETATM   12  H   UNL     1      -9.103   8.684  68.812  1.00  0.00     0.000 HD 
BRANCH  11  13
HETATM   13  O   UNL     1     -10.341  10.163  69.739  1.00  0.00    -0.235 OA 
BRANCH  13  14
HETATM   14  C   UNL     1     -10.713   9.334  70.834  1.00  0.00    -0.301 C  
BRANCH  14  15
HETATM   15  C   UNL     1     -10.516   7.911  70.412  1.00  0.00    -0.218 A  
HETATM   16  F   UNL     1     -10.462   4.709  66.728  1.00  0.00    -0.249 F  
HETATM   17  F   UNL     1     -11.659   6.507  66.658  1.00  0.00    -0.338 F  
HETATM   18  C   UNL     1     -10.364   6.908  71.358  1.00  0.00    -0.219 A  
HETATM   19  F   UNL     1      -9.505   6.640  66.425  1.00  0.00    -0.177 F  
HETATM   20  C   UNL     1     -10.136   5.597  70.951  1.00  0.00    -0.263 A  
HETATM   21  C   UNL     1     -10.554   7.559  69.061  1.00  0.00    -0.190 A  
HETATM   22  C   UNL     1     -10.012   5.241  69.592  1.00  0.00    -0.302 A  
HETATM   23  C   UNL     1     -10.480   6.006  67.137  1.00  0.00    -0.264 C  
HETATM   24  C   UNL     1     -10.334   6.231  68.630  1.00  0.00    -0.243 A  
BRANCH  22  25
HETATM   25  C   UNL     1      -9.499   3.845  69.206  1.00  0.00    -0.256 C  
HETATM   26  C   UNL     1      -8.050   3.887  68.664  1.00  0.00    -0.079 C  
HETATM   27  C   UNL     1      -7.044   4.246  69.753  1.00  0.00    -0.049 C  
HETATM   28  C   UNL     1      -7.064   3.213  70.869  1.00  0.00    -0.033 C  
HETATM   29  C   UNL     1      -8.463   2.958  71.417  1.00  0.00    -0.092 C  
HETATM   30  C   UNL     1      -9.523   2.763  70.320  1.00  0.00    -0.183 C  
ENDBRANCH  22  25
ENDBRANCH  14  15
ENDBRANCH  13  14
ENDBRANCH  11  13
ENDBRANCH   9  11
ENDBRANCH   5   9
BRANCH   8  31
HETATM   31  C   UNL     1      -9.440  15.312  66.150  1.00  0.00    -0.326 C  
BRANCH  31  32
HETATM   32  N   UNL     1      -9.245  16.571  66.909  1.00  0.00    -0.217 NA 
HETATM   33  O   UNL     1      -8.499  18.992  68.637  1.00  0.00    -0.351 OA 
HETATM   34  O   UNL     1     -10.363  20.239  68.805  1.00  0.00    -0.340 OA 
HETATM   35  C   UNL     1      -9.645  17.761  66.110  1.00  0.00    -0.187 C  
HETATM   36  C   UNL     1      -9.794  19.267  68.314  1.00  0.00    -0.400 C  
HETATM   37  C   UNL     1     -10.453  16.785  67.764  1.00  0.00    -0.335 C  
HETATM   38  C   UNL     1     -10.440  18.264  67.335  1.00  0.00    -0.430 C  
ENDBRANCH  31  32
ENDBRANCH   8  31
ENDBRANCH   2   3
TORSDOF 9
ENDMDL
MODEL      252
REMARK 921   NORMALIZED FREE ENERGY PREDICTED BY IDOCK:   -4.70 KCAL/MOL
REMARK 922        TOTAL FREE ENERGY PREDICTED BY IDOCK:   -8.61 KCAL/MOL
REMARK 923 INTER-LIGAND FREE ENERGY PREDICTED BY IDOCK:   -6.23 KCAL/MOL
REMARK 924 INTRA-LIGAND FREE ENERGY PREDICTED BY IDOCK:   -2.37 KCAL/MOL
REMARK 927      BINDING AFFINITY PREDICTED BY RF-SCORE:    0.00 PKD
ROOT
HETATM    1  C   UNL     1      -6.356  11.404  68.296  1.00  0.00    -0.046 C  
HETATM    2  C   UNL     1      -7.537  11.998  69.045  1.00  0.00     0.056 C  
ENDROOT
BRANCH   2   3
HETATM    3  C   UNL     1      -8.867  11.686  68.396  1.00  0.00    -0.161 A  
HETATM    4  C   UNL     1      -8.964  10.402  67.841  1.00  0.00    -0.128 A  
HETATM    5  C   UNL     1     -10.053  10.016  67.057  1.00  0.00    -0.274 A  
HETATM    6  C   UNL     1     -11.096  10.910  66.853  1.00  0.00    -0.236 A  
HETATM    7  C   UNL     1     -11.048  12.176  67.461  1.00  0.00    -0.328 A  
HETATM    8  C   UNL     1      -9.950  12.581  68.256  1.00  0.00    -0.229 A  
BRANCH   5   9
HETATM    9  C   UNL     1      -9.941   8.696  66.375  1.00  0.00    -0.260 C  
HETATM   10  C   UNL     1     -10.540   7.464  66.999  1.00  0.00    -0.414 C  
BRANCH   9  11
HETATM   11  N   UNL     1      -9.308   8.681  65.235  1.00  0.00    -0.428 NA 
HETATM   12  H   UNL     1      -9.754   8.501  64.336  1.00  0.00     0.000 HD 
BRANCH  11  13
HETATM   13  O   UNL     1      -7.947   8.942  65.393  1.00  0.00    -0.101 OA 
BRANCH  13  14
HETATM   14  C   UNL     1      -7.245   7.727  65.159  1.00  0.00    -0.065 C  
BRANCH  14  15
HETATM   15  C   UNL     1      -7.109   7.023  66.474  1.00  0.00    -0.077 A  
HETATM   16  F   UNL     1      -6.070   7.403  71.228  1.00  0.00    -0.035 F  
HETATM   17  F   UNL     1      -5.242   8.763  69.767  1.00  0.00    -0.029 F  
HETATM   18  C   UNL     1      -7.187   5.640  66.545  1.00  0.00    -0.077 A  
HETATM   19  F   UNL     1      -7.332   8.931  70.326  1.00  0.00    -0.049 F  
HETATM   20  C   UNL     1      -7.105   5.002  67.779  1.00  0.00    -0.066 A  
HETATM   21  C   UNL     1      -6.830   7.740  67.639  1.00  0.00    -0.069 A  
HETATM   22  C   UNL     1      -6.982   5.716  68.990  1.00  0.00    -0.063 A  
HETATM   23  C   UNL     1      -6.354   8.021  70.050  1.00  0.00    -0.033 C  
HETATM   24  C   UNL     1      -6.733   7.108  68.899  1.00  0.00    -0.060 A  
BRANCH  22  25
HETATM   25  C   UNL     1      -7.163   4.991  70.332  1.00  0.00    -0.054 C  
HETATM   26  C   UNL     1      -8.518   5.332  70.998  1.00  0.00    -0.122 C  
HETATM   27  C   UNL     1      -9.697   4.751  70.223  1.00  0.00    -0.296 C  
HETATM   28  C   UNL     1      -9.608   3.234  70.162  1.00  0.00    -0.191 C  
HETATM   29  C   UNL     1      -8.261   2.738  69.650  1.00  0.00    -0.070 C  
HETATM   30  C   UNL     1      -7.062   3.442  70.305  1.00  0.00    -0.037 C  
ENDBRANCH  22  25
ENDBRANCH  14  15
ENDBRANCH  13  14
ENDBRANCH  11  13
ENDBRANCH   9  11
ENDBRANCH   5   9
BRANCH   8  31
HETATM   31  C   UNL     1      -9.908  13.997  68.816  1.00  0.00    -0.139 C  
BRANCH  31  32
HETATM   32  N   UNL     1      -9.824  15.090  67.818  1.00  0.00    -0.219 NA 
HETATM   33  O   UNL     1      -9.550  17.052  65.477  1.00  0.00    -0.522 OA 
HETATM   34  O   UNL     1      -9.308  19.091  66.395  1.00  0.00    -0.328 OA 
HETATM   35  C   UNL     1     -10.857  16.133  68.057  1.00  0.00    -0.333 C  
HETATM   36  C   UNL     1      -9.522  17.892  66.550  1.00  0.00    -0.299 C  
HETATM   37  C   UNL     1      -8.788  16.062  68.287  1.00  0.00    -0.182 C  
HETATM   38  C   UNL     1      -9.753  17.203  67.912  1.00  0.00    -0.270 C  
ENDBRANCH  31  32
ENDBRANCH   8  31
ENDBRANCH   2   3
TORSDOF 9
ENDMDL
MODEL      253
REMARK 921   NORMALIZED FREE ENERGY PREDICTED BY IDOCK:   -4.70 KCAL/MOL
REMARK 922        TOTAL FREE ENERGY PREDICTED BY IDOCK:   -8.61 KCAL/MOL
REMARK 923 INTER-LIGAND FREE ENERGY PREDICTED BY IDOCK:   -6.19 KCAL/MOL
REMARK 924 INTRA-LIGAND FREE ENERGY PREDICTED BY IDOCK:   -2.41 KCAL/MOL
REMARK 927      BINDING AFFINITY PREDICTED BY RF-SCORE:    0.00 PKD
ROOT
HETATM    1  C   UNL     1      -9.058  10.043  69.456  1.00  0.00    -0.236 C  
HETATM    2  C   UNL     1      -7.637  10.019  69.996  1.00  0.00    -0.182 C  
ENDROOT
BRANCH   2   3
HETATM    3  C   UNL     1      -6.696  10.920  69.228  1.00  0.00    -0.086 A  
HETATM    4  C   UNL     1      -6.469  12.173  69.817  1.00  0.00    -0.050 A  
HETATM    5  C   UNL     1      -5.769  13.184  69.157  1.00  0.00    -0.076 A  
HETATM    6  C   UNL     1      -5.240  12.934  67.897  1.00  0.00    -0.107 A  
HETATM    7  C   UNL     1      -5.396  11.662  67.322  1.00  0.00    -0.087 A  
HETATM    8  C   UNL     1      -6.105  10.629  67.980  1.00  0.00    -0.046 A  
BRANCH   5   9
HETATM    9  C   UNL     1      -5.764  14.521  69.814  1.00  0.00    -0.104 C  
HETATM   10  C   UNL     1      -6.088  14.651  71.278  1.00  0.00     0.091 C  
BRANCH   9  11
HETATM   11  N   UNL     1      -5.468  15.541  69.056  1.00  0.00    -0.098 NA 
HETATM   12  H   UNL     1      -4.612  16.089  69.145  1.00  0.00     0.000 HD 
BRANCH  11  13
HETATM   13  O   UNL     1      -6.461  15.791  68.110  1.00  0.00    -0.114 OA 
BRANCH  13  14
HETATM   14  C   UNL     1      -7.671  16.050  68.813  1.00  0.00    -0.187 C  
BRANCH  14  15
HETATM   15  C   UNL     1      -8.719  15.134  68.260  1.00  0.00    -0.171 A  
HETATM   16  F   UNL     1     -12.689  12.443  69.167  1.00  0.00     0.093 F  
HETATM   17  F   UNL     1     -11.218  12.857  70.696  1.00  0.00     0.177 F  
HETATM   18  C   UNL     1      -8.628  14.661  66.959  1.00  0.00    -0.249 A  
HETATM   19  F   UNL     1     -12.569  14.429  70.051  1.00  0.00    -0.362 F  
HETATM   20  C   UNL     1      -9.633  13.847  66.444  1.00  0.00    -0.292 A  
HETATM   21  C   UNL     1      -9.766  14.683  69.066  1.00  0.00    -0.161 A  
HETATM   22  C   UNL     1     -10.782  13.507  67.187  1.00  0.00    -0.282 A  
HETATM   23  C   UNL     1     -11.812  13.394  69.587  1.00  0.00    -0.331 C  
HETATM   24  C   UNL     1     -10.790  13.849  68.563  1.00  0.00    -0.274 A  
BRANCH  22  25
HETATM   25  C   UNL     1     -11.977  12.836  66.493  1.00  0.00    -0.428 C  
HETATM   26  C   UNL     1     -12.610  13.749  65.415  1.00  0.00    -0.534 C  
HETATM   27  C   UNL     1     -11.685  13.945  64.218  1.00  0.00    -0.406 C  
HETATM   28  C   UNL     1     -11.385  12.615  63.544  1.00  0.00    -0.527 C  
HETATM   29  C   UNL     1     -10.877  11.557  64.517  1.00  0.00    -0.390 C  
HETATM   30  C   UNL     1     -11.706  11.468  65.809  1.00  0.00     0.181 C  
ENDBRANCH  22  25
ENDBRANCH  14  15
ENDBRANCH  13  14
ENDBRANCH  11  13
ENDBRANCH   9  11
ENDBRANCH   5   9
BRANCH   8  31
HETATM   31  C   UNL     1      -6.323   9.297  67.273  1.00  0.00    -0.059 C  
BRANCH  31  32
HETATM   32  N   UNL     1      -6.663   9.372  65.831  1.00  0.00    -0.079 NA 
HETATM   33  O   UNL     1      -7.067   9.824  62.825  1.00  0.00    -0.109 OA 
HETATM   34  O   UNL     1      -9.090   8.974  62.332  1.00  0.00    -0.186 OA 
HETATM   35  C   UNL     1      -7.001   8.035  65.276  1.00  0.00    -0.063 C  
HETATM   36  C   UNL     1      -8.201   9.147  63.161  1.00  0.00    -0.176 C  
HETATM   37  C   UNL     1      -8.107   9.745  65.717  1.00  0.00    -0.119 C  
HETATM   38  C   UNL     1      -8.253   8.667  64.627  1.00  0.00    -0.167 C  
ENDBRANCH  31  32
ENDBRANCH   8  31
ENDBRANCH   2   3
TORSDOF 9
ENDMDL
MODEL      254
REMARK 921   NORMALIZED FREE ENERGY PREDICTED BY IDOCK:   -4.69 KCAL/MOL
REMARK 922        TOTAL FREE ENERGY PREDICTED BY IDOCK:   -8.58 KCAL/MOL
REMARK 923 INTER-LIGAND FREE ENERGY PREDICTED BY IDOCK:   -6.89 KCAL/MOL
REMARK 924 INTRA-LIGAND FREE ENERGY PREDICTED BY IDOCK:   -1.69 KCAL/MOL
REMARK 927      BINDING AFFINITY PREDICTED BY RF-SCORE:    0.00 PKD
ROOT
HETATM    1  C   UNL     1      -7.820   9.120  71.026  1.00  0.00    -0.152 C  
HETATM    2  C   UNL     1      -6.347   9.173  70.655  1.00  0.00    -0.058 C  
ENDROOT
BRANCH   2   3
HETATM    3  C   UNL     1      -6.031  10.247  69.638  1.00  0.00    -0.046 A  
HETATM    4  C   UNL     1      -5.782  11.516  70.181  1.00  0.00    -0.137 A  
HETATM    5  C   UNL     1      -5.646  12.650  69.377  1.00  0.00    -0.084 A  
HETATM    6  C   UNL     1      -5.715  12.518  67.996  1.00  0.00    -0.082 A  
HETATM    7  C   UNL     1      -5.893  11.243  67.433  1.00  0.00    -0.061 A  
HETATM    8  C   UNL     1      -6.033  10.086  68.235  1.00  0.00    -0.042 A  
BRANCH   5   9
HETATM    9  C   UNL     1      -5.575  13.958  70.087  1.00  0.00    -0.120 C  
HETATM   10  C   UNL     1      -5.730  14.021  71.583  1.00  0.00    -0.212 C  
BRANCH   9  11
HETATM   11  N   UNL     1      -5.374  15.012  69.346  1.00  0.00    -0.091 NA 
HETATM   12  H   UNL     1      -4.619  15.681  69.497  1.00  0.00     0.000 HD 
BRANCH  11  13
HETATM   13  O   UNL     1      -6.316  15.116  68.323  1.00  0.00    -0.099 OA 
BRANCH  13  14
HETATM   14  C   UNL     1      -7.561  15.463  68.917  1.00  0.00    -0.164 C  
BRANCH  14  15
HETATM   15  C   UNL     1      -8.631  14.691  68.207  1.00  0.00    -0.167 A  
HETATM   16  F   UNL     1     -12.050  11.221  68.505  1.00  0.00    -0.376 F  
HETATM   17  F   UNL     1     -10.304  11.214  69.779  1.00  0.00    -0.170 F  
HETATM   18  C   UNL     1      -8.806  14.823  66.838  1.00  0.00    -0.274 A  
HETATM   19  F   UNL     1     -11.891  12.650  70.140  1.00  0.00    -0.373 F  
HETATM   20  C   UNL     1      -9.833  14.135  66.199  1.00  0.00    -0.326 A  
HETATM   21  C   UNL     1      -9.423  13.773  68.899  1.00  0.00     0.081 A  
HETATM   22  C   UNL     1     -10.747  13.323  66.902  1.00  0.00    -0.274 A  
HETATM   23  C   UNL     1     -11.180  12.049  69.143  1.00  0.00    -0.246 C  
HETATM   24  C   UNL     1     -10.464  13.058  68.265  1.00  0.00    -0.258 A  
BRANCH  22  25
HETATM   25  C   UNL     1     -12.012  12.803  66.202  1.00  0.00    -0.476 C  
HETATM   26  C   UNL     1     -12.929  13.956  65.727  1.00  0.00    -0.325 C  
HETATM   27  C   UNL     1     -12.301  14.750  64.585  1.00  0.00    -0.346 C  
HETATM   28  C   UNL     1     -12.058  13.858  63.377  1.00  0.00     0.014 C  
HETATM   29  C   UNL     1     -11.276  12.596  63.719  1.00  0.00    -0.519 C  
HETATM   30  C   UNL     1     -11.796  11.876  64.974  1.00  0.00    -0.213 C  
ENDBRANCH  22  25
ENDBRANCH  14  15
ENDBRANCH  13  14
ENDBRANCH  11  13
ENDBRANCH   9  11
ENDBRANCH   5   9
BRANCH   8  31
HETATM   31  C   UNL     1      -6.315   8.742  67.576  1.00  0.00    -0.056 C  
BRANCH  31  32
HETATM   32  N   UNL     1      -7.744   8.377  67.423  1.00  0.00    -0.097 NA 
HETATM   33  O   UNL     1     -10.779   7.942  67.370  1.00  0.00    -0.272 OA 
HETATM   34  O   UNL     1     -11.097   5.851  66.605  1.00  0.00    -0.246 OA 
HETATM   35  C   UNL     1      -8.051   7.929  66.039  1.00  0.00    -0.112 C  
HETATM   36  C   UNL     1     -10.319   6.768  66.851  1.00  0.00    -0.254 C  
HETATM   37  C   UNL     1      -7.910   6.962  67.879  1.00  0.00    -0.113 C  
HETATM   38  C   UNL     1      -8.791   6.713  66.641  1.00  0.00    -0.140 C  
ENDBRANCH  31  32
ENDBRANCH   8  31
ENDBRANCH   2   3
TORSDOF 9
ENDMDL
MODEL      255
REMARK 921   NORMALIZED FREE ENERGY PREDICTED BY IDOCK:   -4.68 KCAL/MOL
REMARK 922        TOTAL FREE ENERGY PREDICTED BY IDOCK:   -8.57 KCAL/MOL
REMARK 923 INTER-LIGAND FREE ENERGY PREDICTED BY IDOCK:   -7.23 KCAL/MOL
REMARK 924 INTRA-LIGAND FREE ENERGY PREDICTED BY IDOCK:   -1.34 KCAL/MOL
REMARK 927      BINDING AFFINITY PREDICTED BY RF-SCORE:    0.00 PKD
ROOT
HETATM    1  C   UNL     1      -7.940  11.304  68.853  1.00  0.00    -0.104 C  
HETATM    2  C   UNL     1      -9.267  10.814  68.298  1.00  0.00    -0.157 C  
ENDROOT
BRANCH   2   3
HETATM    3  C   UNL     1     -10.309  10.586  69.369  1.00  0.00    -0.258 A  
HETATM    4  C   UNL     1     -10.320   9.293  69.913  1.00  0.00    -0.241 A  
HETATM    5  C   UNL     1     -11.326   8.865  70.783  1.00  0.00    -0.325 A  
HETATM    6  C   UNL     1     -12.323   9.756  71.160  1.00  0.00    -0.451 A  
HETATM    7  C   UNL     1     -12.288  11.076  70.680  1.00  0.00    -0.480 A  
HETATM    8  C   UNL     1     -11.276  11.521  69.797  1.00  0.00    -0.237 A  
BRANCH   5   9
HETATM    9  C   UNL     1     -11.322   7.418  71.136  1.00  0.00    -0.268 C  
HETATM   10  C   UNL     1     -12.147   6.914  72.290  1.00  0.00    -0.212 C  
BRANCH   9  11
HETATM   11  N   UNL     1     -10.579   6.641  70.399  1.00  0.00    -0.214 NA 
HETATM   12  H   UNL     1     -10.573   6.656  69.379  1.00  0.00     0.000 HD 
BRANCH  11  13
HETATM   13  O   UNL     1      -9.793   5.788  71.172  1.00  0.00    -0.172 OA 
BRANCH  13  14
HETATM   14  C   UNL     1      -8.432   6.149  70.965  1.00  0.00    -0.128 C  
BRANCH  14  15
HETATM   15  C   UNL     1      -8.049   5.699  69.590  1.00  0.00    -0.102 A  
HETATM   16  F   UNL     1      -8.013   2.059  66.338  1.00  0.00    -0.071 F  
HETATM   17  F   UNL     1      -8.023   1.686  68.467  1.00  0.00    -0.049 F  
HETATM   18  C   UNL     1      -7.276   6.510  68.771  1.00  0.00    -0.085 A  
HETATM   19  F   UNL     1      -9.830   2.389  67.491  1.00  0.00    -0.134 F  
HETATM   20  C   UNL     1      -6.966   6.099  67.479  1.00  0.00    -0.069 A  
HETATM   21  C   UNL     1      -8.400   4.428  69.133  1.00  0.00    -0.087 A  
HETATM   22  C   UNL     1      -7.443   4.887  66.938  1.00  0.00    -0.087 A  
HETATM   23  C   UNL     1      -8.477   2.557  67.516  1.00  0.00    -0.094 C  
HETATM   24  C   UNL     1      -8.085   3.989  67.827  1.00  0.00    -0.090 A  
BRANCH  22  25
HETATM   25  C   UNL     1      -7.299   4.606  65.435  1.00  0.00    -0.076 C  
HETATM   26  C   UNL     1      -8.422   5.277  64.607  1.00  0.00    -0.142 C  
HETATM   27  C   UNL     1      -8.297   6.797  64.605  1.00  0.00     0.040 C  
HETATM   28  C   UNL     1      -6.977   7.230  63.984  1.00  0.00    -0.057 C  
HETATM   29  C   UNL     1      -5.772   6.538  64.610  1.00  0.00    -0.030 C  
HETATM   30  C   UNL     1      -5.956   5.021  64.775  1.00  0.00    -0.021 C  
ENDBRANCH  22  25
ENDBRANCH  14  15
ENDBRANCH  13  14
ENDBRANCH  11  13
ENDBRANCH   9  11
ENDBRANCH   5   9
BRANCH   8  31
HETATM   31  C   UNL     1     -11.336  12.937  69.236  1.00  0.00    -0.243 C  
BRANCH  31  32
HETATM   32  N   UNL     1     -11.873  13.069  67.859  1.00  0.00    -0.353 NA 
HETATM   33  O   UNL     1     -13.096  12.941  65.050  1.00  0.00    -0.794 OA 
HETATM   34  O   UNL     1     -12.237  14.682  63.915  1.00  0.00    -0.598 OA 
HETATM   35  C   UNL     1     -12.465  14.414  67.628  1.00  0.00     0.228 C  
HETATM   36  C   UNL     1     -12.348  14.079  64.978  1.00  0.00    -0.441 C  
HETATM   37  C   UNL     1     -10.741  13.453  66.959  1.00  0.00    -0.268 C  
HETATM   38  C   UNL     1     -11.673  14.489  66.304  1.00  0.00    -0.364 C  
ENDBRANCH  31  32
ENDBRANCH   8  31
ENDBRANCH   2   3
TORSDOF 9
ENDMDL
MODEL      256
REMARK 921   NORMALIZED FREE ENERGY PREDICTED BY IDOCK:   -4.68 KCAL/MOL
REMARK 922        TOTAL FREE ENERGY PREDICTED BY IDOCK:   -8.57 KCAL/MOL
REMARK 923 INTER-LIGAND FREE ENERGY PREDICTED BY IDOCK:   -8.03 KCAL/MOL
REMARK 924 INTRA-LIGAND FREE ENERGY PREDICTED BY IDOCK:   -0.54 KCAL/MOL
REMARK 927      BINDING AFFINITY PREDICTED BY RF-SCORE:    0.00 PKD
ROOT
HETATM    1  C   UNL     1      -6.725   7.758  70.512  1.00  0.00    -0.038 C  
HETATM    2  C   UNL     1      -7.489   8.190  71.753  1.00  0.00    -0.098 C  
ENDROOT
BRANCH   2   3
HETATM    3  C   UNL     1      -8.973   8.345  71.511  1.00  0.00    -0.251 A  
HETATM    4  C   UNL     1      -9.310   8.976  70.304  1.00  0.00    -0.227 A  
HETATM    5  C   UNL     1     -10.622   9.352  70.007  1.00  0.00    -0.267 A  
HETATM    6  C   UNL     1     -11.635   9.056  70.909  1.00  0.00    -0.344 A  
HETATM    7  C   UNL     1     -11.326   8.361  72.091  1.00  0.00    -0.437 A  
HETATM    8  C   UNL     1     -10.002   7.976  72.405  1.00  0.00    -0.317 A  
BRANCH   5   9
HETATM    9  C   UNL     1     -10.810  10.179  68.782  1.00  0.00    -0.225 C  
HETATM   10  C   UNL     1     -11.874  11.243  68.739  1.00  0.00    -0.396 C  
BRANCH   9  11
HETATM   11  N   UNL     1     -10.014   9.927  67.781  1.00  0.00    -0.158 NA 
HETATM   12  H   UNL     1     -10.080   9.096  67.193  1.00  0.00     0.000 HD 
BRANCH  11  13
HETATM   13  O   UNL     1      -9.060  10.930  67.610  1.00  0.00    -0.146 OA 
BRANCH  13  14
HETATM   14  C   UNL     1      -9.183  11.420  66.280  1.00  0.00    -0.208 C  
BRANCH  14  15
HETATM   15  C   UNL     1      -9.449  12.892  66.364  1.00  0.00    -0.228 A  
HETATM   16  F   UNL     1     -12.035  16.681  64.696  1.00  0.00     0.066 F  
HETATM   17  F   UNL     1     -11.643  14.942  63.475  1.00  0.00     0.219 F  
HETATM   18  C   UNL     1      -8.639  13.713  67.134  1.00  0.00    -0.203 A  
HETATM   19  F   UNL     1     -13.084  14.815  65.092  1.00  0.00    -0.249 F  
HETATM   20  C   UNL     1      -8.926  15.071  67.239  1.00  0.00    -0.212 A  
HETATM   21  C   UNL     1     -10.473  13.473  65.613  1.00  0.00    -0.296 A  
HETATM   22  C   UNL     1     -10.049  15.654  66.617  1.00  0.00    -0.280 A  
HETATM   23  C   UNL     1     -11.866  15.333  64.765  1.00  0.00    -0.232 C  
HETATM   24  C   UNL     1     -10.772  14.851  65.700  1.00  0.00    -0.352 A  
BRANCH  22  25
HETATM   25  C   UNL     1     -10.470  17.087  66.977  1.00  0.00    -0.279 C  
HETATM   26  C   UNL     1      -9.994  17.495  68.391  1.00  0.00    -0.335 C  
HETATM   27  C   UNL     1      -8.476  17.640  68.462  1.00  0.00    -0.289 C  
HETATM   28  C   UNL     1      -7.992  18.722  67.508  1.00  0.00    -0.260 C  
HETATM   29  C   UNL     1      -8.502  18.529  66.085  1.00  0.00    -0.153 C  
HETATM   30  C   UNL     1     -10.005  18.212  66.012  1.00  0.00    -0.220 C  
ENDBRANCH  22  25
ENDBRANCH  14  15
ENDBRANCH  13  14
ENDBRANCH  11  13
ENDBRANCH   9  11
ENDBRANCH   5   9
BRANCH   8  31
HETATM   31  C   UNL     1      -9.710   7.305  73.741  1.00  0.00    -0.298 C  
BRANCH  31  32
HETATM   32  N   UNL     1      -9.987   5.850  73.814  1.00  0.00    -0.185 NA 
HETATM   33  O   UNL     1     -10.443   2.869  74.368  1.00  0.00    -0.157 OA 
HETATM   34  O   UNL     1     -10.492   1.861  72.357  1.00  0.00    -0.159 OA 
HETATM   35  C   UNL     1     -11.167   5.474  72.990  1.00  0.00    -0.293 C  
HETATM   36  C   UNL     1     -10.436   2.902  73.005  1.00  0.00    -0.161 C  
HETATM   37  C   UNL     1      -9.114   5.164  72.813  1.00  0.00    -0.133 C  
HETATM   38  C   UNL     1     -10.332   4.318  72.397  1.00  0.00    -0.230 C  
ENDBRANCH  31  32
ENDBRANCH   8  31
ENDBRANCH   2   3
TORSDOF 9
ENDMDL
MODEL      257
REMARK 921   NORMALIZED FREE ENERGY PREDICTED BY IDOCK:   -4.68 KCAL/MOL
REMARK 922        TOTAL FREE ENERGY PREDICTED BY IDOCK:   -8.57 KCAL/MOL
REMARK 923 INTER-LIGAND FREE ENERGY PREDICTED BY IDOCK:   -8.16 KCAL/MOL
REMARK 924 INTRA-LIGAND FREE ENERGY PREDICTED BY IDOCK:   -0.42 KCAL/MOL
REMARK 927      BINDING AFFINITY PREDICTED BY RF-SCORE:    0.00 PKD
ROOT
HETATM    1  C   UNL     1      -6.644  10.014  65.045  1.00  0.00    -0.124 C  
HETATM    2  C   UNL     1      -7.667   9.026  65.579  1.00  0.00    -0.091 C  
ENDROOT
BRANCH   2   3
HETATM    3  C   UNL     1      -8.220   9.418  66.931  1.00  0.00    -0.116 A  
HETATM    4  C   UNL     1      -7.407  10.292  67.668  1.00  0.00    -0.088 A  
HETATM    5  C   UNL     1      -7.684  10.615  68.998  1.00  0.00    -0.130 A  
HETATM    6  C   UNL     1      -8.821  10.092  69.602  1.00  0.00    -0.184 A  
HETATM    7  C   UNL     1      -9.684   9.272  68.857  1.00  0.00    -0.164 A  
HETATM    8  C   UNL     1      -9.415   8.936  67.509  1.00  0.00    -0.172 A  
BRANCH   5   9
HETATM    9  C   UNL     1      -6.642  11.399  69.718  1.00  0.00    -0.111 C  
HETATM   10  C   UNL     1      -5.404  10.720  70.240  1.00  0.00    -0.067 C  
BRANCH   9  11
HETATM   11  N   UNL     1      -6.869  12.675  69.860  1.00  0.00    -0.325 NA 
HETATM   12  H   UNL     1      -7.484  13.070  70.572  1.00  0.00     0.000 HD 
BRANCH  11  13
HETATM   13  O   UNL     1      -6.171  13.435  68.923  1.00  0.00    -0.080 OA 
BRANCH  13  14
HETATM   14  C   UNL     1      -6.881  13.361  67.692  1.00  0.00    -0.165 C  
BRANCH  14  15
HETATM   15  C   UNL     1      -7.837  14.513  67.651  1.00  0.00    -0.194 A  
HETATM   16  F   UNL     1     -12.266  16.193  68.826  1.00  0.00    -0.322 F  
HETATM   17  F   UNL     1     -11.895  14.090  68.500  1.00  0.00    -0.323 F  
HETATM   18  C   UNL     1      -7.537  15.654  66.922  1.00  0.00    -0.201 A  
HETATM   19  F   UNL     1     -11.177  15.039  70.315  1.00  0.00    -0.244 F  
HETATM   20  C   UNL     1      -8.414  16.734  66.930  1.00  0.00    -0.242 A  
HETATM   21  C   UNL     1      -9.077  14.430  68.288  1.00  0.00    -0.193 A  
HETATM   22  C   UNL     1      -9.600  16.736  67.694  1.00  0.00    -0.244 A  
HETATM   23  C   UNL     1     -11.314  15.233  68.972  1.00  0.00    -0.300 C  
HETATM   24  C   UNL     1      -9.984  15.514  68.298  1.00  0.00    -0.213 A  
BRANCH  22  25
HETATM   25  C   UNL     1     -10.392  18.039  67.881  1.00  0.00    -0.402 C  
HETATM   26  C   UNL     1      -9.784  18.935  68.987  1.00  0.00    -0.356 C  
HETATM   27  C   UNL     1      -8.429  19.506  68.578  1.00  0.00    -0.374 C  
HETATM   28  C   UNL     1      -8.561  20.373  67.336  1.00  0.00    -0.403 C  
HETATM   29  C   UNL     1      -9.275  19.665  66.190  1.00  0.00    -0.397 C  
HETATM   30  C   UNL     1     -10.558  18.939  66.626  1.00  0.00    -0.469 C  
ENDBRANCH  22  25
ENDBRANCH  14  15
ENDBRANCH  13  14
ENDBRANCH  11  13
ENDBRANCH   9  11
ENDBRANCH   5   9
BRANCH   8  31
HETATM   31  C   UNL     1     -10.336   7.970  66.775  1.00  0.00    -0.290 C  
BRANCH  31  32
HETATM   32  N   UNL     1     -10.046   6.527  66.958  1.00  0.00    -0.163 NA 
HETATM   33  O   UNL     1      -9.538   3.503  66.928  1.00  0.00    -0.197 OA 
HETATM   34  O   UNL     1      -9.617   2.835  69.075  1.00  0.00    -0.134 OA 
HETATM   35  C   UNL     1      -8.922   6.309  67.908  1.00  0.00    -0.113 C  
HETATM   36  C   UNL     1      -9.636   3.757  68.264  1.00  0.00    -0.106 C  
HETATM   37  C   UNL     1     -10.980   5.998  67.999  1.00  0.00    -0.245 C  
HETATM   38  C   UNL     1      -9.789   5.250  68.625  1.00  0.00    -0.216 C  
ENDBRANCH  31  32
ENDBRANCH   8  31
ENDBRANCH   2   3
TORSDOF 9
ENDMDL
MODEL      258
REMARK 921   NORMALIZED FREE ENERGY PREDICTED BY IDOCK:   -4.68 KCAL/MOL
REMARK 922        TOTAL FREE ENERGY PREDICTED BY IDOCK:   -8.56 KCAL/MOL
REMARK 923 INTER-LIGAND FREE ENERGY PREDICTED BY IDOCK:   -7.18 KCAL/MOL
REMARK 924 INTRA-LIGAND FREE ENERGY PREDICTED BY IDOCK:   -1.39 KCAL/MOL
REMARK 927      BINDING AFFINITY PREDICTED BY RF-SCORE:    0.00 PKD
ROOT
HETATM    1  C   UNL     1     -10.599   9.597  69.963  1.00  0.00    -0.300 C  
HETATM    2  C   UNL     1      -9.407   8.655  70.029  1.00  0.00    -0.165 C  
ENDROOT
BRANCH   2   3
HETATM    3  C   UNL     1      -8.424   8.864  68.900  1.00  0.00    -0.131 A  
HETATM    4  C   UNL     1      -7.435   9.828  69.152  1.00  0.00    -0.082 A  
HETATM    5  C   UNL     1      -6.559  10.266  68.156  1.00  0.00    -0.057 A  
HETATM    6  C   UNL     1      -6.633   9.702  66.889  1.00  0.00    -0.067 A  
HETATM    7  C   UNL     1      -7.570   8.685  66.639  1.00  0.00    -0.089 A  
HETATM    8  C   UNL     1      -8.465   8.233  67.638  1.00  0.00    -0.130 A  
BRANCH   5   9
HETATM    9  C   UNL     1      -5.689  11.423  68.505  1.00  0.00    -0.042 C  
HETATM   10  C   UNL     1      -5.418  11.764  69.946  1.00  0.00    -0.094 C  
BRANCH   9  11
HETATM   11  N   UNL     1      -5.192  12.100  67.507  1.00  0.00    -0.089 NA 
HETATM   12  H   UNL     1      -4.267  11.937  67.111  1.00  0.00     0.000 HD 
BRANCH  11  13
HETATM   13  O   UNL     1      -6.079  13.072  67.047  1.00  0.00    -0.245 OA 
BRANCH  13  14
HETATM   14  C   UNL     1      -5.884  14.241  67.834  1.00  0.00    -0.123 C  
BRANCH  14  15
HETATM   15  C   UNL     1      -7.087  15.115  67.651  1.00  0.00    -0.210 A  
HETATM   16  F   UNL     1     -11.686  16.071  68.980  1.00  0.00    -0.339 F  
HETATM   17  F   UNL     1     -10.850  14.082  69.112  1.00  0.00    -0.236 F  
HETATM   18  C   UNL     1      -7.124  16.063  66.640  1.00  0.00     0.053 A  
HETATM   19  F   UNL     1     -10.242  15.600  70.540  1.00  0.00    -0.300 F  
HETATM   20  C   UNL     1      -8.230  16.899  66.511  1.00  0.00    -0.320 A  
HETATM   21  C   UNL     1      -8.219  14.941  68.450  1.00  0.00    -0.151 A  
HETATM   22  C   UNL     1      -9.320  16.850  67.404  1.00  0.00    -0.235 A  
HETATM   23  C   UNL     1     -10.524  15.405  69.220  1.00  0.00    -0.251 C  
HETATM   24  C   UNL     1      -9.355  15.774  68.326  1.00  0.00    -0.193 A  
BRANCH  22  25
HETATM   25  C   UNL     1     -10.382  17.959  67.384  1.00  0.00    -0.383 C  
HETATM   26  C   UNL     1     -10.254  18.909  68.599  1.00  0.00    -0.371 C  
HETATM   27  C   UNL     1      -8.986  19.755  68.530  1.00  0.00    -0.291 C  
HETATM   28  C   UNL     1      -8.989  20.632  67.287  1.00  0.00    -0.373 C  
HETATM   29  C   UNL     1      -9.246  19.847  66.007  1.00  0.00    -0.345 C  
HETATM   30  C   UNL     1     -10.421  18.862  66.120  1.00  0.00    -0.521 C  
ENDBRANCH  22  25
ENDBRANCH  14  15
ENDBRANCH  13  14
ENDBRANCH  11  13
ENDBRANCH   9  11
ENDBRANCH   5   9
BRANCH   8  31
HETATM   31  C   UNL     1      -9.520   7.192  67.288  1.00  0.00    -0.140 C  
BRANCH  31  32
HETATM   32  N   UNL     1      -9.109   6.147  66.319  1.00  0.00    -0.153 NA 
HETATM   33  O   UNL     1      -8.252   4.295  64.031  1.00  0.00    -0.090 OA 
HETATM   34  O   UNL     1      -8.722   2.203  64.711  1.00  0.00    -0.099 OA 
HETATM   35  C   UNL     1      -8.204   5.146  66.944  1.00  0.00    -0.108 C  
HETATM   36  C   UNL     1      -8.671   3.402  64.972  1.00  0.00    -0.114 C  
HETATM   37  C   UNL     1     -10.180   5.104  66.285  1.00  0.00    -0.253 C  
HETATM   38  C   UNL     1      -9.075   4.032  66.322  1.00  0.00    -0.139 C  
ENDBRANCH  31  32
ENDBRANCH   8  31
ENDBRANCH   2   3
TORSDOF 9
ENDMDL
MODEL      259
REMARK 921   NORMALIZED FREE ENERGY PREDICTED BY IDOCK:   -4.66 KCAL/MOL
REMARK 922        TOTAL FREE ENERGY PREDICTED BY IDOCK:   -8.54 KCAL/MOL
REMARK 923 INTER-LIGAND FREE ENERGY PREDICTED BY IDOCK:   -7.11 KCAL/MOL
REMARK 924 INTRA-LIGAND FREE ENERGY PREDICTED BY IDOCK:   -1.43 KCAL/MOL
REMARK 927      BINDING AFFINITY PREDICTED BY RF-SCORE:    0.00 PKD
ROOT
HETATM    1  C   UNL     1      -7.281  14.917  69.765  1.00  0.00    -0.128 C  
HETATM    2  C   UNL     1      -7.376  14.231  68.412  1.00  0.00    -0.119 C  
ENDROOT
BRANCH   2   3
HETATM    3  C   UNL     1      -8.420  14.847  67.507  1.00  0.00    -0.198 A  
HETATM    4  C   UNL     1      -9.529  14.029  67.246  1.00  0.00    -0.231 A  
HETATM    5  C   UNL     1     -10.495  14.374  66.298  1.00  0.00    -0.292 A  
HETATM    6  C   UNL     1     -10.384  15.583  65.622  1.00  0.00    -0.407 A  
HETATM    7  C   UNL     1      -9.317  16.447  65.923  1.00  0.00    -0.262 A  
HETATM    8  C   UNL     1      -8.331  16.109  66.880  1.00  0.00    -0.271 A  
BRANCH   5   9
HETATM    9  C   UNL     1     -11.513  13.333  65.984  1.00  0.00    -0.330 C  
HETATM   10  C   UNL     1     -12.797  13.708  65.293  1.00  0.00    -0.421 C  
BRANCH   9  11
HETATM   11  N   UNL     1     -11.225  12.112  66.338  1.00  0.00    -0.315 NA 
HETATM   12  H   UNL     1     -11.139  11.803  67.307  1.00  0.00     0.000 HD 
BRANCH  11  13
HETATM   13  O   UNL     1     -11.048  11.279  65.234  1.00  0.00    -0.196 OA 
BRANCH  13  14
HETATM   14  C   UNL     1      -9.670  11.317  64.881  1.00  0.00    -0.256 C  
BRANCH  14  15
HETATM   15  C   UNL     1      -8.992  10.181  65.584  1.00  0.00    -0.199 A  
HETATM   16  F   UNL     1      -6.613   8.678  69.572  1.00  0.00    -0.038 F  
HETATM   17  F   UNL     1      -6.572  10.740  68.929  1.00  0.00    -0.049 F  
HETATM   18  C   UNL     1      -8.768   8.979  64.930  1.00  0.00    -0.200 A  
HETATM   19  F   UNL     1      -8.371   9.934  69.836  1.00  0.00    -0.140 F  
HETATM   20  C   UNL     1      -8.177   7.918  65.609  1.00  0.00    -0.137 A  
HETATM   21  C   UNL     1      -8.510  10.337  66.885  1.00  0.00    -0.126 A  
HETATM   22  C   UNL     1      -7.825   7.998  66.973  1.00  0.00    -0.104 A  
HETATM   23  C   UNL     1      -7.369   9.630  68.963  1.00  0.00    -0.073 C  
HETATM   24  C   UNL     1      -7.899   9.273  67.587  1.00  0.00    -0.096 A  
BRANCH  22  25
HETATM   25  C   UNL     1      -7.429   6.729  67.741  1.00  0.00    -0.098 C  
HETATM   26  C   UNL     1      -8.591   6.187  68.607  1.00  0.00    -0.113 C  
HETATM   27  C   UNL     1      -9.729   5.634  67.754  1.00  0.00    -0.140 C  
HETATM   28  C   UNL     1      -9.246   4.476  66.894  1.00  0.00    -0.142 C  
HETATM   29  C   UNL     1      -8.006   4.819  66.077  1.00  0.00    -0.103 C  
HETATM   30  C   UNL     1      -6.916   5.533  66.893  1.00  0.00    -0.065 C  
ENDBRANCH  22  25
ENDBRANCH  14  15
ENDBRANCH  13  14
ENDBRANCH  11  13
ENDBRANCH   9  11
ENDBRANCH   5   9
BRANCH   8  31
HETATM   31  C   UNL     1      -7.147  17.042  67.102  1.00  0.00    -0.176 C  
BRANCH  31  32
HETATM   32  N   UNL     1      -6.786  17.919  65.962  1.00  0.00    -0.276 NA 
HETATM   33  O   UNL     1      -6.048  19.383  63.370  1.00  0.00    -0.346 OA 
HETATM   34  O   UNL     1      -5.158  21.352  63.997  1.00  0.00    -0.197 OA 
HETATM   35  C   UNL     1      -7.444  19.248  66.062  1.00  0.00    -0.276 C  
HETATM   36  C   UNL     1      -5.716  20.306  64.317  1.00  0.00    -0.234 C  
HETATM   37  C   UNL     1      -5.484  18.580  66.284  1.00  0.00    -0.148 C  
HETATM   38  C   UNL     1      -6.077  19.902  65.763  1.00  0.00    -0.208 C  
ENDBRANCH  31  32
ENDBRANCH   8  31
ENDBRANCH   2   3
TORSDOF 9
ENDMDL
MODEL      260
REMARK 921   NORMALIZED FREE ENERGY PREDICTED BY IDOCK:   -4.66 KCAL/MOL
REMARK 922        TOTAL FREE ENERGY PREDICTED BY IDOCK:   -8.54 KCAL/MOL
REMARK 923 INTER-LIGAND FREE ENERGY PREDICTED BY IDOCK:   -6.45 KCAL/MOL
REMARK 924 INTRA-LIGAND FREE ENERGY PREDICTED BY IDOCK:   -2.10 KCAL/MOL
REMARK 927      BINDING AFFINITY PREDICTED BY RF-SCORE:    0.00 PKD
ROOT
HETATM    1  C   UNL     1      -6.372   8.410  70.998  1.00  0.00    -0.040 C  
HETATM    2  C   UNL     1      -7.160   9.681  70.724  1.00  0.00    -0.080 C  
ENDROOT
BRANCH   2   3
HETATM    3  C   UNL     1      -7.777   9.709  69.345  1.00  0.00    -0.101 A  
HETATM    4  C   UNL     1      -6.863   9.880  68.294  1.00  0.00    -0.064 A  
HETATM    5  C   UNL     1      -7.280  10.101  66.980  1.00  0.00    -0.091 A  
HETATM    6  C   UNL     1      -8.639  10.108  66.689  1.00  0.00    -0.130 A  
HETATM    7  C   UNL     1      -9.566   9.867  67.717  1.00  0.00    -0.163 A  
HETATM    8  C   UNL     1      -9.157   9.644  69.053  1.00  0.00    -0.148 A  
BRANCH   5   9
HETATM    9  C   UNL     1      -6.215  10.455  66.000  1.00  0.00    -0.110 C  
HETATM   10  C   UNL     1      -6.041   9.647  64.741  1.00  0.00    -0.085 C  
BRANCH   9  11
HETATM   11  N   UNL     1      -5.468  11.480  66.298  1.00  0.00    -0.376 NA 
HETATM   12  H   UNL     1      -4.465  11.424  66.478  1.00  0.00     0.000 HD 
BRANCH  11  13
HETATM   13  O   UNL     1      -6.203  12.664  66.340  1.00  0.00     0.512 OA 
BRANCH  13  14
HETATM   14  C   UNL     1      -5.911  13.309  67.574  1.00  0.00    -0.064 C  
BRANCH  14  15
HETATM   15  C   UNL     1      -7.155  14.014  68.021  1.00  0.00    -0.147 A  
HETATM   16  F   UNL     1      -9.424  18.286  68.674  1.00  0.00    -0.302 F  
HETATM   17  F   UNL     1      -7.271  18.116  68.746  1.00  0.00    -0.246 F  
HETATM   18  C   UNL     1      -8.183  13.312  68.632  1.00  0.00    -0.014 A  
HETATM   19  F   UNL     1      -8.295  17.992  66.837  1.00  0.00    -0.222 F  
HETATM   20  C   UNL     1      -9.352  13.971  69.001  1.00  0.00     0.131 A  
HETATM   21  C   UNL     1      -7.271  15.399  67.896  1.00  0.00    -0.160 A  
HETATM   22  C   UNL     1      -9.557  15.342  68.741  1.00  0.00    -0.209 A  
HETATM   23  C   UNL     1      -8.380  17.597  68.139  1.00  0.00    -0.259 C  
HETATM   24  C   UNL     1      -8.446  16.087  68.274  1.00  0.00    -0.177 A  
BRANCH  22  25
HETATM   25  C   UNL     1     -10.953  15.959  68.921  1.00  0.00    -0.290 C  
HETATM   26  C   UNL     1     -12.078  14.983  68.502  1.00  0.00    -0.177 C  
HETATM   27  C   UNL     1     -12.188  13.796  69.455  1.00  0.00    -0.344 C  
HETATM   28  C   UNL     1     -12.517  14.264  70.865  1.00  0.00    -0.424 C  
HETATM   29  C   UNL     1     -11.565  15.342  71.370  1.00  0.00    -0.446 C  
HETATM   30  C   UNL     1     -11.312  16.461  70.347  1.00  0.00    -0.209 C  
ENDBRANCH  22  25
ENDBRANCH  14  15
ENDBRANCH  13  14
ENDBRANCH  11  13
ENDBRANCH   9  11
ENDBRANCH   5   9
BRANCH   8  31
HETATM   31  C   UNL     1     -10.208   9.478  70.144  1.00  0.00    -0.246 C  
BRANCH  31  32
HETATM   32  N   UNL     1     -10.290   8.137  70.770  1.00  0.00    -0.195 NA 
HETATM   33  O   UNL     1     -10.213   5.232  71.752  1.00  0.00    -0.196 OA 
HETATM   34  O   UNL     1     -11.952   5.003  73.160  1.00  0.00    -0.222 OA 
HETATM   35  C   UNL     1     -10.303   8.224  72.255  1.00  0.00    -0.316 C  
HETATM   36  C   UNL     1     -11.266   5.738  72.455  1.00  0.00    -0.297 C  
HETATM   37  C   UNL     1     -11.731   7.738  70.817  1.00  0.00    -0.225 C  
HETATM   38  C   UNL     1     -11.503   7.251  72.260  1.00  0.00    -0.316 C  
ENDBRANCH  31  32
ENDBRANCH   8  31
ENDBRANCH   2   3
TORSDOF 9
ENDMDL
MODEL      261
REMARK 921   NORMALIZED FREE ENERGY PREDICTED BY IDOCK:   -4.65 KCAL/MOL
REMARK 922        TOTAL FREE ENERGY PREDICTED BY IDOCK:   -8.53 KCAL/MOL
REMARK 923 INTER-LIGAND FREE ENERGY PREDICTED BY IDOCK:   -6.98 KCAL/MOL
REMARK 924 INTRA-LIGAND FREE ENERGY PREDICTED BY IDOCK:   -1.54 KCAL/MOL
REMARK 927      BINDING AFFINITY PREDICTED BY RF-SCORE:    0.00 PKD
ROOT
HETATM    1  C   UNL     1     -13.726   8.779  71.721  1.00  0.00    -0.461 C  
HETATM    2  C   UNL     1     -12.838  10.012  71.698  1.00  0.00    -0.543 C  
ENDROOT
BRANCH   2   3
HETATM    3  C   UNL     1     -11.499   9.765  71.042  1.00  0.00    -0.458 A  
HETATM    4  C   UNL     1     -10.646   8.903  71.750  1.00  0.00    -0.432 A  
HETATM    5  C   UNL     1      -9.316   8.707  71.374  1.00  0.00    -0.305 A  
HETATM    6  C   UNL     1      -8.827   9.345  70.241  1.00  0.00    -0.269 A  
HETATM    7  C   UNL     1      -9.687  10.155  69.480  1.00  0.00    -0.251 A  
HETATM    8  C   UNL     1     -11.036  10.364  69.850  1.00  0.00    -0.367 A  
BRANCH   5   9
HETATM    9  C   UNL     1      -8.473   7.920  72.317  1.00  0.00    -0.140 C  
HETATM   10  C   UNL     1      -9.078   7.316  73.556  1.00  0.00    -0.226 C  
BRANCH   9  11
HETATM   11  N   UNL     1      -7.214   7.793  72.005  1.00  0.00    -0.066 NA 
HETATM   12  H   UNL     1      -6.527   8.543  72.083  1.00  0.00     0.000 HD 
BRANCH  11  13
HETATM   13  O   UNL     1      -6.917   6.508  71.552  1.00  0.00    -0.069 OA 
BRANCH  13  14
HETATM   14  C   UNL     1      -5.775   6.600  70.708  1.00  0.00    -0.023 C  
BRANCH  14  15
HETATM   15  C   UNL     1      -6.239   6.411  69.297  1.00  0.00    -0.034 A  
HETATM   16  F   UNL     1      -7.770   3.280  65.880  1.00  0.00    -0.077 F  
HETATM   17  F   UNL     1      -6.478   2.660  67.498  1.00  0.00    -0.032 F  
HETATM   18  C   UNL     1      -6.189   7.460  68.391  1.00  0.00    -0.036 A  
HETATM   19  F   UNL     1      -8.571   3.076  67.894  1.00  0.00    -0.087 F  
HETATM   20  C   UNL     1      -6.665   7.283  67.096  1.00  0.00    -0.068 A  
HETATM   21  C   UNL     1      -6.662   5.158  68.849  1.00  0.00    -0.050 A  
HETATM   22  C   UNL     1      -7.245   6.072  66.665  1.00  0.00    -0.074 A  
HETATM   23  C   UNL     1      -7.492   3.523  67.189  1.00  0.00    -0.074 C  
HETATM   24  C   UNL     1      -7.140   4.958  67.534  1.00  0.00    -0.066 A  
BRANCH  22  25
HETATM   25  C   UNL     1      -7.992   6.010  65.324  1.00  0.00    -0.117 C  
HETATM   26  C   UNL     1      -8.702   7.345  64.992  1.00  0.00     0.187 C  
HETATM   27  C   UNL     1      -7.706   8.460  64.689  1.00  0.00    -0.112 C  
HETATM   28  C   UNL     1      -6.851   8.107  63.481  1.00  0.00    -0.076 C  
HETATM   29  C   UNL     1      -6.189   6.740  63.602  1.00  0.00    -0.042 C  
HETATM   30  C   UNL     1      -7.149   5.636  64.074  1.00  0.00    -0.052 C  
ENDBRANCH  22  25
ENDBRANCH  14  15
ENDBRANCH  13  14
ENDBRANCH  11  13
ENDBRANCH   9  11
ENDBRANCH   5   9
BRANCH   8  31
HETATM   31  C   UNL     1     -11.899  11.324  69.040  1.00  0.00    -0.352 C  
BRANCH  31  32
HETATM   32  N   UNL     1     -11.180  12.421  68.349  1.00  0.00    -0.251 NA 
HETATM   33  O   UNL     1      -9.365  14.590  67.162  1.00  0.00    -0.202 OA 
HETATM   34  O   UNL     1     -10.731  16.064  66.152  1.00  0.00    -0.305 OA 
HETATM   35  C   UNL     1     -11.559  12.507  66.913  1.00  0.00    -0.370 C  
HETATM   36  C   UNL     1     -10.597  14.996  66.744  1.00  0.00    -0.301 C  
HETATM   37  C   UNL     1     -11.937  13.689  68.587  1.00  0.00    -0.360 C  
HETATM   38  C   UNL     1     -11.748  14.029  67.097  1.00  0.00    -0.421 C  
ENDBRANCH  31  32
ENDBRANCH   8  31
ENDBRANCH   2   3
TORSDOF 9
ENDMDL
MODEL      262
REMARK 921   NORMALIZED FREE ENERGY PREDICTED BY IDOCK:   -4.63 KCAL/MOL
REMARK 922        TOTAL FREE ENERGY PREDICTED BY IDOCK:   -8.49 KCAL/MOL
REMARK 923 INTER-LIGAND FREE ENERGY PREDICTED BY IDOCK:   -6.05 KCAL/MOL
REMARK 924 INTRA-LIGAND FREE ENERGY PREDICTED BY IDOCK:   -2.45 KCAL/MOL
REMARK 927      BINDING AFFINITY PREDICTED BY RF-SCORE:    0.00 PKD
ROOT
HETATM    1  C   UNL     1      -6.724  11.945  68.390  1.00  0.00    -0.067 C  
HETATM    2  C   UNL     1      -7.995  12.199  69.183  1.00  0.00     0.331 C  
ENDROOT
BRANCH   2   3
HETATM    3  C   UNL     1      -9.249  11.820  68.428  1.00  0.00    -0.175 A  
HETATM    4  C   UNL     1      -9.243  10.525  67.888  1.00  0.00    -0.143 A  
HETATM    5  C   UNL     1     -10.243  10.081  67.021  1.00  0.00    -0.295 A  
HETATM    6  C   UNL     1     -11.302  10.925  66.714  1.00  0.00     0.016 A  
HETATM    7  C   UNL     1     -11.362  12.200  67.303  1.00  0.00    -0.398 A  
HETATM    8  C   UNL     1     -10.355  12.663  68.182  1.00  0.00    -0.238 A  
BRANCH   5   9
HETATM    9  C   UNL     1     -10.015   8.758  66.373  1.00  0.00    -0.275 C  
HETATM   10  C   UNL     1     -10.619   7.510  66.959  1.00  0.00    -0.409 C  
BRANCH   9  11
HETATM   11  N   UNL     1      -9.280   8.756  65.297  1.00  0.00    -0.433 NA 
HETATM   12  H   UNL     1      -9.602   8.431  64.385  1.00  0.00     0.000 HD 
BRANCH  11  13
HETATM   13  O   UNL     1      -8.000   9.253  65.541  1.00  0.00    -0.100 OA 
BRANCH  13  14
HETATM   14  C   UNL     1      -7.085   8.171  65.407  1.00  0.00    -0.063 C  
BRANCH  14  15
HETATM   15  C   UNL     1      -6.998   7.485  66.734  1.00  0.00    -0.078 A  
HETATM   16  F   UNL     1      -6.155   7.930  71.521  1.00  0.00    -0.035 F  
HETATM   17  F   UNL     1      -5.276   9.277  70.079  1.00  0.00    -0.028 F  
HETATM   18  C   UNL     1      -7.072   6.102  66.820  1.00  0.00    -0.073 A  
HETATM   19  F   UNL     1      -7.388   9.438  70.550  1.00  0.00    -0.074 F  
HETATM   20  C   UNL     1      -7.036   5.480  68.065  1.00  0.00    -0.065 A  
HETATM   21  C   UNL     1      -6.771   8.218  67.900  1.00  0.00    -0.065 A  
HETATM   22  C   UNL     1      -6.966   6.209  69.270  1.00  0.00    -0.064 A  
HETATM   23  C   UNL     1      -6.395   8.531  70.325  1.00  0.00    -0.035 C  
HETATM   24  C   UNL     1      -6.721   7.602  69.172  1.00  0.00    -0.048 A  
BRANCH  22  25
HETATM   25  C   UNL     1      -7.197   5.500  70.613  1.00  0.00    -0.073 C  
HETATM   26  C   UNL     1      -8.602   5.794  71.191  1.00  0.00    -0.128 C  
HETATM   27  C   UNL     1      -9.707   5.151  70.359  1.00  0.00    -0.270 C  
HETATM   28  C   UNL     1      -9.553   3.638  70.332  1.00  0.00    -0.254 C  
HETATM   29  C   UNL     1      -8.159   3.191  69.910  1.00  0.00    -0.058 C  
HETATM   30  C   UNL     1      -7.030   3.956  70.622  1.00  0.00    -0.033 C  
ENDBRANCH  22  25
ENDBRANCH  14  15
ENDBRANCH  13  14
ENDBRANCH  11  13
ENDBRANCH   9  11
ENDBRANCH   5   9
BRANCH   8  31
HETATM   31  C   UNL     1     -10.422  14.087  68.720  1.00  0.00    -0.233 C  
BRANCH  31  32
HETATM   32  N   UNL     1     -11.162  14.268  69.992  1.00  0.00    -0.160 NA 
HETATM   33  O   UNL     1     -12.654  14.226  72.671  1.00  0.00    -0.303 OA 
HETATM   34  O   UNL     1     -13.806  16.156  72.774  1.00  0.00    -0.429 OA 
HETATM   35  C   UNL     1     -10.790  15.540  70.668  1.00  0.00    -0.303 C  
HETATM   36  C   UNL     1     -12.993  15.453  72.181  1.00  0.00    -0.394 C  
HETATM   37  C   UNL     1     -12.492  14.871  69.669  1.00  0.00    -0.139 C  
HETATM   38  C   UNL     1     -12.295  15.831  70.857  1.00  0.00    -0.451 C  
ENDBRANCH  31  32
ENDBRANCH   8  31
ENDBRANCH   2   3
TORSDOF 9
ENDMDL
MODEL      263
REMARK 921   NORMALIZED FREE ENERGY PREDICTED BY IDOCK:   -4.62 KCAL/MOL
REMARK 922        TOTAL FREE ENERGY PREDICTED BY IDOCK:   -8.48 KCAL/MOL
REMARK 923 INTER-LIGAND FREE ENERGY PREDICTED BY IDOCK:   -6.99 KCAL/MOL
REMARK 924 INTRA-LIGAND FREE ENERGY PREDICTED BY IDOCK:   -1.49 KCAL/MOL
REMARK 927      BINDING AFFINITY PREDICTED BY RF-SCORE:    0.00 PKD
ROOT
HETATM    1  C   UNL     1      -7.231  12.745  67.700  1.00  0.00    -0.141 C  
HETATM    2  C   UNL     1      -7.367  14.225  67.384  1.00  0.00    -0.152 C  
ENDROOT
BRANCH   2   3
HETATM    3  C   UNL     1      -8.805  14.690  67.334  1.00  0.00    -0.205 A  
HETATM    4  C   UNL     1      -9.660  13.877  66.575  1.00  0.00    -0.299 A  
HETATM    5  C   UNL     1     -10.973  14.254  66.284  1.00  0.00    -0.317 A  
HETATM    6  C   UNL     1     -11.468  15.447  66.795  1.00  0.00    -0.045 A  
HETATM    7  C   UNL     1     -10.647  16.239  67.616  1.00  0.00    -0.311 A  
HETATM    8  C   UNL     1      -9.315  15.870  67.917  1.00  0.00    -0.207 A  
BRANCH   5   9
HETATM    9  C   UNL     1     -11.708  13.393  65.315  1.00  0.00    -0.323 C  
HETATM   10  C   UNL     1     -11.479  13.545  63.836  1.00  0.00    -0.289 C  
BRANCH   9  11
HETATM   11  N   UNL     1     -12.538  12.524  65.822  1.00  0.00    -0.454 NA 
HETATM   12  H   UNL     1     -13.542  12.522  65.644  1.00  0.00     0.000 HD 
BRANCH  11  13
HETATM   13  O   UNL     1     -11.887  11.598  66.636  1.00  0.00    -0.533 OA 
BRANCH  13  14
HETATM   14  C   UNL     1     -11.133  10.736  65.793  1.00  0.00     0.208 C  
BRANCH  14  15
HETATM   15  C   UNL     1     -10.365   9.800  66.674  1.00  0.00    -0.276 A  
HETATM   16  F   UNL     1      -8.080   5.505  67.069  1.00  0.00    -0.100 F  
HETATM   17  F   UNL     1      -9.693   5.813  65.665  1.00  0.00    -0.109 F  
HETATM   18  C   UNL     1     -10.222  10.062  68.029  1.00  0.00    -0.216 A  
HETATM   19  F   UNL     1      -7.745   6.685  65.271  1.00  0.00    -0.076 F  
HETATM   20  C   UNL     1      -9.467   9.208  68.827  1.00  0.00    -0.147 A  
HETATM   21  C   UNL     1      -9.840   8.611  66.163  1.00  0.00    -0.269 A  
HETATM   22  C   UNL     1      -8.794   8.085  68.302  1.00  0.00    -0.133 A  
HETATM   23  C   UNL     1      -8.644   6.448  66.269  1.00  0.00    -0.140 C  
HETATM   24  C   UNL     1      -9.079   7.727  66.960  1.00  0.00    -0.162 A  
BRANCH  22  25
HETATM   25  C   UNL     1      -7.766   7.333  69.161  1.00  0.00    -0.108 C  
HETATM   26  C   UNL     1      -6.312   7.677  68.761  1.00  0.00    -0.040 C  
HETATM   27  C   UNL     1      -5.949   9.117  69.114  1.00  0.00    -0.042 C  
HETATM   28  C   UNL     1      -6.057   9.349  70.613  1.00  0.00    -0.065 C  
HETATM   29  C   UNL     1      -7.404   8.921  71.184  1.00  0.00    -0.119 C  
HETATM   30  C   UNL     1      -7.862   7.536  70.698  1.00  0.00    -0.095 C  
ENDBRANCH  22  25
ENDBRANCH  14  15
ENDBRANCH  13  14
ENDBRANCH  11  13
ENDBRANCH   9  11
ENDBRANCH   5   9
BRANCH   8  31
HETATM   31  C   UNL     1      -8.441  16.810  68.737  1.00  0.00    -0.253 C  
BRANCH  31  32
HETATM   32  N   UNL     1      -8.200  18.152  68.153  1.00  0.00    -0.268 NA 
HETATM   33  O   UNL     1      -8.069  21.036  67.118  1.00  0.00    -0.202 OA 
HETATM   34  O   UNL     1      -6.568  21.030  65.442  1.00  0.00    -0.158 OA 
HETATM   35  C   UNL     1      -6.759  18.517  68.192  1.00  0.00    -0.223 C  
HETATM   36  C   UNL     1      -7.126  20.420  66.350  1.00  0.00    -0.252 C  
HETATM   37  C   UNL     1      -8.082  17.994  66.670  1.00  0.00    -0.260 C  
HETATM   38  C   UNL     1      -6.868  18.941  66.711  1.00  0.00    -0.210 C  
ENDBRANCH  31  32
ENDBRANCH   8  31
ENDBRANCH   2   3
TORSDOF 9
ENDMDL
MODEL      264
REMARK 921   NORMALIZED FREE ENERGY PREDICTED BY IDOCK:   -4.60 KCAL/MOL
REMARK 922        TOTAL FREE ENERGY PREDICTED BY IDOCK:   -8.45 KCAL/MOL
REMARK 923 INTER-LIGAND FREE ENERGY PREDICTED BY IDOCK:   -7.53 KCAL/MOL
REMARK 924 INTRA-LIGAND FREE ENERGY PREDICTED BY IDOCK:   -0.92 KCAL/MOL
REMARK 927      BINDING AFFINITY PREDICTED BY RF-SCORE:    0.00 PKD
ROOT
HETATM    1  C   UNL     1      -5.154   5.390  68.936  1.00  0.00     0.000 C  
HETATM    2  C   UNL     1      -6.381   4.649  69.441  1.00  0.00    -0.028 C  
ENDROOT
BRANCH   2   3
HETATM    3  C   UNL     1      -7.506   4.610  68.431  1.00  0.00    -0.065 A  
HETATM    4  C   UNL     1      -7.280   5.363  67.269  1.00  0.00    -0.075 A  
HETATM    5  C   UNL     1      -8.282   5.575  66.319  1.00  0.00    -0.111 A  
HETATM    6  C   UNL     1      -9.528   4.989  66.502  1.00  0.00    -0.151 A  
HETATM    7  C   UNL     1      -9.749   4.173  67.624  1.00  0.00    -0.176 A  
HETATM    8  C   UNL     1      -8.744   3.952  68.595  1.00  0.00    -0.133 A  
BRANCH   5   9
HETATM    9  C   UNL     1      -7.967   6.545  65.233  1.00  0.00    -0.119 C  
HETATM   10  C   UNL     1      -8.075   6.132  63.789  1.00  0.00    -0.067 C  
BRANCH   9  11
HETATM   11  N   UNL     1      -7.603   7.739  65.607  1.00  0.00    -0.081 NA 
HETATM   12  H   UNL     1      -6.640   8.004  65.817  1.00  0.00     0.000 HD 
BRANCH  11  13
HETATM   13  O   UNL     1      -8.688   8.612  65.687  1.00  0.00    -0.163 OA 
BRANCH  13  14
HETATM   14  C   UNL     1      -8.583   9.531  64.606  1.00  0.00    -0.187 C  
BRANCH  14  15
HETATM   15  C   UNL     1      -9.182  10.828  65.056  1.00  0.00    -0.241 A  
HETATM   16  F   UNL     1     -12.596  14.234  64.303  1.00  0.00    -0.426 F  
HETATM   17  F   UNL     1     -11.827  13.015  62.693  1.00  0.00    -0.259 F  
HETATM   18  C   UNL     1      -8.574  11.579  66.052  1.00  0.00    -0.046 A  
HETATM   19  F   UNL     1     -13.179  12.143  64.149  1.00  0.00    -0.505 F  
HETATM   20  C   UNL     1      -9.166  12.759  66.491  1.00  0.00    -0.190 A  
HETATM   21  C   UNL     1     -10.321  11.339  64.432  1.00  0.00    -0.388 A  
HETATM   22  C   UNL     1     -10.401  13.216  65.987  1.00  0.00    -0.292 A  
HETATM   23  C   UNL     1     -12.118  12.991  64.028  1.00  0.00    -0.450 C  
HETATM   24  C   UNL     1     -10.930  12.541  64.859  1.00  0.00    -0.335 A  
BRANCH  22  25
HETATM   25  C   UNL     1     -11.139  14.368  66.685  1.00  0.00    -0.326 C  
HETATM   26  C   UNL     1     -12.343  13.868  67.518  1.00  0.00    -0.113 C  
HETATM   27  C   UNL     1     -11.900  13.062  68.735  1.00  0.00    -0.355 C  
HETATM   28  C   UNL     1     -11.049  13.912  69.665  1.00  0.00    -0.126 C  
HETATM   29  C   UNL     1      -9.886  14.591  68.950  1.00  0.00    -0.191 C  
HETATM   30  C   UNL     1     -10.292  15.265  67.629  1.00  0.00    -0.250 C  
ENDBRANCH  22  25
ENDBRANCH  14  15
ENDBRANCH  13  14
ENDBRANCH  11  13
ENDBRANCH   9  11
ENDBRANCH   5   9
BRANCH   8  31
HETATM   31  C   UNL     1      -9.066   3.133  69.839  1.00  0.00    -0.126 C  
BRANCH  31  32
HETATM   32  N   UNL     1      -9.832   3.832  70.900  1.00  0.00    -0.170 NA 
HETATM   33  O   UNL     1     -11.714   4.992  73.024  1.00  0.00    -0.297 OA 
HETATM   34  O   UNL     1     -10.998   7.089  73.415  1.00  0.00    -0.304 OA 
HETATM   35  C   UNL     1      -8.941   4.325  71.984  1.00  0.00    -0.116 C  
HETATM   36  C   UNL     1     -10.827   6.013  72.850  1.00  0.00    -0.258 C  
HETATM   37  C   UNL     1     -10.028   5.250  70.466  1.00  0.00    -0.229 C  
HETATM   38  C   UNL     1      -9.657   5.691  71.894  1.00  0.00    -0.176 C  
ENDBRANCH  31  32
ENDBRANCH   8  31
ENDBRANCH   2   3
TORSDOF 9
ENDMDL
MODEL      265
REMARK 921   NORMALIZED FREE ENERGY PREDICTED BY IDOCK:   -4.59 KCAL/MOL
REMARK 922        TOTAL FREE ENERGY PREDICTED BY IDOCK:   -8.43 KCAL/MOL
REMARK 923 INTER-LIGAND FREE ENERGY PREDICTED BY IDOCK:   -6.61 KCAL/MOL
REMARK 924 INTRA-LIGAND FREE ENERGY PREDICTED BY IDOCK:   -1.81 KCAL/MOL
REMARK 927      BINDING AFFINITY PREDICTED BY RF-SCORE:    0.00 PKD
ROOT
HETATM    1  C   UNL     1     -11.050  17.248  65.537  1.00  0.00     0.266 C  
HETATM    2  C   UNL     1      -9.540  17.341  65.684  1.00  0.00     0.188 C  
ENDROOT
BRANCH   2   3
HETATM    3  C   UNL     1      -8.946  16.176  66.443  1.00  0.00    -0.353 A  
HETATM    4  C   UNL     1      -9.797  15.069  66.582  1.00  0.00    -0.266 A  
HETATM    5  C   UNL     1      -9.471  13.984  67.399  1.00  0.00    -0.225 A  
HETATM    6  C   UNL     1      -8.250  13.974  68.061  1.00  0.00    -0.155 A  
HETATM    7  C   UNL     1      -7.355  15.042  67.876  1.00  0.00    -0.156 A  
HETATM    8  C   UNL     1      -7.673  16.148  67.054  1.00  0.00    -0.256 A  
BRANCH   5   9
HETATM    9  C   UNL     1     -10.541  12.969  67.606  1.00  0.00    -0.224 C  
HETATM   10  C   UNL     1     -11.023  12.643  68.994  1.00  0.00    -0.240 C  
BRANCH   9  11
HETATM   11  N   UNL     1     -11.017  12.399  66.534  1.00  0.00    -0.261 NA 
HETATM   12  H   UNL     1     -11.963  12.547  66.180  1.00  0.00     0.000 HD 
BRANCH  11  13
HETATM   13  O   UNL     1     -10.080  11.562  65.930  1.00  0.00    -0.215 OA 
BRANCH  13  14
HETATM   14  C   UNL     1     -10.598  10.237  65.966  1.00  0.00    -0.040 C  
BRANCH  14  15
HETATM   15  C   UNL     1      -9.861   9.492  67.036  1.00  0.00    -0.246 A  
HETATM   16  F   UNL     1     -10.055   7.422  71.452  1.00  0.00    -0.186 F  
HETATM   17  F   UNL     1     -11.355   9.058  70.901  1.00  0.00    -0.279 F  
HETATM   18  C   UNL     1      -8.490   9.296  66.944  1.00  0.00    -0.128 A  
HETATM   19  F   UNL     1     -11.713   7.080  70.082  1.00  0.00    -0.322 F  
HETATM   20  C   UNL     1      -7.826   8.563  67.923  1.00  0.00    -0.103 A  
HETATM   21  C   UNL     1     -10.527   9.045  68.178  1.00  0.00    -0.257 A  
HETATM   22  C   UNL     1      -8.503   7.965  69.006  1.00  0.00    -0.131 A  
HETATM   23  C   UNL     1     -10.718   7.960  70.393  1.00  0.00    -0.233 C  
HETATM   24  C   UNL     1      -9.866   8.308  69.187  1.00  0.00    -0.179 A  
BRANCH  22  25
HETATM   25  C   UNL     1      -7.776   6.952  69.903  1.00  0.00    -0.109 C  
HETATM   26  C   UNL     1      -8.031   5.492  69.457  1.00  0.00    -0.094 C  
HETATM   27  C   UNL     1      -7.370   5.182  68.118  1.00  0.00    -0.075 C  
HETATM   28  C   UNL     1      -5.861   5.355  68.207  1.00  0.00    -0.017 C  
HETATM   29  C   UNL     1      -5.452   6.711  68.768  1.00  0.00    -0.016 C  
HETATM   30  C   UNL     1      -6.236   7.113  70.028  1.00  0.00    -0.027 C  
ENDBRANCH  22  25
ENDBRANCH  14  15
ENDBRANCH  13  14
ENDBRANCH  11  13
ENDBRANCH   9  11
ENDBRANCH   5   9
BRANCH   8  31
HETATM   31  C   UNL     1      -6.705  17.320  66.960  1.00  0.00    -0.185 C  
BRANCH  31  32
HETATM   32  N   UNL     1      -6.223  17.871  68.250  1.00  0.00    -0.175 NA 
HETATM   33  O   UNL     1      -5.203  18.611  71.046  1.00  0.00    -0.258 OA 
HETATM   34  O   UNL     1      -5.706  20.784  71.339  1.00  0.00    -0.566 OA 
HETATM   35  C   UNL     1      -5.357  19.063  68.048  1.00  0.00    -0.172 C  
HETATM   36  C   UNL     1      -5.679  19.807  70.596  1.00  0.00    -0.271 C  
HETATM   37  C   UNL     1      -7.284  18.778  68.788  1.00  0.00    -0.308 C  
HETATM   38  C   UNL     1      -6.178  19.792  69.135  1.00  0.00    -0.339 C  
ENDBRANCH  31  32
ENDBRANCH   8  31
ENDBRANCH   2   3
TORSDOF 9
ENDMDL
MODEL      266
REMARK 921   NORMALIZED FREE ENERGY PREDICTED BY IDOCK:   -4.58 KCAL/MOL
REMARK 922        TOTAL FREE ENERGY PREDICTED BY IDOCK:   -8.42 KCAL/MOL
REMARK 923 INTER-LIGAND FREE ENERGY PREDICTED BY IDOCK:   -8.45 KCAL/MOL
REMARK 924 INTRA-LIGAND FREE ENERGY PREDICTED BY IDOCK:    0.03 KCAL/MOL
REMARK 927      BINDING AFFINITY PREDICTED BY RF-SCORE:    0.00 PKD
ROOT
HETATM    1  C   UNL     1     -12.167  13.335  63.488  1.00  0.00    -0.513 C  
HETATM    2  C   UNL     1     -11.783  12.401  64.624  1.00  0.00    -0.426 C  
ENDROOT
BRANCH   2   3
HETATM    3  C   UNL     1     -10.683  12.956  65.500  1.00  0.00    -0.301 A  
HETATM    4  C   UNL     1     -10.787  14.328  65.776  1.00  0.00    -0.303 A  
HETATM    5  C   UNL     1      -9.767  15.031  66.422  1.00  0.00    -0.305 A  
HETATM    6  C   UNL     1      -8.634  14.349  66.847  1.00  0.00    -0.191 A  
HETATM    7  C   UNL     1      -8.546  12.962  66.643  1.00  0.00     0.007 A  
HETATM    8  C   UNL     1      -9.570  12.238  65.988  1.00  0.00    -0.230 A  
BRANCH   5   9
HETATM    9  C   UNL     1      -9.922  16.511  66.482  1.00  0.00    -0.285 C  
HETATM   10  C   UNL     1     -10.781  17.228  65.475  1.00  0.00    -0.105 C  
BRANCH   9  11
HETATM   11  N   UNL     1      -9.281  17.125  67.437  1.00  0.00    -0.231 NA 
HETATM   12  H   UNL     1      -8.929  18.080  67.368  1.00  0.00     0.000 HD 
BRANCH  11  13
HETATM   13  O   UNL     1      -9.135  16.320  68.566  1.00  0.00    -0.199 OA 
BRANCH  13  14
HETATM   14  C   UNL     1     -10.240  16.576  69.425  1.00  0.00    -0.264 C  
BRANCH  14  15
HETATM   15  C   UNL     1     -10.830  15.254  69.809  1.00  0.00    -0.300 A  
HETATM   16  F   UNL     1     -13.628  12.783  72.954  1.00  0.00    -0.465 F  
HETATM   17  F   UNL     1     -12.559  14.568  73.538  1.00  0.00    -0.532 F  
HETATM   18  C   UNL     1     -10.451  14.093  69.150  1.00  0.00    -0.143 A  
HETATM   19  F   UNL     1     -14.318  14.734  72.278  1.00  0.00    -0.488 F  
HETATM   20  C   UNL     1     -11.041  12.879  69.487  1.00  0.00    -0.049 A  
HETATM   21  C   UNL     1     -11.715  15.156  70.884  1.00  0.00    -0.378 A  
HETATM   22  C   UNL     1     -12.055  12.778  70.462  1.00  0.00    -0.369 A  
HETATM   23  C   UNL     1     -13.197  13.983  72.480  1.00  0.00    -0.505 C  
HETATM   24  C   UNL     1     -12.316  13.929  71.247  1.00  0.00    -0.419 A  
BRANCH  22  25
HETATM   25  C   UNL     1     -12.855  11.475  70.608  1.00  0.00    -0.151 C  
HETATM   26  C   UNL     1     -12.773  10.596  69.336  1.00  0.00     0.426 C  
HETATM   27  C   UNL     1     -11.373  10.025  69.128  1.00  0.00    -0.146 C  
HETATM   28  C   UNL     1     -10.971   9.140  70.298  1.00  0.00    -0.279 C  
HETATM   29  C   UNL     1     -11.133   9.830  71.647  1.00  0.00    -0.073 C  
HETATM   30  C   UNL     1     -12.479  10.557  71.803  1.00  0.00    -0.362 C  
ENDBRANCH  22  25
ENDBRANCH  14  15
ENDBRANCH  13  14
ENDBRANCH  11  13
ENDBRANCH   9  11
ENDBRANCH   5   9
BRANCH   8  31
HETATM   31  C   UNL     1      -9.383  10.751  65.712  1.00  0.00    -0.203 C  
BRANCH  31  32
HETATM   32  N   UNL     1      -8.647   9.984  66.746  1.00  0.00    -0.125 NA 
HETATM   33  O   UNL     1      -7.038   8.771  69.058  1.00  0.00    -0.063 OA 
HETATM   34  O   UNL     1      -6.491   6.687  68.412  1.00  0.00    -0.045 OA 
HETATM   35  C   UNL     1      -9.327   8.701  67.066  1.00  0.00    -0.159 C  
HETATM   36  C   UNL     1      -7.102   7.727  68.184  1.00  0.00    -0.085 C  
HETATM   37  C   UNL     1      -7.572   9.201  66.061  1.00  0.00    -0.095 C  
HETATM   38  C   UNL     1      -7.962   7.991  66.929  1.00  0.00    -0.104 C  
ENDBRANCH  31  32
ENDBRANCH   8  31
ENDBRANCH   2   3
TORSDOF 9
ENDMDL
MODEL      267
REMARK 921   NORMALIZED FREE ENERGY PREDICTED BY IDOCK:   -4.57 KCAL/MOL
REMARK 922        TOTAL FREE ENERGY PREDICTED BY IDOCK:   -8.41 KCAL/MOL
REMARK 923 INTER-LIGAND FREE ENERGY PREDICTED BY IDOCK:   -8.38 KCAL/MOL
REMARK 924 INTRA-LIGAND FREE ENERGY PREDICTED BY IDOCK:   -0.02 KCAL/MOL
REMARK 927      BINDING AFFINITY PREDICTED BY RF-SCORE:    0.00 PKD
ROOT
HETATM    1  C   UNL     1      -7.469  10.102  62.580  1.00  0.00    -0.144 C  
HETATM    2  C   UNL     1      -7.418   8.951  63.571  1.00  0.00    -0.105 C  
ENDROOT
BRANCH   2   3
HETATM    3  C   UNL     1      -8.530   9.001  64.595  1.00  0.00    -0.194 A  
HETATM    4  C   UNL     1      -9.501   9.987  64.361  1.00  0.00    -0.349 A  
HETATM    5  C   UNL     1     -10.495  10.282  65.297  1.00  0.00    -0.099 A  
HETATM    6  C   UNL     1     -10.557   9.552  66.477  1.00  0.00    -0.133 A  
HETATM    7  C   UNL     1      -9.636   8.514  66.696  1.00  0.00    -0.292 A  
HETATM    8  C   UNL     1      -8.623   8.205  65.757  1.00  0.00    -0.175 A  
BRANCH   5   9
HETATM    9  C   UNL     1     -11.341  11.473  65.007  1.00  0.00    -0.098 C  
HETATM   10  C   UNL     1     -11.581  11.909  63.586  1.00  0.00    -0.559 C  
BRANCH   9  11
HETATM   11  N   UNL     1     -11.845  12.094  66.037  1.00  0.00    -0.561 NA 
HETATM   12  H   UNL     1     -12.842  12.137  66.247  1.00  0.00     0.000 HD 
BRANCH  11  13
HETATM   13  O   UNL     1     -10.857  12.692  66.818  1.00  0.00    -0.244 OA 
BRANCH  13  14
HETATM   14  C   UNL     1      -9.835  13.154  65.942  1.00  0.00    -0.233 C  
BRANCH  14  15
HETATM   15  C   UNL     1      -9.461  14.538  66.373  1.00  0.00    -0.316 A  
HETATM   16  F   UNL     1      -6.190  17.377  68.623  1.00  0.00    -0.155 F  
HETATM   17  F   UNL     1      -6.420  15.287  69.121  1.00  0.00    -0.104 F  
HETATM   18  C   UNL     1     -10.360  15.586  66.239  1.00  0.00    -0.312 A  
HETATM   19  F   UNL     1      -5.457  15.848  67.258  1.00  0.00    -0.144 F  
HETATM   20  C   UNL     1      -9.983  16.876  66.601  1.00  0.00    -0.302 A  
HETATM   21  C   UNL     1      -8.230  14.785  66.983  1.00  0.00    -0.211 A  
HETATM   22  C   UNL     1      -8.688  17.178  67.072  1.00  0.00    -0.244 A  
HETATM   23  C   UNL     1      -6.498  16.169  68.080  1.00  0.00    -0.132 C  
HETATM   24  C   UNL     1      -7.834  16.086  67.367  1.00  0.00    -0.188 A  
BRANCH  22  25
HETATM   25  C   UNL     1      -8.239  18.641  67.204  1.00  0.00    -0.258 C  
HETATM   26  C   UNL     1      -8.995  19.572  66.225  1.00  0.00    -0.400 C  
HETATM   27  C   UNL     1     -10.469  19.713  66.595  1.00  0.00    -0.610 C  
HETATM   28  C   UNL     1     -10.621  20.320  67.982  1.00  0.00    -0.208 C  
HETATM   29  C   UNL     1      -9.812  19.585  69.044  1.00  0.00    -0.491 C  
HETATM   30  C   UNL     1      -8.367  19.285  68.612  1.00  0.00    -0.407 C  
ENDBRANCH  22  25
ENDBRANCH  14  15
ENDBRANCH  13  14
ENDBRANCH  11  13
ENDBRANCH   9  11
ENDBRANCH   5   9
BRANCH   8  31
HETATM   31  C   UNL     1      -7.595   7.130  66.085  1.00  0.00    -0.092 C  
BRANCH  31  32
HETATM   32  N   UNL     1      -8.023   5.728  65.857  1.00  0.00    -0.105 NA 
HETATM   33  O   UNL     1      -9.211   2.908  65.666  1.00  0.00    -0.150 OA 
HETATM   34  O   UNL     1      -7.612   1.617  64.754  1.00  0.00    -0.060 OA 
HETATM   35  C   UNL     1      -7.849   5.326  64.436  1.00  0.00    -0.100 C  
HETATM   36  C   UNL     1      -7.989   2.736  65.088  1.00  0.00    -0.082 C  
HETATM   37  C   UNL     1      -6.878   4.834  66.213  1.00  0.00    -0.062 C  
HETATM   38  C   UNL     1      -7.164   4.032  64.930  1.00  0.00    -0.067 C  
ENDBRANCH  31  32
ENDBRANCH   8  31
ENDBRANCH   2   3
TORSDOF 9
ENDMDL
MODEL      268
REMARK 921   NORMALIZED FREE ENERGY PREDICTED BY IDOCK:   -4.54 KCAL/MOL
REMARK 922        TOTAL FREE ENERGY PREDICTED BY IDOCK:   -8.36 KCAL/MOL
REMARK 923 INTER-LIGAND FREE ENERGY PREDICTED BY IDOCK:   -8.18 KCAL/MOL
REMARK 924 INTRA-LIGAND FREE ENERGY PREDICTED BY IDOCK:   -0.18 KCAL/MOL
REMARK 927      BINDING AFFINITY PREDICTED BY RF-SCORE:    0.00 PKD
ROOT
HETATM    1  C   UNL     1     -12.448   7.580  71.225  1.00  0.00    -0.354 C  
HETATM    2  C   UNL     1     -11.679   6.832  70.148  1.00  0.00    -0.370 C  
ENDROOT
BRANCH   2   3
HETATM    3  C   UNL     1     -10.382   7.510  69.767  1.00  0.00    -0.221 A  
HETATM    4  C   UNL     1     -10.442   8.911  69.719  1.00  0.00    -0.217 A  
HETATM    5  C   UNL     1      -9.389   9.680  69.220  1.00  0.00    -0.184 A  
HETATM    6  C   UNL     1      -8.226   9.048  68.797  1.00  0.00    -0.117 A  
HETATM    7  C   UNL     1      -8.122   7.651  68.904  1.00  0.00    -0.127 A  
HETATM    8  C   UNL     1      -9.182   6.860  69.406  1.00  0.00    -0.147 A  
BRANCH   5   9
HETATM    9  C   UNL     1      -9.656  11.135  69.050  1.00  0.00    -0.083 C  
HETATM   10  C   UNL     1     -11.062  11.666  69.136  1.00  0.00    -0.302 C  
BRANCH   9  11
HETATM   11  N   UNL     1      -8.621  11.895  68.829  1.00  0.00    -0.360 NA 
HETATM   12  H   UNL     1      -7.667  11.656  69.102  1.00  0.00     0.000 HD 
BRANCH  11  13
HETATM   13  O   UNL     1      -8.972  13.075  68.174  1.00  0.00    -0.191 OA 
BRANCH  13  14
HETATM   14  C   UNL     1      -7.806  13.573  67.527  1.00  0.00    -0.178 C  
BRANCH  14  15
HETATM   15  C   UNL     1      -7.836  15.067  67.630  1.00  0.00    -0.186 A  
HETATM   16  F   UNL     1     -10.462  19.150  67.127  1.00  0.00    -0.392 F  
HETATM   17  F   UNL     1     -10.891  17.370  65.980  1.00  0.00    -0.285 F  
HETATM   18  C   UNL     1      -6.672  15.781  67.875  1.00  0.00    -0.162 A  
HETATM   19  F   UNL     1     -11.399  17.437  68.089  1.00  0.00    -0.262 F  
HETATM   20  C   UNL     1      -6.721  17.164  68.013  1.00  0.00    -0.166 A  
HETATM   21  C   UNL     1      -9.021  15.772  67.411  1.00  0.00    -0.204 A  
HETATM   22  C   UNL     1      -7.932  17.885  67.954  1.00  0.00    -0.235 A  
HETATM   23  C   UNL     1     -10.432  17.792  67.196  1.00  0.00    -0.335 C  
HETATM   24  C   UNL     1      -9.087  17.178  67.538  1.00  0.00    -0.225 A  
BRANCH  22  25
HETATM   25  C   UNL     1      -7.970  19.362  68.375  1.00  0.00    -0.376 C  
HETATM   26  C   UNL     1      -6.991  19.660  69.536  1.00  0.00    -0.314 C  
HETATM   27  C   UNL     1      -5.534  19.548  69.097  1.00  0.00    -0.221 C  
HETATM   28  C   UNL     1      -5.224  20.550  67.994  1.00  0.00    -0.240 C  
HETATM   29  C   UNL     1      -6.202  20.469  66.828  1.00  0.00    -0.258 C  
HETATM   30  C   UNL     1      -7.674  20.409  67.268  1.00  0.00    -0.372 C  
ENDBRANCH  22  25
ENDBRANCH  14  15
ENDBRANCH  13  14
ENDBRANCH  11  13
ENDBRANCH   9  11
ENDBRANCH   5   9
BRANCH   8  31
HETATM   31  C   UNL     1      -9.050   5.342  69.416  1.00  0.00    -0.104 C  
BRANCH  31  32
HETATM   32  N   UNL     1      -9.198   4.667  68.104  1.00  0.00    -0.121 NA 
HETATM   33  O   UNL     1      -9.441   2.912  65.602  1.00  0.00    -0.110 OA 
HETATM   34  O   UNL     1      -9.129   4.282  63.845  1.00  0.00    -0.137 OA 
HETATM   35  C   UNL     1     -10.217   5.337  67.254  1.00  0.00    -0.206 C  
HETATM   36  C   UNL     1      -9.257   4.149  65.059  1.00  0.00    -0.154 C  
HETATM   37  C   UNL     1      -8.139   5.198  67.191  1.00  0.00    -0.104 C  
HETATM   38  C   UNL     1      -9.206   5.300  66.086  1.00  0.00    -0.158 C  
ENDBRANCH  31  32
ENDBRANCH   8  31
ENDBRANCH   2   3
TORSDOF 9
ENDMDL
MODEL      269
REMARK 921   NORMALIZED FREE ENERGY PREDICTED BY IDOCK:   -4.52 KCAL/MOL
REMARK 922        TOTAL FREE ENERGY PREDICTED BY IDOCK:   -8.33 KCAL/MOL
REMARK 923 INTER-LIGAND FREE ENERGY PREDICTED BY IDOCK:   -7.77 KCAL/MOL
REMARK 924 INTRA-LIGAND FREE ENERGY PREDICTED BY IDOCK:   -0.56 KCAL/MOL
REMARK 927      BINDING AFFINITY PREDICTED BY RF-SCORE:    0.00 PKD
ROOT
HETATM    1  C   UNL     1     -10.704  16.828  69.129  1.00  0.00    -0.329 C  
HETATM    2  C   UNL     1      -9.922  16.281  67.946  1.00  0.00    -0.241 C  
ENDROOT
BRANCH   2   3
HETATM    3  C   UNL     1      -8.521  15.845  68.313  1.00  0.00    -0.170 A  
HETATM    4  C   UNL     1      -8.305  14.460  68.270  1.00  0.00    -0.158 A  
HETATM    5  C   UNL     1      -7.126  13.880  68.744  1.00  0.00    -0.109 A  
HETATM    6  C   UNL     1      -6.114  14.697  69.232  1.00  0.00    -0.107 A  
HETATM    7  C   UNL     1      -6.285  16.092  69.216  1.00  0.00    -0.151 A  
HETATM    8  C   UNL     1      -7.475  16.692  68.741  1.00  0.00    -0.224 A  
BRANCH   5   9
HETATM    9  C   UNL     1      -7.104  12.392  68.815  1.00  0.00    -0.098 C  
HETATM   10  C   UNL     1      -6.003  11.682  69.555  1.00  0.00    -0.090 C  
BRANCH   9  11
HETATM   11  N   UNL     1      -8.075  11.766  68.211  1.00  0.00    -0.147 NA 
HETATM   12  H   UNL     1      -7.977  11.287  67.316  1.00  0.00     0.000 HD 
BRANCH  11  13
HETATM   13  O   UNL     1      -9.265  11.831  68.935  1.00  0.00    -0.059 OA 
BRANCH  13  14
HETATM   14  C   UNL     1     -10.015  10.659  68.638  1.00  0.00    -0.181 C  
BRANCH  14  15
HETATM   15  C   UNL     1      -9.942  10.438  67.159  1.00  0.00    -0.239 A  
HETATM   16  F   UNL     1     -11.201  12.031  62.720  1.00  0.00    -0.187 F  
HETATM   17  F   UNL     1     -12.400  12.456  64.467  1.00  0.00    -0.448 F  
HETATM   18  C   UNL     1      -9.394   9.272  66.645  1.00  0.00    -0.219 A  
HETATM   19  F   UNL     1     -10.515  13.492  64.180  1.00  0.00    -0.429 F  
HETATM   20  C   UNL     1      -9.292   9.100  65.268  1.00  0.00    -0.224 A  
HETATM   21  C   UNL     1     -10.489  11.369  66.274  1.00  0.00    -0.301 A  
HETATM   22  C   UNL     1      -9.692  10.095  64.353  1.00  0.00    -0.345 A  
HETATM   23  C   UNL     1     -11.110  12.271  64.056  1.00  0.00    -0.386 C  
HETATM   24  C   UNL     1     -10.403  11.206  64.872  1.00  0.00    -0.375 A  
BRANCH  22  25
HETATM   25  C   UNL     1      -9.316   9.972  62.868  1.00  0.00    -0.290 C  
HETATM   26  C   UNL     1      -8.092  10.847  62.505  1.00  0.00    -0.179 C  
HETATM   27  C   UNL     1      -6.809  10.328  63.147  1.00  0.00    -0.112 C  
HETATM   28  C   UNL     1      -6.497   8.918  62.668  1.00  0.00    -0.094 C  
HETATM   29  C   UNL     1      -7.672   7.961  62.835  1.00  0.00    -0.132 C  
HETATM   30  C   UNL     1      -9.008   8.543  62.345  1.00  0.00     0.184 C  
ENDBRANCH  22  25
ENDBRANCH  14  15
ENDBRANCH  13  14
ENDBRANCH  11  13
ENDBRANCH   9  11
ENDBRANCH   5   9
BRANCH   8  31
HETATM   31  C   UNL     1      -7.644  18.204  68.830  1.00  0.00    -0.274 C  
BRANCH  31  32
HETATM   32  N   UNL     1      -7.103  18.988  67.693  1.00  0.00    -0.217 NA 
HETATM   33  O   UNL     1      -5.989  20.937  65.604  1.00  0.00    -0.223 OA 
HETATM   34  O   UNL     1      -6.332  19.970  63.602  1.00  0.00    -0.229 OA 
HETATM   35  C   UNL     1      -6.158  18.185  66.873  1.00  0.00    -0.150 C  
HETATM   36  C   UNL     1      -6.386  19.890  64.826  1.00  0.00    -0.269 C  
HETATM   37  C   UNL     1      -8.088  18.908  66.570  1.00  0.00    -0.287 C  
HETATM   38  C   UNL     1      -6.907  18.667  65.611  1.00  0.00    -0.284 C  
ENDBRANCH  31  32
ENDBRANCH   8  31
ENDBRANCH   2   3
TORSDOF 9
ENDMDL
MODEL      270
REMARK 921   NORMALIZED FREE ENERGY PREDICTED BY IDOCK:   -4.50 KCAL/MOL
REMARK 922        TOTAL FREE ENERGY PREDICTED BY IDOCK:   -8.30 KCAL/MOL
REMARK 923 INTER-LIGAND FREE ENERGY PREDICTED BY IDOCK:   -6.74 KCAL/MOL
REMARK 924 INTRA-LIGAND FREE ENERGY PREDICTED BY IDOCK:   -1.56 KCAL/MOL
REMARK 927      BINDING AFFINITY PREDICTED BY RF-SCORE:    0.00 PKD
ROOT
HETATM    1  C   UNL     1     -13.695   8.748  71.709  1.00  0.00    -0.461 C  
HETATM    2  C   UNL     1     -12.772   9.952  71.621  1.00  0.00    -0.527 C  
ENDROOT
BRANCH   2   3
HETATM    3  C   UNL     1     -11.422   9.621  71.026  1.00  0.00    -0.444 A  
HETATM    4  C   UNL     1     -10.583   8.862  71.855  1.00  0.00    -0.419 A  
HETATM    5  C   UNL     1      -9.247   8.618  71.531  1.00  0.00    -0.316 A  
HETATM    6  C   UNL     1      -8.738   9.102  70.332  1.00  0.00    -0.245 A  
HETATM    7  C   UNL     1      -9.584   9.803  69.456  1.00  0.00    -0.225 A  
HETATM    8  C   UNL     1     -10.939  10.059  69.773  1.00  0.00    -0.317 A  
BRANCH   5   9
HETATM    9  C   UNL     1      -8.421   7.963  72.584  1.00  0.00    -0.150 C  
HETATM   10  C   UNL     1      -9.056   7.486  73.862  1.00  0.00    -0.315 C  
BRANCH   9  11
HETATM   11  N   UNL     1      -7.148   7.836  72.330  1.00  0.00    -0.070 NA 
HETATM   12  H   UNL     1      -6.490   8.615  72.303  1.00  0.00     0.000 HD 
BRANCH  11  13
HETATM   13  O   UNL     1      -6.795   6.507  72.099  1.00  0.00    -0.066 OA 
BRANCH  13  14
HETATM   14  C   UNL     1      -5.574   6.505  71.369  1.00  0.00    -0.027 C  
BRANCH  14  15
HETATM   15  C   UNL     1      -5.876   6.022  69.984  1.00  0.00    -0.017 A  
HETATM   16  F   UNL     1      -7.007   7.221  65.390  1.00  0.00    -0.054 F  
HETATM   17  F   UNL     1      -7.538   8.483  67.062  1.00  0.00    -0.087 F  
HETATM   18  C   UNL     1      -6.036   4.668  69.728  1.00  0.00    -0.018 A  
HETATM   19  F   UNL     1      -5.471   8.381  66.407  1.00  0.00    -0.027 F  
HETATM   20  C   UNL     1      -6.271   4.229  68.429  1.00  0.00    -0.032 A  
HETATM   21  C   UNL     1      -6.071   6.929  68.941  1.00  0.00    -0.026 A  
HETATM   22  C   UNL     1      -6.315   5.114  67.331  1.00  0.00    -0.040 A  
HETATM   23  C   UNL     1      -6.579   7.615  66.620  1.00  0.00    -0.057 C  
HETATM   24  C   UNL     1      -6.320   6.502  67.617  1.00  0.00    -0.043 A  
BRANCH  22  25
HETATM   25  C   UNL     1      -6.309   4.562  65.898  1.00  0.00    -0.036 C  
HETATM   26  C   UNL     1      -5.512   3.240  65.787  1.00  0.00    -0.017 C  
HETATM   27  C   UNL     1      -6.209   2.092  66.509  1.00  0.00    -0.023 C  
HETATM   28  C   UNL     1      -7.581   1.828  65.906  1.00  0.00    -0.066 C  
HETATM   29  C   UNL     1      -8.442   3.081  65.820  1.00  0.00    -0.110 C  
HETATM   30  C   UNL     1      -7.695   4.298  65.248  1.00  0.00    -0.085 C  
ENDBRANCH  22  25
ENDBRANCH  14  15
ENDBRANCH  13  14
ENDBRANCH  11  13
ENDBRANCH   9  11
ENDBRANCH   5   9
BRANCH   8  31
HETATM   31  C   UNL     1     -11.787  10.902  68.829  1.00  0.00    -0.235 C  
BRANCH  31  32
HETATM   32  N   UNL     1     -11.058  11.915  68.028  1.00  0.00    -0.223 NA 
HETATM   33  O   UNL     1      -9.231  13.948  66.637  1.00  0.00    -0.264 OA 
HETATM   34  O   UNL     1     -10.580  15.253  65.397  1.00  0.00    -0.334 OA 
HETATM   35  C   UNL     1     -11.384  11.808  66.581  1.00  0.00    -0.316 C  
HETATM   36  C   UNL     1     -10.452  14.273  66.126  1.00  0.00    -0.292 C  
HETATM   37  C   UNL     1     -11.842  13.188  68.073  1.00  0.00    -0.358 C  
HETATM   38  C   UNL     1     -11.601  13.338  66.559  1.00  0.00    -0.392 C  
ENDBRANCH  31  32
ENDBRANCH   8  31
ENDBRANCH   2   3
TORSDOF 9
ENDMDL
MODEL      271
REMARK 921   NORMALIZED FREE ENERGY PREDICTED BY IDOCK:   -4.48 KCAL/MOL
REMARK 922        TOTAL FREE ENERGY PREDICTED BY IDOCK:   -8.27 KCAL/MOL
REMARK 923 INTER-LIGAND FREE ENERGY PREDICTED BY IDOCK:   -7.15 KCAL/MOL
REMARK 924 INTRA-LIGAND FREE ENERGY PREDICTED BY IDOCK:   -1.12 KCAL/MOL
REMARK 927      BINDING AFFINITY PREDICTED BY RF-SCORE:    0.00 PKD
ROOT
HETATM    1  C   UNL     1     -11.077   6.692  71.632  1.00  0.00    -0.290 C  
HETATM    2  C   UNL     1      -9.668   7.254  71.725  1.00  0.00    -0.167 C  
ENDROOT
BRANCH   2   3
HETATM    3  C   UNL     1      -9.080   7.604  70.377  1.00  0.00    -0.152 A  
HETATM    4  C   UNL     1      -9.037   8.977  70.091  1.00  0.00    -0.206 A  
HETATM    5  C   UNL     1      -8.687   9.459  68.828  1.00  0.00    -0.131 A  
HETATM    6  C   UNL     1      -8.327   8.560  67.833  1.00  0.00    -0.126 A  
HETATM    7  C   UNL     1      -8.296   7.185  68.122  1.00  0.00    -0.124 A  
HETATM    8  C   UNL     1      -8.650   6.683  69.396  1.00  0.00    -0.135 A  
BRANCH   5   9
HETATM    9  C   UNL     1      -8.865  10.922  68.607  1.00  0.00    -0.158 C  
HETATM   10  C   UNL     1      -9.961  11.428  67.709  1.00  0.00    -0.192 C  
BRANCH   9  11
HETATM   11  N   UNL     1      -8.031  11.709  69.227  1.00  0.00    -0.348 NA 
HETATM   12  H   UNL     1      -7.832  11.658  70.227  1.00  0.00     0.000 HD 
BRANCH  11  13
HETATM   13  O   UNL     1      -7.444  12.630  68.361  1.00  0.00    -0.115 OA 
BRANCH  13  14
HETATM   14  C   UNL     1      -7.264  13.845  69.079  1.00  0.00    -0.078 C  
BRANCH  14  15
HETATM   15  C   UNL     1      -7.730  14.964  68.199  1.00  0.00    -0.117 A  
HETATM   16  F   UNL     1     -10.711  16.363  64.596  1.00  0.00    -0.365 F  
HETATM   17  F   UNL     1     -10.026  14.322  64.782  1.00  0.00    -0.415 F  
HETATM   18  C   UNL     1      -7.078  16.188  68.209  1.00  0.00    -0.130 A  
HETATM   19  F   UNL     1     -11.520  15.083  66.161  1.00  0.00    -0.348 F  
HETATM   20  C   UNL     1      -7.550  17.233  67.420  1.00  0.00    -0.201 A  
HETATM   21  C   UNL     1      -8.782  14.772  67.302  1.00  0.00    -0.226 A  
HETATM   22  C   UNL     1      -8.707  17.113  66.623  1.00  0.00    -0.281 A  
HETATM   23  C   UNL     1     -10.366  15.423  65.517  1.00  0.00    -0.387 C  
HETATM   24  C   UNL     1      -9.267  15.818  66.485  1.00  0.00    -0.314 A  
BRANCH  22  25
HETATM   25  C   UNL     1      -9.336  18.361  65.985  1.00  0.00    -0.012 C  
HETATM   26  C   UNL     1     -10.731  18.676  66.576  1.00  0.00    -0.294 C  
HETATM   27  C   UNL     1     -10.645  19.136  68.028  1.00  0.00    -0.405 C  
HETATM   28  C   UNL     1      -9.823  20.411  68.142  1.00  0.00    -0.321 C  
HETATM   29  C   UNL     1      -8.457  20.299  67.475  1.00  0.00    -0.376 C  
HETATM   30  C   UNL     1      -8.513  19.675  66.071  1.00  0.00    -0.283 C  
ENDBRANCH  22  25
ENDBRANCH  14  15
ENDBRANCH  13  14
ENDBRANCH  11  13
ENDBRANCH   9  11
ENDBRANCH   5   9
BRANCH   8  31
HETATM   31  C   UNL     1      -8.686   5.178  69.629  1.00  0.00    -0.092 C  
BRANCH  31  32
HETATM   32  N   UNL     1      -8.097   4.702  70.904  1.00  0.00    -0.080 NA 
HETATM   33  O   UNL     1      -6.758   4.115  73.600  1.00  0.00    -0.049 OA 
HETATM   34  O   UNL     1      -6.432   1.890  73.664  1.00  0.00    -0.012 OA 
HETATM   35  C   UNL     1      -8.940   3.655  71.541  1.00  0.00    -0.107 C  
HETATM   36  C   UNL     1      -6.903   2.862  73.081  1.00  0.00    -0.031 C  
HETATM   37  C   UNL     1      -7.091   3.643  70.580  1.00  0.00    -0.034 C  
HETATM   38  C   UNL     1      -7.664   2.807  71.739  1.00  0.00    -0.048 C  
ENDBRANCH  31  32
ENDBRANCH   8  31
ENDBRANCH   2   3
TORSDOF 9
ENDMDL
MODEL      272
REMARK 921   NORMALIZED FREE ENERGY PREDICTED BY IDOCK:   -4.44 KCAL/MOL
REMARK 922        TOTAL FREE ENERGY PREDICTED BY IDOCK:   -8.21 KCAL/MOL
REMARK 923 INTER-LIGAND FREE ENERGY PREDICTED BY IDOCK:   -6.21 KCAL/MOL
REMARK 924 INTRA-LIGAND FREE ENERGY PREDICTED BY IDOCK:   -1.99 KCAL/MOL
REMARK 927      BINDING AFFINITY PREDICTED BY RF-SCORE:    0.00 PKD
ROOT
HETATM    1  C   UNL     1      -7.678   8.842  69.074  1.00  0.00    -0.090 C  
HETATM    2  C   UNL     1      -9.053   8.359  69.505  1.00  0.00    -0.153 C  
ENDROOT
BRANCH   2   3
HETATM    3  C   UNL     1      -9.600   7.263  68.619  1.00  0.00    -0.141 A  
HETATM    4  C   UNL     1      -8.879   7.048  67.435  1.00  0.00    -0.119 A  
HETATM    5  C   UNL     1      -9.345   6.199  66.429  1.00  0.00    -0.173 A  
HETATM    6  C   UNL     1     -10.535   5.508  66.619  1.00  0.00    -0.355 A  
HETATM    7  C   UNL     1     -11.234   5.657  67.829  1.00  0.00     0.510 A  
HETATM    8  C   UNL     1     -10.775   6.516  68.855  1.00  0.00    -0.318 A  
BRANCH   5   9
HETATM    9  C   UNL     1      -8.581   6.208  65.150  1.00  0.00    -0.046 C  
HETATM   10  C   UNL     1      -8.306   4.921  64.419  1.00  0.00    -0.133 C  
BRANCH   9  11
HETATM   11  N   UNL     1      -8.178   7.371  64.722  1.00  0.00    -0.277 NA 
HETATM   12  H   UNL     1      -7.853   8.124  65.330  1.00  0.00     0.000 HD 
BRANCH  11  13
HETATM   13  O   UNL     1      -8.243   7.464  63.332  1.00  0.00    -0.061 OA 
BRANCH  13  14
HETATM   14  C   UNL     1      -8.405   8.838  62.998  1.00  0.00    -0.175 C  
BRANCH  14  15
HETATM   15  C   UNL     1      -8.517   9.604  64.280  1.00  0.00    -0.188 A  
HETATM   16  F   UNL     1      -6.170  11.654  68.037  1.00  0.00    -0.046 F  
HETATM   17  F   UNL     1      -5.345   9.975  66.956  1.00  0.00    -0.040 F  
HETATM   18  C   UNL     1      -9.757   9.848  64.851  1.00  0.00    -0.332 A  
HETATM   19  F   UNL     1      -5.359  11.942  66.038  1.00  0.00    -0.007 F  
HETATM   20  C   UNL     1      -9.850  10.601  66.017  1.00  0.00    -0.280 A  
HETATM   21  C   UNL     1      -7.372  10.025  64.959  1.00  0.00    -0.140 A  
HETATM   22  C   UNL     1      -8.719  11.172  66.637  1.00  0.00    -0.166 A  
HETATM   23  C   UNL     1      -6.111  11.096  66.798  1.00  0.00    -0.119 C  
HETATM   24  C   UNL     1      -7.446  10.781  66.151  1.00  0.00    -0.129 A  
BRANCH  22  25
HETATM   25  C   UNL     1      -8.896  12.206  67.759  1.00  0.00    -0.172 C  
HETATM   26  C   UNL     1      -8.684  13.654  67.254  1.00  0.00    -0.223 C  
HETATM   27  C   UNL     1      -9.796  14.096  66.307  1.00  0.00    -0.321 C  
HETATM   28  C   UNL     1     -11.145  14.071  67.010  1.00  0.00    -0.312 C  
HETATM   29  C   UNL     1     -11.439  12.736  67.684  1.00  0.00    -0.387 C  
HETATM   30  C   UNL     1     -10.258  12.195  68.507  1.00  0.00    -0.214 C  
ENDBRANCH  22  25
ENDBRANCH  14  15
ENDBRANCH  13  14
ENDBRANCH  11  13
ENDBRANCH   9  11
ENDBRANCH   5   9
BRANCH   8  31
HETATM   31  C   UNL     1     -11.618   6.709  70.109  1.00  0.00    -0.386 C  
BRANCH  31  32
HETATM   32  N   UNL     1     -11.398   5.728  71.200  1.00  0.00    -0.158 NA 
HETATM   33  O   UNL     1     -11.360   3.649  73.453  1.00  0.00    -0.211 OA 
HETATM   34  O   UNL     1      -9.373   3.879  74.482  1.00  0.00    -0.101 OA 
HETATM   35  C   UNL     1     -10.147   4.950  70.994  1.00  0.00    -0.218 C  
HETATM   36  C   UNL     1     -10.118   4.200  73.560  1.00  0.00    -0.136 C  
HETATM   37  C   UNL     1     -10.726   6.440  72.330  1.00  0.00    -0.226 C  
HETATM   38  C   UNL     1      -9.777   5.235  72.466  1.00  0.00    -0.176 C  
ENDBRANCH  31  32
ENDBRANCH   8  31
ENDBRANCH   2   3
TORSDOF 9
ENDMDL
MODEL      273
REMARK 921   NORMALIZED FREE ENERGY PREDICTED BY IDOCK:   -4.41 KCAL/MOL
REMARK 922        TOTAL FREE ENERGY PREDICTED BY IDOCK:   -8.17 KCAL/MOL
REMARK 923 INTER-LIGAND FREE ENERGY PREDICTED BY IDOCK:   -6.72 KCAL/MOL
REMARK 924 INTRA-LIGAND FREE ENERGY PREDICTED BY IDOCK:   -1.44 KCAL/MOL
REMARK 927      BINDING AFFINITY PREDICTED BY RF-SCORE:    0.00 PKD
ROOT
HETATM    1  C   UNL     1      -6.471   8.239  71.314  1.00  0.00    -0.046 C  
HETATM    2  C   UNL     1      -6.238   6.800  70.884  1.00  0.00    -0.040 C  
ENDROOT
BRANCH   2   3
HETATM    3  C   UNL     1      -7.522   6.039  70.642  1.00  0.00    -0.087 A  
HETATM    4  C   UNL     1      -8.645   6.553  71.307  1.00  0.00    -0.127 A  
HETATM    5  C   UNL     1      -9.865   5.874  71.332  1.00  0.00    -0.205 A  
HETATM    6  C   UNL     1      -9.990   4.675  70.642  1.00  0.00    -0.293 A  
HETATM    7  C   UNL     1      -8.896   4.181  69.912  1.00  0.00    -0.134 A  
HETATM    8  C   UNL     1      -7.654   4.857  69.880  1.00  0.00    -0.056 A  
BRANCH   5   9
HETATM    9  C   UNL     1     -10.915   6.435  72.228  1.00  0.00    -0.254 C  
HETATM   10  C   UNL     1     -10.596   6.762  73.662  1.00  0.00    -0.347 C  
BRANCH   9  11
HETATM   11  N   UNL     1     -12.093   6.617  71.701  1.00  0.00    -0.346 NA 
HETATM   12  H   UNL     1     -12.929   6.102  71.978  1.00  0.00     0.000 HD 
BRANCH  11  13
HETATM   13  O   UNL     1     -12.074   7.601  70.713  1.00  0.00    -0.238 OA 
BRANCH  13  14
HETATM   14  C   UNL     1     -12.242   8.860  71.354  1.00  0.00    -0.318 C  
BRANCH  14  15
HETATM   15  C   UNL     1     -11.608   9.899  70.481  1.00  0.00    -0.386 A  
HETATM   16  F   UNL     1      -7.815  11.109  67.657  1.00  0.00    -0.105 F  
HETATM   17  F   UNL     1      -7.624   9.693  69.278  1.00  0.00    -0.074 F  
HETATM   18  C   UNL     1     -12.151  11.173  70.393  1.00  0.00    -0.475 A  
HETATM   19  F   UNL     1      -8.649   9.109  67.456  1.00  0.00    -0.114 F  
HETATM   20  C   UNL     1     -11.578  12.115  69.543  1.00  0.00    -0.382 A  
HETATM   21  C   UNL     1     -10.422   9.627  69.798  1.00  0.00    -0.263 A  
HETATM   22  C   UNL     1     -10.472  11.814  68.721  1.00  0.00    -0.221 A  
HETATM   23  C   UNL     1      -8.499  10.145  68.330  1.00  0.00    -0.118 C  
HETATM   24  C   UNL     1      -9.821  10.575  68.939  1.00  0.00    -0.209 A  
BRANCH  22  25
HETATM   25  C   UNL     1     -10.047  12.792  67.615  1.00  0.00    -0.220 C  
HETATM   26  C   UNL     1     -11.237  13.209  66.718  1.00  0.00    -0.330 C  
HETATM   27  C   UNL     1     -12.240  14.079  67.470  1.00  0.00    -0.258 C  
HETATM   28  C   UNL     1     -11.585  15.364  67.952  1.00  0.00    -0.267 C  
HETATM   29  C   UNL     1     -10.306  15.118  68.743  1.00  0.00    -0.236 C  
HETATM   30  C   UNL     1      -9.360  14.107  68.075  1.00  0.00    -0.203 C  
ENDBRANCH  22  25
ENDBRANCH  14  15
ENDBRANCH  13  14
ENDBRANCH  11  13
ENDBRANCH   9  11
ENDBRANCH   5   9
BRANCH   8  31
HETATM   31  C   UNL     1      -6.474   4.232  69.147  1.00  0.00    -0.036 C  
BRANCH  31  32
HETATM   32  N   UNL     1      -6.236   4.713  67.765  1.00  0.00    -0.034 NA 
HETATM   33  O   UNL     1      -5.397   5.889  65.060  1.00  0.00    -0.012 OA 
HETATM   34  O   UNL     1      -7.241   5.868  63.771  1.00  0.00    -0.050 OA 
HETATM   35  C   UNL     1      -6.655   3.706  66.753  1.00  0.00    -0.042 C  
HETATM   36  C   UNL     1      -6.702   5.564  64.831  1.00  0.00    -0.044 C  
HETATM   37  C   UNL     1      -7.408   5.551  67.361  1.00  0.00    -0.076 C  
HETATM   38  C   UNL     1      -7.396   4.832  66.000  1.00  0.00    -0.077 C  
ENDBRANCH  31  32
ENDBRANCH   8  31
ENDBRANCH   2   3
TORSDOF 9
ENDMDL
MODEL      274
REMARK 921   NORMALIZED FREE ENERGY PREDICTED BY IDOCK:   -4.41 KCAL/MOL
REMARK 922        TOTAL FREE ENERGY PREDICTED BY IDOCK:   -8.16 KCAL/MOL
REMARK 923 INTER-LIGAND FREE ENERGY PREDICTED BY IDOCK:   -6.76 KCAL/MOL
REMARK 924 INTRA-LIGAND FREE ENERGY PREDICTED BY IDOCK:   -1.40 KCAL/MOL
REMARK 927      BINDING AFFINITY PREDICTED BY RF-SCORE:    0.00 PKD
ROOT
HETATM    1  C   UNL     1      -9.475  10.588  63.219  1.00  0.00    -0.360 C  
HETATM    2  C   UNL     1      -9.206  10.083  64.627  1.00  0.00    -0.310 C  
ENDROOT
BRANCH   2   3
HETATM    3  C   UNL     1      -8.006   9.166  64.708  1.00  0.00    -0.126 A  
HETATM    4  C   UNL     1      -8.248   7.844  64.306  1.00  0.00    -0.042 A  
HETATM    5  C   UNL     1      -7.301   6.833  64.482  1.00  0.00    -0.090 A  
HETATM    6  C   UNL     1      -6.063   7.147  65.029  1.00  0.00    -0.037 A  
HETATM    7  C   UNL     1      -5.778   8.480  65.371  1.00  0.00    -0.044 A  
HETATM    8  C   UNL     1      -6.729   9.514  65.201  1.00  0.00    -0.088 A  
BRANCH   5   9
HETATM    9  C   UNL     1      -7.755   5.444  64.188  1.00  0.00    -0.086 C  
HETATM   10  C   UNL     1      -6.978   4.576  63.235  1.00  0.00    -0.043 C  
BRANCH   9  11
HETATM   11  N   UNL     1      -8.838   5.046  64.795  1.00  0.00    -0.204 NA 
HETATM   12  H   UNL     1      -9.632   4.615  64.322  1.00  0.00     0.000 HD 
BRANCH  11  13
HETATM   13  O   UNL     1      -8.780   5.279  66.168  1.00  0.00    -0.122 OA 
BRANCH  13  14
HETATM   14  C   UNL     1      -9.683   4.377  66.798  1.00  0.00    -0.215 C  
BRANCH  14  15
HETATM   15  C   UNL     1     -10.090   4.984  68.105  1.00  0.00    -0.167 A  
HETATM   16  F   UNL     1      -9.740   4.828  72.971  1.00  0.00    -0.146 F  
HETATM   17  F   UNL     1      -9.495   3.060  71.752  1.00  0.00    -0.154 F  
HETATM   18  C   UNL     1     -11.057   5.978  68.152  1.00  0.00    -0.246 A  
HETATM   19  F   UNL     1      -7.925   4.557  71.801  1.00  0.00    -0.086 F  
HETATM   20  C   UNL     1     -11.392   6.565  69.368  1.00  0.00    -0.395 A  
HETATM   21  C   UNL     1      -9.556   4.511  69.305  1.00  0.00    -0.258 A  
HETATM   22  C   UNL     1     -10.752   6.215  70.575  1.00  0.00    -0.340 A  
HETATM   23  C   UNL     1      -9.280   4.410  71.761  1.00  0.00    -0.134 C  
HETATM   24  C   UNL     1      -9.893   5.088  70.550  1.00  0.00    -0.290 A  
BRANCH  22  25
HETATM   25  C   UNL     1     -10.964   7.069  71.834  1.00  0.00    -0.263 C  
HETATM   26  C   UNL     1      -9.864   8.145  71.998  1.00  0.00    -0.298 C  
HETATM   27  C   UNL     1      -9.959   9.226  70.926  1.00  0.00    -0.367 C  
HETATM   28  C   UNL     1     -11.294   9.950  71.006  1.00  0.00    -0.460 C  
HETATM   29  C   UNL     1     -12.486   9.000  70.995  1.00  0.00    -0.210 C  
HETATM   30  C   UNL     1     -12.325   7.808  71.953  1.00  0.00    -0.342 C  
ENDBRANCH  22  25
ENDBRANCH  14  15
ENDBRANCH  13  14
ENDBRANCH  11  13
ENDBRANCH   9  11
ENDBRANCH   5   9
BRANCH   8  31
HETATM   31  C   UNL     1      -6.400  10.924  65.672  1.00  0.00     0.001 C  
BRANCH  31  32
HETATM   32  N   UNL     1      -6.471  11.155  67.135  1.00  0.00    -0.081 NA 
HETATM   33  O   UNL     1      -6.504  12.028  70.075  1.00  0.00    -0.102 OA 
HETATM   34  O   UNL     1      -6.412  10.137  71.289  1.00  0.00    -0.329 OA 
HETATM   35  C   UNL     1      -7.587  10.393  67.758  1.00  0.00    -0.089 C  
HETATM   36  C   UNL     1      -6.503  10.670  70.186  1.00  0.00    -0.152 C  
HETATM   37  C   UNL     1      -5.511  10.219  67.796  1.00  0.00    -0.041 C  
HETATM   38  C   UNL     1      -6.598   9.914  68.844  1.00  0.00    -0.045 C  
ENDBRANCH  31  32
ENDBRANCH   8  31
ENDBRANCH   2   3
TORSDOF 9
ENDMDL
MODEL      275
REMARK 921   NORMALIZED FREE ENERGY PREDICTED BY IDOCK:   -4.40 KCAL/MOL
REMARK 922        TOTAL FREE ENERGY PREDICTED BY IDOCK:   -8.15 KCAL/MOL
REMARK 923 INTER-LIGAND FREE ENERGY PREDICTED BY IDOCK:   -6.34 KCAL/MOL
REMARK 924 INTRA-LIGAND FREE ENERGY PREDICTED BY IDOCK:   -1.81 KCAL/MOL
REMARK 927      BINDING AFFINITY PREDICTED BY RF-SCORE:    0.00 PKD
ROOT
HETATM    1  C   UNL     1     -10.922  16.576  66.339  1.00  0.00     0.082 C  
HETATM    2  C   UNL     1      -9.458  16.962  66.200  1.00  0.00    -0.274 C  
ENDROOT
BRANCH   2   3
HETATM    3  C   UNL     1      -8.513  15.874  66.658  1.00  0.00    -0.322 A  
HETATM    4  C   UNL     1      -9.085  14.596  66.743  1.00  0.00    -0.287 A  
HETATM    5  C   UNL     1      -8.403  13.517  67.312  1.00  0.00    -0.188 A  
HETATM    6  C   UNL     1      -7.104  13.699  67.769  1.00  0.00    -0.167 A  
HETATM    7  C   UNL     1      -6.491  14.955  67.627  1.00  0.00    -0.168 A  
HETATM    8  C   UNL     1      -7.170  16.056  67.054  1.00  0.00    -0.249 A  
BRANCH   5   9
HETATM    9  C   UNL     1      -9.191  12.269  67.512  1.00  0.00    -0.181 C  
HETATM   10  C   UNL     1      -8.869  11.340  68.651  1.00  0.00    -0.141 C  
BRANCH   9  11
HETATM   11  N   UNL     1     -10.150  12.044  66.658  1.00  0.00    -0.196 NA 
HETATM   12  H   UNL     1     -11.089  12.437  66.736  1.00  0.00     0.000 HD 
BRANCH  11  13
HETATM   13  O   UNL     1      -9.740  11.202  65.625  1.00  0.00    -0.205 OA 
BRANCH  13  14
HETATM   14  C   UNL     1     -10.555  10.036  65.669  1.00  0.00     0.169 C  
BRANCH  14  15
HETATM   15  C   UNL     1      -9.722   8.923  66.225  1.00  0.00    -0.345 A  
HETATM   16  F   UNL     1      -5.335   6.791  66.400  1.00  0.00    -0.015 F  
HETATM   17  F   UNL     1      -5.979   7.935  64.684  1.00  0.00    -0.043 F  
HETATM   18  C   UNL     1     -10.308   7.902  66.960  1.00  0.00    -0.411 A  
HETATM   19  F   UNL     1      -5.428   8.963  66.514  1.00  0.00    -0.036 F  
HETATM   20  C   UNL     1      -9.516   6.899  67.510  1.00  0.00    -0.143 A  
HETATM   21  C   UNL     1      -8.355   8.854  65.954  1.00  0.00    -0.132 A  
HETATM   22  C   UNL     1      -8.112   6.893  67.383  1.00  0.00    -0.115 A  
HETATM   23  C   UNL     1      -6.089   7.866  66.045  1.00  0.00    -0.038 C  
HETATM   24  C   UNL     1      -7.537   7.836  66.495  1.00  0.00    -0.096 A  
BRANCH  22  25
HETATM   25  C   UNL     1      -7.267   5.924  68.224  1.00  0.00    -0.079 C  
HETATM   26  C   UNL     1      -6.374   6.667  69.247  1.00  0.00    -0.035 C  
HETATM   27  C   UNL     1      -7.197   7.326  70.350  1.00  0.00    -0.069 C  
HETATM   28  C   UNL     1      -7.984   6.285  71.131  1.00  0.00    -0.116 C  
HETATM   29  C   UNL     1      -8.816   5.375  70.236  1.00  0.00    -0.143 C  
HETATM   30  C   UNL     1      -8.041   4.838  69.021  1.00  0.00    -0.078 C  
ENDBRANCH  22  25
ENDBRANCH  14  15
ENDBRANCH  13  14
ENDBRANCH  11  13
ENDBRANCH   9  11
ENDBRANCH   5   9
BRANCH   8  31
HETATM   31  C   UNL     1      -6.491  17.419  67.007  1.00  0.00    -0.169 C  
BRANCH  31  32
HETATM   32  N   UNL     1      -6.090  17.993  68.314  1.00  0.00    -0.176 NA 
HETATM   33  O   UNL     1      -5.139  18.792  71.118  1.00  0.00    -0.259 OA 
HETATM   34  O   UNL     1      -6.131  20.757  71.578  1.00  0.00    -0.578 OA 
HETATM   35  C   UNL     1      -5.545  19.368  68.165  1.00  0.00    -0.199 C  
HETATM   36  C   UNL     1      -5.908  19.861  70.768  1.00  0.00    -0.295 C  
HETATM   37  C   UNL     1      -7.309  18.584  68.950  1.00  0.00    -0.266 C  
HETATM   38  C   UNL     1      -6.461  19.812  69.328  1.00  0.00    -0.374 C  
ENDBRANCH  31  32
ENDBRANCH   8  31
ENDBRANCH   2   3
TORSDOF 9
ENDMDL
MODEL      276
REMARK 921   NORMALIZED FREE ENERGY PREDICTED BY IDOCK:   -4.40 KCAL/MOL
REMARK 922        TOTAL FREE ENERGY PREDICTED BY IDOCK:   -8.14 KCAL/MOL
REMARK 923 INTER-LIGAND FREE ENERGY PREDICTED BY IDOCK:   -5.68 KCAL/MOL
REMARK 924 INTRA-LIGAND FREE ENERGY PREDICTED BY IDOCK:   -2.46 KCAL/MOL
REMARK 927      BINDING AFFINITY PREDICTED BY RF-SCORE:    0.00 PKD
ROOT
HETATM    1  C   UNL     1     -10.188   9.390  68.974  1.00  0.00    -0.216 C  
HETATM    2  C   UNL     1      -8.727   9.629  68.629  1.00  0.00    -0.124 C  
ENDROOT
BRANCH   2   3
HETATM    3  C   UNL     1      -8.430   9.452  67.157  1.00  0.00    -0.128 A  
HETATM    4  C   UNL     1      -8.018   8.162  66.791  1.00  0.00    -0.103 A  
HETATM    5  C   UNL     1      -7.541   7.874  65.510  1.00  0.00    -0.083 A  
HETATM    6  C   UNL     1      -7.512   8.880  64.553  1.00  0.00    -0.105 A  
HETATM    7  C   UNL     1      -7.987  10.161  64.882  1.00  0.00    -0.150 A  
HETATM    8  C   UNL     1      -8.471  10.467  66.176  1.00  0.00    -0.149 A  
BRANCH   5   9
HETATM    9  C   UNL     1      -6.962   6.516  65.311  1.00  0.00    -0.052 C  
HETATM   10  C   UNL     1      -5.501   6.266  65.575  1.00  0.00    -0.017 C  
BRANCH   9  11
HETATM   11  N   UNL     1      -7.782   5.587  64.906  1.00  0.00    -0.089 NA 
HETATM   12  H   UNL     1      -8.318   5.637  64.039  1.00  0.00     0.000 HD 
BRANCH  11  13
HETATM   13  O   UNL     1      -7.838   4.518  65.798  1.00  0.00    -0.093 OA 
BRANCH  13  14
HETATM   14  C   UNL     1      -9.110   4.552  66.434  1.00  0.00    -0.122 C  
BRANCH  14  15
HETATM   15  C   UNL     1      -8.876   4.688  67.907  1.00  0.00    -0.117 A  
HETATM   16  F   UNL     1      -5.943   6.326  71.447  1.00  0.00    -0.028 F  
HETATM   17  F   UNL     1      -5.183   5.777  69.500  1.00  0.00    -0.003 F  
HETATM   18  C   UNL     1      -9.708   4.051  68.816  1.00  0.00    -0.143 A  
HETATM   19  F   UNL     1      -6.307   7.619  69.734  1.00  0.00    -0.029 F  
HETATM   20  C   UNL     1      -9.507   4.223  70.182  1.00  0.00    -0.252 A  
HETATM   21  C   UNL     1      -7.776   5.400  68.389  1.00  0.00    -0.081 A  
HETATM   22  C   UNL     1      -8.498   5.065  70.694  1.00  0.00    -0.111 A  
HETATM   23  C   UNL     1      -6.272   6.314  70.128  1.00  0.00    -0.031 C  
HETATM   24  C   UNL     1      -7.550   5.577  69.773  1.00  0.00    -0.074 A  
BRANCH  22  25
HETATM   25  C   UNL     1      -8.485   5.431  72.186  1.00  0.00    -0.126 C  
HETATM   26  C   UNL     1      -8.875   6.910  72.426  1.00  0.00    -0.139 C  
HETATM   27  C   UNL     1     -10.342   7.173  72.102  1.00  0.00    -0.218 C  
HETATM   28  C   UNL     1     -11.250   6.332  72.987  1.00  0.00    -0.187 C  
HETATM   29  C   UNL     1     -10.896   4.850  72.963  1.00  0.00    -0.331 C  
HETATM   30  C   UNL     1      -9.390   4.580  73.119  1.00  0.00    -0.135 C  
ENDBRANCH  22  25
ENDBRANCH  14  15
ENDBRANCH  13  14
ENDBRANCH  11  13
ENDBRANCH   9  11
ENDBRANCH   5   9
BRANCH   8  31
HETATM   31  C   UNL     1      -8.890  11.894  66.505  1.00  0.00    -0.178 C  
BRANCH  31  32
HETATM   32  N   UNL     1      -9.987  12.458  65.682  1.00  0.00    -0.251 NA 
HETATM   33  O   UNL     1     -12.058  13.452  63.651  1.00  0.00    -0.527 OA 
HETATM   34  O   UNL     1     -13.184  15.112  64.669  1.00  0.00     0.126 OA 
HETATM   35  C   UNL     1     -11.292  12.398  66.392  1.00  0.00    -0.342 C  
HETATM   36  C   UNL     1     -12.345  14.219  64.741  1.00  0.00    -0.426 C  
HETATM   37  C   UNL     1      -9.991  13.941  65.874  1.00  0.00    -0.300 C  
HETATM   38  C   UNL     1     -11.524  13.875  66.003  1.00  0.00    -0.345 C  
ENDBRANCH  31  32
ENDBRANCH   8  31
ENDBRANCH   2   3
TORSDOF 9
ENDMDL
MODEL      277
REMARK 921   NORMALIZED FREE ENERGY PREDICTED BY IDOCK:   -4.39 KCAL/MOL
REMARK 922        TOTAL FREE ENERGY PREDICTED BY IDOCK:   -8.13 KCAL/MOL
REMARK 923 INTER-LIGAND FREE ENERGY PREDICTED BY IDOCK:   -6.53 KCAL/MOL
REMARK 924 INTRA-LIGAND FREE ENERGY PREDICTED BY IDOCK:   -1.60 KCAL/MOL
REMARK 927      BINDING AFFINITY PREDICTED BY RF-SCORE:    0.00 PKD
ROOT
HETATM    1  C   UNL     1      -6.486   8.229  71.310  1.00  0.00    -0.046 C  
HETATM    2  C   UNL     1      -6.393   6.754  70.954  1.00  0.00    -0.040 C  
ENDROOT
BRANCH   2   3
HETATM    3  C   UNL     1      -7.737   6.061  70.949  1.00  0.00    -0.098 A  
HETATM    4  C   UNL     1      -8.722   6.681  71.733  1.00  0.00    -0.129 A  
HETATM    5  C   UNL     1      -9.960   6.081  71.976  1.00  0.00    -0.195 A  
HETATM    6  C   UNL     1     -10.248   4.855  71.391  1.00  0.00    -0.257 A  
HETATM    7  C   UNL     1      -9.300   4.253  70.546  1.00  0.00    -0.216 A  
HETATM    8  C   UNL     1      -8.042   4.849  70.293  1.00  0.00    -0.077 A  
BRANCH   5   9
HETATM    9  C   UNL     1     -10.836   6.756  72.974  1.00  0.00    -0.283 C  
HETATM   10  C   UNL     1     -10.273   7.216  74.292  1.00  0.00    -0.025 C  
BRANCH   9  11
HETATM   11  N   UNL     1     -12.085   6.917  72.638  1.00  0.00    -0.490 NA 
HETATM   12  H   UNL     1     -12.873   6.555  73.176  1.00  0.00     0.000 HD 
BRANCH  11  13
HETATM   13  O   UNL     1     -12.216   7.642  71.454  1.00  0.00    -0.307 OA 
BRANCH  13  14
HETATM   14  C   UNL     1     -12.011   9.015  71.765  1.00  0.00    -0.368 C  
BRANCH  14  15
HETATM   15  C   UNL     1     -11.565   9.701  70.510  1.00  0.00    -0.341 A  
HETATM   16  F   UNL     1     -11.364  13.868  67.977  1.00  0.00    -0.260 F  
HETATM   17  F   UNL     1     -12.933  13.480  69.411  1.00  0.00     0.048 F  
HETATM   18  C   UNL     1     -11.042   8.969  69.454  1.00  0.00    -0.000 A  
HETATM   19  F   UNL     1     -10.930  13.939  70.109  1.00  0.00    -0.107 F  
HETATM   20  C   UNL     1     -10.589   9.624  68.312  1.00  0.00    -0.268 A  
HETATM   21  C   UNL     1     -11.733  11.078  70.354  1.00  0.00    -0.437 A  
HETATM   22  C   UNL     1     -10.602  11.029  68.194  1.00  0.00    -0.226 A  
HETATM   23  C   UNL     1     -11.612  13.239  69.157  1.00  0.00    -0.319 C  
HETATM   24  C   UNL     1     -11.288  11.758  69.198  1.00  0.00    -0.340 A  
BRANCH  22  25
HETATM   25  C   UNL     1      -9.853  11.711  67.040  1.00  0.00    -0.211 C  
HETATM   26  C   UNL     1      -8.393  11.211  66.918  1.00  0.00    -0.147 C  
HETATM   27  C   UNL     1      -8.324   9.759  66.456  1.00  0.00    -0.124 C  
HETATM   28  C   UNL     1      -8.958   9.598  65.083  1.00  0.00    -0.249 C  
HETATM   29  C   UNL     1     -10.366  10.177  65.007  1.00  0.00    -0.059 C  
HETATM   30  C   UNL     1     -10.484  11.579  65.626  1.00  0.00    -0.317 C  
ENDBRANCH  22  25
ENDBRANCH  14  15
ENDBRANCH  13  14
ENDBRANCH  11  13
ENDBRANCH   9  11
ENDBRANCH   5   9
BRANCH   8  31
HETATM   31  C   UNL     1      -7.017   4.110  69.441  1.00  0.00    -0.046 C  
BRANCH  31  32
HETATM   32  N   UNL     1      -6.960   4.495  68.010  1.00  0.00    -0.055 NA 
HETATM   33  O   UNL     1      -6.468   5.458  65.141  1.00  0.00    -0.037 OA 
HETATM   34  O   UNL     1      -8.480   5.476  64.134  1.00  0.00    -0.127 OA 
HETATM   35  C   UNL     1      -7.574   3.459  67.138  1.00  0.00    -0.078 C  
HETATM   36  C   UNL     1      -7.807   5.201  65.124  1.00  0.00    -0.091 C  
HETATM   37  C   UNL     1      -8.133   5.378  67.724  1.00  0.00    -0.100 C  
HETATM   38  C   UNL     1      -8.359   4.582  66.426  1.00  0.00    -0.106 C  
ENDBRANCH  31  32
ENDBRANCH   8  31
ENDBRANCH   2   3
TORSDOF 9
ENDMDL
MODEL      278
REMARK 921   NORMALIZED FREE ENERGY PREDICTED BY IDOCK:   -4.38 KCAL/MOL
REMARK 922        TOTAL FREE ENERGY PREDICTED BY IDOCK:   -8.12 KCAL/MOL
REMARK 923 INTER-LIGAND FREE ENERGY PREDICTED BY IDOCK:   -7.78 KCAL/MOL
REMARK 924 INTRA-LIGAND FREE ENERGY PREDICTED BY IDOCK:   -0.34 KCAL/MOL
REMARK 927      BINDING AFFINITY PREDICTED BY RF-SCORE:    0.00 PKD
ROOT
HETATM    1  C   UNL     1     -12.209  13.758  67.434  1.00  0.00    -0.290 C  
HETATM    2  C   UNL     1     -11.242  13.224  68.477  1.00  0.00    -0.304 C  
ENDROOT
BRANCH   2   3
HETATM    3  C   UNL     1      -9.792  13.456  68.114  1.00  0.00    -0.234 A  
HETATM    4  C   UNL     1      -9.141  12.347  67.554  1.00  0.00    -0.185 A  
HETATM    5  C   UNL     1      -7.763  12.337  67.324  1.00  0.00    -0.161 A  
HETATM    6  C   UNL     1      -7.017  13.472  67.615  1.00  0.00    -0.176 A  
HETATM    7  C   UNL     1      -7.665  14.616  68.110  1.00  0.00    -0.125 A  
HETATM    8  C   UNL     1      -9.059  14.640  68.349  1.00  0.00    -0.192 A  
BRANCH   5   9
HETATM    9  C   UNL     1      -7.173  11.035  66.904  1.00  0.00    -0.133 C  
HETATM   10  C   UNL     1      -5.689  10.805  67.004  1.00  0.00    -0.053 C  
BRANCH   9  11
HETATM   11  N   UNL     1      -8.006  10.136  66.459  1.00  0.00    -0.116 NA 
HETATM   12  H   UNL     1      -8.643  10.285  65.676  1.00  0.00     0.000 HD 
BRANCH  11  13
HETATM   13  O   UNL     1      -7.920   8.946  67.181  1.00  0.00    -0.095 OA 
BRANCH  13  14
HETATM   14  C   UNL     1      -7.397   9.258  68.467  1.00  0.00    -0.076 C  
BRANCH  14  15
HETATM   15  C   UNL     1      -8.504   9.082  69.460  1.00  0.00    -0.125 A  
HETATM   16  F   UNL     1      -9.774   7.697  73.965  1.00  0.00    -0.320 F  
HETATM   17  F   UNL     1      -8.042   6.877  72.965  1.00  0.00    -0.105 F  
HETATM   18  C   UNL     1      -9.827   9.252  69.080  1.00  0.00    -0.167 A  
HETATM   19  F   UNL     1      -7.980   8.908  73.729  1.00  0.00    -0.112 F  
HETATM   20  C   UNL     1     -10.843   9.130  70.024  1.00  0.00    -0.256 A  
HETATM   21  C   UNL     1      -8.229   8.675  70.766  1.00  0.00    -0.158 A  
HETATM   22  C   UNL     1     -10.579   8.874  71.386  1.00  0.00    -0.374 A  
HETATM   23  C   UNL     1      -8.787   8.017  73.085  1.00  0.00    -0.254 C  
HETATM   24  C   UNL     1      -9.248   8.536  71.736  1.00  0.00    -0.316 A  
BRANCH  22  25
HETATM   25  C   UNL     1     -11.700   9.014  72.426  1.00  0.00    -0.171 C  
HETATM   26  C   UNL     1     -12.679  10.160  72.076  1.00  0.00    -0.421 C  
HETATM   27  C   UNL     1     -13.508   9.843  70.834  1.00  0.00    -0.181 C  
HETATM   28  C   UNL     1     -14.353   8.597  71.053  1.00  0.00    -0.026 C  
HETATM   29  C   UNL     1     -13.538   7.405  71.540  1.00  0.00    -0.454 C  
HETATM   30  C   UNL     1     -12.571   7.753  72.684  1.00  0.00     0.102 C  
ENDBRANCH  22  25
ENDBRANCH  14  15
ENDBRANCH  13  14
ENDBRANCH  11  13
ENDBRANCH   9  11
ENDBRANCH   5   9
BRANCH   8  31
HETATM   31  C   UNL     1      -9.695  15.876  68.972  1.00  0.00    -0.243 C  
BRANCH  31  32
HETATM   32  N   UNL     1      -9.293  17.179  68.390  1.00  0.00    -0.264 NA 
HETATM   33  O   UNL     1      -8.066  19.756  67.268  1.00  0.00    -0.272 OA 
HETATM   34  O   UNL     1      -9.733  21.265  67.204  1.00  0.00    -0.158 OA 
HETATM   35  C   UNL     1     -10.161  17.560  67.243  1.00  0.00    -0.327 C  
HETATM   36  C   UNL     1      -9.374  20.110  67.414  1.00  0.00    -0.387 C  
HETATM   37  C   UNL     1      -9.941  18.262  69.193  1.00  0.00    -0.180 C  
HETATM   38  C   UNL     1     -10.303  18.964  67.871  1.00  0.00    -0.473 C  
ENDBRANCH  31  32
ENDBRANCH   8  31
ENDBRANCH   2   3
TORSDOF 9
ENDMDL
MODEL      279
REMARK 921   NORMALIZED FREE ENERGY PREDICTED BY IDOCK:   -4.37 KCAL/MOL
REMARK 922        TOTAL FREE ENERGY PREDICTED BY IDOCK:   -8.10 KCAL/MOL
REMARK 923 INTER-LIGAND FREE ENERGY PREDICTED BY IDOCK:   -6.43 KCAL/MOL
REMARK 924 INTRA-LIGAND FREE ENERGY PREDICTED BY IDOCK:   -1.67 KCAL/MOL
REMARK 927      BINDING AFFINITY PREDICTED BY RF-SCORE:    0.00 PKD
ROOT
HETATM    1  C   UNL     1      -5.953   3.471  64.580  1.00  0.00    -0.022 C  
HETATM    2  C   UNL     1      -7.460   3.278  64.569  1.00  0.00    -0.075 C  
ENDROOT
BRANCH   2   3
HETATM    3  C   UNL     1      -8.204   4.387  65.278  1.00  0.00    -0.110 A  
HETATM    4  C   UNL     1      -7.934   5.677  64.797  1.00  0.00    -0.119 A  
HETATM    5  C   UNL     1      -8.401   6.822  65.449  1.00  0.00    -0.123 A  
HETATM    6  C   UNL     1      -9.193   6.684  66.581  1.00  0.00    -0.179 A  
HETATM    7  C   UNL     1      -9.532   5.399  67.035  1.00  0.00    -0.133 A  
HETATM    8  C   UNL     1      -9.065   4.231  66.386  1.00  0.00    -0.130 A  
BRANCH   5   9
HETATM    9  C   UNL     1      -7.886   8.125  64.943  1.00  0.00    -0.128 C  
HETATM   10  C   UNL     1      -8.658   8.898  63.908  1.00  0.00    -0.110 C  
BRANCH   9  11
HETATM   11  N   UNL     1      -6.755   8.537  65.444  1.00  0.00    -0.062 NA 
HETATM   12  H   UNL     1      -5.896   8.646  64.904  1.00  0.00     0.000 HD 
BRANCH  11  13
HETATM   13  O   UNL     1      -6.859   8.812  66.807  1.00  0.00    -0.068 OA 
BRANCH  13  14
HETATM   14  C   UNL     1      -7.679   9.966  66.953  1.00  0.00    -0.098 C  
BRANCH  14  15
HETATM   15  C   UNL     1      -8.467   9.804  68.216  1.00  0.00    -0.114 A  
HETATM   16  F   UNL     1     -12.216  11.362  70.925  1.00  0.00    -0.418 F  
HETATM   17  F   UNL     1     -11.183  12.669  69.548  1.00  0.00    -0.283 F  
HETATM   18  C   UNL     1      -8.034   8.942  69.213  1.00  0.00    -0.104 A  
HETATM   19  F   UNL     1     -12.520  11.141  68.781  1.00  0.00    -0.331 F  
HETATM   20  C   UNL     1      -8.800   8.766  70.361  1.00  0.00    -0.185 A  
HETATM   21  C   UNL     1      -9.613  10.569  68.442  1.00  0.00    -0.164 A  
HETATM   22  C   UNL     1     -10.043   9.409  70.544  1.00  0.00    -0.335 A  
HETATM   23  C   UNL     1     -11.567  11.370  69.730  1.00  0.00    -0.332 C  
HETATM   24  C   UNL     1     -10.398  10.412  69.607  1.00  0.00    -0.261 A  
BRANCH  22  25
HETATM   25  C   UNL     1     -10.969   8.982  71.693  1.00  0.00    -0.435 C  
HETATM   26  C   UNL     1     -12.219   8.226  71.182  1.00  0.00    -0.253 C  
HETATM   27  C   UNL     1     -11.863   6.859  70.606  1.00  0.00    -0.418 C  
HETATM   28  C   UNL     1     -11.222   5.977  71.667  1.00  0.00    -0.328 C  
HETATM   29  C   UNL     1     -10.046   6.648  72.366  1.00  0.00    -0.184 C  
HETATM   30  C   UNL     1     -10.338   8.094  72.800  1.00  0.00    -0.384 C  
ENDBRANCH  22  25
ENDBRANCH  14  15
ENDBRANCH  13  14
ENDBRANCH  11  13
ENDBRANCH   9  11
ENDBRANCH   5   9
BRANCH   8  31
HETATM   31  C   UNL     1      -9.388   2.863  66.974  1.00  0.00    -0.101 C  
BRANCH  31  32
HETATM   32  N   UNL     1      -8.832   2.584  68.320  1.00  0.00    -0.104 NA 
HETATM   33  O   UNL     1      -7.767   1.603  71.023  1.00  0.00    -0.033 OA 
HETATM   34  O   UNL     1      -7.703   3.410  72.362  1.00  0.00    -0.056 OA 
HETATM   35  C   UNL     1      -7.680   3.472  68.632  1.00  0.00    -0.055 C  
HETATM   36  C   UNL     1      -7.900   2.942  71.244  1.00  0.00    -0.047 C  
HETATM   37  C   UNL     1      -9.643   3.345  69.320  1.00  0.00    -0.066 C  
HETATM   38  C   UNL     1      -8.327   3.759  70.005  1.00  0.00    -0.081 C  
ENDBRANCH  31  32
ENDBRANCH   8  31
ENDBRANCH   2   3
TORSDOF 9
ENDMDL
MODEL      280
REMARK 921   NORMALIZED FREE ENERGY PREDICTED BY IDOCK:   -4.34 KCAL/MOL
REMARK 922        TOTAL FREE ENERGY PREDICTED BY IDOCK:   -8.05 KCAL/MOL
REMARK 923 INTER-LIGAND FREE ENERGY PREDICTED BY IDOCK:   -6.90 KCAL/MOL
REMARK 924 INTRA-LIGAND FREE ENERGY PREDICTED BY IDOCK:   -1.16 KCAL/MOL
REMARK 927      BINDING AFFINITY PREDICTED BY RF-SCORE:    0.00 PKD
ROOT
HETATM    1  C   UNL     1      -7.162  18.281  68.232  1.00  0.00    -0.266 C  
HETATM    2  C   UNL     1      -8.370  17.611  67.596  1.00  0.00    -0.226 C  
ENDROOT
BRANCH   2   3
HETATM    3  C   UNL     1      -8.394  16.114  67.802  1.00  0.00    -0.162 A  
HETATM    4  C   UNL     1      -7.430  15.628  68.699  1.00  0.00    -0.130 A  
HETATM    5  C   UNL     1      -7.202  14.260  68.870  1.00  0.00    -0.125 A  
HETATM    6  C   UNL     1      -7.980  13.348  68.168  1.00  0.00    -0.150 A  
HETATM    7  C   UNL     1      -8.997  13.817  67.319  1.00  0.00    -0.227 A  
HETATM    8  C   UNL     1      -9.237  15.199  67.135  1.00  0.00    -0.226 A  
BRANCH   5   9
HETATM    9  C   UNL     1      -6.028  13.886  69.706  1.00  0.00    -0.124 C  
HETATM   10  C   UNL     1      -5.921  14.370  71.128  1.00  0.00    -0.127 C  
BRANCH   9  11
HETATM   11  N   UNL     1      -5.126  13.134  69.140  1.00  0.00    -0.069 NA 
HETATM   12  H   UNL     1      -4.165  13.428  68.964  1.00  0.00     0.000 HD 
BRANCH  11  13
HETATM   13  O   UNL     1      -5.632  11.879  68.803  1.00  0.00    -0.049 OA 
BRANCH  13  14
HETATM   14  C   UNL     1      -5.835  11.157  70.013  1.00  0.00    -0.112 C  
BRANCH  14  15
HETATM   15  C   UNL     1      -6.850  10.091  69.738  1.00  0.00    -0.094 A  
HETATM   16  F   UNL     1     -11.535   8.745  69.981  1.00  0.00    -0.223 F  
HETATM   17  F   UNL     1     -10.687  10.175  71.361  1.00  0.00    -0.265 F  
HETATM   18  C   UNL     1      -6.453   8.831  69.313  1.00  0.00    -0.042 A  
HETATM   19  F   UNL     1     -11.080  10.765  69.310  1.00  0.00    -0.207 F  
HETATM   20  C   UNL     1      -7.409   7.865  69.018  1.00  0.00    -0.088 A  
HETATM   21  C   UNL     1      -8.206  10.323  69.973  1.00  0.00     0.044 A  
HETATM   22  C   UNL     1      -8.793   8.125  69.095  1.00  0.00    -0.144 A  
HETATM   23  C   UNL     1     -10.607   9.735  70.069  1.00  0.00    -0.276 C  
HETATM   24  C   UNL     1      -9.190   9.349  69.689  1.00  0.00    -0.195 A  
BRANCH  22  25
HETATM   25  C   UNL     1      -9.799   7.123  68.508  1.00  0.00    -0.155 C  
HETATM   26  C   UNL     1     -10.370   7.600  67.151  1.00  0.00    -0.385 C  
HETATM   27  C   UNL     1      -9.311   7.587  66.052  1.00  0.00    -0.061 C  
HETATM   28  C   UNL     1      -8.778   6.180  65.832  1.00  0.00    -0.158 C  
HETATM   29  C   UNL     1      -8.301   5.518  67.120  1.00  0.00    -0.104 C  
HETATM   30  C   UNL     1      -9.288   5.673  68.288  1.00  0.00    -0.123 C  
ENDBRANCH  22  25
ENDBRANCH  14  15
ENDBRANCH  13  14
ENDBRANCH  11  13
ENDBRANCH   9  11
ENDBRANCH   5   9
BRANCH   8  31
HETATM   31  C   UNL     1     -10.292  15.653  66.135  1.00  0.00    -0.316 C  
BRANCH  31  32
HETATM   32  N   UNL     1     -11.270  14.623  65.706  1.00  0.00    -0.332 NA 
HETATM   33  O   UNL     1     -13.286  12.365  65.220  1.00  0.00    -0.281 OA 
HETATM   34  O   UNL     1     -13.298  12.006  62.999  1.00  0.00    -0.349 OA 
HETATM   35  C   UNL     1     -12.210  15.152  64.682  1.00  0.00    -0.211 C  
HETATM   36  C   UNL     1     -12.902  12.675  63.949  1.00  0.00    -0.142 C  
HETATM   37  C   UNL     1     -10.628  13.797  64.637  1.00  0.00    -0.425 C  
HETATM   38  C   UNL     1     -11.945  13.882  63.843  1.00  0.00    -0.372 C  
ENDBRANCH  31  32
ENDBRANCH   8  31
ENDBRANCH   2   3
TORSDOF 9
ENDMDL
MODEL      281
REMARK 921   NORMALIZED FREE ENERGY PREDICTED BY IDOCK:   -4.32 KCAL/MOL
REMARK 922        TOTAL FREE ENERGY PREDICTED BY IDOCK:   -8.02 KCAL/MOL
REMARK 923 INTER-LIGAND FREE ENERGY PREDICTED BY IDOCK:   -7.29 KCAL/MOL
REMARK 924 INTRA-LIGAND FREE ENERGY PREDICTED BY IDOCK:   -0.74 KCAL/MOL
REMARK 927      BINDING AFFINITY PREDICTED BY RF-SCORE:    0.00 PKD
ROOT
HETATM    1  C   UNL     1     -10.335   6.361  66.765  1.00  0.00    -0.279 C  
HETATM    2  C   UNL     1     -10.414   7.858  67.012  1.00  0.00    -0.419 C  
ENDROOT
BRANCH   2   3
HETATM    3  C   UNL     1      -9.142   8.588  66.641  1.00  0.00    -0.203 A  
HETATM    4  C   UNL     1      -9.125   9.114  65.340  1.00  0.00    -0.271 A  
HETATM    5  C   UNL     1      -7.969   9.663  64.780  1.00  0.00    -0.129 A  
HETATM    6  C   UNL     1      -6.810   9.733  65.544  1.00  0.00    -0.095 A  
HETATM    7  C   UNL     1      -6.830   9.275  66.872  1.00  0.00    -0.080 A  
HETATM    8  C   UNL     1      -7.994   8.716  67.451  1.00  0.00    -0.102 A  
BRANCH   5   9
HETATM    9  C   UNL     1      -8.036  10.010  63.333  1.00  0.00    -0.158 C  
HETATM   10  C   UNL     1      -6.965   9.539  62.387  1.00  0.00    -0.099 C  
BRANCH   9  11
HETATM   11  N   UNL     1      -9.057  10.727  62.954  1.00  0.00    -0.263 NA 
HETATM   12  H   UNL     1      -9.120  11.198  62.052  1.00  0.00     0.000 HD 
BRANCH  11  13
HETATM   13  O   UNL     1     -10.052  10.772  63.930  1.00  0.00    -0.314 OA 
BRANCH  13  14
HETATM   14  C   UNL     1     -10.791  11.972  63.738  1.00  0.00    -0.420 C  
BRANCH  14  15
HETATM   15  C   UNL     1     -10.342  12.952  64.778  1.00  0.00    -0.345 A  
HETATM   16  F   UNL     1      -7.981  13.645  68.993  1.00  0.00    -0.097 F  
HETATM   17  F   UNL     1      -8.935  11.766  68.516  1.00  0.00    -0.172 F  
HETATM   18  C   UNL     1     -10.770  14.271  64.737  1.00  0.00    -0.435 A  
HETATM   19  F   UNL     1      -7.086  12.315  67.521  1.00  0.00    -0.095 F  
HETATM   20  C   UNL     1     -10.308  15.180  65.683  1.00  0.00    -0.379 A  
HETATM   21  C   UNL     1      -9.543  12.539  65.845  1.00  0.00    -0.174 A  
HETATM   22  C   UNL     1      -9.375  14.824  66.679  1.00  0.00    -0.291 A  
HETATM   23  C   UNL     1      -8.277  12.822  67.951  1.00  0.00    -0.168 C  
HETATM   24  C   UNL     1      -9.073  13.447  66.821  1.00  0.00    -0.221 A  
BRANCH  22  25
HETATM   25  C   UNL     1      -8.698  15.913  67.525  1.00  0.00    -0.189 C  
HETATM   26  C   UNL     1      -8.824  17.314  66.878  1.00  0.00    -0.259 C  
HETATM   27  C   UNL     1     -10.263  17.822  66.895  1.00  0.00    -0.346 C  
HETATM   28  C   UNL     1     -10.773  17.951  68.322  1.00  0.00    -0.233 C  
HETATM   29  C   UNL     1     -10.587  16.677  69.137  1.00  0.00    -0.340 C  
HETATM   30  C   UNL     1      -9.186  16.059  68.992  1.00  0.00    -0.244 C  
ENDBRANCH  22  25
ENDBRANCH  14  15
ENDBRANCH  13  14
ENDBRANCH  11  13
ENDBRANCH   9  11
ENDBRANCH   5   9
BRANCH   8  31
HETATM   31  C   UNL     1      -7.935   8.153  68.866  1.00  0.00    -0.114 C  
BRANCH  31  32
HETATM   32  N   UNL     1      -7.466   6.751  68.990  1.00  0.00    -0.093 NA 
HETATM   33  O   UNL     1      -6.718   3.779  68.896  1.00  0.00    -0.043 OA 
HETATM   34  O   UNL     1      -6.007   3.248  70.963  1.00  0.00    -0.013 OA 
HETATM   35  C   UNL     1      -6.073   6.682  69.506  1.00  0.00    -0.025 C  
HETATM   36  C   UNL     1      -6.384   4.111  70.175  1.00  0.00    -0.027 C  
HETATM   37  C   UNL     1      -7.942   6.222  70.306  1.00  0.00    -0.112 C  
HETATM   38  C   UNL     1      -6.544   5.609  70.513  1.00  0.00    -0.040 C  
ENDBRANCH  31  32
ENDBRANCH   8  31
ENDBRANCH   2   3
TORSDOF 9
ENDMDL
MODEL      282
REMARK 921   NORMALIZED FREE ENERGY PREDICTED BY IDOCK:   -4.25 KCAL/MOL
REMARK 922        TOTAL FREE ENERGY PREDICTED BY IDOCK:   -7.92 KCAL/MOL
REMARK 923 INTER-LIGAND FREE ENERGY PREDICTED BY IDOCK:   -6.39 KCAL/MOL
REMARK 924 INTRA-LIGAND FREE ENERGY PREDICTED BY IDOCK:   -1.53 KCAL/MOL
REMARK 927      BINDING AFFINITY PREDICTED BY RF-SCORE:    0.00 PKD
ROOT
HETATM    1  C   UNL     1      -7.088   9.564  65.174  1.00  0.00    -0.104 C  
HETATM    2  C   UNL     1      -7.814   8.375  65.781  1.00  0.00    -0.101 C  
ENDROOT
BRANCH   2   3
HETATM    3  C   UNL     1      -8.248   8.613  67.210  1.00  0.00    -0.105 A  
HETATM    4  C   UNL     1      -7.481   9.559  67.908  1.00  0.00    -0.083 A  
HETATM    5  C   UNL     1      -7.636   9.769  69.280  1.00  0.00    -0.097 A  
HETATM    6  C   UNL     1      -8.607   9.056  69.972  1.00  0.00    -0.157 A  
HETATM    7  C   UNL     1      -9.432   8.157  69.275  1.00  0.00    -0.159 A  
HETATM    8  C   UNL     1      -9.284   7.933  67.886  1.00  0.00    -0.139 A  
BRANCH   5   9
HETATM    9  C   UNL     1      -6.634  10.660  69.929  1.00  0.00    -0.137 C  
HETATM   10  C   UNL     1      -5.454  10.074  70.657  1.00  0.00    -0.060 C  
BRANCH   9  11
HETATM   11  N   UNL     1      -6.842  11.943  69.825  1.00  0.00    -0.347 NA 
HETATM   12  H   UNL     1      -7.708  12.405  70.103  1.00  0.00     0.000 HD 
BRANCH  11  13
HETATM   13  O   UNL     1      -5.740  12.607  69.289  1.00  0.00    -0.072 OA 
BRANCH  13  14
HETATM   14  C   UNL     1      -5.820  12.502  67.872  1.00  0.00    -0.100 C  
BRANCH  14  15
HETATM   15  C   UNL     1      -7.070  13.204  67.437  1.00  0.00    -0.116 A  
HETATM   16  F   UNL     1     -11.401  12.840  65.216  1.00  0.00    -0.308 F  
HETATM   17  F   UNL     1      -9.756  11.526  64.730  1.00  0.00    -0.244 F  
HETATM   18  C   UNL     1      -7.182  14.582  67.551  1.00  0.00    -0.210 A  
HETATM   19  F   UNL     1     -10.821  11.265  66.603  1.00  0.00    -0.279 F  
HETATM   20  C   UNL     1      -8.366  15.215  67.185  1.00  0.00    -0.247 A  
HETATM   21  C   UNL     1      -8.114  12.492  66.844  1.00  0.00    -0.039 A  
HETATM   22  C   UNL     1      -9.494  14.500  66.731  1.00  0.00    -0.284 A  
HETATM   23  C   UNL     1     -10.322  12.217  65.764  1.00  0.00    -0.258 C  
HETATM   24  C   UNL     1      -9.320  13.120  66.457  1.00  0.00    -0.222 A  
BRANCH  22  25
HETATM   25  C   UNL     1     -10.851  15.208  66.596  1.00  0.00    -0.318 C  
HETATM   26  C   UNL     1     -11.391  15.694  67.963  1.00  0.00    -0.324 C  
HETATM   27  C   UNL     1     -10.553  16.834  68.534  1.00  0.00    -0.354 C  
HETATM   28  C   UNL     1     -10.572  18.037  67.603  1.00  0.00    -0.413 C  
HETATM   29  C   UNL     1     -10.191  17.684  66.170  1.00  0.00    -0.345 C  
HETATM   30  C   UNL     1     -10.905  16.430  65.639  1.00  0.00    -0.185 C  
ENDBRANCH  22  25
ENDBRANCH  14  15
ENDBRANCH  13  14
ENDBRANCH  11  13
ENDBRANCH   9  11
ENDBRANCH   5   9
BRANCH   8  31
HETATM   31  C   UNL     1     -10.144   6.881  67.197  1.00  0.00    -0.209 C  
BRANCH  31  32
HETATM   32  N   UNL     1      -9.533   5.538  67.044  1.00  0.00    -0.126 NA 
HETATM   33  O   UNL     1      -8.274   2.839  66.315  1.00  0.00    -0.082 OA 
HETATM   34  O   UNL     1      -8.562   1.511  68.108  1.00  0.00    -0.059 OA 
HETATM   35  C   UNL     1      -8.579   5.241  68.146  1.00  0.00    -0.099 C  
HETATM   36  C   UNL     1      -8.670   2.624  67.602  1.00  0.00    -0.114 C  
HETATM   37  C   UNL     1     -10.472   4.535  67.636  1.00  0.00     0.315 C  
HETATM   38  C   UNL     1      -9.260   3.864  68.308  1.00  0.00    -0.209 C  
ENDBRANCH  31  32
ENDBRANCH   8  31
ENDBRANCH   2   3
TORSDOF 9
ENDMDL
MODEL      283
REMARK 921   NORMALIZED FREE ENERGY PREDICTED BY IDOCK:   -4.25 KCAL/MOL
REMARK 922        TOTAL FREE ENERGY PREDICTED BY IDOCK:   -7.91 KCAL/MOL
REMARK 923 INTER-LIGAND FREE ENERGY PREDICTED BY IDOCK:   -6.11 KCAL/MOL
REMARK 924 INTRA-LIGAND FREE ENERGY PREDICTED BY IDOCK:   -1.80 KCAL/MOL
REMARK 927      BINDING AFFINITY PREDICTED BY RF-SCORE:    0.00 PKD
ROOT
HETATM    1  C   UNL     1      -7.780  10.928  69.640  1.00  0.00     0.053 C  
HETATM    2  C   UNL     1      -9.146  10.346  69.317  1.00  0.00    -0.188 C  
ENDROOT
BRANCH   2   3
HETATM    3  C   UNL     1      -9.252   9.836  67.897  1.00  0.00    -0.133 A  
HETATM    4  C   UNL     1      -9.412   8.447  67.781  1.00  0.00    -0.171 A  
HETATM    5  C   UNL     1      -9.352   7.796  66.547  1.00  0.00    -0.243 A  
HETATM    6  C   UNL     1      -9.173   8.546  65.391  1.00  0.00    -0.043 A  
HETATM    7  C   UNL     1      -9.083   9.945  65.482  1.00  0.00    -0.232 A  
HETATM    8  C   UNL     1      -9.140  10.616  66.726  1.00  0.00    -0.167 A  
BRANCH   5   9
HETATM    9  C   UNL     1      -9.347   6.307  66.585  1.00  0.00    -0.148 C  
HETATM   10  C   UNL     1     -10.576   5.553  67.017  1.00  0.00    -0.332 C  
BRANCH   9  11
HETATM   11  N   UNL     1      -8.239   5.719  66.230  1.00  0.00    -0.107 NA 
HETATM   12  H   UNL     1      -8.081   5.304  65.311  1.00  0.00     0.000 HD 
BRANCH  11  13
HETATM   13  O   UNL     1      -7.295   5.726  67.256  1.00  0.00    -0.074 OA 
BRANCH  13  14
HETATM   14  C   UNL     1      -7.237   4.412  67.798  1.00  0.00    -0.065 C  
BRANCH  14  15
HETATM   15  C   UNL     1      -7.527   4.515  69.264  1.00  0.00    -0.055 A  
HETATM   16  F   UNL     1      -8.811   7.399  72.986  1.00  0.00    -0.141 F  
HETATM   17  F   UNL     1      -7.782   8.169  71.249  1.00  0.00    -0.071 F  
HETATM   18  C   UNL     1      -7.291   3.439  70.107  1.00  0.00    -0.041 A  
HETATM   19  F   UNL     1      -9.876   7.619  71.101  1.00  0.00    -0.172 F  
HETATM   20  C   UNL     1      -7.608   3.533  71.459  1.00  0.00    -0.052 A  
HETATM   21  C   UNL     1      -7.971   5.716  69.818  1.00  0.00    -0.098 A  
HETATM   22  C   UNL     1      -8.206   4.683  72.014  1.00  0.00    -0.105 A  
HETATM   23  C   UNL     1      -8.688   7.225  71.643  1.00  0.00    -0.117 C  
HETATM   24  C   UNL     1      -8.288   5.833  71.191  1.00  0.00    -0.123 A  
BRANCH  22  25
HETATM   25  C   UNL     1      -8.778   4.641  73.440  1.00  0.00    -0.100 C  
HETATM   26  C   UNL     1     -10.322   4.546  73.444  1.00  0.00    -0.241 C  
HETATM   27  C   UNL     1     -10.813   3.199  72.923  1.00  0.00    -0.120 C  
HETATM   28  C   UNL     1     -10.302   2.063  73.797  1.00  0.00    -0.185 C  
HETATM   29  C   UNL     1      -8.793   2.104  74.001  1.00  0.00    -0.065 C  
HETATM   30  C   UNL     1      -8.263   3.502  74.362  1.00  0.00    -0.081 C  
ENDBRANCH  22  25
ENDBRANCH  14  15
ENDBRANCH  13  14
ENDBRANCH  11  13
ENDBRANCH   9  11
ENDBRANCH   5   9
BRANCH   8  31
HETATM   31  C   UNL     1      -8.946  12.127  66.776  1.00  0.00    -0.203 C  
BRANCH  31  32
HETATM   32  N   UNL     1     -10.138  12.948  66.453  1.00  0.00    -0.263 NA 
HETATM   33  O   UNL     1     -12.742  14.541  66.167  1.00  0.00    -0.231 OA 
HETATM   34  O   UNL     1     -13.017  14.899  63.963  1.00  0.00    -0.558 OA 
HETATM   35  C   UNL     1      -9.777  14.148  65.652  1.00  0.00    -0.178 C  
HETATM   36  C   UNL     1     -12.315  14.470  64.875  1.00  0.00    -0.370 C  
HETATM   37  C   UNL     1     -10.777  12.370  65.231  1.00  0.00    -0.287 C  
HETATM   38  C   UNL     1     -10.935  13.803  64.690  1.00  0.00    -0.406 C  
ENDBRANCH  31  32
ENDBRANCH   8  31
ENDBRANCH   2   3
TORSDOF 9
ENDMDL
MODEL      284
REMARK 921   NORMALIZED FREE ENERGY PREDICTED BY IDOCK:   -4.24 KCAL/MOL
REMARK 922        TOTAL FREE ENERGY PREDICTED BY IDOCK:   -7.89 KCAL/MOL
REMARK 923 INTER-LIGAND FREE ENERGY PREDICTED BY IDOCK:   -6.55 KCAL/MOL
REMARK 924 INTRA-LIGAND FREE ENERGY PREDICTED BY IDOCK:   -1.34 KCAL/MOL
REMARK 927      BINDING AFFINITY PREDICTED BY RF-SCORE:    0.00 PKD
ROOT
HETATM    1  C   UNL     1     -12.342  14.070  65.803  1.00  0.00    -0.506 C  
HETATM    2  C   UNL     1     -12.326  13.508  67.215  1.00  0.00    -0.179 C  
ENDROOT
BRANCH   2   3
HETATM    3  C   UNL     1     -11.350  14.219  68.125  1.00  0.00    -0.313 A  
HETATM    4  C   UNL     1     -10.107  14.509  67.542  1.00  0.00    -0.228 A  
HETATM    5  C   UNL     1      -9.037  15.004  68.291  1.00  0.00    -0.182 A  
HETATM    6  C   UNL     1      -9.215  15.260  69.645  1.00  0.00    -0.139 A  
HETATM    7  C   UNL     1     -10.474  15.042  70.229  1.00  0.00    -0.063 A  
HETATM    8  C   UNL     1     -11.566  14.540  69.483  1.00  0.00    -0.350 A  
BRANCH   5   9
HETATM    9  C   UNL     1      -7.725  15.089  67.591  1.00  0.00    -0.168 C  
HETATM   10  C   UNL     1      -6.823  16.274  67.806  1.00  0.00    -0.155 C  
BRANCH   9  11
HETATM   11  N   UNL     1      -7.421  14.096  66.803  1.00  0.00    -0.168 NA 
HETATM   12  H   UNL     1      -7.100  14.207  65.841  1.00  0.00     0.000 HD 
BRANCH  11  13
HETATM   13  O   UNL     1      -7.586  12.863  67.433  1.00  0.00    -0.157 OA 
BRANCH  13  14
HETATM   14  C   UNL     1      -8.396  12.053  66.590  1.00  0.00    -0.085 C  
BRANCH  14  15
HETATM   15  C   UNL     1      -8.339  10.653  67.118  1.00  0.00    -0.125 A  
HETATM   16  F   UNL     1      -8.295   7.765  71.053  1.00  0.00    -0.106 F  
HETATM   17  F   UNL     1      -7.558   9.795  71.120  1.00  0.00    -0.072 F  
HETATM   18  C   UNL     1      -8.104   9.585  66.264  1.00  0.00    -0.111 A  
HETATM   19  F   UNL     1      -9.695   9.431  71.017  1.00  0.00    -0.303 F  
HETATM   20  C   UNL     1      -8.099   8.285  66.761  1.00  0.00    -0.103 A  
HETATM   21  C   UNL     1      -8.451  10.404  68.487  1.00  0.00    -0.129 A  
HETATM   22  C   UNL     1      -8.367   7.996  68.116  1.00  0.00    -0.127 A  
HETATM   23  C   UNL     1      -8.498   9.002  70.524  1.00  0.00    -0.200 C  
HETATM   24  C   UNL     1      -8.438   9.092  69.011  1.00  0.00    -0.132 A  
BRANCH  22  25
HETATM   25  C   UNL     1      -8.613   6.545  68.558  1.00  0.00    -0.123 C  
HETATM   26  C   UNL     1     -10.106   6.277  68.867  1.00  0.00    -0.200 C  
HETATM   27  C   UNL     1     -10.965   6.319  67.607  1.00  0.00    -0.438 C  
HETATM   28  C   UNL     1     -10.525   5.251  66.617  1.00  0.00    -0.345 C  
HETATM   29  C   UNL     1      -9.032   5.301  66.316  1.00  0.00    -0.133 C  
HETATM   30  C   UNL     1      -8.159   5.431  67.575  1.00  0.00    -0.101 C  
ENDBRANCH  22  25
ENDBRANCH  14  15
ENDBRANCH  13  14
ENDBRANCH  11  13
ENDBRANCH   9  11
ENDBRANCH   5   9
BRANCH   8  31
HETATM   31  C   UNL     1     -12.883  14.237  70.186  1.00  0.00    -0.077 C  
BRANCH  31  32
HETATM   32  N   UNL     1     -13.159  12.806  70.463  1.00  0.00     0.294 NA 
HETATM   33  O   UNL     1     -14.087   9.905  70.818  1.00  0.00     0.139 OA 
HETATM   34  O   UNL     1     -12.902   9.077  72.541  1.00  0.00    -0.404 OA 
HETATM   35  C   UNL     1     -11.916  11.991  70.431  1.00  0.00    -0.291 C  
HETATM   36  C   UNL     1     -13.110  10.004  71.764  1.00  0.00    -0.457 C  
HETATM   37  C   UNL     1     -13.198  12.623  71.947  1.00  0.00    -0.403 C  
HETATM   38  C   UNL     1     -12.352  11.349  71.767  1.00  0.00     0.089 C  
ENDBRANCH  31  32
ENDBRANCH   8  31
ENDBRANCH   2   3
TORSDOF 9
ENDMDL
MODEL      285
REMARK 921   NORMALIZED FREE ENERGY PREDICTED BY IDOCK:   -4.20 KCAL/MOL
REMARK 922        TOTAL FREE ENERGY PREDICTED BY IDOCK:   -7.84 KCAL/MOL
REMARK 923 INTER-LIGAND FREE ENERGY PREDICTED BY IDOCK:   -7.98 KCAL/MOL
REMARK 924 INTRA-LIGAND FREE ENERGY PREDICTED BY IDOCK:    0.14 KCAL/MOL
REMARK 927      BINDING AFFINITY PREDICTED BY RF-SCORE:    0.00 PKD
ROOT
HETATM    1  C   UNL     1      -7.976   5.922  66.704  1.00  0.00    -0.102 C  
HETATM    2  C   UNL     1      -7.613   7.382  66.924  1.00  0.00    -0.102 C  
ENDROOT
BRANCH   2   3
HETATM    3  C   UNL     1      -8.816   8.258  67.193  1.00  0.00    -0.145 A  
HETATM    4  C   UNL     1      -8.963   9.341  66.314  1.00  0.00    -0.193 A  
HETATM    5  C   UNL     1      -9.915  10.341  66.525  1.00  0.00    -0.280 A  
HETATM    6  C   UNL     1     -10.775  10.242  67.612  1.00  0.00    -0.339 A  
HETATM    7  C   UNL     1     -10.688   9.127  68.462  1.00  0.00    -0.160 A  
HETATM    8  C   UNL     1      -9.728   8.108  68.261  1.00  0.00    -0.175 A  
BRANCH   5   9
HETATM    9  C   UNL     1      -9.839  11.526  65.626  1.00  0.00    -0.236 C  
HETATM   10  C   UNL     1     -10.233  11.410  64.178  1.00  0.00    -0.376 C  
BRANCH   9  11
HETATM   11  N   UNL     1      -9.420  12.638  66.163  1.00  0.00    -0.374 NA 
HETATM   12  H   UNL     1      -9.433  13.541  65.690  1.00  0.00     0.000 HD 
BRANCH  11  13
HETATM   13  O   UNL     1      -8.951  12.443  67.462  1.00  0.00    -0.168 OA 
BRANCH  13  14
HETATM   14  C   UNL     1      -7.682  13.078  67.563  1.00  0.00    -0.168 C  
BRANCH  14  15
HETATM   15  C   UNL     1      -7.923  14.544  67.750  1.00  0.00    -0.168 A  
HETATM   16  F   UNL     1     -11.153  18.060  68.765  1.00  0.00     0.025 F  
HETATM   17  F   UNL     1     -11.749  16.192  67.856  1.00  0.00    -0.240 F  
HETATM   18  C   UNL     1      -6.928  15.466  67.460  1.00  0.00    -0.223 A  
HETATM   19  F   UNL     1     -11.207  16.239  69.957  1.00  0.00    -0.302 F  
HETATM   20  C   UNL     1      -7.150  16.821  67.682  1.00  0.00    -0.154 A  
HETATM   21  C   UNL     1      -9.175  15.013  68.152  1.00  0.00    -0.183 A  
HETATM   22  C   UNL     1      -8.353  17.307  68.237  1.00  0.00    -0.242 A  
HETATM   23  C   UNL     1     -10.854  16.733  68.736  1.00  0.00    -0.318 C  
HETATM   24  C   UNL     1      -9.422  16.387  68.373  1.00  0.00    -0.220 A  
BRANCH  22  25
HETATM   25  C   UNL     1      -8.449  18.766  68.709  1.00  0.00    -0.320 C  
HETATM   26  C   UNL     1      -7.064  19.351  69.074  1.00  0.00    -0.397 C  
HETATM   27  C   UNL     1      -6.177  19.528  67.845  1.00  0.00    -0.230 C  
HETATM   28  C   UNL     1      -6.812  20.493  66.856  1.00  0.00    -0.332 C  
HETATM   29  C   UNL     1      -8.247  20.120  66.501  1.00  0.00    -0.315 C  
HETATM   30  C   UNL     1      -9.108  19.772  67.727  1.00  0.00    -0.412 C  
ENDBRANCH  22  25
ENDBRANCH  14  15
ENDBRANCH  13  14
ENDBRANCH  11  13
ENDBRANCH   9  11
ENDBRANCH   5   9
BRANCH   8  31
HETATM   31  C   UNL     1      -9.618   6.968  69.265  1.00  0.00    -0.154 C  
BRANCH  31  32
HETATM   32  N   UNL     1      -9.408   7.362  70.679  1.00  0.00    -0.161 NA 
HETATM   33  O   UNL     1      -9.342   8.379  73.571  1.00  0.00    -0.142 OA 
HETATM   34  O   UNL     1      -7.200   8.219  74.241  1.00  0.00    -0.161 OA 
HETATM   35  C   UNL     1      -8.755   6.278  71.460  1.00  0.00    -0.134 C  
HETATM   36  C   UNL     1      -8.046   8.002  73.377  1.00  0.00    -0.192 C  
HETATM   37  C   UNL     1      -8.131   8.137  70.755  1.00  0.00    -0.102 C  
HETATM   38  C   UNL     1      -7.769   7.330  72.016  1.00  0.00    -0.089 C  
ENDBRANCH  31  32
ENDBRANCH   8  31
ENDBRANCH   2   3
TORSDOF 9
ENDMDL
MODEL      286
REMARK 921   NORMALIZED FREE ENERGY PREDICTED BY IDOCK:   -4.19 KCAL/MOL
REMARK 922        TOTAL FREE ENERGY PREDICTED BY IDOCK:   -7.82 KCAL/MOL
REMARK 923 INTER-LIGAND FREE ENERGY PREDICTED BY IDOCK:   -6.98 KCAL/MOL
REMARK 924 INTRA-LIGAND FREE ENERGY PREDICTED BY IDOCK:   -0.85 KCAL/MOL
REMARK 927      BINDING AFFINITY PREDICTED BY RF-SCORE:    0.00 PKD
ROOT
HETATM    1  C   UNL     1     -12.713  12.857  71.501  1.00  0.00    -0.339 C  
HETATM    2  C   UNL     1     -12.877  12.209  70.136  1.00  0.00     0.348 C  
ENDROOT
BRANCH   2   3
HETATM    3  C   UNL     1     -11.581  11.667  69.578  1.00  0.00    -0.397 A  
HETATM    4  C   UNL     1     -11.382  10.293  69.778  1.00  0.00    -0.334 A  
HETATM    5  C   UNL     1     -10.167   9.670  69.481  1.00  0.00    -0.233 A  
HETATM    6  C   UNL     1      -9.136  10.420  68.928  1.00  0.00    -0.175 A  
HETATM    7  C   UNL     1      -9.343  11.782  68.655  1.00  0.00    -0.096 A  
HETATM    8  C   UNL     1     -10.567  12.426  68.953  1.00  0.00    -0.160 A  
BRANCH   5   9
HETATM    9  C   UNL     1     -10.028   8.253  69.917  1.00  0.00    -0.190 C  
HETATM   10  C   UNL     1      -9.375   7.922  71.232  1.00  0.00    -0.172 C  
BRANCH   9  11
HETATM   11  N   UNL     1     -10.497   7.346  69.106  1.00  0.00    -0.211 NA 
HETATM   12  H   UNL     1     -10.782   6.411  69.398  1.00  0.00     0.000 HD 
BRANCH  11  13
HETATM   13  O   UNL     1     -10.563   7.808  67.792  1.00  0.00    -0.225 OA 
BRANCH  13  14
HETATM   14  C   UNL     1     -10.991   6.724  66.975  1.00  0.00    -0.368 C  
BRANCH  14  15
HETATM   15  C   UNL     1      -9.833   5.786  66.825  1.00  0.00    -0.188 A  
HETATM   16  F   UNL     1      -7.846   1.509  68.084  1.00  0.00    -0.054 F  
HETATM   17  F   UNL     1      -9.219   2.555  69.384  1.00  0.00    -0.143 F  
HETATM   18  C   UNL     1      -8.693   6.176  66.138  1.00  0.00    -0.149 A  
HETATM   19  F   UNL     1      -9.970   1.556  67.610  1.00  0.00    -0.061 F  
HETATM   20  C   UNL     1      -7.643   5.279  65.968  1.00  0.00    -0.087 A  
HETATM   21  C   UNL     1      -9.852   4.530  67.435  1.00  0.00    -0.204 A  
HETATM   22  C   UNL     1      -7.703   3.950  66.439  1.00  0.00    -0.089 A  
HETATM   23  C   UNL     1      -8.938   2.321  68.067  1.00  0.00    -0.153 C  
HETATM   24  C   UNL     1      -8.791   3.610  67.281  1.00  0.00    -0.142 A  
BRANCH  22  25
HETATM   25  C   UNL     1      -6.644   2.929  65.998  1.00  0.00    -0.039 C  
HETATM   26  C   UNL     1      -7.216   1.893  65.000  1.00  0.00    -0.053 C  
HETATM   27  C   UNL     1      -7.551   2.524  63.652  1.00  0.00    -0.066 C  
HETATM   28  C   UNL     1      -6.306   3.113  63.006  1.00  0.00    -0.018 C  
HETATM   29  C   UNL     1      -5.550   4.060  63.931  1.00  0.00    -0.013 C  
HETATM   30  C   UNL     1      -5.354   3.500  65.349  1.00  0.00    -0.009 C  
ENDBRANCH  22  25
ENDBRANCH  14  15
ENDBRANCH  13  14
ENDBRANCH  11  13
ENDBRANCH   9  11
ENDBRANCH   5   9
BRANCH   8  31
HETATM   31  C   UNL     1     -10.706  13.925  68.720  1.00  0.00    -0.262 C  
BRANCH  31  32
HETATM   32  N   UNL     1     -10.823  14.356  67.306  1.00  0.00    -0.286 NA 
HETATM   33  O   UNL     1     -10.874  15.602  64.504  1.00  0.00    -0.394 OA 
HETATM   34  O   UNL     1     -12.426  14.463  63.342  1.00  0.00    -0.709 OA 
HETATM   35  C   UNL     1     -10.634  13.218  66.367  1.00  0.00    -0.284 C  
HETATM   36  C   UNL     1     -11.776  14.589  64.376  1.00  0.00    -0.367 C  
HETATM   37  C   UNL     1     -12.274  14.365  66.945  1.00  0.00    -0.267 C  
HETATM   38  C   UNL     1     -11.903  13.680  65.617  1.00  0.00    -0.387 C  
ENDBRANCH  31  32
ENDBRANCH   8  31
ENDBRANCH   2   3
TORSDOF 9
ENDMDL
MODEL      287
REMARK 921   NORMALIZED FREE ENERGY PREDICTED BY IDOCK:   -4.19 KCAL/MOL
REMARK 922        TOTAL FREE ENERGY PREDICTED BY IDOCK:   -7.82 KCAL/MOL
REMARK 923 INTER-LIGAND FREE ENERGY PREDICTED BY IDOCK:   -8.23 KCAL/MOL
REMARK 924 INTRA-LIGAND FREE ENERGY PREDICTED BY IDOCK:    0.42 KCAL/MOL
REMARK 927      BINDING AFFINITY PREDICTED BY RF-SCORE:    0.00 PKD
ROOT
HETATM    1  C   UNL     1      -6.703  14.174  69.866  1.00  0.00    -0.036 C  
HETATM    2  C   UNL     1      -7.119  13.517  68.560  1.00  0.00    -0.108 C  
ENDROOT
BRANCH   2   3
HETATM    3  C   UNL     1      -8.109  14.343  67.770  1.00  0.00    -0.174 A  
HETATM    4  C   UNL     1      -9.414  13.828  67.741  1.00  0.00    -0.216 A  
HETATM    5  C   UNL     1     -10.405  14.370  66.920  1.00  0.00    -0.265 A  
HETATM    6  C   UNL     1     -10.108  15.481  66.139  1.00  0.00    -0.329 A  
HETATM    7  C   UNL     1      -8.827  16.053  66.210  1.00  0.00    -0.379 A  
HETATM    8  C   UNL     1      -7.814  15.512  67.036  1.00  0.00    -0.260 A  
BRANCH   5   9
HETATM    9  C   UNL     1     -11.686  13.614  66.843  1.00  0.00    -0.389 C  
HETATM   10  C   UNL     1     -12.655  13.872  65.721  1.00  0.00    -0.533 C  
BRANCH   9  11
HETATM   11  N   UNL     1     -11.903  12.740  67.786  1.00  0.00    -0.351 NA 
HETATM   12  H   UNL     1     -11.843  12.948  68.783  1.00  0.00     0.000 HD 
BRANCH  11  13
HETATM   13  O   UNL     1     -12.227  11.487  67.268  1.00  0.00    -0.335 OA 
BRANCH  13  14
HETATM   14  C   UNL     1     -11.015  10.857  66.872  1.00  0.00    -0.223 C  
BRANCH  14  15
HETATM   15  C   UNL     1     -10.750   9.740  67.834  1.00  0.00    -0.312 A  
HETATM   16  F   UNL     1      -9.966   4.960  68.435  1.00  0.00    -0.197 F  
HETATM   17  F   UNL     1     -11.102   5.728  66.765  1.00  0.00    -0.328 F  
HETATM   18  C   UNL     1     -10.809   9.958  69.203  1.00  0.00    -0.248 A  
HETATM   19  F   UNL     1      -8.946   5.971  66.800  1.00  0.00    -0.115 F  
HETATM   20  C   UNL     1     -10.516   8.923  70.085  1.00  0.00    -0.236 A  
HETATM   21  C   UNL     1     -10.510   8.445  67.371  1.00  0.00    -0.354 A  
HETATM   22  C   UNL     1     -10.115   7.645  69.641  1.00  0.00    -0.194 A  
HETATM   23  C   UNL     1     -10.055   6.024  67.592  1.00  0.00    -0.160 C  
HETATM   24  C   UNL     1     -10.220   7.379  68.253  1.00  0.00    -0.213 A  
BRANCH  22  25
HETATM   25  C   UNL     1      -9.549   6.626  70.641  1.00  0.00    -0.177 C  
HETATM   26  C   UNL     1      -8.226   5.996  70.142  1.00  0.00    -0.119 C  
HETATM   27  C   UNL     1      -7.084   7.008  70.121  1.00  0.00    -0.067 C  
HETATM   28  C   UNL     1      -6.814   7.546  71.518  1.00  0.00    -0.050 C  
HETATM   29  C   UNL     1      -8.067   8.081  72.201  1.00  0.00    -0.172 C  
HETATM   30  C   UNL     1      -9.277   7.141  72.081  1.00  0.00    -0.144 C  
ENDBRANCH  22  25
ENDBRANCH  14  15
ENDBRANCH  13  14
ENDBRANCH  11  13
ENDBRANCH   9  11
ENDBRANCH   5   9
BRANCH   8  31
HETATM   31  C   UNL     1      -6.416  16.117  67.007  1.00  0.00    -0.074 C  
BRANCH  31  32
HETATM   32  N   UNL     1      -6.176  17.152  65.972  1.00  0.00    -0.150 NA 
HETATM   33  O   UNL     1      -5.488  18.989  63.615  1.00  0.00    -0.281 OA 
HETATM   34  O   UNL     1      -5.658  21.093  64.392  1.00  0.00    -0.226 OA 
HETATM   35  C   UNL     1      -7.321  18.095  65.863  1.00  0.00    -0.205 C  
HETATM   36  C   UNL     1      -5.802  19.890  64.589  1.00  0.00    -0.238 C  
HETATM   37  C   UNL     1      -5.377  18.252  66.598  1.00  0.00    -0.141 C  
HETATM   38  C   UNL     1      -6.309  19.263  65.905  1.00  0.00    -0.237 C  
ENDBRANCH  31  32
ENDBRANCH   8  31
ENDBRANCH   2   3
TORSDOF 9
ENDMDL
MODEL      288
REMARK 921   NORMALIZED FREE ENERGY PREDICTED BY IDOCK:   -4.16 KCAL/MOL
REMARK 922        TOTAL FREE ENERGY PREDICTED BY IDOCK:   -7.77 KCAL/MOL
REMARK 923 INTER-LIGAND FREE ENERGY PREDICTED BY IDOCK:   -6.58 KCAL/MOL
REMARK 924 INTRA-LIGAND FREE ENERGY PREDICTED BY IDOCK:   -1.19 KCAL/MOL
REMARK 927      BINDING AFFINITY PREDICTED BY RF-SCORE:    0.00 PKD
ROOT
HETATM    1  C   UNL     1     -12.398  13.878  72.211  1.00  0.00    -0.002 C  
HETATM    2  C   UNL     1     -13.101  13.182  71.057  1.00  0.00    -0.121 C  
ENDROOT
BRANCH   2   3
HETATM    3  C   UNL     1     -12.143  12.608  70.039  1.00  0.00    -0.339 A  
HETATM    4  C   UNL     1     -11.846  11.247  70.212  1.00  0.00    -0.446 A  
HETATM    5  C   UNL     1     -10.852  10.607  69.469  1.00  0.00    -0.303 A  
HETATM    6  C   UNL     1     -10.162  11.321  68.498  1.00  0.00    -0.214 A  
HETATM    7  C   UNL     1     -10.495  12.666  68.263  1.00  0.00    -0.249 A  
HETATM    8  C   UNL     1     -11.499  13.327  69.009  1.00  0.00    -0.350 A  
BRANCH   5   9
HETATM    9  C   UNL     1     -10.511   9.217  69.883  1.00  0.00    -0.227 C  
HETATM   10  C   UNL     1      -9.517   8.974  70.987  1.00  0.00    -0.342 C  
BRANCH   9  11
HETATM   11  N   UNL     1     -11.114   8.255  69.243  1.00  0.00    -0.430 NA 
HETATM   12  H   UNL     1     -11.755   7.592  69.679  1.00  0.00     0.000 HD 
BRANCH  11  13
HETATM   13  O   UNL     1     -10.778   8.240  67.889  1.00  0.00    -0.178 OA 
BRANCH  13  14
HETATM   14  C   UNL     1     -11.197   6.990  67.354  1.00  0.00    -0.079 C  
BRANCH  14  15
HETATM   15  C   UNL     1     -10.083   6.012  67.563  1.00  0.00    -0.190 A  
HETATM   16  F   UNL     1      -5.679   4.465  66.134  1.00  0.00    -0.018 F  
HETATM   17  F   UNL     1      -7.036   5.457  64.775  1.00  0.00    -0.045 F  
HETATM   18  C   UNL     1     -10.229   4.952  68.445  1.00  0.00    -0.098 A  
HETATM   19  F   UNL     1      -6.011   6.610  66.301  1.00  0.00    -0.027 F  
HETATM   20  C   UNL     1      -9.169   4.077  68.663  1.00  0.00    -0.209 A  
HETATM   21  C   UNL     1      -8.904   6.109  66.821  1.00  0.00    -0.122 A  
HETATM   22  C   UNL     1      -7.913   4.247  68.044  1.00  0.00    -0.086 A  
HETATM   23  C   UNL     1      -6.645   5.422  66.084  1.00  0.00    -0.048 C  
HETATM   24  C   UNL     1      -7.821   5.224  67.021  1.00  0.00    -0.100 A  
BRANCH  22  25
HETATM   25  C   UNL     1      -6.705   3.423  68.516  1.00  0.00    -0.045 C  
HETATM   26  C   UNL     1      -5.731   4.261  69.378  1.00  0.00    -0.017 C  
HETATM   27  C   UNL     1      -6.339   4.635  70.726  1.00  0.00    -0.022 C  
HETATM   28  C   UNL     1      -6.674   3.389  71.531  1.00  0.00    -0.026 C  
HETATM   29  C   UNL     1      -7.525   2.392  70.755  1.00  0.00    -0.033 C  
HETATM   30  C   UNL     1      -7.016   2.135  69.327  1.00  0.00    -0.033 C  
ENDBRANCH  22  25
ENDBRANCH  14  15
ENDBRANCH  13  14
ENDBRANCH  11  13
ENDBRANCH   9  11
ENDBRANCH   5   9
BRANCH   8  31
HETATM   31  C   UNL     1     -11.757  14.810  68.775  1.00  0.00    -0.323 C  
BRANCH  31  32
HETATM   32  N   UNL     1     -10.811  15.501  67.865  1.00  0.00    -0.298 NA 
HETATM   33  O   UNL     1      -8.857  16.573  65.759  1.00  0.00    -0.474 OA 
HETATM   34  O   UNL     1      -7.833  18.341  66.700  1.00  0.00    -0.232 OA 
HETATM   35  C   UNL     1     -11.136  16.946  67.729  1.00  0.00    -0.116 C  
HETATM   36  C   UNL     1      -8.694  17.468  66.773  1.00  0.00    -0.257 C  
HETATM   37  C   UNL     1      -9.604  15.884  68.660  1.00  0.00    -0.209 C  
HETATM   38  C   UNL     1      -9.643  17.261  67.973  1.00  0.00    -0.274 C  
ENDBRANCH  31  32
ENDBRANCH   8  31
ENDBRANCH   2   3
TORSDOF 9
ENDMDL
MODEL      289
REMARK 921   NORMALIZED FREE ENERGY PREDICTED BY IDOCK:   -4.15 KCAL/MOL
REMARK 922        TOTAL FREE ENERGY PREDICTED BY IDOCK:   -7.76 KCAL/MOL
REMARK 923 INTER-LIGAND FREE ENERGY PREDICTED BY IDOCK:   -8.26 KCAL/MOL
REMARK 924 INTRA-LIGAND FREE ENERGY PREDICTED BY IDOCK:    0.50 KCAL/MOL
REMARK 927      BINDING AFFINITY PREDICTED BY RF-SCORE:    0.00 PKD
ROOT
HETATM    1  C   UNL     1     -12.280  14.514  66.366  1.00  0.00    -0.274 C  
HETATM    2  C   UNL     1     -12.037  13.478  67.451  1.00  0.00    -0.360 C  
ENDROOT
BRANCH   2   3
HETATM    3  C   UNL     1     -11.612  14.088  68.768  1.00  0.00    -0.366 A  
HETATM    4  C   UNL     1     -12.535  13.934  69.813  1.00  0.00    -0.240 A  
HETATM    5  C   UNL     1     -12.378  14.583  71.040  1.00  0.00    -0.417 A  
HETATM    6  C   UNL     1     -11.254  15.371  71.254  1.00  0.00    -0.407 A  
HETATM    7  C   UNL     1     -10.284  15.479  70.243  1.00  0.00    -0.139 A  
HETATM    8  C   UNL     1     -10.432  14.829  68.995  1.00  0.00    -0.249 A  
BRANCH   5   9
HETATM    9  C   UNL     1     -13.522  14.485  71.990  1.00  0.00    -0.384 C  
HETATM   10  C   UNL     1     -13.971  15.693  72.767  1.00  0.00    -0.563 C  
BRANCH   9  11
HETATM   11  N   UNL     1     -14.090  13.317  72.098  1.00  0.00    -0.369 NA 
HETATM   12  H   UNL     1     -14.938  13.141  72.637  1.00  0.00     0.000 HD 
BRANCH  11  13
HETATM   13  O   UNL     1     -13.399  12.335  71.388  1.00  0.00    -0.189 OA 
BRANCH  13  14
HETATM   14  C   UNL     1     -13.116  11.270  72.289  1.00  0.00     0.072 C  
BRANCH  14  15
HETATM   15  C   UNL     1     -12.343  10.233  71.534  1.00  0.00    -0.488 A  
HETATM   16  F   UNL     1     -11.002   5.550  71.227  1.00  0.00    -0.310 F  
HETATM   17  F   UNL     1     -11.493   6.474  73.118  1.00  0.00    -0.214 F  
HETATM   18  C   UNL     1     -11.508  10.598  70.487  1.00  0.00    -0.407 A  
HETATM   19  F   UNL     1     -13.077   5.996  71.713  1.00  0.00    -0.028 F  
HETATM   20  C   UNL     1     -10.831   9.619  69.765  1.00  0.00    -0.274 A  
HETATM   21  C   UNL     1     -12.394   8.891  71.915  1.00  0.00    -0.445 A  
HETATM   22  C   UNL     1     -10.989   8.243  70.029  1.00  0.00    -0.197 A  
HETATM   23  C   UNL     1     -11.808   6.491  71.788  1.00  0.00    -0.335 C  
HETATM   24  C   UNL     1     -11.705   7.886  71.199  1.00  0.00    -0.306 A  
BRANCH  22  25
HETATM   25  C   UNL     1     -10.437   7.202  69.044  1.00  0.00    -0.221 C  
HETATM   26  C   UNL     1      -9.656   7.859  67.881  1.00  0.00    -0.169 C  
HETATM   27  C   UNL     1      -8.351   8.491  68.357  1.00  0.00    -0.124 C  
HETATM   28  C   UNL     1      -7.432   7.442  68.963  1.00  0.00    -0.100 C  
HETATM   29  C   UNL     1      -8.114   6.609  70.043  1.00  0.00    -0.121 C  
HETATM   30  C   UNL     1      -9.509   6.107  69.637  1.00  0.00    -0.162 C  
ENDBRANCH  22  25
ENDBRANCH  14  15
ENDBRANCH  13  14
ENDBRANCH  11  13
ENDBRANCH   9  11
ENDBRANCH   5   9
BRANCH   8  31
HETATM   31  C   UNL     1      -9.394  15.053  67.902  1.00  0.00    -0.183 C  
BRANCH  31  32
HETATM   32  N   UNL     1      -8.718  13.838  67.387  1.00  0.00    -0.196 NA 
HETATM   33  O   UNL     1      -7.687  11.232  66.141  1.00  0.00    -0.109 OA 
HETATM   34  O   UNL     1      -5.818  10.696  67.272  1.00  0.00    -0.044 OA 
HETATM   35  C   UNL     1      -7.301  14.110  67.026  1.00  0.00     0.402 C  
HETATM   36  C   UNL     1      -6.724  11.499  67.068  1.00  0.00    -0.143 C  
HETATM   37  C   UNL     1      -8.230  13.050  68.561  1.00  0.00    -0.067 C  
HETATM   38  C   UNL     1      -6.901  12.841  67.811  1.00  0.00    -0.135 C  
ENDBRANCH  31  32
ENDBRANCH   8  31
ENDBRANCH   2   3
TORSDOF 9
ENDMDL
MODEL      290
REMARK 921   NORMALIZED FREE ENERGY PREDICTED BY IDOCK:   -4.14 KCAL/MOL
REMARK 922        TOTAL FREE ENERGY PREDICTED BY IDOCK:   -7.75 KCAL/MOL
REMARK 923 INTER-LIGAND FREE ENERGY PREDICTED BY IDOCK:   -7.05 KCAL/MOL
REMARK 924 INTRA-LIGAND FREE ENERGY PREDICTED BY IDOCK:   -0.71 KCAL/MOL
REMARK 927      BINDING AFFINITY PREDICTED BY RF-SCORE:    0.00 PKD
ROOT
HETATM    1  C   UNL     1     -10.753  16.796  69.093  1.00  0.00    -0.329 C  
HETATM    2  C   UNL     1     -10.082  16.389  67.791  1.00  0.00    -0.262 C  
ENDROOT
BRANCH   2   3
HETATM    3  C   UNL     1      -8.654  15.930  67.979  1.00  0.00    -0.164 A  
HETATM    4  C   UNL     1      -8.448  14.554  67.797  1.00  0.00    -0.176 A  
HETATM    5  C   UNL     1      -7.230  13.942  68.101  1.00  0.00    -0.120 A  
HETATM    6  C   UNL     1      -6.173  14.719  68.556  1.00  0.00    -0.088 A  
HETATM    7  C   UNL     1      -6.339  16.109  68.676  1.00  0.00    -0.118 A  
HETATM    8  C   UNL     1      -7.568  16.742  68.374  1.00  0.00    -0.205 A  
BRANCH   5   9
HETATM    9  C   UNL     1      -7.207  12.454  68.042  1.00  0.00    -0.105 C  
HETATM   10  C   UNL     1      -5.987  11.693  68.488  1.00  0.00    -0.049 C  
BRANCH   9  11
HETATM   11  N   UNL     1      -8.284  11.872  67.591  1.00  0.00    -0.139 NA 
HETATM   12  H   UNL     1      -9.003  11.462  68.186  1.00  0.00     0.000 HD 
BRANCH  11  13
HETATM   13  O   UNL     1      -8.333  11.879  66.197  1.00  0.00    -0.009 OA 
BRANCH  13  14
HETATM   14  C   UNL     1      -9.614  11.396  65.808  1.00  0.00    -0.233 C  
BRANCH  14  15
HETATM   15  C   UNL     1      -9.803  10.053  66.443  1.00  0.00    -0.283 A  
HETATM   16  F   UNL     1      -8.477   5.357  66.546  1.00  0.00    -0.111 F  
HETATM   17  F   UNL     1      -8.328   6.545  64.747  1.00  0.00    -0.136 F  
HETATM   18  C   UNL     1     -10.823   9.842  67.359  1.00  0.00    -0.293 A  
HETATM   19  F   UNL     1      -6.915   6.862  66.364  1.00  0.00    -0.061 F  
HETATM   20  C   UNL     1     -10.958   8.601  67.974  1.00  0.00     0.091 A  
HETATM   21  C   UNL     1      -9.001   8.972  66.071  1.00  0.00    -0.227 A  
HETATM   22  C   UNL     1     -10.063   7.539  67.733  1.00  0.00    -0.235 A  
HETATM   23  C   UNL     1      -8.233   6.621  66.108  1.00  0.00    -0.124 C  
HETATM   24  C   UNL     1      -9.131   7.703  66.678  1.00  0.00    -0.198 A  
BRANCH  22  25
HETATM   25  C   UNL     1     -10.092   6.290  68.627  1.00  0.00    -0.185 C  
HETATM   26  C   UNL     1      -8.855   6.209  69.554  1.00  0.00    -0.130 C  
HETATM   27  C   UNL     1      -8.870   7.299  70.622  1.00  0.00    -0.148 C  
HETATM   28  C   UNL     1     -10.095   7.164  71.514  1.00  0.00    -0.197 C  
HETATM   29  C   UNL     1     -11.397   7.090  70.726  1.00  0.00    -0.339 C  
HETATM   30  C   UNL     1     -11.338   6.116  69.539  1.00  0.00    -0.426 C  
ENDBRANCH  22  25
ENDBRANCH  14  15
ENDBRANCH  13  14
ENDBRANCH  11  13
ENDBRANCH   9  11
ENDBRANCH   5   9
BRANCH   8  31
HETATM   31  C   UNL     1      -7.721  18.240  68.608  1.00  0.00    -0.302 C  
BRANCH  31  32
HETATM   32  N   UNL     1      -7.119  19.125  67.582  1.00  0.00    -0.223 NA 
HETATM   33  O   UNL     1      -5.878  21.254  65.757  1.00  0.00    -0.245 OA 
HETATM   34  O   UNL     1      -6.173  20.519  63.651  1.00  0.00    -0.249 OA 
HETATM   35  C   UNL     1      -6.166  18.387  66.711  1.00  0.00    -0.173 C  
HETATM   36  C   UNL     1      -6.274  20.310  64.856  1.00  0.00    -0.275 C  
HETATM   37  C   UNL     1      -8.064  19.197  66.425  1.00  0.00    -0.308 C  
HETATM   38  C   UNL     1      -6.856  19.025  65.485  1.00  0.00    -0.274 C  
ENDBRANCH  31  32
ENDBRANCH   8  31
ENDBRANCH   2   3
TORSDOF 9
ENDMDL
MODEL      291
REMARK 921   NORMALIZED FREE ENERGY PREDICTED BY IDOCK:   -4.09 KCAL/MOL
REMARK 922        TOTAL FREE ENERGY PREDICTED BY IDOCK:   -7.68 KCAL/MOL
REMARK 923 INTER-LIGAND FREE ENERGY PREDICTED BY IDOCK:   -6.30 KCAL/MOL
REMARK 924 INTRA-LIGAND FREE ENERGY PREDICTED BY IDOCK:   -1.37 KCAL/MOL
REMARK 927      BINDING AFFINITY PREDICTED BY RF-SCORE:    0.00 PKD
ROOT
HETATM    1  C   UNL     1     -12.027  13.163  63.569  1.00  0.00    -0.580 C  
HETATM    2  C   UNL     1     -12.000  11.977  64.519  1.00  0.00    -0.350 C  
ENDROOT
BRANCH   2   3
HETATM    3  C   UNL     1     -10.655  11.777  65.179  1.00  0.00    -0.332 A  
HETATM    4  C   UNL     1      -9.701  11.122  64.384  1.00  0.00    -0.312 A  
HETATM    5  C   UNL     1      -8.471  10.706  64.898  1.00  0.00    -0.116 A  
HETATM    6  C   UNL     1      -8.158  10.984  66.222  1.00  0.00    -0.159 A  
HETATM    7  C   UNL     1      -9.071  11.702  67.012  1.00  0.00    -0.179 A  
HETATM    8  C   UNL     1     -10.322  12.128  66.505  1.00  0.00    -0.239 A  
BRANCH   5   9
HETATM    9  C   UNL     1      -7.635   9.858  64.002  1.00  0.00    -0.138 C  
HETATM   10  C   UNL     1      -6.143  10.047  63.951  1.00  0.00    -0.132 C  
BRANCH   9  11
HETATM   11  N   UNL     1      -8.265   8.968  63.288  1.00  0.00    -0.172 NA 
HETATM   12  H   UNL     1      -8.437   9.057  62.286  1.00  0.00     0.000 HD 
BRANCH  11  13
HETATM   13  O   UNL     1      -8.676   7.880  64.057  1.00  0.00     0.225 OA 
BRANCH  13  14
HETATM   14  C   UNL     1      -7.546   7.037  64.250  1.00  0.00    -0.112 C  
BRANCH  14  15
HETATM   15  C   UNL     1      -7.614   6.503  65.647  1.00  0.00    -0.086 A  
HETATM   16  F   UNL     1      -7.539   7.515  70.421  1.00  0.00    -0.081 F  
HETATM   17  F   UNL     1      -6.547   8.775  68.972  1.00  0.00    -0.045 F  
HETATM   18  C   UNL     1      -7.604   5.135  65.881  1.00  0.00    -0.083 A  
HETATM   19  F   UNL     1      -8.713   8.803  69.115  1.00  0.00    -0.128 F  
HETATM   20  C   UNL     1      -7.713   4.652  67.181  1.00  0.00    -0.090 A  
HETATM   21  C   UNL     1      -7.617   7.370  66.740  1.00  0.00    -0.101 A  
HETATM   22  C   UNL     1      -7.878   5.506  68.291  1.00  0.00    -0.089 A  
HETATM   23  C   UNL     1      -7.636   7.966  69.141  1.00  0.00    -0.098 C  
HETATM   24  C   UNL     1      -7.718   6.897  68.068  1.00  0.00    -0.113 A  
BRANCH  22  25
HETATM   25  C   UNL     1      -8.260   4.924  69.660  1.00  0.00    -0.080 C  
HETATM   26  C   UNL     1      -9.487   3.986  69.571  1.00  0.00    -0.257 C  
HETATM   27  C   UNL     1      -9.168   2.699  68.816  1.00  0.00    -0.228 C  
HETATM   28  C   UNL     1      -8.070   1.917  69.522  1.00  0.00    -0.060 C  
HETATM   29  C   UNL     1      -6.832   2.759  69.807  1.00  0.00    -0.034 C  
HETATM   30  C   UNL     1      -7.155   4.134  70.414  1.00  0.00    -0.041 C  
ENDBRANCH  22  25
ENDBRANCH  14  15
ENDBRANCH  13  14
ENDBRANCH  11  13
ENDBRANCH   9  11
ENDBRANCH   5   9
BRANCH   8  31
HETATM   31  C   UNL     1     -11.312  12.823  67.431  1.00  0.00    -0.313 C  
BRANCH  31  32
HETATM   32  N   UNL     1     -12.009  11.954  68.410  1.00  0.00    -0.453 NA 
HETATM   33  O   UNL     1     -13.780  10.181  70.176  1.00  0.00     0.282 OA 
HETATM   34  O   UNL     1     -12.828  10.179  72.214  1.00  0.00    -0.341 OA 
HETATM   35  C   UNL     1     -11.087  10.951  69.006  1.00  0.00    -0.246 C  
HETATM   36  C   UNL     1     -12.775  10.514  71.034  1.00  0.00    -0.408 C  
HETATM   37  C   UNL     1     -12.027  12.666  69.726  1.00  0.00    -0.295 C  
HETATM   38  C   UNL     1     -11.634  11.338  70.398  1.00  0.00    -0.319 C  
ENDBRANCH  31  32
ENDBRANCH   8  31
ENDBRANCH   2   3
TORSDOF 9
ENDMDL
MODEL      292
REMARK 921   NORMALIZED FREE ENERGY PREDICTED BY IDOCK:   -4.06 KCAL/MOL
REMARK 922        TOTAL FREE ENERGY PREDICTED BY IDOCK:   -7.62 KCAL/MOL
REMARK 923 INTER-LIGAND FREE ENERGY PREDICTED BY IDOCK:   -6.83 KCAL/MOL
REMARK 924 INTRA-LIGAND FREE ENERGY PREDICTED BY IDOCK:   -0.79 KCAL/MOL
REMARK 927      BINDING AFFINITY PREDICTED BY RF-SCORE:    0.00 PKD
ROOT
HETATM    1  C   UNL     1     -12.667  12.862  71.479  1.00  0.00    -0.339 C  
HETATM    2  C   UNL     1     -12.883  12.161  70.147  1.00  0.00     0.348 C  
ENDROOT
BRANCH   2   3
HETATM    3  C   UNL     1     -11.600  11.657  69.528  1.00  0.00    -0.397 A  
HETATM    4  C   UNL     1     -11.330  10.299  69.755  1.00  0.00    -0.334 A  
HETATM    5  C   UNL     1     -10.109   9.719  69.402  1.00  0.00    -0.221 A  
HETATM    6  C   UNL     1      -9.146  10.493  68.768  1.00  0.00    -0.166 A  
HETATM    7  C   UNL     1      -9.427  11.837  68.469  1.00  0.00    -0.165 A  
HETATM    8  C   UNL     1     -10.658  12.438  68.822  1.00  0.00    -0.213 A  
BRANCH   5   9
HETATM    9  C   UNL     1      -9.883   8.322  69.869  1.00  0.00    -0.186 C  
HETATM   10  C   UNL     1      -9.171   8.061  71.169  1.00  0.00    -0.174 C  
BRANCH   9  11
HETATM   11  N   UNL     1     -10.332   7.371  69.098  1.00  0.00    -0.204 NA 
HETATM   12  H   UNL     1     -10.507   6.416  69.412  1.00  0.00     0.000 HD 
BRANCH  11  13
HETATM   13  O   UNL     1     -10.543   7.816  67.794  1.00  0.00    -0.225 OA 
BRANCH  13  14
HETATM   14  C   UNL     1     -11.024   6.713  67.034  1.00  0.00    -0.393 C  
BRANCH  14  15
HETATM   15  C   UNL     1      -9.869   5.790  66.795  1.00  0.00    -0.188 A  
HETATM   16  F   UNL     1      -5.658   5.034  64.445  1.00  0.00    -0.015 F  
HETATM   17  F   UNL     1      -7.206   6.305  63.632  1.00  0.00    -0.042 F  
HETATM   18  C   UNL     1      -9.873   4.504  67.315  1.00  0.00    -0.216 A  
HETATM   19  F   UNL     1      -6.015   7.000  65.308  1.00  0.00    -0.033 F  
HETATM   20  C   UNL     1      -8.773   3.674  67.123  1.00  0.00    -0.126 A  
HETATM   21  C   UNL     1      -8.801   6.183  65.986  1.00  0.00    -0.160 A  
HETATM   22  C   UNL     1      -7.614   4.103  66.443  1.00  0.00    -0.089 A  
HETATM   23  C   UNL     1      -6.644   5.898  64.810  1.00  0.00    -0.042 C  
HETATM   24  C   UNL     1      -7.681   5.349  65.771  1.00  0.00    -0.087 A  
BRANCH  22  25
HETATM   25  C   UNL     1      -6.336   3.252  66.489  1.00  0.00    -0.029 C  
HETATM   26  C   UNL     1      -5.169   3.994  67.184  1.00  0.00    -0.012 C  
HETATM   27  C   UNL     1      -5.419   4.176  68.678  1.00  0.00    -0.013 C  
HETATM   28  C   UNL     1      -5.556   2.829  69.371  1.00  0.00    -0.018 C  
HETATM   29  C   UNL     1      -6.584   1.921  68.706  1.00  0.00    -0.029 C  
HETATM   30  C   UNL     1      -6.448   1.864  67.176  1.00  0.00    -0.027 C  
ENDBRANCH  22  25
ENDBRANCH  14  15
ENDBRANCH  13  14
ENDBRANCH  11  13
ENDBRANCH   9  11
ENDBRANCH   5   9
BRANCH   8  31
HETATM   31  C   UNL     1     -10.875  13.922  68.555  1.00  0.00    -0.259 C  
BRANCH  31  32
HETATM   32  N   UNL     1     -11.184  14.293  67.153  1.00  0.00    -0.311 NA 
HETATM   33  O   UNL     1     -11.840  15.458  64.393  1.00  0.00    -0.402 OA 
HETATM   34  O   UNL     1     -12.581  13.737  63.149  1.00  0.00    -0.793 OA 
HETATM   35  C   UNL     1     -10.431  13.453  66.184  1.00  0.00    -0.295 C  
HETATM   36  C   UNL     1     -12.097  14.132  64.205  1.00  0.00    -0.444 C  
HETATM   37  C   UNL     1     -12.433  13.575  66.750  1.00  0.00    -0.159 C  
HETATM   38  C   UNL     1     -11.752  13.233  65.412  1.00  0.00    -0.370 C  
ENDBRANCH  31  32
ENDBRANCH   8  31
ENDBRANCH   2   3
TORSDOF 9
ENDMDL
MODEL      293
REMARK 921   NORMALIZED FREE ENERGY PREDICTED BY IDOCK:   -4.03 KCAL/MOL
REMARK 922        TOTAL FREE ENERGY PREDICTED BY IDOCK:   -7.59 KCAL/MOL
REMARK 923 INTER-LIGAND FREE ENERGY PREDICTED BY IDOCK:   -7.15 KCAL/MOL
REMARK 924 INTRA-LIGAND FREE ENERGY PREDICTED BY IDOCK:   -0.44 KCAL/MOL
REMARK 927      BINDING AFFINITY PREDICTED BY RF-SCORE:    0.00 PKD
ROOT
HETATM    1  C   UNL     1      -8.708  12.541  68.062  1.00  0.00    -0.186 C  
HETATM    2  C   UNL     1     -10.091  11.927  67.917  1.00  0.00    -0.199 C  
ENDROOT
BRANCH   2   3
HETATM    3  C   UNL     1     -10.922  12.036  69.175  1.00  0.00    -0.231 A  
HETATM    4  C   UNL     1     -11.317  10.808  69.727  1.00  0.00    -0.372 A  
HETATM    5  C   UNL     1     -12.228  10.730  70.783  1.00  0.00    -0.480 A  
HETATM    6  C   UNL     1     -12.727  11.902  71.337  1.00  0.00    -0.395 A  
HETATM    7  C   UNL     1     -12.288  13.142  70.844  1.00  0.00    -0.393 A  
HETATM    8  C   UNL     1     -11.367  13.235  69.773  1.00  0.00    -0.132 A  
BRANCH   5   9
HETATM    9  C   UNL     1     -12.704   9.366  71.145  1.00  0.00    -0.269 C  
HETATM   10  C   UNL     1     -13.622   9.169  72.322  1.00  0.00    -0.548 C  
BRANCH   9  11
HETATM   11  N   UNL     1     -12.284   8.385  70.397  1.00  0.00    -0.349 NA 
HETATM   12  H   UNL     1     -12.073   8.475  69.403  1.00  0.00     0.000 HD 
BRANCH  11  13
HETATM   13  O   UNL     1     -12.157   7.198  71.118  1.00  0.00    -0.325 OA 
BRANCH  13  14
HETATM   14  C   UNL     1     -10.786   7.049  71.467  1.00  0.00    -0.230 C  
BRANCH  14  15
HETATM   15  C   UNL     1      -9.995   7.036  70.195  1.00  0.00    -0.189 A  
HETATM   16  F   UNL     1      -9.197   4.866  65.897  1.00  0.00    -0.134 F  
HETATM   17  F   UNL     1      -9.985   3.782  67.593  1.00  0.00    -0.212 F  
HETATM   18  C   UNL     1      -8.908   7.883  70.032  1.00  0.00    -0.141 A  
HETATM   19  F   UNL     1     -11.258   5.178  66.524  1.00  0.00    -0.201 F  
HETATM   20  C   UNL     1      -8.210   7.892  68.828  1.00  0.00    -0.127 A  
HETATM   21  C   UNL     1     -10.292   6.123  69.182  1.00  0.00    -0.271 A  
HETATM   22  C   UNL     1      -8.589   7.092  67.730  1.00  0.00    -0.122 A  
HETATM   23  C   UNL     1      -9.988   5.011  66.994  1.00  0.00    -0.203 C  
HETATM   24  C   UNL     1      -9.587   6.112  67.957  1.00  0.00    -0.115 A  
BRANCH  22  25
HETATM   25  C   UNL     1      -7.959   7.331  66.350  1.00  0.00    -0.112 C  
HETATM   26  C   UNL     1      -9.028   7.599  65.262  1.00  0.00     0.203 C  
HETATM   27  C   UNL     1      -9.729   8.938  65.469  1.00  0.00     0.010 C  
HETATM   28  C   UNL     1      -8.733  10.086  65.396  1.00  0.00    -0.176 C  
HETATM   29  C   UNL     1      -7.538   9.894  66.323  1.00  0.00    -0.102 C  
HETATM   30  C   UNL     1      -6.926   8.486  66.247  1.00  0.00    -0.077 C  
ENDBRANCH  22  25
ENDBRANCH  14  15
ENDBRANCH  13  14
ENDBRANCH  11  13
ENDBRANCH   9  11
ENDBRANCH   5   9
BRANCH   8  31
HETATM   31  C   UNL     1     -10.994  14.603  69.217  1.00  0.00    -0.260 C  
BRANCH  31  32
HETATM   32  N   UNL     1     -10.698  14.658  67.765  1.00  0.00    -0.261 NA 
HETATM   33  O   UNL     1      -9.737  14.556  64.855  1.00  0.00    -0.071 OA 
HETATM   34  O   UNL     1     -10.865  16.170  63.768  1.00  0.00     0.206 OA 
HETATM   35  C   UNL     1     -11.935  14.541  66.948  1.00  0.00    -0.346 C  
HETATM   36  C   UNL     1     -10.686  15.533  64.802  1.00  0.00    -0.304 C  
HETATM   37  C   UNL     1     -10.615  16.097  67.366  1.00  0.00    -0.311 C  
HETATM   38  C   UNL     1     -11.455  15.755  66.122  1.00  0.00     0.277 C  
ENDBRANCH  31  32
ENDBRANCH   8  31
ENDBRANCH   2   3
TORSDOF 9
ENDMDL
MODEL      294
REMARK 921   NORMALIZED FREE ENERGY PREDICTED BY IDOCK:   -4.01 KCAL/MOL
REMARK 922        TOTAL FREE ENERGY PREDICTED BY IDOCK:   -7.56 KCAL/MOL
REMARK 923 INTER-LIGAND FREE ENERGY PREDICTED BY IDOCK:   -7.26 KCAL/MOL
REMARK 924 INTRA-LIGAND FREE ENERGY PREDICTED BY IDOCK:   -0.30 KCAL/MOL
REMARK 927      BINDING AFFINITY PREDICTED BY RF-SCORE:    0.00 PKD
ROOT
HETATM    1  C   UNL     1     -10.357  11.477  64.744  1.00  0.00    -0.341 C  
HETATM    2  C   UNL     1     -10.203  12.828  65.424  1.00  0.00    -0.299 C  
ENDROOT
BRANCH   2   3
HETATM    3  C   UNL     1     -10.531  12.789  66.899  1.00  0.00    -0.250 A  
HETATM    4  C   UNL     1      -9.884  11.773  67.619  1.00  0.00    -0.192 A  
HETATM    5  C   UNL     1     -10.205  11.490  68.948  1.00  0.00    -0.166 A  
HETATM    6  C   UNL     1     -11.161  12.261  69.597  1.00  0.00    -0.021 A  
HETATM    7  C   UNL     1     -11.767  13.328  68.913  1.00  0.00    -0.369 A  
HETATM    8  C   UNL     1     -11.453  13.625  67.566  1.00  0.00    -0.360 A  
BRANCH   5   9
HETATM    9  C   UNL     1      -9.581  10.269  69.532  1.00  0.00    -0.202 C  
HETATM   10  C   UNL     1      -8.294   9.729  68.969  1.00  0.00    -0.127 C  
BRANCH   9  11
HETATM   11  N   UNL     1     -10.207   9.718  70.534  1.00  0.00    -0.307 NA 
HETATM   12  H   UNL     1      -9.988   9.898  71.514  1.00  0.00     0.000 HD 
BRANCH  11  13
HETATM   13  O   UNL     1     -11.213   8.852  70.105  1.00  0.00    -0.238 OA 
BRANCH  13  14
HETATM   14  C   UNL     1     -10.652   7.995  69.117  1.00  0.00    -0.169 C  
BRANCH  14  15
HETATM   15  C   UNL     1     -10.298   6.704  69.787  1.00  0.00    -0.226 A  
HETATM   16  F   UNL     1     -10.672   3.936  73.790  1.00  0.00    -0.206 F  
HETATM   17  F   UNL     1     -10.787   6.092  73.879  1.00  0.00    -0.259 F  
HETATM   18  C   UNL     1      -9.402   5.825  69.196  1.00  0.00    -0.146 A  
HETATM   19  F   UNL     1     -12.456   4.960  73.078  1.00  0.00    -0.295 F  
HETATM   20  C   UNL     1      -9.116   4.608  69.808  1.00  0.00    -0.162 A  
HETATM   21  C   UNL     1     -10.807   6.395  71.049  1.00  0.00    -0.314 A  
HETATM   22  C   UNL     1      -9.739   4.202  71.007  1.00  0.00    -0.260 A  
HETATM   23  C   UNL     1     -11.094   5.021  73.087  1.00  0.00    -0.326 C  
HETATM   24  C   UNL     1     -10.520   5.168  71.690  1.00  0.00    -0.255 A  
BRANCH  22  25
HETATM   25  C   UNL     1      -9.596   2.754  71.497  1.00  0.00    -0.221 C  
HETATM   26  C   UNL     1      -9.657   1.737  70.331  1.00  0.00    -0.111 C  
HETATM   27  C   UNL     1      -8.432   1.833  69.426  1.00  0.00    -0.082 C  
HETATM   28  C   UNL     1      -7.160   1.530  70.205  1.00  0.00    -0.033 C  
HETATM   29  C   UNL     1      -7.027   2.367  71.472  1.00  0.00    -0.031 C  
HETATM   30  C   UNL     1      -8.316   2.417  72.309  1.00  0.00    -0.055 C  
ENDBRANCH  22  25
ENDBRANCH  14  15
ENDBRANCH  13  14
ENDBRANCH  11  13
ENDBRANCH   9  11
ENDBRANCH   5   9
BRANCH   8  31
HETATM   31  C   UNL     1     -12.206  14.736  66.844  1.00  0.00     0.036 C  
BRANCH  31  32
HETATM   32  N   UNL     1     -11.650  16.103  66.992  1.00  0.00     0.371 NA 
HETATM   33  O   UNL     1     -10.891  19.046  67.400  1.00  0.00    -0.473 OA 
HETATM   34  O   UNL     1      -8.922  19.335  66.351  1.00  0.00    -0.332 OA 
HETATM   35  C   UNL     1     -10.277  16.078  67.565  1.00  0.00    -0.275 C  
HETATM   36  C   UNL     1      -9.811  18.571  66.717  1.00  0.00    -0.342 C  
HETATM   37  C   UNL     1     -11.055  16.503  65.679  1.00  0.00     0.089 C  
HETATM   38  C   UNL     1      -9.839  17.051  66.448  1.00  0.00    -0.312 C  
ENDBRANCH  31  32
ENDBRANCH   8  31
ENDBRANCH   2   3
TORSDOF 9
ENDMDL
MODEL      295
REMARK 921   NORMALIZED FREE ENERGY PREDICTED BY IDOCK:   -4.01 KCAL/MOL
REMARK 922        TOTAL FREE ENERGY PREDICTED BY IDOCK:   -7.54 KCAL/MOL
REMARK 923 INTER-LIGAND FREE ENERGY PREDICTED BY IDOCK:   -6.08 KCAL/MOL
REMARK 924 INTRA-LIGAND FREE ENERGY PREDICTED BY IDOCK:   -1.47 KCAL/MOL
REMARK 927      BINDING AFFINITY PREDICTED BY RF-SCORE:    0.00 PKD
ROOT
HETATM    1  C   UNL     1     -11.110  16.646  68.424  1.00  0.00    -0.305 C  
HETATM    2  C   UNL     1     -10.066  16.495  67.331  1.00  0.00    -0.279 C  
ENDROOT
BRANCH   2   3
HETATM    3  C   UNL     1      -8.707  16.098  67.861  1.00  0.00    -0.174 A  
HETATM    4  C   UNL     1      -8.438  14.721  67.819  1.00  0.00    -0.169 A  
HETATM    5  C   UNL     1      -7.306  14.170  68.425  1.00  0.00    -0.115 A  
HETATM    6  C   UNL     1      -6.393  15.010  69.052  1.00  0.00    -0.100 A  
HETATM    7  C   UNL     1      -6.611  16.398  69.041  1.00  0.00    -0.181 A  
HETATM    8  C   UNL     1      -7.754  16.969  68.432  1.00  0.00    -0.230 A  
BRANCH   5   9
HETATM    9  C   UNL     1      -7.240  12.683  68.470  1.00  0.00    -0.113 C  
HETATM   10  C   UNL     1      -6.082  11.954  67.843  1.00  0.00    -0.057 C  
BRANCH   9  11
HETATM   11  N   UNL     1      -8.223  12.075  69.073  1.00  0.00    -0.351 NA 
HETATM   12  H   UNL     1      -8.531  12.286  70.022  1.00  0.00     0.000 HD 
BRANCH  11  13
HETATM   13  O   UNL     1      -8.805  11.100  68.263  1.00  0.00    -0.142 OA 
BRANCH  13  14
HETATM   14  C   UNL     1      -9.768  10.406  69.047  1.00  0.00    -0.206 C  
BRANCH  14  15
HETATM   15  C   UNL     1      -9.054   9.309  69.775  1.00  0.00    -0.186 A  
HETATM   16  F   UNL     1      -5.868   5.621  69.505  1.00  0.00    -0.013 F  
HETATM   17  F   UNL     1      -7.031   6.251  67.796  1.00  0.00    -0.064 F  
HETATM   18  C   UNL     1      -9.385   9.000  71.086  1.00  0.00    -0.336 A  
HETATM   19  F   UNL     1      -5.379   7.479  68.482  1.00  0.00    -0.021 F  
HETATM   20  C   UNL     1      -8.682   8.010  71.765  1.00  0.00    -0.178 A  
HETATM   21  C   UNL     1      -8.094   8.533  69.125  1.00  0.00    -0.117 A  
HETATM   22  C   UNL     1      -7.600   7.318  71.181  1.00  0.00    -0.080 A  
HETATM   23  C   UNL     1      -6.422   6.720  68.926  1.00  0.00    -0.036 C  
HETATM   24  C   UNL     1      -7.377   7.516  69.795  1.00  0.00    -0.082 A  
BRANCH  22  25
HETATM   25  C   UNL     1      -6.693   6.434  72.050  1.00  0.00    -0.067 C  
HETATM   26  C   UNL     1      -5.311   7.085  72.299  1.00  0.00    -0.037 C  
HETATM   27  C   UNL     1      -5.415   8.317  73.194  1.00  0.00    -0.052 C  
HETATM   28  C   UNL     1      -5.977   7.947  74.558  1.00  0.00    -0.087 C  
HETATM   29  C   UNL     1      -7.284   7.169  74.470  1.00  0.00    -0.116 C  
HETATM   30  C   UNL     1      -7.246   6.026  73.442  1.00  0.00    -0.085 C  
ENDBRANCH  22  25
ENDBRANCH  14  15
ENDBRANCH  13  14
ENDBRANCH  11  13
ENDBRANCH   9  11
ENDBRANCH   5   9
BRANCH   8  31
HETATM   31  C   UNL     1      -7.986  18.471  68.528  1.00  0.00    -0.323 C  
BRANCH  31  32
HETATM   32  N   UNL     1      -7.207  19.313  67.588  1.00  0.00    -0.225 NA 
HETATM   33  O   UNL     1      -5.440  21.240  65.986  1.00  0.00    -0.222 OA 
HETATM   34  O   UNL     1      -6.269  21.256  63.894  1.00  0.00    -0.310 OA 
HETATM   35  C   UNL     1      -6.756  18.537  66.402  1.00  0.00    -0.207 C  
HETATM   36  C   UNL     1      -6.297  20.785  65.028  1.00  0.00    -0.251 C  
HETATM   37  C   UNL     1      -8.175  20.032  66.704  1.00  0.00    -0.314 C  
HETATM   38  C   UNL     1      -7.271  19.686  65.506  1.00  0.00    -0.246 C  
ENDBRANCH  31  32
ENDBRANCH   8  31
ENDBRANCH   2   3
TORSDOF 9
ENDMDL
MODEL      296
REMARK 921   NORMALIZED FREE ENERGY PREDICTED BY IDOCK:   -3.95 KCAL/MOL
REMARK 922        TOTAL FREE ENERGY PREDICTED BY IDOCK:   -7.46 KCAL/MOL
REMARK 923 INTER-LIGAND FREE ENERGY PREDICTED BY IDOCK:   -5.91 KCAL/MOL
REMARK 924 INTRA-LIGAND FREE ENERGY PREDICTED BY IDOCK:   -1.55 KCAL/MOL
REMARK 927      BINDING AFFINITY PREDICTED BY RF-SCORE:    0.00 PKD
ROOT
HETATM    1  C   UNL     1     -10.531  12.710  67.455  1.00  0.00    -0.233 C  
HETATM    2  C   UNL     1      -9.373  13.074  66.540  1.00  0.00    -0.220 C  
ENDROOT
BRANCH   2   3
HETATM    3  C   UNL     1      -8.030  13.019  67.233  1.00  0.00    -0.143 A  
HETATM    4  C   UNL     1      -7.686  11.762  67.751  1.00  0.00    -0.133 A  
HETATM    5  C   UNL     1      -6.567  11.579  68.567  1.00  0.00    -0.063 A  
HETATM    6  C   UNL     1      -5.742  12.662  68.842  1.00  0.00    -0.068 A  
HETATM    7  C   UNL     1      -6.032  13.914  68.273  1.00  0.00    -0.117 A  
HETATM    8  C   UNL     1      -7.163  14.113  67.446  1.00  0.00    -0.124 A  
BRANCH   5   9
HETATM    9  C   UNL     1      -6.425  10.239  69.202  1.00  0.00    -0.050 C  
HETATM   10  C   UNL     1      -5.172   9.885  69.958  1.00  0.00    -0.037 C  
BRANCH   9  11
HETATM   11  N   UNL     1      -7.429   9.419  69.062  1.00  0.00    -0.072 NA 
HETATM   12  H   UNL     1      -8.408   9.701  69.111  1.00  0.00     0.000 HD 
BRANCH  11  13
HETATM   13  O   UNL     1      -7.004   8.110  68.837  1.00  0.00    -0.059 OA 
BRANCH  13  14
HETATM   14  C   UNL     1      -8.004   7.459  68.064  1.00  0.00    -0.119 C  
BRANCH  14  15
HETATM   15  C   UNL     1      -9.163   7.176  68.970  1.00  0.00    -0.135 A  
HETATM   16  F   UNL     1     -10.808   4.737  72.864  1.00  0.00    -0.238 F  
HETATM   17  F   UNL     1      -9.189   3.984  71.648  1.00  0.00    -0.138 F  
HETATM   18  C   UNL     1     -10.428   7.662  68.671  1.00  0.00    -0.203 A  
HETATM   19  F   UNL     1      -8.840   5.658  72.985  1.00  0.00    -0.124 F  
HETATM   20  C   UNL     1     -11.485   7.430  69.545  1.00  0.00     0.182 A  
HETATM   21  C   UNL     1      -9.006   6.360  70.091  1.00  0.00    -0.154 A  
HETATM   22  C   UNL     1     -11.318   6.742  70.765  1.00  0.00    -0.374 A  
HETATM   23  C   UNL     1      -9.750   5.141  72.111  1.00  0.00    -0.162 C  
HETATM   24  C   UNL     1     -10.071   6.105  70.984  1.00  0.00    -0.231 A  
BRANCH  22  25
HETATM   25  C   UNL     1     -12.444   6.744  71.810  1.00  0.00    -0.394 C  
HETATM   26  C   UNL     1     -12.189   7.775  72.936  1.00  0.00     0.125 C  
HETATM   27  C   UNL     1     -12.296   9.211  72.430  1.00  0.00    -0.310 C  
HETATM   28  C   UNL     1     -13.689   9.490  71.887  1.00  0.00    -0.410 C  
HETATM   29  C   UNL     1     -14.141   8.464  70.855  1.00  0.00     0.150 C  
HETATM   30  C   UNL     1     -13.881   7.010  71.284  1.00  0.00    -0.222 C  
ENDBRANCH  22  25
ENDBRANCH  14  15
ENDBRANCH  13  14
ENDBRANCH  11  13
ENDBRANCH   9  11
ENDBRANCH   5   9
BRANCH   8  31
HETATM   31  C   UNL     1      -7.481  15.510  66.929  1.00  0.00    -0.082 C  
BRANCH  31  32
HETATM   32  N   UNL     1      -8.348  16.344  67.797  1.00  0.00    -0.164 NA 
HETATM   33  O   UNL     1     -10.349  17.713  69.674  1.00  0.00    -0.097 OA 
HETATM   34  O   UNL     1     -10.244  19.910  69.204  1.00  0.00    -0.407 OA 
HETATM   35  C   UNL     1      -7.572  17.408  68.488  1.00  0.00    -0.254 C  
HETATM   36  C   UNL     1      -9.806  18.778  69.020  1.00  0.00    -0.300 C  
HETATM   37  C   UNL     1      -8.970  17.403  66.943  1.00  0.00    -0.245 C  
HETATM   38  C   UNL     1      -8.655  18.421  68.055  1.00  0.00    -0.287 C  
ENDBRANCH  31  32
ENDBRANCH   8  31
ENDBRANCH   2   3
TORSDOF 9
ENDMDL
MODEL      297
REMARK 921   NORMALIZED FREE ENERGY PREDICTED BY IDOCK:   -3.93 KCAL/MOL
REMARK 922        TOTAL FREE ENERGY PREDICTED BY IDOCK:   -7.42 KCAL/MOL
REMARK 923 INTER-LIGAND FREE ENERGY PREDICTED BY IDOCK:   -6.60 KCAL/MOL
REMARK 924 INTRA-LIGAND FREE ENERGY PREDICTED BY IDOCK:   -0.83 KCAL/MOL
REMARK 927      BINDING AFFINITY PREDICTED BY RF-SCORE:    0.00 PKD
ROOT
HETATM    1  C   UNL     1      -6.025   8.859  73.603  1.00  0.00    -0.064 C  
HETATM    2  C   UNL     1      -5.305   8.655  72.280  1.00  0.00    -0.048 C  
ENDROOT
BRANCH   2   3
HETATM    3  C   UNL     1      -5.869   9.503  71.162  1.00  0.00    -0.075 A  
HETATM    4  C   UNL     1      -5.407  10.828  71.138  1.00  0.00    -0.078 A  
HETATM    5  C   UNL     1      -5.955  11.786  70.282  1.00  0.00    -0.155 A  
HETATM    6  C   UNL     1      -6.957  11.413  69.395  1.00  0.00    -0.092 A  
HETATM    7  C   UNL     1      -7.381  10.074  69.357  1.00  0.00    -0.100 A  
HETATM    8  C   UNL     1      -6.836   9.093  70.219  1.00  0.00    -0.055 A  
BRANCH   5   9
HETATM    9  C   UNL     1      -5.506  13.191  70.491  1.00  0.00    -0.159 C  
HETATM   10  C   UNL     1      -5.496  13.789  71.873  1.00  0.00    -0.193 C  
BRANCH   9  11
HETATM   11  N   UNL     1      -5.135  13.848  69.428  1.00  0.00    -0.083 NA 
HETATM   12  H   UNL     1      -4.279  14.400  69.367  1.00  0.00     0.000 HD 
BRANCH  11  13
HETATM   13  O   UNL     1      -6.047  13.704  68.383  1.00  0.00    -0.080 OA 
BRANCH  13  14
HETATM   14  C   UNL     1      -6.980  14.775  68.475  1.00  0.00    -0.108 C  
BRANCH  14  15
HETATM   15  C   UNL     1      -8.269  14.303  67.877  1.00  0.00    -0.156 A  
HETATM   16  F   UNL     1     -12.326  11.655  68.473  1.00  0.00    -0.326 F  
HETATM   17  F   UNL     1     -10.493  11.185  69.517  1.00  0.00    -0.239 F  
HETATM   18  C   UNL     1      -8.565  14.557  66.546  1.00  0.00     0.022 A  
HETATM   19  F   UNL     1     -11.664  12.908  70.126  1.00  0.00    -0.361 F  
HETATM   20  C   UNL     1      -9.786  14.152  66.016  1.00  0.00    -0.329 A  
HETATM   21  C   UNL     1      -9.164  13.539  68.628  1.00  0.00    -0.022 A  
HETATM   22  C   UNL     1     -10.774  13.518  66.797  1.00  0.00    -0.278 A  
HETATM   23  C   UNL     1     -11.225  12.230  69.027  1.00  0.00    -0.265 C  
HETATM   24  C   UNL     1     -10.404  13.111  68.104  1.00  0.00    -0.247 A  
BRANCH  22  25
HETATM   25  C   UNL     1     -12.194  13.334  66.242  1.00  0.00    -0.440 C  
HETATM   26  C   UNL     1     -12.703  14.602  65.516  1.00  0.00    -0.059 C  
HETATM   27  C   UNL     1     -11.943  14.860  64.218  1.00  0.00    -0.355 C  
HETATM   28  C   UNL     1     -12.120  13.700  63.249  1.00  0.00    -0.096 C  
HETATM   29  C   UNL     1     -11.785  12.350  63.873  1.00  0.00    -0.529 C  
HETATM   30  C   UNL     1     -12.410  12.148  65.263  1.00  0.00    -0.065 C  
ENDBRANCH  22  25
ENDBRANCH  14  15
ENDBRANCH  13  14
ENDBRANCH  11  13
ENDBRANCH   9  11
ENDBRANCH   5   9
BRANCH   8  31
HETATM   31  C   UNL     1      -7.396   7.677  70.197  1.00  0.00    -0.076 C  
BRANCH  31  32
HETATM   32  N   UNL     1      -8.522   7.407  71.124  1.00  0.00    -0.117 NA 
HETATM   33  O   UNL     1     -10.577   6.935  73.350  1.00  0.00    -0.291 OA 
HETATM   34  O   UNL     1     -12.245   5.746  72.419  1.00  0.00    -0.207 OA 
HETATM   35  C   UNL     1      -9.815   7.892  70.573  1.00  0.00    -0.186 C  
HETATM   36  C   UNL     1     -11.189   6.357  72.278  1.00  0.00    -0.276 C  
HETATM   37  C   UNL     1      -8.988   6.006  70.888  1.00  0.00    -0.143 C  
HETATM   38  C   UNL     1     -10.436   6.526  70.940  1.00  0.00    -0.263 C  
ENDBRANCH  31  32
ENDBRANCH   8  31
ENDBRANCH   2   3
TORSDOF 9
ENDMDL
MODEL      298
REMARK 921   NORMALIZED FREE ENERGY PREDICTED BY IDOCK:   -3.93 KCAL/MOL
REMARK 922        TOTAL FREE ENERGY PREDICTED BY IDOCK:   -7.42 KCAL/MOL
REMARK 923 INTER-LIGAND FREE ENERGY PREDICTED BY IDOCK:   -7.60 KCAL/MOL
REMARK 924 INTRA-LIGAND FREE ENERGY PREDICTED BY IDOCK:    0.18 KCAL/MOL
REMARK 927      BINDING AFFINITY PREDICTED BY RF-SCORE:    0.00 PKD
ROOT
HETATM    1  C   UNL     1      -9.826  10.494  63.010  1.00  0.00    -0.267 C  
HETATM    2  C   UNL     1      -8.983   9.868  64.109  1.00  0.00    -0.274 C  
ENDROOT
BRANCH   2   3
HETATM    3  C   UNL     1      -8.760  10.793  65.284  1.00  0.00    -0.183 A  
HETATM    4  C   UNL     1      -9.723  11.803  65.428  1.00  0.00    -0.242 A  
HETATM    5  C   UNL     1      -9.573  12.841  66.351  1.00  0.00    -0.254 A  
HETATM    6  C   UNL     1      -8.462  12.854  67.185  1.00  0.00    -0.179 A  
HETATM    7  C   UNL     1      -7.525  11.811  67.103  1.00  0.00    -0.149 A  
HETATM    8  C   UNL     1      -7.663  10.755  66.172  1.00  0.00    -0.149 A  
BRANCH   5   9
HETATM    9  C   UNL     1     -10.569  13.946  66.270  1.00  0.00    -0.289 C  
HETATM   10  C   UNL     1     -11.183  14.320  64.947  1.00  0.00    -0.381 C  
BRANCH   9  11
HETATM   11  N   UNL     1     -10.863  14.547  67.388  1.00  0.00    -0.285 NA 
HETATM   12  H   UNL     1     -11.131  15.530  67.455  1.00  0.00     0.000 HD 
BRANCH  11  13
HETATM   13  O   UNL     1     -10.769  13.688  68.482  1.00  0.00    -0.243 OA 
BRANCH  13  14
HETATM   14  C   UNL     1     -11.927  12.861  68.482  1.00  0.00    -0.234 C  
BRANCH  14  15
HETATM   15  C   UNL     1     -11.538  11.539  69.068  1.00  0.00    -0.383 A  
HETATM   16  F   UNL     1     -12.671   7.952  72.178  1.00  0.00    -0.304 F  
HETATM   17  F   UNL     1     -13.340   9.983  72.488  1.00  0.00    -0.466 F  
HETATM   18  C   UNL     1     -10.300  10.979  68.788  1.00  0.00    -0.217 A  
HETATM   19  F   UNL     1     -14.258   8.775  70.936  1.00  0.00    -0.298 F  
HETATM   20  C   UNL     1      -9.970   9.729  69.302  1.00  0.00    -0.201 A  
HETATM   21  C   UNL     1     -12.385  10.880  69.961  1.00  0.00    -0.385 A  
HETATM   22  C   UNL     1     -10.872   8.972  70.078  1.00  0.00    -0.247 A  
HETATM   23  C   UNL     1     -13.057   9.072  71.509  1.00  0.00    -0.335 C  
HETATM   24  C   UNL     1     -12.062   9.614  70.501  1.00  0.00    -0.198 A  
BRANCH  22  25
HETATM   25  C   UNL     1     -10.567   7.499  70.395  1.00  0.00    -0.236 C  
HETATM   26  C   UNL     1      -9.625   6.862  69.345  1.00  0.00    -0.147 C  
HETATM   27  C   UNL     1      -8.217   7.445  69.414  1.00  0.00    -0.131 C  
HETATM   28  C   UNL     1      -7.592   7.186  70.776  1.00  0.00    -0.089 C  
HETATM   29  C   UNL     1      -8.477   7.640  71.931  1.00  0.00    -0.128 C  
HETATM   30  C   UNL     1      -9.943   7.201  71.785  1.00  0.00    -0.186 C  
ENDBRANCH  22  25
ENDBRANCH  14  15
ENDBRANCH  13  14
ENDBRANCH  11  13
ENDBRANCH   9  11
ENDBRANCH   5   9
BRANCH   8  31
HETATM   31  C   UNL     1      -6.571   9.699  66.063  1.00  0.00    -0.079 C  
BRANCH  31  32
HETATM   32  N   UNL     1      -7.032   8.303  65.867  1.00  0.00    -0.064 NA 
HETATM   33  O   UNL     1      -8.374   5.572  65.488  1.00  0.00    -0.124 OA 
HETATM   34  O   UNL     1      -6.798   4.032  65.939  1.00  0.00    -0.051 OA 
HETATM   35  C   UNL     1      -6.155   7.563  64.921  1.00  0.00    -0.038 C  
HETATM   36  C   UNL     1      -7.094   5.215  65.788  1.00  0.00    -0.068 C  
HETATM   37  C   UNL     1      -6.472   7.472  66.978  1.00  0.00    -0.060 C  
HETATM   38  C   UNL     1      -6.113   6.398  65.935  1.00  0.00    -0.033 C  
ENDBRANCH  31  32
ENDBRANCH   8  31
ENDBRANCH   2   3
TORSDOF 9
ENDMDL
MODEL      299
REMARK 921   NORMALIZED FREE ENERGY PREDICTED BY IDOCK:   -3.90 KCAL/MOL
REMARK 922        TOTAL FREE ENERGY PREDICTED BY IDOCK:   -7.39 KCAL/MOL
REMARK 923 INTER-LIGAND FREE ENERGY PREDICTED BY IDOCK:   -5.93 KCAL/MOL
REMARK 924 INTRA-LIGAND FREE ENERGY PREDICTED BY IDOCK:   -1.46 KCAL/MOL
REMARK 927      BINDING AFFINITY PREDICTED BY RF-SCORE:    0.00 PKD
ROOT
HETATM    1  C   UNL     1     -11.406  12.922  65.010  1.00  0.00    -0.338 C  
HETATM    2  C   UNL     1     -11.375  12.239  66.367  1.00  0.00    -0.405 C  
ENDROOT
BRANCH   2   3
HETATM    3  C   UNL     1     -10.360  12.843  67.311  1.00  0.00    -0.234 A  
HETATM    4  C   UNL     1      -9.027  12.742  66.885  1.00  0.00    -0.213 A  
HETATM    5  C   UNL     1      -7.958  13.091  67.713  1.00  0.00    -0.164 A  
HETATM    6  C   UNL     1      -8.216  13.596  68.981  1.00  0.00     0.243 A  
HETATM    7  C   UNL     1      -9.547  13.771  69.397  1.00  0.00     0.641 A  
HETATM    8  C   UNL     1     -10.639  13.420  68.570  1.00  0.00    -0.264 A  
BRANCH   5   9
HETATM    9  C   UNL     1      -6.596  12.758  67.209  1.00  0.00    -0.075 C  
HETATM   10  C   UNL     1      -5.392  13.497  67.726  1.00  0.00    -0.059 C  
BRANCH   9  11
HETATM   11  N   UNL     1      -6.522  11.810  66.317  1.00  0.00    -0.413 NA 
HETATM   12  H   UNL     1      -6.175  11.945  65.367  1.00  0.00     0.000 HD 
BRANCH  11  13
HETATM   13  O   UNL     1      -6.974  10.589  66.816  1.00  0.00    -0.093 OA 
BRANCH  13  14
HETATM   14  C   UNL     1      -6.644  10.540  68.199  1.00  0.00    -0.063 C  
BRANCH  14  15
HETATM   15  C   UNL     1      -7.660   9.673  68.876  1.00  0.00    -0.076 A  
HETATM   16  F   UNL     1     -11.354   6.527  68.348  1.00  0.00    -0.335 F  
HETATM   17  F   UNL     1     -10.902   8.017  66.849  1.00  0.00    -0.400 F  
HETATM   18  C   UNL     1      -7.835   9.732  70.251  1.00  0.00    -0.190 A  
HETATM   19  F   UNL     1      -9.609   6.288  67.068  1.00  0.00    -0.127 F  
HETATM   20  C   UNL     1      -8.751   8.888  70.872  1.00  0.00    -0.256 A  
HETATM   21  C   UNL     1      -8.498   8.844  68.129  1.00  0.00    -0.129 A  
HETATM   22  C   UNL     1      -9.497   7.929  70.156  1.00  0.00    -0.160 A  
HETATM   23  C   UNL     1     -10.320   7.207  67.783  1.00  0.00    -0.202 C  
HETATM   24  C   UNL     1      -9.441   7.988  68.742  1.00  0.00    -0.147 A  
BRANCH  22  25
HETATM   25  C   UNL     1     -10.288   6.850  70.911  1.00  0.00    -0.218 C  
HETATM   26  C   UNL     1      -9.777   5.424  70.592  1.00  0.00    -0.241 C  
HETATM   27  C   UNL     1      -8.383   5.177  71.161  1.00  0.00    -0.121 C  
HETATM   28  C   UNL     1      -8.387   5.311  72.676  1.00  0.00    -0.114 C  
HETATM   29  C   UNL     1      -8.997   6.624  73.154  1.00  0.00    -0.140 C  
HETATM   30  C   UNL     1     -10.324   6.969  72.460  1.00  0.00    -0.230 C  
ENDBRANCH  22  25
ENDBRANCH  14  15
ENDBRANCH  13  14
ENDBRANCH  11  13
ENDBRANCH   9  11
ENDBRANCH   5   9
BRANCH   8  31
HETATM   31  C   UNL     1     -12.060  13.545  69.105  1.00  0.00    -0.288 C  
BRANCH  31  32
HETATM   32  N   UNL     1     -12.654  12.310  69.671  1.00  0.00     0.226 NA 
HETATM   33  O   UNL     1     -14.225   9.853  70.620  1.00  0.00     0.375 OA 
HETATM   34  O   UNL     1     -13.182   9.122  72.474  1.00  0.00    -0.444 OA 
HETATM   35  C   UNL     1     -11.644  11.227  69.805  1.00  0.00    -0.333 C  
HETATM   36  C   UNL     1     -13.205   9.899  71.523  1.00  0.00    -0.408 C  
HETATM   37  C   UNL     1     -12.657  12.442  71.161  1.00  0.00    -0.251 C  
HETATM   38  C   UNL     1     -12.150  10.991  71.246  1.00  0.00    -0.280 C  
ENDBRANCH  31  32
ENDBRANCH   8  31
ENDBRANCH   2   3
TORSDOF 9
ENDMDL
MODEL      300
REMARK 921   NORMALIZED FREE ENERGY PREDICTED BY IDOCK:   -3.90 KCAL/MOL
REMARK 922        TOTAL FREE ENERGY PREDICTED BY IDOCK:   -7.38 KCAL/MOL
REMARK 923 INTER-LIGAND FREE ENERGY PREDICTED BY IDOCK:   -5.12 KCAL/MOL
REMARK 924 INTRA-LIGAND FREE ENERGY PREDICTED BY IDOCK:   -2.26 KCAL/MOL
REMARK 927      BINDING AFFINITY PREDICTED BY RF-SCORE:    0.00 PKD
ROOT
HETATM    1  C   UNL     1      -6.202   8.068  71.492  1.00  0.00    -0.036 C  
HETATM    2  C   UNL     1      -7.328   9.056  71.233  1.00  0.00    -0.093 C  
ENDROOT
BRANCH   2   3
HETATM    3  C   UNL     1      -8.028   8.823  69.914  1.00  0.00    -0.106 A  
HETATM    4  C   UNL     1      -7.189   8.848  68.790  1.00  0.00    -0.075 A  
HETATM    5  C   UNL     1      -7.695   8.824  67.488  1.00  0.00    -0.101 A  
HETATM    6  C   UNL     1      -9.067   8.727  67.293  1.00  0.00    -0.151 A  
HETATM    7  C   UNL     1      -9.917   8.630  68.408  1.00  0.00    -0.204 A  
HETATM    8  C   UNL     1      -9.418   8.655  69.731  1.00  0.00    -0.166 A  
BRANCH   5   9
HETATM    9  C   UNL     1      -6.710   9.046  66.393  1.00  0.00    -0.075 C  
HETATM   10  C   UNL     1      -6.872   8.346  65.070  1.00  0.00    -0.067 C  
BRANCH   9  11
HETATM   11  N   UNL     1      -5.729   9.865  66.650  1.00  0.00    -0.049 NA 
HETATM   12  H   UNL     1      -4.831   9.576  67.038  1.00  0.00     0.000 HD 
BRANCH  11  13
HETATM   13  O   UNL     1      -6.053  11.182  66.330  1.00  0.00    -0.128 OA 
BRANCH  13  14
HETATM   14  C   UNL     1      -5.816  11.978  67.486  1.00  0.00    -0.109 C  
BRANCH  14  15
HETATM   15  C   UNL     1      -7.038  12.812  67.720  1.00  0.00    -0.132 A  
HETATM   16  F   UNL     1      -8.833  17.183  68.942  1.00  0.00    -0.262 F  
HETATM   17  F   UNL     1      -6.895  16.514  69.626  1.00  0.00    -0.218 F  
HETATM   18  C   UNL     1      -8.298  12.232  67.724  1.00  0.00    -0.162 A  
HETATM   19  F   UNL     1      -7.156  17.111  67.556  1.00  0.00    -0.148 F  
HETATM   20  C   UNL     1      -9.428  13.026  67.897  1.00  0.00    -0.219 A  
HETATM   21  C   UNL     1      -6.925  14.173  68.008  1.00  0.00    -0.149 A  
HETATM   22  C   UNL     1      -9.350  14.428  68.032  1.00  0.00    -0.200 A  
HETATM   23  C   UNL     1      -7.761  16.432  68.572  1.00  0.00    -0.195 C  
HETATM   24  C   UNL     1      -8.061  14.993  68.196  1.00  0.00    -0.131 A  
BRANCH  22  25
HETATM   25  C   UNL     1     -10.625  15.280  67.951  1.00  0.00    -0.260 C  
HETATM   26  C   UNL     1     -10.571  16.299  66.787  1.00  0.00    -0.257 C  
HETATM   27  C   UNL     1     -10.626  15.612  65.426  1.00  0.00    -0.436 C  
HETATM   28  C   UNL     1     -11.923  14.833  65.266  1.00  0.00    -0.240 C  
HETATM   29  C   UNL     1     -12.186  13.875  66.422  1.00  0.00    -0.487 C  
HETATM   30  C   UNL     1     -11.968  14.512  67.804  1.00  0.00    -0.345 C  
ENDBRANCH  22  25
ENDBRANCH  14  15
ENDBRANCH  13  14
ENDBRANCH  11  13
ENDBRANCH   9  11
ENDBRANCH   5   9
BRANCH   8  31
HETATM   31  C   UNL     1     -10.391   8.637  70.903  1.00  0.00    -0.211 C  
BRANCH  31  32
HETATM   32  N   UNL     1     -11.018   9.936  71.250  1.00  0.00    -0.260 NA 
HETATM   33  O   UNL     1     -12.060  12.621  72.301  1.00  0.00     1.066 OA 
HETATM   34  O   UNL     1     -14.038  12.964  71.286  1.00  0.00     0.805 OA 
HETATM   35  C   UNL     1     -11.314  10.743  70.037  1.00  0.00    -0.319 C  
HETATM   36  C   UNL     1     -13.025  12.280  71.401  1.00  0.00    -0.256 C  
HETATM   37  C   UNL     1     -12.487   9.709  71.413  1.00  0.00    -0.373 C  
HETATM   38  C   UNL     1     -12.731  10.993  70.600  1.00  0.00    -0.375 C  
ENDBRANCH  31  32
ENDBRANCH   8  31
ENDBRANCH   2   3
TORSDOF 9
ENDMDL
MODEL      301
REMARK 921   NORMALIZED FREE ENERGY PREDICTED BY IDOCK:   -3.88 KCAL/MOL
REMARK 922        TOTAL FREE ENERGY PREDICTED BY IDOCK:   -7.35 KCAL/MOL
REMARK 923 INTER-LIGAND FREE ENERGY PREDICTED BY IDOCK:   -6.84 KCAL/MOL
REMARK 924 INTRA-LIGAND FREE ENERGY PREDICTED BY IDOCK:   -0.51 KCAL/MOL
REMARK 927      BINDING AFFINITY PREDICTED BY RF-SCORE:    0.00 PKD
ROOT
HETATM    1  C   UNL     1      -7.690   9.388  64.615  1.00  0.00    -0.117 C  
HETATM    2  C   UNL     1      -8.295   8.139  65.236  1.00  0.00    -0.160 C  
ENDROOT
BRANCH   2   3
HETATM    3  C   UNL     1      -8.739   8.344  66.667  1.00  0.00    -0.144 A  
HETATM    4  C   UNL     1      -8.244   9.507  67.275  1.00  0.00    -0.114 A  
HETATM    5  C   UNL     1      -8.414   9.758  68.638  1.00  0.00    -0.116 A  
HETATM    6  C   UNL     1      -9.132   8.855  69.412  1.00  0.00    -0.145 A  
HETATM    7  C   UNL     1      -9.695   7.720  68.804  1.00  0.00    -0.157 A  
HETATM    8  C   UNL     1      -9.529   7.453  67.425  1.00  0.00    -0.170 A  
BRANCH   5   9
HETATM    9  C   UNL     1      -7.679  10.931  69.191  1.00  0.00    -0.127 C  
HETATM   10  C   UNL     1      -6.438  10.729  70.018  1.00  0.00    -0.151 C  
BRANCH   9  11
HETATM   11  N   UNL     1      -8.170  12.107  68.916  1.00  0.00    -0.352 NA 
HETATM   12  H   UNL     1      -9.134  12.270  68.627  1.00  0.00     0.000 HD 
BRANCH  11  13
HETATM   13  O   UNL     1      -7.218  13.115  69.067  1.00  0.00    -0.083 OA 
BRANCH  13  14
HETATM   14  C   UNL     1      -6.812  13.523  67.765  1.00  0.00    -0.163 C  
BRANCH  14  15
HETATM   15  C   UNL     1      -7.105  14.986  67.638  1.00  0.00    -0.206 A  
HETATM   16  F   UNL     1     -10.514  18.449  67.180  1.00  0.00    -0.352 F  
HETATM   17  F   UNL     1     -10.834  16.433  66.470  1.00  0.00    -0.300 F  
HETATM   18  C   UNL     1      -6.076  15.900  67.468  1.00  0.00    -0.174 A  
HETATM   19  F   UNL     1     -10.869  16.839  68.601  1.00  0.00    -0.298 F  
HETATM   20  C   UNL     1      -6.359  17.260  67.397  1.00  0.00    -0.171 A  
HETATM   21  C   UNL     1      -8.422  15.448  67.616  1.00  0.00    -0.173 A  
HETATM   22  C   UNL     1      -7.669  17.765  67.532  1.00  0.00    -0.214 A  
HETATM   23  C   UNL     1     -10.208  17.151  67.450  1.00  0.00    -0.321 C  
HETATM   24  C   UNL     1      -8.729  16.825  67.534  1.00  0.00    -0.206 A  
BRANCH  22  25
HETATM   25  C   UNL     1      -7.897  19.274  67.714  1.00  0.00    -0.310 C  
HETATM   26  C   UNL     1      -6.665  19.978  68.332  1.00  0.00    -0.337 C  
HETATM   27  C   UNL     1      -5.481  20.003  67.370  1.00  0.00    -0.182 C  
HETATM   28  C   UNL     1      -5.831  20.767  66.102  1.00  0.00    -0.260 C  
HETATM   29  C   UNL     1      -7.115  20.272  65.446  1.00  0.00    -0.263 C  
HETATM   30  C   UNL     1      -8.273  20.079  66.440  1.00  0.00    -0.338 C  
ENDBRANCH  22  25
ENDBRANCH  14  15
ENDBRANCH  13  14
ENDBRANCH  11  13
ENDBRANCH   9  11
ENDBRANCH   5   9
BRANCH   8  31
HETATM   31  C   UNL     1     -10.084   6.162  66.836  1.00  0.00    -0.183 C  
BRANCH  31  32
HETATM   32  N   UNL     1      -9.272   4.942  67.060  1.00  0.00    -0.119 NA 
HETATM   33  O   UNL     1      -7.501   2.583  67.900  1.00  0.00    -0.055 OA 
HETATM   34  O   UNL     1      -6.962   1.500  66.003  1.00  0.00    -0.039 OA 
HETATM   35  C   UNL     1      -9.910   3.740  66.460  1.00  0.00    -0.039 C  
HETATM   36  C   UNL     1      -7.603   2.391  66.554  1.00  0.00    -0.071 C  
HETATM   37  C   UNL     1      -8.230   4.878  65.988  1.00  0.00    -0.112 C  
HETATM   38  C   UNL     1      -8.545   3.379  65.833  1.00  0.00    -0.118 C  
ENDBRANCH  31  32
ENDBRANCH   8  31
ENDBRANCH   2   3
TORSDOF 9
ENDMDL
MODEL      302
REMARK 921   NORMALIZED FREE ENERGY PREDICTED BY IDOCK:   -3.87 KCAL/MOL
REMARK 922        TOTAL FREE ENERGY PREDICTED BY IDOCK:   -7.33 KCAL/MOL
REMARK 923 INTER-LIGAND FREE ENERGY PREDICTED BY IDOCK:   -6.43 KCAL/MOL
REMARK 924 INTRA-LIGAND FREE ENERGY PREDICTED BY IDOCK:   -0.90 KCAL/MOL
REMARK 927      BINDING AFFINITY PREDICTED BY RF-SCORE:    0.00 PKD
ROOT
HETATM    1  C   UNL     1     -13.018   9.246  72.326  1.00  0.00    -0.488 C  
HETATM    2  C   UNL     1     -12.428  10.484  71.672  1.00  0.00    -0.443 C  
ENDROOT
BRANCH   2   3
HETATM    3  C   UNL     1     -11.144  10.204  70.924  1.00  0.00    -0.326 A  
HETATM    4  C   UNL     1     -10.318   9.237  71.516  1.00  0.00    -0.364 A  
HETATM    5  C   UNL     1      -9.024   8.985  71.052  1.00  0.00    -0.304 A  
HETATM    6  C   UNL     1      -8.552   9.679  69.945  1.00  0.00    -0.218 A  
HETATM    7  C   UNL     1      -9.392  10.600  69.297  1.00  0.00    -0.136 A  
HETATM    8  C   UNL     1     -10.703  10.866  69.757  1.00  0.00    -0.193 A  
BRANCH   5   9
HETATM    9  C   UNL     1      -8.190   8.073  71.883  1.00  0.00    -0.126 C  
HETATM   10  C   UNL     1      -8.356   8.043  73.379  1.00  0.00    -0.278 C  
BRANCH   9  11
HETATM   11  N   UNL     1      -7.334   7.325  71.246  1.00  0.00    -0.076 NA 
HETATM   12  H   UNL     1      -6.345   7.551  71.141  1.00  0.00     0.000 HD 
BRANCH  11  13
HETATM   13  O   UNL     1      -7.932   6.177  70.726  1.00  0.00    -0.110 OA 
BRANCH  13  14
HETATM   14  C   UNL     1      -6.963   5.510  69.926  1.00  0.00    -0.061 C  
BRANCH  14  15
HETATM   15  C   UNL     1      -7.030   6.099  68.551  1.00  0.00    -0.076 A  
HETATM   16  F   UNL     1      -8.751   5.678  64.003  1.00  0.00    -0.107 F  
HETATM   17  F   UNL     1      -8.414   3.952  65.258  1.00  0.00    -0.108 F  
HETATM   18  C   UNL     1      -6.248   7.193  68.212  1.00  0.00    -0.035 A  
HETATM   19  F   UNL     1     -10.102   5.256  65.656  1.00  0.00    -0.159 F  
HETATM   20  C   UNL     1      -6.354   7.758  66.945  1.00  0.00    -0.054 A  
HETATM   21  C   UNL     1      -7.825   5.512  67.565  1.00  0.00    -0.101 A  
HETATM   22  C   UNL     1      -7.267   7.281  65.982  1.00  0.00    -0.074 A  
HETATM   23  C   UNL     1      -8.786   5.266  65.299  1.00  0.00    -0.143 C  
HETATM   24  C   UNL     1      -7.937   6.066  66.269  1.00  0.00    -0.106 A  
BRANCH  22  25
HETATM   25  C   UNL     1      -7.536   8.095  64.707  1.00  0.00    -0.101 C  
HETATM   26  C   UNL     1      -8.950   8.725  64.706  1.00  0.00    -0.016 C  
HETATM   27  C   UNL     1      -9.085   9.824  65.755  1.00  0.00    -0.221 C  
HETATM   28  C   UNL     1      -8.103  10.954  65.484  1.00  0.00    -0.025 C  
HETATM   29  C   UNL     1      -6.669  10.466  65.319  1.00  0.00    -0.100 C  
HETATM   30  C   UNL     1      -6.541   9.246  64.393  1.00  0.00    -0.086 C  
ENDBRANCH  22  25
ENDBRANCH  14  15
ENDBRANCH  13  14
ENDBRANCH  11  13
ENDBRANCH   9  11
ENDBRANCH   5   9
BRANCH   8  31
HETATM   31  C   UNL     1     -11.538  11.940  69.072  1.00  0.00    -0.317 C  
BRANCH  31  32
HETATM   32  N   UNL     1     -10.832  12.775  68.071  1.00  0.00    -0.225 NA 
HETATM   33  O   UNL     1      -9.527  14.240  65.714  1.00  0.00    -0.203 OA 
HETATM   34  O   UNL     1      -7.878  15.493  66.592  1.00  0.00    -0.194 OA 
HETATM   35  C   UNL     1     -10.854  14.215  68.444  1.00  0.00    -0.254 C  
HETATM   36  C   UNL     1      -8.833  14.742  66.774  1.00  0.00    -0.252 C  
HETATM   37  C   UNL     1      -9.372  12.750  68.399  1.00  0.00    -0.143 C  
HETATM   38  C   UNL     1      -9.337  14.270  68.154  1.00  0.00    -0.206 C  
ENDBRANCH  31  32
ENDBRANCH   8  31
ENDBRANCH   2   3
TORSDOF 9
ENDMDL
MODEL      303
REMARK 921   NORMALIZED FREE ENERGY PREDICTED BY IDOCK:   -3.82 KCAL/MOL
REMARK 922        TOTAL FREE ENERGY PREDICTED BY IDOCK:   -7.26 KCAL/MOL
REMARK 923 INTER-LIGAND FREE ENERGY PREDICTED BY IDOCK:   -6.25 KCAL/MOL
REMARK 924 INTRA-LIGAND FREE ENERGY PREDICTED BY IDOCK:   -1.01 KCAL/MOL
REMARK 927      BINDING AFFINITY PREDICTED BY RF-SCORE:    0.00 PKD
ROOT
HETATM    1  C   UNL     1     -10.265  10.450  69.387  1.00  0.00    -0.257 C  
HETATM    2  C   UNL     1     -11.049  10.300  68.094  1.00  0.00    -0.324 C  
ENDROOT
BRANCH   2   3
HETATM    3  C   UNL     1     -10.164  10.220  66.871  1.00  0.00    -0.286 A  
HETATM    4  C   UNL     1      -9.636   8.947  66.609  1.00  0.00    -0.281 A  
HETATM    5  C   UNL     1      -8.667   8.737  65.625  1.00  0.00    -0.215 A  
HETATM    6  C   UNL     1      -8.242   9.807  64.849  1.00  0.00    -0.142 A  
HETATM    7  C   UNL     1      -8.813  11.075  65.050  1.00  0.00    -0.093 A  
HETATM    8  C   UNL     1      -9.793  11.303  66.044  1.00  0.00    -0.267 A  
BRANCH   5   9
HETATM    9  C   UNL     1      -8.056   7.379  65.580  1.00  0.00    -0.129 C  
HETATM   10  C   UNL     1      -6.771   7.147  64.832  1.00  0.00    -0.047 C  
BRANCH   9  11
HETATM   11  N   UNL     1      -8.691   6.433  66.214  1.00  0.00    -0.139 NA 
HETATM   12  H   UNL     1      -9.706   6.331  66.219  1.00  0.00     0.000 HD 
BRANCH  11  13
HETATM   13  O   UNL     1      -7.817   5.579  66.885  1.00  0.00    -0.099 OA 
BRANCH  13  14
HETATM   14  C   UNL     1      -7.502   6.178  68.136  1.00  0.00    -0.090 C  
BRANCH  14  15
HETATM   15  C   UNL     1      -8.725   6.097  68.997  1.00  0.00    -0.124 A  
HETATM   16  F   UNL     1     -10.986   3.837  72.685  1.00  0.00    -0.202 F  
HETATM   17  F   UNL     1      -9.524   2.828  71.455  1.00  0.00    -0.166 F  
HETATM   18  C   UNL     1      -9.846   6.861  68.706  1.00  0.00    -0.149 A  
HETATM   19  F   UNL     1      -8.871   4.303  72.907  1.00  0.00    -0.101 F  
HETATM   20  C   UNL     1     -10.958   6.809  69.540  1.00  0.00    -0.325 A  
HETATM   21  C   UNL     1      -8.784   5.199  70.064  1.00  0.00    -0.123 A  
HETATM   22  C   UNL     1     -10.983   6.029  70.715  1.00  0.00    -0.364 A  
HETATM   23  C   UNL     1      -9.841   4.049  71.983  1.00  0.00    -0.172 C  
HETATM   24  C   UNL     1      -9.910   5.126  70.916  1.00  0.00    -0.266 A  
BRANCH  22  25
HETATM   25  C   UNL     1     -12.118   6.209  71.735  1.00  0.00    -0.169 C  
HETATM   26  C   UNL     1     -11.665   7.027  72.969  1.00  0.00     0.155 C  
HETATM   27  C   UNL     1     -11.391   8.486  72.616  1.00  0.00    -0.248 C  
HETATM   28  C   UNL     1     -12.647   9.158  72.083  1.00  0.00    -0.451 C  
HETATM   29  C   UNL     1     -13.294   8.385  70.939  1.00  0.00     0.260 C  
HETATM   30  C   UNL     1     -13.420   6.878  71.216  1.00  0.00    -0.177 C  
ENDBRANCH  22  25
ENDBRANCH  14  15
ENDBRANCH  13  14
ENDBRANCH  11  13
ENDBRANCH   9  11
ENDBRANCH   5   9
BRANCH   8  31
HETATM   31  C   UNL     1     -10.313  12.715  66.280  1.00  0.00    -0.252 C  
BRANCH  31  32
HETATM   32  N   UNL     1      -9.285  13.753  66.539  1.00  0.00    -0.233 NA 
HETATM   33  O   UNL     1      -7.212  16.009  66.671  1.00  0.00    -0.169 OA 
HETATM   34  O   UNL     1      -5.948  15.590  68.483  1.00  0.00    -0.091 OA 
HETATM   35  C   UNL     1      -9.407  14.317  67.909  1.00  0.00    -0.198 C  
HETATM   36  C   UNL     1      -6.921  15.295  67.795  1.00  0.00    -0.165 C  
HETATM   37  C   UNL     1      -8.032  13.061  66.974  1.00  0.00    -0.004 C  
HETATM   38  C   UNL     1      -7.884  14.122  68.080  1.00  0.00    -0.146 C  
ENDBRANCH  31  32
ENDBRANCH   8  31
ENDBRANCH   2   3
TORSDOF 9
ENDMDL
MODEL      304
REMARK 921   NORMALIZED FREE ENERGY PREDICTED BY IDOCK:   -3.76 KCAL/MOL
REMARK 922        TOTAL FREE ENERGY PREDICTED BY IDOCK:   -7.16 KCAL/MOL
REMARK 923 INTER-LIGAND FREE ENERGY PREDICTED BY IDOCK:   -5.74 KCAL/MOL
REMARK 924 INTRA-LIGAND FREE ENERGY PREDICTED BY IDOCK:   -1.42 KCAL/MOL
REMARK 927      BINDING AFFINITY PREDICTED BY RF-SCORE:    0.00 PKD
ROOT
HETATM    1  C   UNL     1     -13.664  14.943  71.424  1.00  0.00    -0.527 C  
HETATM    2  C   UNL     1     -13.164  13.562  71.815  1.00  0.00    -0.490 C  
ENDROOT
BRANCH   2   3
HETATM    3  C   UNL     1     -12.433  12.857  70.695  1.00  0.00    -0.333 A  
HETATM    4  C   UNL     1     -11.644  13.693  69.890  1.00  0.00    -0.281 A  
HETATM    5  C   UNL     1     -11.045  13.236  68.714  1.00  0.00    -0.303 A  
HETATM    6  C   UNL     1     -11.193  11.904  68.348  1.00  0.00    -0.312 A  
HETATM    7  C   UNL     1     -11.920  11.036  69.180  1.00  0.00    -0.394 A  
HETATM    8  C   UNL     1     -12.535  11.486  70.373  1.00  0.00    -0.324 A  
BRANCH   5   9
HETATM    9  C   UNL     1     -10.395  14.269  67.859  1.00  0.00    -0.233 C  
HETATM   10  C   UNL     1     -10.978  14.621  66.517  1.00  0.00    -0.318 C  
BRANCH   9  11
HETATM   11  N   UNL     1      -9.321  14.830  68.339  1.00  0.00    -0.191 NA 
HETATM   12  H   UNL     1      -9.325  15.539  69.072  1.00  0.00     0.000 HD 
BRANCH  11  13
HETATM   13  O   UNL     1      -8.165  14.343  67.730  1.00  0.00    -0.144 OA 
BRANCH  13  14
HETATM   14  C   UNL     1      -7.226  14.050  68.758  1.00  0.00    -0.113 C  
BRANCH  14  15
HETATM   15  C   UNL     1      -7.099  12.560  68.843  1.00  0.00    -0.073 A  
HETATM   16  F   UNL     1      -6.841   8.333  66.417  1.00  0.00    -0.061 F  
HETATM   17  F   UNL     1      -7.857  10.056  65.601  1.00  0.00    -0.116 F  
HETATM   18  C   UNL     1      -7.160  11.915  70.070  1.00  0.00     0.738 A  
HETATM   19  F   UNL     1      -5.688  10.020  65.667  1.00  0.00    -0.049 F  
HETATM   20  C   UNL     1      -6.996  10.535  70.139  1.00  0.00    -0.119 A  
HETATM   21  C   UNL     1      -6.990  11.788  67.685  1.00  0.00    -0.103 A  
HETATM   22  C   UNL     1      -6.725   9.751  68.998  1.00  0.00    -0.049 A  
HETATM   23  C   UNL     1      -6.800   9.692  66.386  1.00  0.00    -0.084 C  
HETATM   24  C   UNL     1      -6.832  10.385  67.735  1.00  0.00    -0.074 A  
BRANCH  22  25
HETATM   25  C   UNL     1      -6.290   8.286  69.157  1.00  0.00    -0.039 C  
HETATM   26  C   UNL     1      -6.138   7.883  70.644  1.00  0.00    -0.033 C  
HETATM   27  C   UNL     1      -7.483   7.839  71.363  1.00  0.00    -0.076 C  
HETATM   28  C   UNL     1      -8.404   6.811  70.723  1.00  0.00    -0.128 C  
HETATM   29  C   UNL     1      -8.544   6.997  69.217  1.00  0.00    -0.136 C  
HETATM   30  C   UNL     1      -7.201   7.214  68.500  1.00  0.00    -0.094 C  
ENDBRANCH  22  25
ENDBRANCH  14  15
ENDBRANCH  13  14
ENDBRANCH  11  13
ENDBRANCH   9  11
ENDBRANCH   5   9
BRANCH   8  31
HETATM   31  C   UNL     1     -13.387  10.524  71.190  1.00  0.00    -0.153 C  
BRANCH  31  32
HETATM   32  N   UNL     1     -12.978   9.100  71.154  1.00  0.00    -0.234 NA 
HETATM   33  O   UNL     1     -12.251   6.159  70.678  1.00  0.00     0.061 OA 
HETATM   34  O   UNL     1     -12.112   5.212  72.714  1.00  0.00    -0.132 OA 
HETATM   35  C   UNL     1     -11.770   8.855  71.987  1.00  0.00    -0.367 C  
HETATM   36  C   UNL     1     -12.262   6.227  72.039  1.00  0.00    -0.215 C  
HETATM   37  C   UNL     1     -13.786   8.363  72.175  1.00  0.00    -0.333 C  
HETATM   38  C   UNL     1     -12.496   7.642  72.610  1.00  0.00     0.096 C  
ENDBRANCH  31  32
ENDBRANCH   8  31
ENDBRANCH   2   3
TORSDOF 9
ENDMDL
MODEL      305
REMARK 921   NORMALIZED FREE ENERGY PREDICTED BY IDOCK:   -3.69 KCAL/MOL
REMARK 922        TOTAL FREE ENERGY PREDICTED BY IDOCK:   -7.07 KCAL/MOL
REMARK 923 INTER-LIGAND FREE ENERGY PREDICTED BY IDOCK:   -6.06 KCAL/MOL
REMARK 924 INTRA-LIGAND FREE ENERGY PREDICTED BY IDOCK:   -1.00 KCAL/MOL
REMARK 927      BINDING AFFINITY PREDICTED BY RF-SCORE:    0.00 PKD
ROOT
HETATM    1  C   UNL     1     -12.105  13.076  64.491  1.00  0.00    -0.468 C  
HETATM    2  C   UNL     1     -11.952  11.870  65.404  1.00  0.00    -0.054 C  
ENDROOT
BRANCH   2   3
HETATM    3  C   UNL     1     -10.599  11.802  66.074  1.00  0.00    -0.302 A  
HETATM    4  C   UNL     1      -9.571  11.283  65.272  1.00  0.00    -0.265 A  
HETATM    5  C   UNL     1      -8.306  10.991  65.789  1.00  0.00    -0.092 A  
HETATM    6  C   UNL     1      -8.038  11.262  67.125  1.00  0.00    -0.150 A  
HETATM    7  C   UNL     1      -9.034  11.848  67.924  1.00  0.00    -0.179 A  
HETATM    8  C   UNL     1     -10.319  12.147  67.414  1.00  0.00    -0.220 A  
BRANCH   5   9
HETATM    9  C   UNL     1      -7.372  10.271  64.879  1.00  0.00    -0.110 C  
HETATM   10  C   UNL     1      -5.901  10.208  65.194  1.00  0.00    -0.117 C  
BRANCH   9  11
HETATM   11  N   UNL     1      -7.899   9.716  63.824  1.00  0.00    -0.131 NA 
HETATM   12  H   UNL     1      -7.954  10.165  62.909  1.00  0.00     0.000 HD 
BRANCH  11  13
HETATM   13  O   UNL     1      -8.378   8.435  64.095  1.00  0.00    -0.153 OA 
BRANCH  13  14
HETATM   14  C   UNL     1      -7.261   7.617  64.421  1.00  0.00    -0.077 C  
BRANCH  14  15
HETATM   15  C   UNL     1      -7.538   6.983  65.750  1.00  0.00    -0.094 A  
HETATM   16  F   UNL     1     -10.892   5.165  68.794  1.00  0.00    -0.201 F  
HETATM   17  F   UNL     1     -11.380   6.681  67.334  1.00  0.00    -0.405 F  
HETATM   18  C   UNL     1      -6.533   6.869  66.700  1.00  0.00    -0.047 A  
HETATM   19  F   UNL     1     -11.026   4.641  66.685  1.00  0.00    -0.174 F  
HETATM   20  C   UNL     1      -6.793   6.237  67.912  1.00  0.00    -0.067 A  
HETATM   21  C   UNL     1      -8.826   6.562  66.082  1.00  0.00    -0.160 A  
HETATM   22  C   UNL     1      -8.046   5.661  68.209  1.00  0.00    -0.103 A  
HETATM   23  C   UNL     1     -10.573   5.598  67.545  1.00  0.00    -0.221 C  
HETATM   24  C   UNL     1      -9.110   5.928  67.313  1.00  0.00    -0.111 A  
BRANCH  22  25
HETATM   25  C   UNL     1      -8.203   4.750  69.436  1.00  0.00    -0.076 C  
HETATM   26  C   UNL     1      -7.074   3.695  69.524  1.00  0.00    -0.042 C  
HETATM   27  C   UNL     1      -5.723   4.329  69.837  1.00  0.00    -0.017 C  
HETATM   28  C   UNL     1      -5.760   5.044  71.180  1.00  0.00    -0.012 C  
HETATM   29  C   UNL     1      -6.917   6.029  71.297  1.00  0.00    -0.068 C  
HETATM   30  C   UNL     1      -8.260   5.452  70.821  1.00  0.00    -0.115 C  
ENDBRANCH  22  25
ENDBRANCH  14  15
ENDBRANCH  13  14
ENDBRANCH  11  13
ENDBRANCH   9  11
ENDBRANCH   5   9
BRANCH   8  31
HETATM   31  C   UNL     1     -11.390  12.697  68.348  1.00  0.00    -0.290 C  
BRANCH  31  32
HETATM   32  N   UNL     1     -12.208  11.691  69.066  1.00  0.00    -0.339 NA 
HETATM   33  O   UNL     1     -14.215   9.729  70.302  1.00  0.00     0.654 OA 
HETATM   34  O   UNL     1     -13.356   9.127  72.292  1.00  0.00    -0.415 OA 
HETATM   35  C   UNL     1     -11.413  10.481  69.410  1.00  0.00    -0.262 C  
HETATM   36  C   UNL     1     -13.220   9.735  71.234  1.00  0.00    -0.373 C  
HETATM   37  C   UNL     1     -12.215  12.054  70.517  1.00  0.00    -0.325 C  
HETATM   38  C   UNL     1     -11.980  10.568  70.845  1.00  0.00    -0.481 C  
ENDBRANCH  31  32
ENDBRANCH   8  31
ENDBRANCH   2   3
TORSDOF 9
ENDMDL
MODEL      306
REMARK 921   NORMALIZED FREE ENERGY PREDICTED BY IDOCK:   -3.67 KCAL/MOL
REMARK 922        TOTAL FREE ENERGY PREDICTED BY IDOCK:   -7.02 KCAL/MOL
REMARK 923 INTER-LIGAND FREE ENERGY PREDICTED BY IDOCK:   -6.08 KCAL/MOL
REMARK 924 INTRA-LIGAND FREE ENERGY PREDICTED BY IDOCK:   -0.94 KCAL/MOL
REMARK 927      BINDING AFFINITY PREDICTED BY RF-SCORE:    0.00 PKD
ROOT
HETATM    1  C   UNL     1     -10.490  12.685  67.444  1.00  0.00    -0.233 C  
HETATM    2  C   UNL     1      -9.272  13.029  66.601  1.00  0.00    -0.222 C  
ENDROOT
BRANCH   2   3
HETATM    3  C   UNL     1      -8.052  13.361  67.431  1.00  0.00    -0.178 A  
HETATM    4  C   UNL     1      -7.547  12.293  68.187  1.00  0.00    -0.127 A  
HETATM    5  C   UNL     1      -6.536  12.471  69.135  1.00  0.00    -0.100 A  
HETATM    6  C   UNL     1      -5.980  13.732  69.307  1.00  0.00    -0.091 A  
HETATM    7  C   UNL     1      -6.425  14.798  68.507  1.00  0.00    -0.092 A  
HETATM    8  C   UNL     1      -7.449  14.632  67.545  1.00  0.00    -0.217 A  
BRANCH   5   9
HETATM    9  C   UNL     1      -6.227  11.297  69.998  1.00  0.00    -0.149 C  
HETATM   10  C   UNL     1      -5.173  11.397  71.069  1.00  0.00    -0.116 C  
BRANCH   9  11
HETATM   11  N   UNL     1      -6.910  10.210  69.770  1.00  0.00    -0.088 NA 
HETATM   12  H   UNL     1      -7.918  10.191  69.612  1.00  0.00     0.000 HD 
BRANCH  11  13
HETATM   13  O   UNL     1      -6.098   9.077  69.767  1.00  0.00    -0.037 OA 
BRANCH  13  14
HETATM   14  C   UNL     1      -6.601   8.189  68.775  1.00  0.00    -0.053 C  
BRANCH  14  15
HETATM   15  C   UNL     1      -7.619   7.308  69.431  1.00  0.00    -0.097 A  
HETATM   16  F   UNL     1      -9.940   3.015  69.401  1.00  0.00    -0.116 F  
HETATM   17  F   UNL     1      -9.154   3.899  67.592  1.00  0.00    -0.123 F  
HETATM   18  C   UNL     1      -8.417   7.795  70.456  1.00  0.00    -0.127 A  
HETATM   19  F   UNL     1      -7.794   3.025  69.040  1.00  0.00    -0.050 F  
HETATM   20  C   UNL     1      -9.328   6.952  71.087  1.00  0.00    -0.162 A  
HETATM   21  C   UNL     1      -7.833   6.006  68.975  1.00  0.00    -0.096 A  
HETATM   22  C   UNL     1      -9.451   5.588  70.751  1.00  0.00    -0.209 A  
HETATM   23  C   UNL     1      -8.921   3.785  68.934  1.00  0.00    -0.123 C  
HETATM   24  C   UNL     1      -8.760   5.140  69.598  1.00  0.00    -0.107 A  
BRANCH  22  25
HETATM   25  C   UNL     1     -10.268   4.645  71.647  1.00  0.00    -0.233 C  
HETATM   26  C   UNL     1      -9.364   3.741  72.518  1.00  0.00    -0.164 C  
HETATM   27  C   UNL     1      -8.617   4.537  73.584  1.00  0.00    -0.103 C  
HETATM   28  C   UNL     1      -9.593   5.220  74.530  1.00  0.00    -0.164 C  
HETATM   29  C   UNL     1     -10.645   6.048  73.801  1.00  0.00    -0.265 C  
HETATM   30  C   UNL     1     -11.286   5.312  72.613  1.00  0.00    -0.311 C  
ENDBRANCH  22  25
ENDBRANCH  14  15
ENDBRANCH  13  14
ENDBRANCH  11  13
ENDBRANCH   9  11
ENDBRANCH   5   9
BRANCH   8  31
HETATM   31  C   UNL     1      -7.956  15.841  66.769  1.00  0.00    -0.238 C  
BRANCH  31  32
HETATM   32  N   UNL     1      -8.616  16.900  67.571  1.00  0.00    -0.201 NA 
HETATM   33  O   UNL     1     -10.052  18.789  69.513  1.00  0.00    -0.098 OA 
HETATM   34  O   UNL     1     -10.655  20.588  68.304  1.00  0.00    -0.104 OA 
HETATM   35  C   UNL     1      -7.918  18.206  67.434  1.00  0.00    -0.226 C  
HETATM   36  C   UNL     1     -10.058  19.516  68.360  1.00  0.00    -0.445 C  
HETATM   37  C   UNL     1      -9.742  17.457  66.759  1.00  0.00    -0.290 C  
HETATM   38  C   UNL     1      -9.293  18.867  67.187  1.00  0.00    -0.328 C  
ENDBRANCH  31  32
ENDBRANCH   8  31
ENDBRANCH   2   3
TORSDOF 9
ENDMDL
MODEL      307
REMARK 921   NORMALIZED FREE ENERGY PREDICTED BY IDOCK:   -3.56 KCAL/MOL
REMARK 922        TOTAL FREE ENERGY PREDICTED BY IDOCK:   -6.86 KCAL/MOL
REMARK 923 INTER-LIGAND FREE ENERGY PREDICTED BY IDOCK:   -7.08 KCAL/MOL
REMARK 924 INTRA-LIGAND FREE ENERGY PREDICTED BY IDOCK:    0.22 KCAL/MOL
REMARK 927      BINDING AFFINITY PREDICTED BY RF-SCORE:    0.00 PKD
ROOT
HETATM    1  C   UNL     1     -12.891  10.615  71.132  1.00  0.00    -0.518 C  
HETATM    2  C   UNL     1     -12.140  11.801  70.548  1.00  0.00    -0.439 C  
ENDROOT
BRANCH   2   3
HETATM    3  C   UNL     1     -11.688  11.573  69.124  1.00  0.00    -0.395 A  
HETATM    4  C   UNL     1     -11.261  10.267  68.843  1.00  0.00    -0.259 A  
HETATM    5  C   UNL     1     -10.653   9.932  67.631  1.00  0.00    -0.325 A  
HETATM    6  C   UNL     1     -10.504  10.906  66.653  1.00  0.00    -0.307 A  
HETATM    7  C   UNL     1     -10.990  12.203  66.890  1.00  0.00    -0.317 A  
HETATM    8  C   UNL     1     -11.607  12.556  68.113  1.00  0.00    -0.390 A  
BRANCH   5   9
HETATM    9  C   UNL     1     -10.078   8.560  67.538  1.00  0.00    -0.221 C  
HETATM   10  C   UNL     1     -10.868   7.446  66.906  1.00  0.00    -0.223 C  
BRANCH   9  11
HETATM   11  N   UNL     1      -8.881   8.397  68.026  1.00  0.00    -0.141 NA 
HETATM   12  H   UNL     1      -8.689   8.094  68.982  1.00  0.00     0.000 HD 
BRANCH  11  13
HETATM   13  O   UNL     1      -7.892   8.685  67.086  1.00  0.00    -0.095 OA 
BRANCH  13  14
HETATM   14  C   UNL     1      -8.386   8.299  65.809  1.00  0.00    -0.137 C  
BRANCH  14  15
HETATM   15  C   UNL     1      -7.952   6.887  65.564  1.00  0.00    -0.126 A  
HETATM   16  F   UNL     1      -6.090   2.794  67.463  1.00  0.00    -0.024 F  
HETATM   17  F   UNL     1      -5.661   4.739  68.302  1.00  0.00    -0.013 F  
HETATM   18  C   UNL     1      -7.900   6.377  64.275  1.00  0.00    -0.114 A  
HETATM   19  F   UNL     1      -7.619   3.850  68.597  1.00  0.00    -0.054 F  
HETATM   20  C   UNL     1      -7.539   5.050  64.066  1.00  0.00    -0.067 A  
HETATM   21  C   UNL     1      -7.523   6.082  66.621  1.00  0.00    -0.090 A  
HETATM   22  C   UNL     1      -7.254   4.170  65.131  1.00  0.00    -0.071 A  
HETATM   23  C   UNL     1      -6.636   4.023  67.667  1.00  0.00    -0.042 C  
HETATM   24  C   UNL     1      -7.143   4.734  66.426  1.00  0.00    -0.075 A  
BRANCH  22  25
HETATM   25  C   UNL     1      -7.124   2.662  64.870  1.00  0.00    -0.053 C  
HETATM   26  C   UNL     1      -8.386   1.883  65.315  1.00  0.00    -0.090 C  
HETATM   27  C   UNL     1      -9.592   2.201  64.435  1.00  0.00    -0.104 C  
HETATM   28  C   UNL     1      -9.324   1.811  62.990  1.00  0.00    -0.090 C  
HETATM   29  C   UNL     1      -8.026   2.397  62.448  1.00  0.00    -0.066 C  
HETATM   30  C   UNL     1      -6.834   2.232  63.405  1.00  0.00    -0.031 C  
ENDBRANCH  22  25
ENDBRANCH  14  15
ENDBRANCH  13  14
ENDBRANCH  11  13
ENDBRANCH   9  11
ENDBRANCH   5   9
BRANCH   8  31
HETATM   31  C   UNL     1     -12.035  13.999  68.352  1.00  0.00    -0.343 C  
BRANCH  31  32
HETATM   32  N   UNL     1     -11.035  15.040  68.010  1.00  0.00    -0.274 NA 
HETATM   33  O   UNL     1      -8.961  17.018  66.920  1.00  0.00    -0.214 OA 
HETATM   34  O   UNL     1      -7.978  17.946  68.718  1.00  0.00    -0.292 OA 
HETATM   35  C   UNL     1     -11.342  16.335  68.674  1.00  0.00    -0.333 C  
HETATM   36  C   UNL     1      -8.847  17.207  68.265  1.00  0.00    -0.245 C  
HETATM   37  C   UNL     1      -9.871  14.882  68.936  1.00  0.00    -0.230 C  
HETATM   38  C   UNL     1      -9.863  16.412  69.114  1.00  0.00    -0.272 C  
ENDBRANCH  31  32
ENDBRANCH   8  31
ENDBRANCH   2   3
TORSDOF 9
ENDMDL
MODEL      308
REMARK 921   NORMALIZED FREE ENERGY PREDICTED BY IDOCK:   -3.54 KCAL/MOL
REMARK 922        TOTAL FREE ENERGY PREDICTED BY IDOCK:   -6.83 KCAL/MOL
REMARK 923 INTER-LIGAND FREE ENERGY PREDICTED BY IDOCK:   -7.44 KCAL/MOL
REMARK 924 INTRA-LIGAND FREE ENERGY PREDICTED BY IDOCK:    0.60 KCAL/MOL
REMARK 927      BINDING AFFINITY PREDICTED BY RF-SCORE:    0.00 PKD
ROOT
HETATM    1  C   UNL     1     -14.181   7.854  72.262  1.00  0.00    -0.264 C  
HETATM    2  C   UNL     1     -13.464   9.193  72.321  1.00  0.00    -0.546 C  
ENDROOT
BRANCH   2   3
HETATM    3  C   UNL     1     -12.278   9.271  71.387  1.00  0.00    -0.426 A  
HETATM    4  C   UNL     1     -11.610   8.054  71.181  1.00  0.00    -0.307 A  
HETATM    5  C   UNL     1     -10.399   7.984  70.489  1.00  0.00    -0.205 A  
HETATM    6  C   UNL     1      -9.855   9.142  69.949  1.00  0.00    -0.206 A  
HETATM    7  C   UNL     1     -10.547  10.358  70.085  1.00  0.00    -0.245 A  
HETATM    8  C   UNL     1     -11.774  10.444  70.784  1.00  0.00    -0.464 A  
BRANCH   5   9
HETATM    9  C   UNL     1      -9.704   6.666  70.507  1.00  0.00    -0.176 C  
HETATM   10  C   UNL     1      -8.654   6.373  71.544  1.00  0.00    -0.130 C  
BRANCH   9  11
HETATM   11  N   UNL     1     -10.059   5.809  69.590  1.00  0.00    -0.193 NA 
HETATM   12  H   UNL     1      -9.459   5.059  69.246  1.00  0.00     0.000 HD 
BRANCH  11  13
HETATM   13  O   UNL     1     -11.356   6.041  69.136  1.00  0.00    -0.364 OA 
BRANCH  13  14
HETATM   14  C   UNL     1     -11.271   6.894  68.000  1.00  0.00     0.001 C  
BRANCH  14  15
HETATM   15  C   UNL     1     -10.311   6.268  67.037  1.00  0.00    -0.300 A  
HETATM   16  F   UNL     1      -6.141   6.726  64.541  1.00  0.00    -0.032 F  
HETATM   17  F   UNL     1      -7.314   8.444  65.127  1.00  0.00    -0.075 F  
HETATM   18  C   UNL     1     -10.625   5.077  66.400  1.00  0.00    -0.317 A  
HETATM   19  F   UNL     1      -6.169   7.365  66.622  1.00  0.00    -0.038 F  
HETATM   20  C   UNL     1      -9.704   4.484  65.541  1.00  0.00    -0.204 A  
HETATM   21  C   UNL     1      -9.114   6.909  66.708  1.00  0.00    -0.162 A  
HETATM   22  C   UNL     1      -8.424   5.030  65.315  1.00  0.00    -0.141 A  
HETATM   23  C   UNL     1      -6.959   7.186  65.525  1.00  0.00    -0.056 C  
HETATM   24  C   UNL     1      -8.172   6.326  65.831  1.00  0.00    -0.129 A  
BRANCH  22  25
HETATM   25  C   UNL     1      -7.355   4.209  64.578  1.00  0.00    -0.071 C  
HETATM   26  C   UNL     1      -6.168   3.839  65.500  1.00  0.00    -0.031 C  
HETATM   27  C   UNL     1      -6.574   2.838  66.579  1.00  0.00    -0.036 C  
HETATM   28  C   UNL     1      -7.065   1.541  65.954  1.00  0.00    -0.046 C  
HETATM   29  C   UNL     1      -8.153   1.759  64.910  1.00  0.00    -0.074 C  
HETATM   30  C   UNL     1      -7.829   2.886  63.916  1.00  0.00    -0.080 C  
ENDBRANCH  22  25
ENDBRANCH  14  15
ENDBRANCH  13  14
ENDBRANCH  11  13
ENDBRANCH   9  11
ENDBRANCH   5   9
BRANCH   8  31
HETATM   31  C   UNL     1     -12.436  11.802  70.979  1.00  0.00    -0.309 C  
BRANCH  31  32
HETATM   32  N   UNL     1     -11.697  12.970  70.441  1.00  0.00    -0.141 NA 
HETATM   33  O   UNL     1      -9.957  15.381  69.692  1.00  0.00    -0.258 OA 
HETATM   34  O   UNL     1     -11.023  16.422  68.007  1.00  0.00    -0.345 OA 
HETATM   35  C   UNL     1     -11.467  12.847  68.977  1.00  0.00    -0.308 C  
HETATM   36  C   UNL     1     -10.961  15.465  68.774  1.00  0.00    -0.264 C  
HETATM   37  C   UNL     1     -12.690  14.052  70.158  1.00  0.00    -0.150 C  
HETATM   38  C   UNL     1     -11.972  14.299  68.819  1.00  0.00    -0.346 C  
ENDBRANCH  31  32
ENDBRANCH   8  31
ENDBRANCH   2   3
TORSDOF 9
ENDMDL
MODEL      309
REMARK 921   NORMALIZED FREE ENERGY PREDICTED BY IDOCK:   -3.44 KCAL/MOL
REMARK 922        TOTAL FREE ENERGY PREDICTED BY IDOCK:   -6.68 KCAL/MOL
REMARK 923 INTER-LIGAND FREE ENERGY PREDICTED BY IDOCK:   -7.09 KCAL/MOL
REMARK 924 INTRA-LIGAND FREE ENERGY PREDICTED BY IDOCK:    0.41 KCAL/MOL
REMARK 927      BINDING AFFINITY PREDICTED BY RF-SCORE:    0.00 PKD
ROOT
HETATM    1  C   UNL     1     -12.984  10.392  71.339  1.00  0.00    -0.545 C  
HETATM    2  C   UNL     1     -12.070  11.543  70.952  1.00  0.00    -0.352 C  
ENDROOT
BRANCH   2   3
HETATM    3  C   UNL     1     -11.475  11.388  69.571  1.00  0.00    -0.381 A  
HETATM    4  C   UNL     1     -11.158  10.069  69.211  1.00  0.00    -0.248 A  
HETATM    5  C   UNL     1     -10.445   9.771  68.048  1.00  0.00    -0.271 A  
HETATM    6  C   UNL     1     -10.075  10.802  67.194  1.00  0.00    -0.243 A  
HETATM    7  C   UNL     1     -10.447  12.121  67.502  1.00  0.00    -0.229 A  
HETATM    8  C   UNL     1     -11.167  12.438  68.678  1.00  0.00    -0.314 A  
BRANCH   5   9
HETATM    9  C   UNL     1     -10.012   8.355  67.884  1.00  0.00    -0.184 C  
HETATM   10  C   UNL     1     -10.689   7.464  66.877  1.00  0.00    -0.324 C  
BRANCH   9  11
HETATM   11  N   UNL     1      -9.036   7.953  68.648  1.00  0.00    -0.134 NA 
HETATM   12  H   UNL     1      -9.167   7.506  69.556  1.00  0.00     0.000 HD 
BRANCH  11  13
HETATM   13  O   UNL     1      -7.790   8.208  68.077  1.00  0.00    -0.117 OA 
BRANCH  13  14
HETATM   14  C   UNL     1      -7.866   7.856  66.701  1.00  0.00    -0.102 C  
BRANCH  14  15
HETATM   15  C   UNL     1      -7.299   6.478  66.553  1.00  0.00    -0.078 A  
HETATM   16  F   UNL     1      -5.909   2.368  68.790  1.00  0.00    -0.020 F  
HETATM   17  F   UNL     1      -5.876   4.281  69.795  1.00  0.00    -0.015 F  
HETATM   18  C   UNL     1      -6.815   6.041  65.329  1.00  0.00    -0.051 A  
HETATM   19  F   UNL     1      -7.774   3.299  69.417  1.00  0.00    -0.050 F  
HETATM   20  C   UNL     1      -6.334   4.742  65.196  1.00  0.00    -0.035 A  
HETATM   21  C   UNL     1      -7.183   5.635  67.660  1.00  0.00    -0.076 A  
HETATM   22  C   UNL     1      -6.352   3.818  66.262  1.00  0.00    -0.033 A  
HETATM   23  C   UNL     1      -6.559   3.561  68.855  1.00  0.00    -0.040 C  
HETATM   24  C   UNL     1      -6.687   4.317  67.546  1.00  0.00    -0.047 A  
BRANCH  22  25
HETATM   25  C   UNL     1      -6.063   2.333  65.999  1.00  0.00    -0.023 C  
HETATM   26  C   UNL     1      -7.352   1.476  66.022  1.00  0.00    -0.056 C  
HETATM   27  C   UNL     1      -8.262   1.783  64.837  1.00  0.00    -0.079 C  
HETATM   28  C   UNL     1      -7.558   1.479  63.523  1.00  0.00    -0.054 C  
HETATM   29  C   UNL     1      -6.195   2.150  63.411  1.00  0.00    -0.014 C  
HETATM   30  C   UNL     1      -5.330   1.992  64.672  1.00  0.00    -0.008 C  
ENDBRANCH  22  25
ENDBRANCH  14  15
ENDBRANCH  13  14
ENDBRANCH  11  13
ENDBRANCH   9  11
ENDBRANCH   5   9
BRANCH   8  31
HETATM   31  C   UNL     1     -11.465  13.895  69.009  1.00  0.00    -0.299 C  
BRANCH  31  32
HETATM   32  N   UNL     1     -11.857  14.177  70.412  1.00  0.00    -0.305 NA 
HETATM   33  O   UNL     1     -12.622  14.348  73.376  1.00  0.00    -0.378 OA 
HETATM   34  O   UNL     1     -13.684  16.314  73.635  1.00  0.00    -0.552 OA 
HETATM   35  C   UNL     1     -11.308  15.477  70.883  1.00  0.00    -0.369 C  
HETATM   36  C   UNL     1     -13.056  15.551  72.905  1.00  0.00    -0.507 C  
HETATM   37  C   UNL     1     -13.217  14.799  70.394  1.00  0.00    -0.048 C  
HETATM   38  C   UNL     1     -12.713  15.825  71.425  1.00  0.00    -0.509 C  
ENDBRANCH  31  32
ENDBRANCH   8  31
ENDBRANCH   2   3
TORSDOF 9
ENDMDL
MODEL      310
REMARK 921   NORMALIZED FREE ENERGY PREDICTED BY IDOCK:   -3.42 KCAL/MOL
REMARK 922        TOTAL FREE ENERGY PREDICTED BY IDOCK:   -6.65 KCAL/MOL
REMARK 923 INTER-LIGAND FREE ENERGY PREDICTED BY IDOCK:   -5.41 KCAL/MOL
REMARK 924 INTRA-LIGAND FREE ENERGY PREDICTED BY IDOCK:   -1.25 KCAL/MOL
REMARK 927      BINDING AFFINITY PREDICTED BY RF-SCORE:    0.00 PKD
ROOT
HETATM    1  C   UNL     1      -7.520  10.143  62.585  1.00  0.00    -0.143 C  
HETATM    2  C   UNL     1      -8.039  10.248  64.010  1.00  0.00    -0.137 C  
ENDROOT
BRANCH   2   3
HETATM    3  C   UNL     1      -7.299   9.351  64.977  1.00  0.00    -0.105 A  
HETATM    4  C   UNL     1      -7.953   8.148  65.281  1.00  0.00    -0.126 A  
HETATM    5  C   UNL     1      -7.493   7.290  66.283  1.00  0.00    -0.083 A  
HETATM    6  C   UNL     1      -6.330   7.610  66.972  1.00  0.00    -0.054 A  
HETATM    7  C   UNL     1      -5.624   8.776  66.631  1.00  0.00    -0.040 A  
HETATM    8  C   UNL     1      -6.079   9.654  65.620  1.00  0.00    -0.066 A  
BRANCH   5   9
HETATM    9  C   UNL     1      -8.382   6.146  66.632  1.00  0.00    -0.111 C  
HETATM   10  C   UNL     1      -7.937   4.731  66.375  1.00  0.00    -0.103 C  
BRANCH   9  11
HETATM   11  N   UNL     1      -9.536   6.446  67.159  1.00  0.00    -0.130 NA 
HETATM   12  H   UNL     1     -10.435   6.244  66.720  1.00  0.00     0.000 HD 
BRANCH  11  13
HETATM   13  O   UNL     1      -9.395   7.077  68.394  1.00  0.00    -0.132 OA 
BRANCH  13  14
HETATM   14  C   UNL     1     -10.694   7.445  68.842  1.00  0.00    -0.130 C  
BRANCH  14  15
HETATM   15  C   UNL     1     -10.871   8.906  68.566  1.00  0.00    -0.038 A  
HETATM   16  F   UNL     1     -12.690  13.167  70.101  1.00  0.00    -0.246 F  
HETATM   17  F   UNL     1     -13.566  11.279  70.680  1.00  0.00     0.115 F  
HETATM   18  C   UNL     1     -10.497   9.443  67.343  1.00  0.00    -0.343 A  
HETATM   19  F   UNL     1     -11.678  11.900  71.552  1.00  0.00     0.278 F  
HETATM   20  C   UNL     1     -10.625  10.810  67.116  1.00  0.00    -0.306 A  
HETATM   21  C   UNL     1     -11.480   9.739  69.506  1.00  0.00    -0.058 A  
HETATM   22  C   UNL     1     -11.090  11.699  68.108  1.00  0.00    -0.298 A  
HETATM   23  C   UNL     1     -12.373  11.874  70.379  1.00  0.00    -0.251 C  
HETATM   24  C   UNL     1     -11.627  11.128  69.289  1.00  0.00    -0.388 A  
BRANCH  22  25
HETATM   25  C   UNL     1     -10.961  13.216  67.905  1.00  0.00    -0.271 C  
HETATM   26  C   UNL     1      -9.830  13.575  66.911  1.00  0.00    -0.257 C  
HETATM   27  C   UNL     1     -10.165  13.144  65.486  1.00  0.00    -0.297 C  
HETATM   28  C   UNL     1     -11.422  13.845  64.992  1.00  0.00    -0.343 C  
HETATM   29  C   UNL     1     -12.600  13.696  65.947  1.00  0.00    -0.478 C  
HETATM   30  C   UNL     1     -12.232  13.963  67.416  1.00  0.00    -0.291 C  
ENDBRANCH  22  25
ENDBRANCH  14  15
ENDBRANCH  13  14
ENDBRANCH  11  13
ENDBRANCH   9  11
ENDBRANCH   5   9
BRANCH   8  31
HETATM   31  C   UNL     1      -5.324  10.950  65.352  1.00  0.00    -0.111 C  
BRANCH  31  32
HETATM   32  N   UNL     1      -5.464  12.010  66.381  1.00  0.00    -0.213 NA 
HETATM   33  O   UNL     1      -5.457  14.407  68.293  1.00  0.00    -0.098 OA 
HETATM   34  O   UNL     1      -6.420  13.692  70.196  1.00  0.00    -0.078 OA 
HETATM   35  C   UNL     1      -6.875  12.161  66.824  1.00  0.00     0.113 C  
HETATM   36  C   UNL     1      -6.108  13.463  69.030  1.00  0.00    -0.087 C  
HETATM   37  C   UNL     1      -5.149  11.404  67.712  1.00  0.00    -0.046 C  
HETATM   38  C   UNL     1      -6.375  12.138  68.286  1.00  0.00    -0.053 C  
ENDBRANCH  31  32
ENDBRANCH   8  31
ENDBRANCH   2   3
TORSDOF 9
ENDMDL
MODEL      311
REMARK 921   NORMALIZED FREE ENERGY PREDICTED BY IDOCK:   -3.31 KCAL/MOL
REMARK 922        TOTAL FREE ENERGY PREDICTED BY IDOCK:   -6.48 KCAL/MOL
REMARK 923 INTER-LIGAND FREE ENERGY PREDICTED BY IDOCK:   -7.09 KCAL/MOL
REMARK 924 INTRA-LIGAND FREE ENERGY PREDICTED BY IDOCK:    0.61 KCAL/MOL
REMARK 927      BINDING AFFINITY PREDICTED BY RF-SCORE:    0.00 PKD
ROOT
HETATM    1  C   UNL     1     -10.247  11.114  64.083  1.00  0.00    -0.405 C  
HETATM    2  C   UNL     1     -10.001  12.308  64.991  1.00  0.00    -0.227 C  
ENDROOT
BRANCH   2   3
HETATM    3  C   UNL     1     -10.387  12.047  66.430  1.00  0.00    -0.246 A  
HETATM    4  C   UNL     1      -9.707  10.980  67.037  1.00  0.00    -0.208 A  
HETATM    5  C   UNL     1     -10.065  10.497  68.298  1.00  0.00    -0.180 A  
HETATM    6  C   UNL     1     -11.094  11.116  68.996  1.00  0.00    -0.299 A  
HETATM    7  C   UNL     1     -11.738  12.230  68.433  1.00  0.00    -0.390 A  
HETATM    8  C   UNL     1     -11.388  12.728  67.156  1.00  0.00    -0.365 A  
BRANCH   5   9
HETATM    9  C   UNL     1      -9.389   9.246  68.742  1.00  0.00    -0.139 C  
HETATM   10  C   UNL     1      -8.025   8.890  68.214  1.00  0.00    -0.105 C  
BRANCH   9  11
HETATM   11  N   UNL     1     -10.041   8.503  69.592  1.00  0.00    -0.197 NA 
HETATM   12  H   UNL     1      -9.987   8.613  70.605  1.00  0.00     0.000 HD 
BRANCH  11  13
HETATM   13  O   UNL     1     -10.820   7.541  68.951  1.00  0.00    -0.155 OA 
BRANCH  13  14
HETATM   14  C   UNL     1     -10.384   7.462  67.599  1.00  0.00    -0.231 C  
BRANCH  14  15
HETATM   15  C   UNL     1      -9.839   6.085  67.380  1.00  0.00    -0.147 A  
HETATM   16  F   UNL     1      -8.227   1.952  69.415  1.00  0.00    -0.051 F  
HETATM   17  F   UNL     1      -8.083   3.854  70.430  1.00  0.00    -0.053 F  
HETATM   18  C   UNL     1      -9.489   5.659  66.107  1.00  0.00    -0.157 A  
HETATM   19  F   UNL     1     -10.013   2.878  70.247  1.00  0.00    -0.170 F  
HETATM   20  C   UNL     1      -9.027   4.361  65.911  1.00  0.00    -0.124 A  
HETATM   21  C   UNL     1      -9.607   5.231  68.460  1.00  0.00    -0.180 A  
HETATM   22  C   UNL     1      -8.933   3.427  66.964  1.00  0.00    -0.174 A  
HETATM   23  C   UNL     1      -8.864   3.145  69.561  1.00  0.00    -0.091 C  
HETATM   24  C   UNL     1      -9.129   3.913  68.281  1.00  0.00    -0.186 A  
BRANCH  22  25
HETATM   25  C   UNL     1      -8.677   1.944  66.657  1.00  0.00    -0.123 C  
HETATM   26  C   UNL     1      -9.379   1.490  65.355  1.00  0.00     0.026 C  
HETATM   27  C   UNL     1      -8.755   2.128  64.117  1.00  0.00    -0.092 C  
HETATM   28  C   UNL     1      -7.292   1.733  63.986  1.00  0.00    -0.056 C  
HETATM   29  C   UNL     1      -6.490   1.995  65.255  1.00  0.00    -0.023 C  
HETATM   30  C   UNL     1      -7.192   1.506  66.532  1.00  0.00    -0.051 C  
ENDBRANCH  22  25
ENDBRANCH  14  15
ENDBRANCH  13  14
ENDBRANCH  11  13
ENDBRANCH   9  11
ENDBRANCH   5   9
BRANCH   8  31
HETATM   31  C   UNL     1     -12.179  13.883  66.555  1.00  0.00    -0.442 C  
BRANCH  31  32
HETATM   32  N   UNL     1     -11.756  15.245  66.961  1.00  0.00    -0.112 NA 
HETATM   33  O   UNL     1     -11.160  18.200  67.521  1.00  0.00    -0.221 OA 
HETATM   34  O   UNL     1      -9.160  18.250  68.549  1.00  0.00    -0.307 OA 
HETATM   35  C   UNL     1     -11.458  15.315  68.417  1.00  0.00    -0.345 C  
HETATM   36  C   UNL     1     -10.084  17.585  68.089  1.00  0.00    -0.341 C  
HETATM   37  C   UNL     1     -10.289  15.370  66.693  1.00  0.00    -0.280 C  
HETATM   38  C   UNL     1     -10.140  16.043  68.070  1.00  0.00    -0.240 C  
ENDBRANCH  31  32
ENDBRANCH   8  31
ENDBRANCH   2   3
TORSDOF 9
ENDMDL
MODEL      312
REMARK 921   NORMALIZED FREE ENERGY PREDICTED BY IDOCK:   -3.31 KCAL/MOL
REMARK 922        TOTAL FREE ENERGY PREDICTED BY IDOCK:   -6.47 KCAL/MOL
REMARK 923 INTER-LIGAND FREE ENERGY PREDICTED BY IDOCK:   -5.44 KCAL/MOL
REMARK 924 INTRA-LIGAND FREE ENERGY PREDICTED BY IDOCK:   -1.04 KCAL/MOL
REMARK 927      BINDING AFFINITY PREDICTED BY RF-SCORE:    0.00 PKD
ROOT
HETATM    1  C   UNL     1     -10.190  10.278  68.274  1.00  0.00    -0.184 C  
HETATM    2  C   UNL     1      -8.915   9.456  68.190  1.00  0.00    -0.128 C  
ENDROOT
BRANCH   2   3
HETATM    3  C   UNL     1      -8.716   8.808  66.839  1.00  0.00    -0.136 A  
HETATM    4  C   UNL     1      -8.781   7.406  66.843  1.00  0.00    -0.126 A  
HETATM    5  C   UNL     1      -8.449   6.647  65.718  1.00  0.00    -0.150 A  
HETATM    6  C   UNL     1      -8.085   7.295  64.544  1.00  0.00    -0.071 A  
HETATM    7  C   UNL     1      -8.084   8.699  64.502  1.00  0.00    -0.162 A  
HETATM    8  C   UNL     1      -8.416   9.480  65.634  1.00  0.00    -0.143 A  
BRANCH   5   9
HETATM    9  C   UNL     1      -8.378   5.172  65.914  1.00  0.00    -0.118 C  
HETATM   10  C   UNL     1      -7.101   4.528  66.382  1.00  0.00    -0.075 C  
BRANCH   9  11
HETATM   11  N   UNL     1      -9.465   4.499  65.661  1.00  0.00    -0.161 NA 
HETATM   12  H   UNL     1      -9.832   4.338  64.723  1.00  0.00     0.000 HD 
BRANCH  11  13
HETATM   13  O   UNL     1     -10.065   4.023  66.826  1.00  0.00    -0.138 OA 
BRANCH  13  14
HETATM   14  C   UNL     1     -10.881   5.066  67.348  1.00  0.00     0.405 C  
BRANCH  14  15
HETATM   15  C   UNL     1     -10.744   5.043  68.839  1.00  0.00     0.272 A  
HETATM   16  F   UNL     1      -9.142   2.622  72.762  1.00  0.00    -0.082 F  
HETATM   17  F   UNL     1      -9.708   1.600  70.944  1.00  0.00    -0.179 F  
HETATM   18  C   UNL     1     -11.366   6.007  69.620  1.00  0.00    -0.328 A  
HETATM   19  F   UNL     1      -7.848   2.716  71.014  1.00  0.00    -0.047 F  
HETATM   20  C   UNL     1     -11.193   6.000  71.000  1.00  0.00    -0.332 A  
HETATM   21  C   UNL     1     -10.048   4.012  69.473  1.00  0.00     0.226 A  
HETATM   22  C   UNL     1     -10.365   5.062  71.652  1.00  0.00    -0.262 A  
HETATM   23  C   UNL     1      -9.153   2.759  71.409  1.00  0.00    -0.106 C  
HETATM   24  C   UNL     1      -9.871   3.984  70.875  1.00  0.00    -0.229 A  
BRANCH  22  25
HETATM   25  C   UNL     1      -9.995   5.258  73.130  1.00  0.00    -0.189 C  
HETATM   26  C   UNL     1      -8.502   5.620  73.313  1.00  0.00    -0.117 C  
HETATM   27  C   UNL     1      -8.182   7.011  72.774  1.00  0.00    -0.118 C  
HETATM   28  C   UNL     1      -8.984   8.073  73.512  1.00  0.00    -0.327 C  
HETATM   29  C   UNL     1     -10.478   7.778  73.537  1.00  0.00    -0.154 C  
HETATM   30  C   UNL     1     -10.807   6.324  73.915  1.00  0.00     0.010 C  
ENDBRANCH  22  25
ENDBRANCH  14  15
ENDBRANCH  13  14
ENDBRANCH  11  13
ENDBRANCH   9  11
ENDBRANCH   5   9
BRANCH   8  31
HETATM   31  C   UNL     1      -8.310  10.998  65.559  1.00  0.00    -0.024 C  
BRANCH  31  32
HETATM   32  N   UNL     1      -9.526  11.714  65.101  1.00  0.00    -0.183 NA 
HETATM   33  O   UNL     1     -11.982  13.444  64.487  1.00  0.00    -0.373 OA 
HETATM   34  O   UNL     1     -13.263  12.236  63.087  1.00  0.00    -0.506 OA 
HETATM   35  C   UNL     1      -9.599  11.777  63.617  1.00  0.00    -0.189 C  
HETATM   36  C   UNL     1     -12.210  12.349  63.708  1.00  0.00    -0.533 C  
HETATM   37  C   UNL     1     -10.656  10.734  65.079  1.00  0.00    -0.173 C  
HETATM   38  C   UNL     1     -11.069  11.309  63.711  1.00  0.00    -0.313 C  
ENDBRANCH  31  32
ENDBRANCH   8  31
ENDBRANCH   2   3
TORSDOF 9
ENDMDL
MODEL      313
REMARK 921   NORMALIZED FREE ENERGY PREDICTED BY IDOCK:   -3.29 KCAL/MOL
REMARK 922        TOTAL FREE ENERGY PREDICTED BY IDOCK:   -6.45 KCAL/MOL
REMARK 923 INTER-LIGAND FREE ENERGY PREDICTED BY IDOCK:   -8.41 KCAL/MOL
REMARK 924 INTRA-LIGAND FREE ENERGY PREDICTED BY IDOCK:    1.96 KCAL/MOL
REMARK 927      BINDING AFFINITY PREDICTED BY RF-SCORE:    0.00 PKD
ROOT
HETATM    1  C   UNL     1     -14.202  14.188  72.338  1.00  0.00    -0.498 C  
HETATM    2  C   UNL     1     -12.888  13.445  72.514  1.00  0.00    -0.186 C  
ENDROOT
BRANCH   2   3
HETATM    3  C   UNL     1     -12.535  12.579  71.326  1.00  0.00    -0.273 A  
HETATM    4  C   UNL     1     -12.594  11.198  71.566  1.00  0.00    -0.431 A  
HETATM    5  C   UNL     1     -12.134  10.265  70.634  1.00  0.00    -0.433 A  
HETATM    6  C   UNL     1     -11.642  10.709  69.413  1.00  0.00    -0.352 A  
HETATM    7  C   UNL     1     -11.642  12.085  69.128  1.00  0.00    -0.370 A  
HETATM    8  C   UNL     1     -12.103  13.040  70.063  1.00  0.00    -0.367 A  
BRANCH   5   9
HETATM    9  C   UNL     1     -12.080   8.848  71.090  1.00  0.00    -0.277 C  
HETATM   10  C   UNL     1     -12.377   8.498  72.523  1.00  0.00    -0.372 C  
BRANCH   9  11
HETATM   11  N   UNL     1     -11.767   7.958  70.190  1.00  0.00    -0.466 NA 
HETATM   12  H   UNL     1     -12.181   7.027  70.137  1.00  0.00     0.000 HD 
BRANCH  11  13
HETATM   13  O   UNL     1     -10.797   8.432  69.306  1.00  0.00    -0.175 OA 
BRANCH  13  14
HETATM   14  C   UNL     1     -11.105   7.922  68.014  1.00  0.00     0.338 C  
BRANCH  14  15
HETATM   15  C   UNL     1      -9.918   8.172  67.135  1.00  0.00    -0.304 A  
HETATM   16  F   UNL     1      -8.049  10.723  63.417  1.00  0.00    -0.141 F  
HETATM   17  F   UNL     1     -10.171  10.354  63.594  1.00  0.00    -0.369 F  
HETATM   18  C   UNL     1      -8.803   7.350  67.204  1.00  0.00    -0.126 A  
HETATM   19  F   UNL     1      -9.217  11.791  64.912  1.00  0.00    -0.157 F  
HETATM   20  C   UNL     1      -7.690   7.622  66.414  1.00  0.00    -0.089 A  
HETATM   21  C   UNL     1      -9.942   9.192  66.182  1.00  0.00    -0.338 A  
HETATM   22  C   UNL     1      -7.629   8.741  65.557  1.00  0.00    -0.087 A  
HETATM   23  C   UNL     1      -9.042  10.568  64.334  1.00  0.00    -0.225 C  
HETATM   24  C   UNL     1      -8.825   9.476  65.365  1.00  0.00    -0.213 A  
BRANCH  22  25
HETATM   25  C   UNL     1      -6.293   9.145  64.915  1.00  0.00    -0.066 C  
HETATM   26  C   UNL     1      -5.245   8.010  64.989  1.00  0.00    -0.032 C  
HETATM   27  C   UNL     1      -5.619   6.828  64.099  1.00  0.00    -0.031 C  
HETATM   28  C   UNL     1      -5.700   7.255  62.641  1.00  0.00    -0.049 C  
HETATM   29  C   UNL     1      -6.600   8.466  62.426  1.00  0.00    -0.091 C  
HETATM   30  C   UNL     1      -6.346   9.602  63.431  1.00  0.00    -0.107 C  
ENDBRANCH  22  25
ENDBRANCH  14  15
ENDBRANCH  13  14
ENDBRANCH  11  13
ENDBRANCH   9  11
ENDBRANCH   5   9
BRANCH   8  31
HETATM   31  C   UNL     1     -11.996  14.525  69.738  1.00  0.00    -0.332 C  
BRANCH  31  32
HETATM   32  N   UNL     1     -10.834  14.928  68.909  1.00  0.00    -0.241 NA 
HETATM   33  O   UNL     1      -8.209  15.491  67.427  1.00  0.00    -0.151 OA 
HETATM   34  O   UNL     1      -8.500  17.453  66.365  1.00  0.00    -0.250 OA 
HETATM   35  C   UNL     1     -11.227  15.173  67.496  1.00  0.00    -0.330 C  
HETATM   36  C   UNL     1      -8.979  16.548  67.043  1.00  0.00    -0.204 C  
HETATM   37  C   UNL     1     -10.641  16.402  69.072  1.00  0.00    -0.308 C  
HETATM   38  C   UNL     1     -10.437  16.499  67.549  1.00  0.00    -0.310 C  
ENDBRANCH  31  32
ENDBRANCH   8  31
ENDBRANCH   2   3
TORSDOF 9
ENDMDL
MODEL      314
REMARK 921   NORMALIZED FREE ENERGY PREDICTED BY IDOCK:   -3.27 KCAL/MOL
REMARK 922        TOTAL FREE ENERGY PREDICTED BY IDOCK:   -6.42 KCAL/MOL
REMARK 923 INTER-LIGAND FREE ENERGY PREDICTED BY IDOCK:   -5.46 KCAL/MOL
REMARK 924 INTRA-LIGAND FREE ENERGY PREDICTED BY IDOCK:   -0.95 KCAL/MOL
REMARK 927      BINDING AFFINITY PREDICTED BY RF-SCORE:    0.00 PKD
ROOT
HETATM    1  C   UNL     1      -9.892  10.857  63.135  1.00  0.00    -0.392 C  
HETATM    2  C   UNL     1      -8.921  10.017  63.948  1.00  0.00    -0.271 C  
ENDROOT
BRANCH   2   3
HETATM    3  C   UNL     1      -8.684  10.564  65.337  1.00  0.00    -0.195 A  
HETATM    4  C   UNL     1      -9.817  11.114  65.955  1.00  0.00    -0.275 A  
HETATM    5  C   UNL     1      -9.736  11.815  67.160  1.00  0.00    -0.194 A  
HETATM    6  C   UNL     1      -8.506  11.937  67.795  1.00  0.00    -0.154 A  
HETATM    7  C   UNL     1      -7.373  11.331  67.226  1.00  0.00    -0.122 A  
HETATM    8  C   UNL     1      -7.441  10.620  66.005  1.00  0.00    -0.137 A  
BRANCH   5   9
HETATM    9  C   UNL     1     -10.978  12.507  67.607  1.00  0.00    -0.242 C  
HETATM   10  C   UNL     1     -11.728  13.407  66.663  1.00  0.00    -0.428 C  
BRANCH   9  11
HETATM   11  N   UNL     1     -11.358  12.285  68.834  1.00  0.00    -0.266 NA 
HETATM   12  H   UNL     1     -12.090  12.813  69.309  1.00  0.00     0.000 HD 
BRANCH  11  13
HETATM   13  O   UNL     1     -10.643  11.241  69.419  1.00  0.00    -0.195 OA 
BRANCH  13  14
HETATM   14  C   UNL     1     -11.420  10.056  69.282  1.00  0.00    -0.055 C  
BRANCH  14  15
HETATM   15  C   UNL     1     -10.653   8.937  69.916  1.00  0.00    -0.229 A  
HETATM   16  F   UNL     1      -6.444   7.478  71.910  1.00  0.00    -0.042 F  
HETATM   17  F   UNL     1      -6.522   9.064  70.444  1.00  0.00    -0.035 F  
HETATM   18  C   UNL     1     -11.180   7.655  69.956  1.00  0.00    -0.146 A  
HETATM   19  F   UNL     1      -7.220   9.435  72.465  1.00  0.00     0.265 F  
HETATM   20  C   UNL     1     -10.477   6.634  70.589  1.00  0.00    -0.253 A  
HETATM   21  C   UNL     1      -9.367   9.150  70.415  1.00  0.00    -0.272 A  
HETATM   22  C   UNL     1      -9.246   6.858  71.240  1.00  0.00    -0.157 A  
HETATM   23  C   UNL     1      -7.226   8.501  71.471  1.00  0.00    -0.095 C  
HETATM   24  C   UNL     1      -8.634   8.123  71.052  1.00  0.00    -0.152 A  
BRANCH  22  25
HETATM   25  C   UNL     1      -8.645   5.772  72.145  1.00  0.00    -0.129 C  
HETATM   26  C   UNL     1      -9.315   5.742  73.540  1.00  0.00    -0.134 C  
HETATM   27  C   UNL     1     -10.760   5.257  73.469  1.00  0.00    -0.337 C  
HETATM   28  C   UNL     1     -10.827   3.840  72.920  1.00  0.00    -0.157 C  
HETATM   29  C   UNL     1     -10.083   3.679  71.600  1.00  0.00    -0.132 C  
HETATM   30  C   UNL     1      -8.684   4.316  71.605  1.00  0.00    -0.136 C  
ENDBRANCH  22  25
ENDBRANCH  14  15
ENDBRANCH  13  14
ENDBRANCH  11  13
ENDBRANCH   9  11
ENDBRANCH   5   9
BRANCH   8  31
HETATM   31  C   UNL     1      -6.165  10.060  65.388  1.00  0.00    -0.095 C  
BRANCH  31  32
HETATM   32  N   UNL     1      -5.954   8.600  65.540  1.00  0.00    -0.048 NA 
HETATM   33  O   UNL     1      -5.136   5.682  66.006  1.00  0.00    -0.008 OA 
HETATM   34  O   UNL     1      -6.532   4.435  64.758  1.00  0.00    -0.037 OA 
HETATM   35  C   UNL     1      -7.202   7.905  65.953  1.00  0.00    -0.072 C  
HETATM   36  C   UNL     1      -6.214   5.543  65.183  1.00  0.00    -0.030 C  
HETATM   37  C   UNL     1      -6.092   7.971  64.190  1.00  0.00    -0.057 C  
HETATM   38  C   UNL     1      -6.939   6.863  64.843  1.00  0.00    -0.051 C  
ENDBRANCH  31  32
ENDBRANCH   8  31
ENDBRANCH   2   3
TORSDOF 9
ENDMDL
MODEL      315
REMARK 921   NORMALIZED FREE ENERGY PREDICTED BY IDOCK:   -3.24 KCAL/MOL
REMARK 922        TOTAL FREE ENERGY PREDICTED BY IDOCK:   -6.38 KCAL/MOL
REMARK 923 INTER-LIGAND FREE ENERGY PREDICTED BY IDOCK:   -6.51 KCAL/MOL
REMARK 924 INTRA-LIGAND FREE ENERGY PREDICTED BY IDOCK:    0.13 KCAL/MOL
REMARK 927      BINDING AFFINITY PREDICTED BY RF-SCORE:    0.00 PKD
ROOT
HETATM    1  C   UNL     1      -5.752   5.124  67.256  1.00  0.00    -0.014 C  
HETATM    2  C   UNL     1      -5.954   6.575  66.851  1.00  0.00    -0.025 C  
ENDROOT
BRANCH   2   3
HETATM    3  C   UNL     1      -7.393   7.026  66.963  1.00  0.00    -0.086 A  
HETATM    4  C   UNL     1      -7.809   7.921  65.966  1.00  0.00    -0.095 A  
HETATM    5  C   UNL     1      -9.047   8.566  66.020  1.00  0.00    -0.246 A  
HETATM    6  C   UNL     1      -9.916   8.283  67.067  1.00  0.00    -0.325 A  
HETATM    7  C   UNL     1      -9.544   7.336  68.036  1.00  0.00    -0.148 A  
HETATM    8  C   UNL     1      -8.293   6.677  67.994  1.00  0.00    -0.117 A  
BRANCH   5   9
HETATM    9  C   UNL     1      -9.283   9.629  65.003  1.00  0.00    -0.250 C  
HETATM   10  C   UNL     1      -9.156   9.319  63.536  1.00  0.00     0.046 C  
BRANCH   9  11
HETATM   11  N   UNL     1      -9.598  10.809  65.458  1.00  0.00    -0.207 NA 
HETATM   12  H   UNL     1     -10.136  11.499  64.933  1.00  0.00     0.000 HD 
BRANCH  11  13
HETATM   13  O   UNL     1      -9.111  11.016  66.748  1.00  0.00    -0.157 OA 
BRANCH  13  14
HETATM   14  C   UNL     1      -8.538  12.318  66.790  1.00  0.00    -0.149 C  
BRANCH  14  15
HETATM   15  C   UNL     1      -9.387  13.156  67.695  1.00  0.00    -0.205 A  
HETATM   16  F   UNL     1     -10.418  17.632  69.348  1.00  0.00    -0.351 F  
HETATM   17  F   UNL     1      -8.452  17.110  68.619  1.00  0.00    -0.233 F  
HETATM   18  C   UNL     1     -10.251  12.562  68.604  1.00  0.00    -0.166 A  
HETATM   19  F   UNL     1     -10.083  17.377  67.212  1.00  0.00    -0.274 F  
HETATM   20  C   UNL     1     -11.066  13.353  69.407  1.00  0.00    -0.160 A  
HETATM   21  C   UNL     1      -9.271  14.547  67.691  1.00  0.00    -0.195 A  
HETATM   22  C   UNL     1     -11.083  14.760  69.310  1.00  0.00    -0.283 A  
HETATM   23  C   UNL     1      -9.781  16.851  68.434  1.00  0.00    -0.263 C  
HETATM   24  C   UNL     1     -10.084  15.367  68.507  1.00  0.00    -0.213 A  
BRANCH  22  25
HETATM   25  C   UNL     1     -12.180  15.568  70.019  1.00  0.00    -0.380 C  
HETATM   26  C   UNL     1     -13.469  14.737  70.230  1.00  0.00     0.316 C  
HETATM   27  C   UNL     1     -13.265  13.618  71.247  1.00  0.00    -0.308 C  
HETATM   28  C   UNL     1     -12.883  14.185  72.605  1.00  0.00    -0.440 C  
HETATM   29  C   UNL     1     -11.700  15.144  72.536  1.00  0.00    -0.475 C  
HETATM   30  C   UNL     1     -11.815  16.175  71.401  1.00  0.00    -0.490 C  
ENDBRANCH  22  25
ENDBRANCH  14  15
ENDBRANCH  13  14
ENDBRANCH  11  13
ENDBRANCH   9  11
ENDBRANCH   5   9
BRANCH   8  31
HETATM   31  C   UNL     1      -7.904   5.727  69.119  1.00  0.00    -0.090 C  
BRANCH  31  32
HETATM   32  N   UNL     1      -7.855   6.314  70.480  1.00  0.00    -0.104 NA 
HETATM   33  O   UNL     1      -8.165   7.596  73.249  1.00  0.00    -0.115 OA 
HETATM   34  O   UNL     1      -6.096   8.202  73.892  1.00  0.00    -0.087 OA 
HETATM   35  C   UNL     1      -6.902   5.585  71.359  1.00  0.00    -0.061 C  
HETATM   36  C   UNL     1      -6.814   7.636  73.072  1.00  0.00    -0.071 C  
HETATM   37  C   UNL     1      -6.895   7.461  70.452  1.00  0.00    -0.052 C  
HETATM   38  C   UNL     1      -6.314   6.949  71.783  1.00  0.00    -0.042 C  
ENDBRANCH  31  32
ENDBRANCH   8  31
ENDBRANCH   2   3
TORSDOF 9
ENDMDL
MODEL      316
REMARK 921   NORMALIZED FREE ENERGY PREDICTED BY IDOCK:   -3.07 KCAL/MOL
REMARK 922        TOTAL FREE ENERGY PREDICTED BY IDOCK:   -6.11 KCAL/MOL
REMARK 923 INTER-LIGAND FREE ENERGY PREDICTED BY IDOCK:   -6.17 KCAL/MOL
REMARK 924 INTRA-LIGAND FREE ENERGY PREDICTED BY IDOCK:    0.05 KCAL/MOL
REMARK 927      BINDING AFFINITY PREDICTED BY RF-SCORE:    0.00 PKD
ROOT
HETATM    1  C   UNL     1     -10.750  15.113  65.463  1.00  0.00    -0.379 C  
HETATM    2  C   UNL     1     -11.865  15.650  66.346  1.00  0.00     0.596 C  
ENDROOT
BRANCH   2   3
HETATM    3  C   UNL     1     -11.466  15.760  67.800  1.00  0.00    -0.175 A  
HETATM    4  C   UNL     1     -11.922  14.714  68.617  1.00  0.00    -0.305 A  
HETATM    5  C   UNL     1     -11.791  14.750  70.007  1.00  0.00    -0.362 A  
HETATM    6  C   UNL     1     -11.152  15.830  70.602  1.00  0.00    -0.376 A  
HETATM    7  C   UNL     1     -10.626  16.853  69.794  1.00  0.00    -0.098 A  
HETATM    8  C   UNL     1     -10.753  16.830  68.385  1.00  0.00    -0.362 A  
BRANCH   5   9
HETATM    9  C   UNL     1     -12.484  13.670  70.763  1.00  0.00    -0.359 C  
HETATM   10  C   UNL     1     -13.939  13.807  71.124  1.00  0.00     0.200 C  
BRANCH   9  11
HETATM   11  N   UNL     1     -11.766  12.629  71.081  1.00  0.00     0.212 NA 
HETATM   12  H   UNL     1     -11.122  12.600  71.872  1.00  0.00     0.000 HD 
BRANCH  11  13
HETATM   13  O   UNL     1     -11.984  11.562  70.211  1.00  0.00    -0.333 OA 
BRANCH  13  14
HETATM   14  C   UNL     1     -12.221  12.102  68.916  1.00  0.00     0.028 C  
BRANCH  14  15
HETATM   15  C   UNL     1     -11.034  11.771  68.065  1.00  0.00    -0.274 A  
HETATM   16  F   UNL     1      -6.180  11.930  67.575  1.00  0.00    -0.059 F  
HETATM   17  F   UNL     1      -7.255  13.382  68.761  1.00  0.00    -0.093 F  
HETATM   18  C   UNL     1     -11.203  11.286  66.776  1.00  0.00    -0.265 A  
HETATM   19  F   UNL     1      -7.000  11.361  69.510  1.00  0.00    -0.105 F  
HETATM   20  C   UNL     1     -10.092  10.940  66.012  1.00  0.00    -0.303 A  
HETATM   21  C   UNL     1      -9.739  12.012  68.526  1.00  0.00    -0.165 A  
HETATM   22  C   UNL     1      -8.777  11.025  66.514  1.00  0.00    -0.169 A  
HETATM   23  C   UNL     1      -7.270  12.071  68.377  1.00  0.00    -0.092 C  
HETATM   24  C   UNL     1      -8.599  11.677  67.760  1.00  0.00    -0.144 A  
BRANCH  22  25
HETATM   25  C   UNL     1      -7.615  10.386  65.739  1.00  0.00    -0.147 C  
HETATM   26  C   UNL     1      -6.940   9.246  66.539  1.00  0.00    -0.081 C  
HETATM   27  C   UNL     1      -7.856   8.035  66.689  1.00  0.00    -0.098 C  
HETATM   28  C   UNL     1      -8.218   7.460  65.328  1.00  0.00    -0.128 C  
HETATM   29  C   UNL     1      -8.774   8.506  64.370  1.00  0.00     0.053 C  
HETATM   30  C   UNL     1      -7.949   9.804  64.338  1.00  0.00    -0.145 C  
ENDBRANCH  22  25
ENDBRANCH  14  15
ENDBRANCH  13  14
ENDBRANCH  11  13
ENDBRANCH   9  11
ENDBRANCH   5   9
BRANCH   8  31
HETATM   31  C   UNL     1     -10.245  18.008  67.564  1.00  0.00    -0.369 C  
BRANCH  31  32
HETATM   32  N   UNL     1      -8.978  18.625  68.026  1.00  0.00    -0.294 NA 
HETATM   33  O   UNL     1      -6.528  19.895  69.364  1.00  0.00    -0.318 OA 
HETATM   34  O   UNL     1      -5.345  20.862  67.713  1.00  0.00    -0.215 OA 
HETATM   35  C   UNL     1      -7.804  18.090  67.285  1.00  0.00    -0.214 C  
HETATM   36  C   UNL     1      -6.298  20.163  68.047  1.00  0.00    -0.258 C  
HETATM   37  C   UNL     1      -8.803  19.919  67.296  1.00  0.00    -0.334 C  
HETATM   38  C   UNL     1      -7.325  19.544  67.076  1.00  0.00    -0.237 C  
ENDBRANCH  31  32
ENDBRANCH   8  31
ENDBRANCH   2   3
TORSDOF 9
ENDMDL
MODEL      317
REMARK 921   NORMALIZED FREE ENERGY PREDICTED BY IDOCK:   -2.82 KCAL/MOL
REMARK 922        TOTAL FREE ENERGY PREDICTED BY IDOCK:   -5.73 KCAL/MOL
REMARK 923 INTER-LIGAND FREE ENERGY PREDICTED BY IDOCK:   -6.56 KCAL/MOL
REMARK 924 INTRA-LIGAND FREE ENERGY PREDICTED BY IDOCK:    0.83 KCAL/MOL
REMARK 927      BINDING AFFINITY PREDICTED BY RF-SCORE:    0.00 PKD
ROOT
HETATM    1  C   UNL     1      -6.430  15.722  67.185  1.00  0.00    -0.041 C  
HETATM    2  C   UNL     1      -6.765  14.874  68.402  1.00  0.00    -0.101 C  
ENDROOT
BRANCH   2   3
HETATM    3  C   UNL     1      -8.248  14.625  68.561  1.00  0.00    -0.152 A  
HETATM    4  C   UNL     1      -8.666  13.330  68.223  1.00  0.00    -0.168 A  
HETATM    5  C   UNL     1     -10.018  12.986  68.147  1.00  0.00    -0.231 A  
HETATM    6  C   UNL     1     -10.981  13.938  68.457  1.00  0.00    -0.277 A  
HETATM    7  C   UNL     1     -10.577  15.220  68.866  1.00  0.00    -0.242 A  
HETATM    8  C   UNL     1      -9.212  15.582  68.946  1.00  0.00    -0.218 A  
BRANCH   5   9
HETATM    9  C   UNL     1     -10.326  11.637  67.595  1.00  0.00    -0.189 C  
HETATM   10  C   UNL     1     -11.752  11.218  67.360  1.00  0.00    -0.114 C  
BRANCH   9  11
HETATM   11  N   UNL     1      -9.305  10.867  67.337  1.00  0.00    -0.154 NA 
HETATM   12  H   UNL     1      -8.829  10.296  68.036  1.00  0.00     0.000 HD 
BRANCH  11  13
HETATM   13  O   UNL     1      -8.943  10.917  65.992  1.00  0.00    -0.174 OA 
BRANCH  13  14
HETATM   14  C   UNL     1      -7.993   9.884  65.761  1.00  0.00    -0.120 C  
BRANCH  14  15
HETATM   15  C   UNL     1      -8.246   8.804  66.768  1.00  0.00    -0.108 A  
HETATM   16  F   UNL     1     -10.894   4.889  67.987  1.00  0.00    -0.037 F  
HETATM   17  F   UNL     1     -11.681   6.446  66.711  1.00  0.00    -0.236 F  
HETATM   18  C   UNL     1      -7.602   8.819  67.996  1.00  0.00    -0.097 A  
HETATM   19  F   UNL     1     -10.203   5.062  65.930  1.00  0.00    -0.197 F  
HETATM   20  C   UNL     1      -7.812   7.785  68.904  1.00  0.00    -0.122 A  
HETATM   21  C   UNL     1      -9.188   7.805  66.516  1.00  0.00    -0.229 A  
HETATM   22  C   UNL     1      -8.638   6.680  68.609  1.00  0.00    -0.125 A  
HETATM   23  C   UNL     1     -10.527   5.791  67.037  1.00  0.00    -0.280 C  
HETATM   24  C   UNL     1      -9.422   6.752  67.431  1.00  0.00    -0.150 A  
BRANCH  22  25
HETATM   25  C   UNL     1      -8.627   5.446  69.524  1.00  0.00    -0.103 C  
HETATM   26  C   UNL     1      -7.190   4.948  69.812  1.00  0.00    -0.055 C  
HETATM   27  C   UNL     1      -6.410   5.929  70.682  1.00  0.00    -0.032 C  
HETATM   28  C   UNL     1      -7.088   6.112  72.031  1.00  0.00    -0.083 C  
HETATM   29  C   UNL     1      -8.564   6.473  71.909  1.00  0.00    -0.129 C  
HETATM   30  C   UNL     1      -9.327   5.596  70.903  1.00  0.00    -0.190 C  
ENDBRANCH  22  25
ENDBRANCH  14  15
ENDBRANCH  13  14
ENDBRANCH  11  13
ENDBRANCH   9  11
ENDBRANCH   5   9
BRANCH   8  31
HETATM   31  C   UNL     1      -8.832  17.013  69.308  1.00  0.00     0.097 C  
BRANCH  31  32
HETATM   32  N   UNL     1      -9.155  18.048  68.297  1.00  0.00    -0.272 NA 
HETATM   33  O   UNL     1      -9.642  20.462  66.469  1.00  0.00    -0.366 OA 
HETATM   34  O   UNL     1     -11.249  19.838  65.025  1.00  0.00    -0.219 OA 
HETATM   35  C   UNL     1      -9.010  17.526  66.912  1.00  0.00    -0.251 C  
HETATM   36  C   UNL     1     -10.484  19.532  65.935  1.00  0.00    -0.491 C  
HETATM   37  C   UNL     1     -10.638  18.054  68.101  1.00  0.00    -0.319 C  
HETATM   38  C   UNL     1     -10.392  18.134  66.583  1.00  0.00    -0.387 C  
ENDBRANCH  31  32
ENDBRANCH   8  31
ENDBRANCH   2   3
TORSDOF 9
ENDMDL
MODEL      318
REMARK 921   NORMALIZED FREE ENERGY PREDICTED BY IDOCK:   -2.71 KCAL/MOL
REMARK 922        TOTAL FREE ENERGY PREDICTED BY IDOCK:   -5.56 KCAL/MOL
REMARK 923 INTER-LIGAND FREE ENERGY PREDICTED BY IDOCK:   -7.18 KCAL/MOL
REMARK 924 INTRA-LIGAND FREE ENERGY PREDICTED BY IDOCK:    1.62 KCAL/MOL
REMARK 927      BINDING AFFINITY PREDICTED BY RF-SCORE:    0.00 PKD
ROOT
HETATM    1  C   UNL     1     -11.026   5.897  69.031  1.00  0.00    -0.359 C  
HETATM    2  C   UNL     1     -11.164   7.407  68.936  1.00  0.00     0.197 C  
ENDROOT
BRANCH   2   3
HETATM    3  C   UNL     1     -10.357   8.006  67.807  1.00  0.00    -0.294 A  
HETATM    4  C   UNL     1     -10.161   9.393  67.895  1.00  0.00    -0.239 A  
HETATM    5  C   UNL     1      -9.590  10.126  66.852  1.00  0.00    -0.219 A  
HETATM    6  C   UNL     1      -9.161   9.463  65.709  1.00  0.00    -0.249 A  
HETATM    7  C   UNL     1      -9.285   8.066  65.634  1.00  0.00     0.010 A  
HETATM    8  C   UNL     1      -9.863   7.311  66.682  1.00  0.00    -0.257 A  
BRANCH   5   9
HETATM    9  C   UNL     1      -9.614  11.609  66.998  1.00  0.00    -0.184 C  
HETATM   10  C   UNL     1     -10.611  12.433  66.229  1.00  0.00    -0.277 C  
BRANCH   9  11
HETATM   11  N   UNL     1      -8.738  12.128  67.812  1.00  0.00    -0.162 NA 
HETATM   12  H   UNL     1      -8.898  12.268  68.810  1.00  0.00     0.000 HD 
BRANCH  11  13
HETATM   13  O   UNL     1      -7.555  12.468  67.156  1.00  0.00    -0.148 OA 
BRANCH  13  14
HETATM   14  C   UNL     1      -6.730  13.161  68.085  1.00  0.00    -0.111 C  
BRANCH  14  15
HETATM   15  C   UNL     1      -7.099  14.611  68.023  1.00  0.00    -0.146 A  
HETATM   16  F   UNL     1     -10.467  17.925  66.798  1.00  0.00    -0.326 F  
HETATM   17  F   UNL     1     -10.340  16.008  65.808  1.00  0.00    -0.301 F  
HETATM   18  C   UNL     1      -6.163  15.591  68.317  1.00  0.00    -0.123 A  
HETATM   19  F   UNL     1     -11.125  16.124  67.829  1.00  0.00    -0.324 F  
HETATM   20  C   UNL     1      -6.532  16.933  68.301  1.00  0.00    -0.142 A  
HETATM   21  C   UNL     1      -8.370  15.004  67.600  1.00  0.00    -0.175 A  
HETATM   22  C   UNL     1      -7.853  17.347  68.030  1.00  0.00    -0.207 A  
HETATM   23  C   UNL     1     -10.149  16.620  67.015  1.00  0.00    -0.281 C  
HETATM   24  C   UNL     1      -8.760  16.362  67.567  1.00  0.00    -0.188 A  
BRANCH  22  25
HETATM   25  C   UNL     1      -8.269  18.804  68.285  1.00  0.00    -0.355 C  
HETATM   26  C   UNL     1      -7.070  19.686  68.709  1.00  0.00    -0.381 C  
HETATM   27  C   UNL     1      -6.080  19.889  67.566  1.00  0.00    -0.212 C  
HETATM   28  C   UNL     1      -6.746  20.591  66.392  1.00  0.00    -0.299 C  
HETATM   29  C   UNL     1      -8.033  19.908  65.945  1.00  0.00    -0.288 C  
HETATM   30  C   UNL     1      -8.967  19.543  67.110  1.00  0.00    -0.363 C  
ENDBRANCH  22  25
ENDBRANCH  14  15
ENDBRANCH  13  14
ENDBRANCH  11  13
ENDBRANCH   9  11
ENDBRANCH   5   9
BRANCH   8  31
HETATM   31  C   UNL     1     -10.055   5.809  66.510  1.00  0.00    -0.171 C  
BRANCH  31  32
HETATM   32  N   UNL     1      -8.825   5.019  66.263  1.00  0.00    -0.116 NA 
HETATM   33  O   UNL     1      -6.080   3.684  65.966  1.00  0.00    -0.026 OA 
HETATM   34  O   UNL     1      -6.273   2.232  64.259  1.00  0.00    -0.017 OA 
HETATM   35  C   UNL     1      -9.094   3.557  66.309  1.00  0.00    -0.157 C  
HETATM   36  C   UNL     1      -6.812   3.034  65.017  1.00  0.00    -0.045 C  
HETATM   37  C   UNL     1      -8.643   4.902  64.783  1.00  0.00    -0.149 C  
HETATM   38  C   UNL     1      -8.308   3.413  64.987  1.00  0.00    -0.097 C  
ENDBRANCH  31  32
ENDBRANCH   8  31
ENDBRANCH   2   3
TORSDOF 9
ENDMDL
MODEL      319
REMARK 921   NORMALIZED FREE ENERGY PREDICTED BY IDOCK:   -2.63 KCAL/MOL
REMARK 922        TOTAL FREE ENERGY PREDICTED BY IDOCK:   -5.44 KCAL/MOL
REMARK 923 INTER-LIGAND FREE ENERGY PREDICTED BY IDOCK:   -6.65 KCAL/MOL
REMARK 924 INTRA-LIGAND FREE ENERGY PREDICTED BY IDOCK:    1.21 KCAL/MOL
REMARK 927      BINDING AFFINITY PREDICTED BY RF-SCORE:    0.00 PKD
ROOT
HETATM    1  C   UNL     1     -11.134   7.948  66.774  1.00  0.00     0.688 C  
HETATM    2  C   UNL     1     -10.519   8.990  67.694  1.00  0.00    -0.324 C  
ENDROOT
BRANCH   2   3
HETATM    3  C   UNL     1     -10.194  10.286  66.987  1.00  0.00    -0.282 A  
HETATM    4  C   UNL     1     -10.593  11.445  67.670  1.00  0.00    -0.240 A  
HETATM    5  C   UNL     1     -10.526  12.710  67.082  1.00  0.00    -0.245 A  
HETATM    6  C   UNL     1     -10.008  12.837  65.799  1.00  0.00    -0.259 A  
HETATM    7  C   UNL     1      -9.537  11.696  65.128  1.00  0.00    -0.206 A  
HETATM    8  C   UNL     1      -9.601  10.408  65.712  1.00  0.00    -0.269 A  
BRANCH   5   9
HETATM    9  C   UNL     1     -11.155  13.826  67.842  1.00  0.00    -0.264 C  
HETATM   10  C   UNL     1     -11.918  13.547  69.109  1.00  0.00    -0.378 C  
BRANCH   9  11
HETATM   11  N   UNL     1     -11.004  15.023  67.350  1.00  0.00    -0.307 NA 
HETATM   12  H   UNL     1     -10.369  15.251  66.584  1.00  0.00     0.000 HD 
BRANCH  11  13
HETATM   13  O   UNL     1     -11.814  15.957  67.995  1.00  0.00    -0.170 OA 
BRANCH  13  14
HETATM   14  C   UNL     1     -11.250  16.205  69.277  1.00  0.00    -0.337 C  
BRANCH  14  15
HETATM   15  C   UNL     1     -10.032  17.054  69.078  1.00  0.00    -0.269 A  
HETATM   16  F   UNL     1      -5.158  17.300  69.170  1.00  0.00    -0.137 F  
HETATM   17  F   UNL     1      -6.253  15.901  70.401  1.00  0.00    -0.150 F  
HETATM   18  C   UNL     1     -10.152  18.419  68.856  1.00  0.00    -0.352 A  
HETATM   19  F   UNL     1      -6.083  15.548  68.266  1.00  0.00    -0.094 F  
HETATM   20  C   UNL     1      -9.014  19.187  68.628  1.00  0.00    -0.411 A  
HETATM   21  C   UNL     1      -8.755  16.501  69.184  1.00  0.00    -0.150 A  
HETATM   22  C   UNL     1      -7.723  18.624  68.572  1.00  0.00    -0.342 A  
HETATM   23  C   UNL     1      -6.281  16.533  69.189  1.00  0.00    -0.174 C  
HETATM   24  C   UNL     1      -7.589  17.269  68.965  1.00  0.00    -0.177 A  
BRANCH  22  25
HETATM   25  C   UNL     1      -6.541  19.459  68.056  1.00  0.00    -0.263 C  
HETATM   26  C   UNL     1      -5.707  18.696  66.999  1.00  0.00    -0.154 C  
HETATM   27  C   UNL     1      -6.479  18.498  65.698  1.00  0.00    -0.319 C  
HETATM   28  C   UNL     1      -6.848  19.838  65.080  1.00  0.00    -0.235 C  
HETATM   29  C   UNL     1      -7.561  20.766  66.056  1.00  0.00     0.175 C  
HETATM   30  C   UNL     1      -6.884  20.840  67.434  1.00  0.00    -0.411 C  
ENDBRANCH  22  25
ENDBRANCH  14  15
ENDBRANCH  13  14
ENDBRANCH  11  13
ENDBRANCH   9  11
ENDBRANCH   5   9
BRANCH   8  31
HETATM   31  C   UNL     1      -9.161   9.193  64.905  1.00  0.00    -0.132 C  
BRANCH  31  32
HETATM   32  N   UNL     1      -8.004   8.438  65.444  1.00  0.00    -0.114 NA 
HETATM   33  O   UNL     1      -5.484   7.242  66.718  1.00  0.00    -0.022 OA 
HETATM   34  O   UNL     1      -5.137   5.273  65.686  1.00  0.00    -0.008 OA 
HETATM   35  C   UNL     1      -8.398   7.073  65.885  1.00  0.00    -0.141 C  
HETATM   36  C   UNL     1      -5.852   6.258  65.848  1.00  0.00    -0.025 C  
HETATM   37  C   UNL     1      -7.282   7.817  64.291  1.00  0.00    -0.079 C  
HETATM   38  C   UNL     1      -7.183   6.517  65.110  1.00  0.00    -0.070 C  
ENDBRANCH  31  32
ENDBRANCH   8  31
ENDBRANCH   2   3
TORSDOF 9
ENDMDL
MODEL      320
REMARK 921   NORMALIZED FREE ENERGY PREDICTED BY IDOCK:   -2.51 KCAL/MOL
REMARK 922        TOTAL FREE ENERGY PREDICTED BY IDOCK:   -5.26 KCAL/MOL
REMARK 923 INTER-LIGAND FREE ENERGY PREDICTED BY IDOCK:   -6.56 KCAL/MOL
REMARK 924 INTRA-LIGAND FREE ENERGY PREDICTED BY IDOCK:    1.30 KCAL/MOL
REMARK 927      BINDING AFFINITY PREDICTED BY RF-SCORE:    0.00 PKD
ROOT
HETATM    1  C   UNL     1     -12.220  10.675  68.727  1.00  0.00     0.230 C  
HETATM    2  C   UNL     1     -11.039   9.720  68.664  1.00  0.00    -0.140 C  
ENDROOT
BRANCH   2   3
HETATM    3  C   UNL     1     -10.478   9.561  67.269  1.00  0.00    -0.328 A  
HETATM    4  C   UNL     1      -9.693   8.414  67.078  1.00  0.00    -0.268 A  
HETATM    5  C   UNL     1      -8.962   8.206  65.906  1.00  0.00    -0.195 A  
HETATM    6  C   UNL     1      -9.046   9.136  64.877  1.00  0.00    -0.190 A  
HETATM    7  C   UNL     1      -9.883  10.254  65.025  1.00  0.00    -0.397 A  
HETATM    8  C   UNL     1     -10.628  10.479  66.207  1.00  0.00    -0.203 A  
BRANCH   5   9
HETATM    9  C   UNL     1      -8.025   7.048  65.909  1.00  0.00    -0.113 C  
HETATM   10  C   UNL     1      -6.645   7.184  65.326  1.00  0.00    -0.047 C  
BRANCH   9  11
HETATM   11  N   UNL     1      -8.470   5.941  66.436  1.00  0.00    -0.117 NA 
HETATM   12  H   UNL     1      -9.192   5.357  66.014  1.00  0.00     0.000 HD 
BRANCH  11  13
HETATM   13  O   UNL     1      -7.841   5.652  67.647  1.00  0.00    -0.096 OA 
BRANCH  13  14
HETATM   14  C   UNL     1      -7.893   6.825  68.451  1.00  0.00    -0.114 C  
BRANCH  14  15
HETATM   15  C   UNL     1      -8.043   6.390  69.876  1.00  0.00    -0.121 A  
HETATM   16  F   UNL     1      -9.118   7.689  74.456  1.00  0.00    -0.244 F  
HETATM   17  F   UNL     1      -8.311   9.098  73.031  1.00  0.00     0.139 F  
HETATM   18  C   UNL     1      -7.664   5.115  70.268  1.00  0.00    -0.071 A  
HETATM   19  F   UNL     1     -10.374   8.451  72.850  1.00  0.00    -0.370 F  
HETATM   20  C   UNL     1      -7.851   4.709  71.586  1.00  0.00    -0.097 A  
HETATM   21  C   UNL     1      -8.499   7.283  70.847  1.00  0.00    -0.128 A  
HETATM   22  C   UNL     1      -8.457   5.539  72.552  1.00  0.00    -0.118 A  
HETATM   23  C   UNL     1      -9.118   8.000  73.132  1.00  0.00    -0.275 C  
HETATM   24  C   UNL     1      -8.686   6.891  72.192  1.00  0.00    -0.131 A  
BRANCH  22  25
HETATM   25  C   UNL     1      -8.882   4.958  73.909  1.00  0.00    -0.114 C  
HETATM   26  C   UNL     1     -10.386   5.190  74.195  1.00  0.00    -0.307 C  
HETATM   27  C   UNL     1     -11.277   4.371  73.266  1.00  0.00    -0.364 C  
HETATM   28  C   UNL     1     -11.022   2.883  73.447  1.00  0.00    -0.301 C  
HETATM   29  C   UNL     1      -9.547   2.514  73.329  1.00  0.00    -0.132 C  
HETATM   30  C   UNL     1      -8.620   3.443  74.130  1.00  0.00    -0.087 C  
ENDBRANCH  22  25
ENDBRANCH  14  15
ENDBRANCH  13  14
ENDBRANCH  11  13
ENDBRANCH   9  11
ENDBRANCH   5   9
BRANCH   8  31
HETATM   31  C   UNL     1     -11.450  11.754  66.348  1.00  0.00    -0.239 C  
BRANCH  31  32
HETATM   32  N   UNL     1     -10.705  13.028  66.203  1.00  0.00    -0.271 NA 
HETATM   33  O   UNL     1      -9.342  15.689  65.522  1.00  0.00    -0.252 OA 
HETATM   34  O   UNL     1      -7.614  15.889  66.949  1.00  0.00    -0.220 OA 
HETATM   35  C   UNL     1     -10.640  13.775  67.488  1.00  0.00    -0.244 C  
HETATM   36  C   UNL     1      -8.609  15.264  66.591  1.00  0.00    -0.270 C  
HETATM   37  C   UNL     1      -9.247  12.728  66.345  1.00  0.00    -0.145 C  
HETATM   38  C   UNL     1      -9.126  13.968  67.251  1.00  0.00    -0.224 C  
ENDBRANCH  31  32
ENDBRANCH   8  31
ENDBRANCH   2   3
TORSDOF 9
ENDMDL
MODEL      321
REMARK 921   NORMALIZED FREE ENERGY PREDICTED BY IDOCK:   -2.51 KCAL/MOL
REMARK 922        TOTAL FREE ENERGY PREDICTED BY IDOCK:   -5.26 KCAL/MOL
REMARK 923 INTER-LIGAND FREE ENERGY PREDICTED BY IDOCK:   -6.47 KCAL/MOL
REMARK 924 INTRA-LIGAND FREE ENERGY PREDICTED BY IDOCK:    1.21 KCAL/MOL
REMARK 927      BINDING AFFINITY PREDICTED BY RF-SCORE:    0.00 PKD
ROOT
HETATM    1  C   UNL     1      -9.372   8.855  68.831  1.00  0.00    -0.140 C  
HETATM    2  C   UNL     1     -10.758   8.919  68.212  1.00  0.00    -0.135 C  
ENDROOT
BRANCH   2   3
HETATM    3  C   UNL     1     -11.298  10.327  68.111  1.00  0.00    -0.233 A  
HETATM    4  C   UNL     1     -11.140  10.929  66.854  1.00  0.00    -0.236 A  
HETATM    5  C   UNL     1     -11.424  12.280  66.640  1.00  0.00    -0.431 A  
HETATM    6  C   UNL     1     -11.920  13.045  67.687  1.00  0.00    -0.353 A  
HETATM    7  C   UNL     1     -12.152  12.441  68.934  1.00  0.00    -0.171 A  
HETATM    8  C   UNL     1     -11.867  11.074  69.166  1.00  0.00    -0.407 A  
BRANCH   5   9
HETATM    9  C   UNL     1     -11.034  12.834  65.313  1.00  0.00    -0.284 C  
HETATM   10  C   UNL     1     -12.020  12.852  64.176  1.00  0.00    -0.491 C  
BRANCH   9  11
HETATM   11  N   UNL     1      -9.817  13.289  65.208  1.00  0.00    -0.513 NA 
HETATM   12  H   UNL     1      -9.150  12.979  64.501  1.00  0.00     0.000 HD 
BRANCH  11  13
HETATM   13  O   UNL     1      -9.536  14.252  66.177  1.00  0.00    -0.301 OA 
BRANCH  13  14
HETATM   14  C   UNL     1      -8.123  14.398  66.243  1.00  0.00     1.195 C  
BRANCH  14  15
HETATM   15  C   UNL     1      -7.834  15.751  66.818  1.00  0.00    -0.248 A  
HETATM   16  F   UNL     1      -5.916  20.179  66.089  1.00  0.00    -0.174 F  
HETATM   17  F   UNL     1      -5.212  18.440  65.015  1.00  0.00    -0.169 F  
HETATM   18  C   UNL     1      -8.060  16.009  68.162  1.00  0.00    -0.147 A  
HETATM   19  F   UNL     1      -7.132  19.312  64.505  1.00  0.00     0.221 F  
HETATM   20  C   UNL     1      -7.831  17.284  68.672  1.00  0.00    -0.272 A  
HETATM   21  C   UNL     1      -7.267  16.752  66.028  1.00  0.00     0.190 A  
HETATM   22  C   UNL     1      -7.408  18.356  67.860  1.00  0.00    -0.242 A  
HETATM   23  C   UNL     1      -6.334  18.995  65.564  1.00  0.00    -0.263 C  
HETATM   24  C   UNL     1      -7.018  18.049  66.532  1.00  0.00    -0.255 A  
BRANCH  22  25
HETATM   25  C   UNL     1      -7.427  19.791  68.408  1.00  0.00    -0.349 C  
HETATM   26  C   UNL     1      -7.840  20.820  67.328  1.00  0.00    -0.296 C  
HETATM   27  C   UNL     1      -9.304  20.671  66.928  1.00  0.00    -0.373 C  
HETATM   28  C   UNL     1     -10.217  20.900  68.124  1.00  0.00     0.261 C  
HETATM   29  C   UNL     1      -9.843  20.046  69.329  1.00  0.00    -0.157 C  
HETATM   30  C   UNL     1      -8.337  20.053  69.639  1.00  0.00     0.662 C  
ENDBRANCH  22  25
ENDBRANCH  14  15
ENDBRANCH  13  14
ENDBRANCH  11  13
ENDBRANCH   9  11
ENDBRANCH   5   9
BRANCH   8  31
HETATM   31  C   UNL     1     -12.051  10.492  70.561  1.00  0.00    -0.345 C  
BRANCH  31  32
HETATM   32  N   UNL     1     -11.576   9.101  70.755  1.00  0.00    -0.281 NA 
HETATM   33  O   UNL     1     -10.537   6.216  70.739  1.00  0.00    -0.218 OA 
HETATM   34  O   UNL     1     -11.192   5.305  72.688  1.00  0.00    -0.261 OA 
HETATM   35  C   UNL     1     -10.807   8.954  72.019  1.00  0.00    -0.334 C  
HETATM   36  C   UNL     1     -11.113   6.299  71.971  1.00  0.00    -0.268 C  
HETATM   37  C   UNL     1     -12.686   8.318  71.382  1.00  0.00    -0.263 C  
HETATM   38  C   UNL     1     -11.650   7.699  72.338  1.00  0.00    -0.386 C  
ENDBRANCH  31  32
ENDBRANCH   8  31
ENDBRANCH   2   3
TORSDOF 9
ENDMDL
MODEL      322
REMARK 921   NORMALIZED FREE ENERGY PREDICTED BY IDOCK:   -2.43 KCAL/MOL
REMARK 922        TOTAL FREE ENERGY PREDICTED BY IDOCK:   -5.13 KCAL/MOL
REMARK 923 INTER-LIGAND FREE ENERGY PREDICTED BY IDOCK:   -4.97 KCAL/MOL
REMARK 924 INTRA-LIGAND FREE ENERGY PREDICTED BY IDOCK:   -0.16 KCAL/MOL
REMARK 927      BINDING AFFINITY PREDICTED BY RF-SCORE:    0.00 PKD
ROOT
HETATM    1  C   UNL     1      -5.781   9.650  63.915  1.00  0.00    -0.091 C  
HETATM    2  C   UNL     1      -6.095   9.161  65.320  1.00  0.00    -0.063 C  
ENDROOT
BRANCH   2   3
HETATM    3  C   UNL     1      -7.578   9.026  65.583  1.00  0.00    -0.086 A  
HETATM    4  C   UNL     1      -8.316  10.206  65.408  1.00  0.00    -0.159 A  
HETATM    5  C   UNL     1      -9.660  10.298  65.775  1.00  0.00    -0.279 A  
HETATM    6  C   UNL     1     -10.304   9.179  66.287  1.00  0.00    -0.166 A  
HETATM    7  C   UNL     1      -9.599   7.969  66.402  1.00  0.00    -0.267 A  
HETATM    8  C   UNL     1      -8.237   7.862  66.036  1.00  0.00    -0.122 A  
BRANCH   5   9
HETATM    9  C   UNL     1     -10.270  11.656  65.713  1.00  0.00    -0.240 C  
HETATM   10  C   UNL     1     -11.410  11.936  64.771  1.00  0.00    -0.344 C  
BRANCH   9  11
HETATM   11  N   UNL     1      -9.763  12.558  66.507  1.00  0.00    -0.241 NA 
HETATM   12  H   UNL     1      -9.416  13.465  66.193  1.00  0.00     0.000 HD 
BRANCH  11  13
HETATM   13  O   UNL     1      -9.753  12.135  67.835  1.00  0.00    -0.188 OA 
BRANCH  13  14
HETATM   14  C   UNL     1     -10.878  11.284  68.026  1.00  0.00    -0.218 C  
BRANCH  14  15
HETATM   15  C   UNL     1     -10.569  10.379  69.178  1.00  0.00    -0.255 A  
HETATM   16  F   UNL     1     -12.096   6.721  72.026  1.00  0.00    -0.320 F  
HETATM   17  F   UNL     1     -13.482   8.062  71.051  1.00  0.00    -0.228 F  
HETATM   18  C   UNL     1      -9.437  10.582  69.953  1.00  0.00     0.188 A  
HETATM   19  F   UNL     1     -12.435   6.564  69.881  1.00  0.00    -0.263 F  
HETATM   20  C   UNL     1      -9.139   9.706  70.992  1.00  0.00     0.236 A  
HETATM   21  C   UNL     1     -11.452   9.358  69.535  1.00  0.00     0.125 A  
HETATM   22  C   UNL     1      -9.931   8.573  71.273  1.00  0.00    -0.284 A  
HETATM   23  C   UNL     1     -12.266   7.459  70.896  1.00  0.00    -0.231 C  
HETATM   24  C   UNL     1     -11.170   8.464  70.593  1.00  0.00    -0.275 A  
BRANCH  22  25
HETATM   25  C   UNL     1      -9.421   7.499  72.245  1.00  0.00    -0.195 C  
HETATM   26  C   UNL     1      -9.041   6.188  71.515  1.00  0.00    -0.145 C  
HETATM   27  C   UNL     1      -7.805   6.360  70.638  1.00  0.00    -0.107 C  
HETATM   28  C   UNL     1      -6.600   6.759  71.476  1.00  0.00    -0.053 C  
HETATM   29  C   UNL     1      -6.868   7.968  72.364  1.00  0.00    -0.085 C  
HETATM   30  C   UNL     1      -8.201   7.882  73.126  1.00  0.00    -0.221 C  
ENDBRANCH  22  25
ENDBRANCH  14  15
ENDBRANCH  13  14
ENDBRANCH  11  13
ENDBRANCH   9  11
ENDBRANCH   5   9
BRANCH   8  31
HETATM   31  C   UNL     1      -7.496   6.551  66.266  1.00  0.00    -0.081 C  
BRANCH  31  32
HETATM   32  N   UNL     1      -7.062   5.825  65.048  1.00  0.00    -0.062 NA 
HETATM   33  O   UNL     1      -6.155   4.702  62.343  1.00  0.00    -0.016 OA 
HETATM   34  O   UNL     1      -6.630   2.504  62.388  1.00  0.00    -0.017 OA 
HETATM   35  C   UNL     1      -6.165   4.686  65.378  1.00  0.00    -0.034 C  
HETATM   36  C   UNL     1      -6.588   3.578  62.981  1.00  0.00    -0.030 C  
HETATM   37  C   UNL     1      -8.128   4.837  64.696  1.00  0.00    -0.107 C  
HETATM   38  C   UNL     1      -7.020   3.797  64.447  1.00  0.00    -0.046 C  
ENDBRANCH  31  32
ENDBRANCH   8  31
ENDBRANCH   2   3
TORSDOF 9
ENDMDL
MODEL      323
REMARK 921   NORMALIZED FREE ENERGY PREDICTED BY IDOCK:   -2.37 KCAL/MOL
REMARK 922        TOTAL FREE ENERGY PREDICTED BY IDOCK:   -5.05 KCAL/MOL
REMARK 923 INTER-LIGAND FREE ENERGY PREDICTED BY IDOCK:   -5.23 KCAL/MOL
REMARK 924 INTRA-LIGAND FREE ENERGY PREDICTED BY IDOCK:    0.18 KCAL/MOL
REMARK 927      BINDING AFFINITY PREDICTED BY RF-SCORE:    0.00 PKD
ROOT
HETATM    1  C   UNL     1      -6.770  10.552  66.623  1.00  0.00    -0.099 C  
HETATM    2  C   UNL     1      -6.796  12.060  66.438  1.00  0.00     0.505 C  
ENDROOT
BRANCH   2   3
HETATM    3  C   UNL     1      -7.855  12.741  67.275  1.00  0.00    -0.148 A  
HETATM    4  C   UNL     1      -9.149  12.217  67.127  1.00  0.00    -0.193 A  
HETATM    5  C   UNL     1     -10.266  12.837  67.691  1.00  0.00    -0.219 A  
HETATM    6  C   UNL     1     -10.094  13.981  68.459  1.00  0.00    -0.236 A  
HETATM    7  C   UNL     1      -8.798  14.479  68.677  1.00  0.00    -0.180 A  
HETATM    8  C   UNL     1      -7.658  13.862  68.110  1.00  0.00    -0.134 A  
BRANCH   5   9
HETATM    9  C   UNL     1     -11.594  12.286  67.300  1.00  0.00    -0.357 C  
HETATM   10  C   UNL     1     -12.421  12.971  66.246  1.00  0.00    -0.112 C  
BRANCH   9  11
HETATM   11  N   UNL     1     -11.978  11.202  67.915  1.00  0.00    -0.680 NA 
HETATM   12  H   UNL     1     -12.954  10.959  68.088  1.00  0.00     0.000 HD 
BRANCH  11  13
HETATM   13  O   UNL     1     -10.896  10.416  68.308  1.00  0.00    -0.218 OA 
BRANCH  13  14
HETATM   14  C   UNL     1     -10.615   9.508  67.249  1.00  0.00    -0.248 C  
BRANCH  14  15
HETATM   15  C   UNL     1      -9.694   8.457  67.786  1.00  0.00    -0.199 A  
HETATM   16  F   UNL     1      -7.065   6.877  71.583  1.00  0.00    -0.069 F  
HETATM   17  F   UNL     1      -7.508   8.973  71.296  1.00  0.00    -0.097 F  
HETATM   18  C   UNL     1      -9.184   7.472  66.953  1.00  0.00    -0.181 A  
HETATM   19  F   UNL     1      -9.073   7.626  71.964  1.00  0.00    -0.134 F  
HETATM   20  C   UNL     1      -8.366   6.475  67.475  1.00  0.00    -0.121 A  
HETATM   21  C   UNL     1      -9.275   8.492  69.117  1.00  0.00    -0.150 A  
HETATM   22  C   UNL     1      -8.056   6.397  68.849  1.00  0.00    -0.111 A  
HETATM   23  C   UNL     1      -8.019   7.720  71.104  1.00  0.00    -0.090 C  
HETATM   24  C   UNL     1      -8.437   7.494  69.663  1.00  0.00    -0.135 A  
BRANCH  22  25
HETATM   25  C   UNL     1      -7.377   5.140  69.415  1.00  0.00    -0.057 C  
HETATM   26  C   UNL     1      -7.934   3.843  68.780  1.00  0.00    -0.068 C  
HETATM   27  C   UNL     1      -7.544   3.715  67.310  1.00  0.00    -0.078 C  
HETATM   28  C   UNL     1      -6.032   3.665  67.155  1.00  0.00    -0.024 C  
HETATM   29  C   UNL     1      -5.324   4.819  67.856  1.00  0.00    -0.011 C  
HETATM   30  C   UNL     1      -5.831   5.067  69.286  1.00  0.00    -0.017 C  
ENDBRANCH  22  25
ENDBRANCH  14  15
ENDBRANCH  13  14
ENDBRANCH  11  13
ENDBRANCH   9  11
ENDBRANCH   5   9
BRANCH   8  31
HETATM   31  C   UNL     1      -6.286  14.495  68.303  1.00  0.00    -0.120 C  
BRANCH  31  32
HETATM   32  N   UNL     1      -6.277  15.935  68.659  1.00  0.00    -0.103 NA 
HETATM   33  O   UNL     1      -6.381  18.789  69.776  1.00  0.00    -0.251 OA 
HETATM   34  O   UNL     1      -6.457  20.156  67.992  1.00  0.00    -0.241 OA 
HETATM   35  C   UNL     1      -5.161  16.658  67.992  1.00  0.00    -0.118 C  
HETATM   36  C   UNL     1      -6.343  19.016  68.433  1.00  0.00    -0.228 C  
HETATM   37  C   UNL     1      -7.230  16.640  67.747  1.00  0.00    -0.138 C  
HETATM   38  C   UNL     1      -6.173  17.746  67.570  1.00  0.00    -0.171 C  
ENDBRANCH  31  32
ENDBRANCH   8  31
ENDBRANCH   2   3
TORSDOF 9
ENDMDL
MODEL      324
REMARK 921   NORMALIZED FREE ENERGY PREDICTED BY IDOCK:   -2.35 KCAL/MOL
REMARK 922        TOTAL FREE ENERGY PREDICTED BY IDOCK:   -5.02 KCAL/MOL
REMARK 923 INTER-LIGAND FREE ENERGY PREDICTED BY IDOCK:   -5.26 KCAL/MOL
REMARK 924 INTRA-LIGAND FREE ENERGY PREDICTED BY IDOCK:    0.24 KCAL/MOL
REMARK 927      BINDING AFFINITY PREDICTED BY RF-SCORE:    0.00 PKD
ROOT
HETATM    1  C   UNL     1      -6.770  10.552  66.623  1.00  0.00    -0.099 C  
HETATM    2  C   UNL     1      -6.796  12.060  66.438  1.00  0.00     0.505 C  
ENDROOT
BRANCH   2   3
HETATM    3  C   UNL     1      -7.855  12.741  67.275  1.00  0.00    -0.148 A  
HETATM    4  C   UNL     1      -9.149  12.217  67.127  1.00  0.00    -0.193 A  
HETATM    5  C   UNL     1     -10.266  12.837  67.691  1.00  0.00    -0.219 A  
HETATM    6  C   UNL     1     -10.094  13.981  68.459  1.00  0.00    -0.236 A  
HETATM    7  C   UNL     1      -8.798  14.479  68.677  1.00  0.00    -0.180 A  
HETATM    8  C   UNL     1      -7.658  13.862  68.110  1.00  0.00    -0.134 A  
BRANCH   5   9
HETATM    9  C   UNL     1     -11.594  12.286  67.300  1.00  0.00    -0.357 C  
HETATM   10  C   UNL     1     -12.421  12.971  66.246  1.00  0.00    -0.112 C  
BRANCH   9  11
HETATM   11  N   UNL     1     -11.978  11.202  67.915  1.00  0.00    -0.680 NA 
HETATM   12  H   UNL     1     -12.954  10.959  68.088  1.00  0.00     0.000 HD 
BRANCH  11  13
HETATM   13  O   UNL     1     -10.896  10.416  68.308  1.00  0.00    -0.218 OA 
BRANCH  13  14
HETATM   14  C   UNL     1     -10.615   9.508  67.249  1.00  0.00    -0.248 C  
BRANCH  14  15
HETATM   15  C   UNL     1      -9.694   8.457  67.786  1.00  0.00    -0.199 A  
HETATM   16  F   UNL     1      -7.212   4.350  66.894  1.00  0.00    -0.066 F  
HETATM   17  F   UNL     1      -9.020   4.846  65.819  1.00  0.00    -0.124 F  
HETATM   18  C   UNL     1      -9.370   8.425  69.135  1.00  0.00    -0.151 A  
HETATM   19  F   UNL     1      -7.183   5.917  65.383  1.00  0.00    -0.066 F  
HETATM   20  C   UNL     1      -8.477   7.470  69.612  1.00  0.00    -0.135 A  
HETATM   21  C   UNL     1      -9.202   7.450  66.954  1.00  0.00    -0.183 A  
HETATM   22  C   UNL     1      -7.843   6.540  68.763  1.00  0.00    -0.110 A  
HETATM   23  C   UNL     1      -7.921   5.405  66.409  1.00  0.00    -0.104 C  
HETATM   24  C   UNL     1      -8.302   6.466  67.424  1.00  0.00    -0.112 A  
BRANCH  22  25
HETATM   25  C   UNL     1      -6.675   5.690  69.287  1.00  0.00    -0.060 C  
HETATM   26  C   UNL     1      -5.735   6.502  70.211  1.00  0.00    -0.019 C  
HETATM   27  C   UNL     1      -6.409   6.868  71.530  1.00  0.00    -0.041 C  
HETATM   28  C   UNL     1      -6.805   5.618  72.299  1.00  0.00    -0.073 C  
HETATM   29  C   UNL     1      -7.629   4.644  71.465  1.00  0.00    -0.082 C  
HETATM   30  C   UNL     1      -7.048   4.398  70.063  1.00  0.00    -0.045 C  
ENDBRANCH  22  25
ENDBRANCH  14  15
ENDBRANCH  13  14
ENDBRANCH  11  13
ENDBRANCH   9  11
ENDBRANCH   5   9
BRANCH   8  31
HETATM   31  C   UNL     1      -6.286  14.495  68.303  1.00  0.00    -0.120 C  
BRANCH  31  32
HETATM   32  N   UNL     1      -6.277  15.935  68.659  1.00  0.00    -0.103 NA 
HETATM   33  O   UNL     1      -6.381  18.789  69.776  1.00  0.00    -0.251 OA 
HETATM   34  O   UNL     1      -6.457  20.156  67.992  1.00  0.00    -0.241 OA 
HETATM   35  C   UNL     1      -5.161  16.658  67.992  1.00  0.00    -0.118 C  
HETATM   36  C   UNL     1      -6.343  19.016  68.433  1.00  0.00    -0.228 C  
HETATM   37  C   UNL     1      -7.230  16.640  67.747  1.00  0.00    -0.138 C  
HETATM   38  C   UNL     1      -6.173  17.746  67.570  1.00  0.00    -0.171 C  
ENDBRANCH  31  32
ENDBRANCH   8  31
ENDBRANCH   2   3
TORSDOF 9
ENDMDL
MODEL      325
REMARK 921   NORMALIZED FREE ENERGY PREDICTED BY IDOCK:   -2.20 KCAL/MOL
REMARK 922        TOTAL FREE ENERGY PREDICTED BY IDOCK:   -4.78 KCAL/MOL
REMARK 923 INTER-LIGAND FREE ENERGY PREDICTED BY IDOCK:   -5.69 KCAL/MOL
REMARK 924 INTRA-LIGAND FREE ENERGY PREDICTED BY IDOCK:    0.90 KCAL/MOL
REMARK 927      BINDING AFFINITY PREDICTED BY RF-SCORE:    0.00 PKD
ROOT
HETATM    1  C   UNL     1     -14.393  15.431  70.578  1.00  0.00     0.823 C  
HETATM    2  C   UNL     1     -13.775  14.323  71.415  1.00  0.00    -0.382 C  
ENDROOT
BRANCH   2   3
HETATM    3  C   UNL     1     -12.442  13.851  70.880  1.00  0.00    -0.447 A  
HETATM    4  C   UNL     1     -11.551  14.878  70.533  1.00  0.00    -0.336 A  
HETATM    5  C   UNL     1     -10.351  14.621  69.866  1.00  0.00     0.109 A  
HETATM    6  C   UNL     1     -10.002  13.308  69.575  1.00  0.00     0.916 A  
HETATM    7  C   UNL     1     -10.849  12.263  69.979  1.00  0.00     0.767 A  
HETATM    8  C   UNL     1     -12.068  12.509  70.654  1.00  0.00    -0.312 A  
BRANCH   5   9
HETATM    9  C   UNL     1      -9.592  15.811  69.390  1.00  0.00    -0.284 C  
HETATM   10  C   UNL     1     -10.289  17.132  69.200  1.00  0.00    -0.297 C  
BRANCH   9  11
HETATM   11  N   UNL     1      -8.322  15.636  69.155  1.00  0.00    -0.234 NA 
HETATM   12  H   UNL     1      -7.841  14.741  69.248  1.00  0.00     0.000 HD 
BRANCH  11  13
HETATM   13  O   UNL     1      -7.698  16.819  68.762  1.00  0.00    -0.220 OA 
BRANCH  13  14
HETATM   14  C   UNL     1      -7.661  16.836  67.340  1.00  0.00    -0.169 C  
BRANCH  14  15
HETATM   15  C   UNL     1      -8.278  15.560  66.857  1.00  0.00    -0.287 A  
HETATM   16  F   UNL     1      -7.867  10.712  66.465  1.00  0.00    -0.116 F  
HETATM   17  F   UNL     1      -6.134  11.997  66.581  1.00  0.00    -0.146 F  
HETATM   18  C   UNL     1      -9.425  15.581  66.076  1.00  0.00    -0.387 A  
HETATM   19  F   UNL     1      -7.326  11.640  68.359  1.00  0.00    -0.073 F  
HETATM   20  C   UNL     1     -10.012  14.386  65.673  1.00  0.00    -0.365 A  
HETATM   21  C   UNL     1      -7.670  14.331  67.123  1.00  0.00    -0.046 A  
HETATM   22  C   UNL     1      -9.506  13.128  66.062  1.00  0.00    -0.103 A  
HETATM   23  C   UNL     1      -7.423  11.872  67.018  1.00  0.00    -0.126 C  
HETATM   24  C   UNL     1      -8.247  13.108  66.712  1.00  0.00     0.128 A  
BRANCH  22  25
HETATM   25  C   UNL     1     -10.333  11.856  65.818  1.00  0.00    -0.285 C  
HETATM   26  C   UNL     1     -11.729  11.935  66.481  1.00  0.00    -0.247 C  
HETATM   27  C   UNL     1     -12.625  12.968  65.804  1.00  0.00    -0.269 C  
HETATM   28  C   UNL     1     -12.854  12.609  64.344  1.00  0.00    -0.344 C  
HETATM   29  C   UNL     1     -11.557  12.362  63.583  1.00  0.00    -0.580 C  
HETATM   30  C   UNL     1     -10.571  11.455  64.336  1.00  0.00    -0.403 C  
ENDBRANCH  22  25
ENDBRANCH  14  15
ENDBRANCH  13  14
ENDBRANCH  11  13
ENDBRANCH   9  11
ENDBRANCH   5   9
BRANCH   8  31
HETATM   31  C   UNL     1     -12.991  11.344  70.989  1.00  0.00    -0.187 C  
BRANCH  31  32
HETATM   32  N   UNL     1     -12.359  10.184  71.661  1.00  0.00    -0.397 NA 
HETATM   33  O   UNL     1     -11.039   8.026  73.395  1.00  0.00    -0.196 OA 
HETATM   34  O   UNL     1     -10.149   6.534  71.966  1.00  0.00    -0.184 OA 
HETATM   35  C   UNL     1     -12.929   8.895  71.186  1.00  0.00    -0.119 C  
HETATM   36  C   UNL     1     -10.830   7.541  72.138  1.00  0.00    -0.240 C  
HETATM   37  C   UNL     1     -11.099   9.856  70.925  1.00  0.00    -0.348 C  
HETATM   38  C   UNL     1     -11.488   8.368  71.013  1.00  0.00    -0.302 C  
ENDBRANCH  31  32
ENDBRANCH   8  31
ENDBRANCH   2   3
TORSDOF 9
ENDMDL
MODEL      326
REMARK 921   NORMALIZED FREE ENERGY PREDICTED BY IDOCK:   -2.16 KCAL/MOL
REMARK 922        TOTAL FREE ENERGY PREDICTED BY IDOCK:   -4.73 KCAL/MOL
REMARK 923 INTER-LIGAND FREE ENERGY PREDICTED BY IDOCK:   -7.93 KCAL/MOL
REMARK 924 INTRA-LIGAND FREE ENERGY PREDICTED BY IDOCK:    3.20 KCAL/MOL
REMARK 927      BINDING AFFINITY PREDICTED BY RF-SCORE:    0.00 PKD
ROOT
HETATM    1  C   UNL     1      -6.240  14.282  69.594  1.00  0.00    -0.126 C  
HETATM    2  C   UNL     1      -5.629  15.375  68.732  1.00  0.00    -0.093 C  
ENDROOT
BRANCH   2   3
HETATM    3  C   UNL     1      -6.626  16.017  67.795  1.00  0.00    -0.175 A  
HETATM    4  C   UNL     1      -7.762  15.240  67.522  1.00  0.00    -0.200 A  
HETATM    5  C   UNL     1      -8.693  15.607  66.547  1.00  0.00    -0.342 A  
HETATM    6  C   UNL     1      -8.518  16.798  65.854  1.00  0.00    -0.032 A  
HETATM    7  C   UNL     1      -7.424  17.623  66.165  1.00  0.00    -0.334 A  
HETATM    8  C   UNL     1      -6.473  17.263  67.148  1.00  0.00    -0.201 A  
BRANCH   5   9
HETATM    9  C   UNL     1      -9.745  14.603  66.228  1.00  0.00    -0.307 C  
HETATM   10  C   UNL     1      -9.562  13.648  65.079  1.00  0.00     0.273 C  
BRANCH   9  11
HETATM   11  N   UNL     1     -10.804  14.607  66.989  1.00  0.00    -0.298 NA 
HETATM   12  H   UNL     1     -10.854  15.070  67.896  1.00  0.00     0.000 HD 
BRANCH  11  13
HETATM   13  O   UNL     1     -11.860  13.901  66.414  1.00  0.00    -0.369 OA 
BRANCH  13  14
HETATM   14  C   UNL     1     -11.348  12.656  65.954  1.00  0.00    -0.334 C  
BRANCH  14  15
HETATM   15  C   UNL     1     -11.196  11.762  67.146  1.00  0.00    -0.375 A  
HETATM   16  F   UNL     1      -9.373   7.601  68.930  1.00  0.00    -0.145 F  
HETATM   17  F   UNL     1      -9.875   7.822  66.840  1.00  0.00    -0.210 F  
HETATM   18  C   UNL     1     -11.884  12.028  68.321  1.00  0.00    -0.351 A  
HETATM   19  F   UNL     1      -8.107   8.803  67.629  1.00  0.00    -0.103 F  
HETATM   20  C   UNL     1     -11.698  11.215  69.434  1.00  0.00    -0.402 A  
HETATM   21  C   UNL     1     -10.416  10.607  67.073  1.00  0.00    -0.295 A  
HETATM   22  C   UNL     1     -10.793  10.133  69.435  1.00  0.00    -0.274 A  
HETATM   23  C   UNL     1      -9.407   8.514  67.922  1.00  0.00    -0.135 C  
HETATM   24  C   UNL     1     -10.224   9.764  68.191  1.00  0.00    -0.220 A  
BRANCH  22  25
HETATM   25  C   UNL     1     -10.426   9.438  70.755  1.00  0.00    -0.372 C  
HETATM   26  C   UNL     1     -11.290   9.940  71.936  1.00  0.00     0.361 C  
HETATM   27  C   UNL     1     -12.746   9.504  71.804  1.00  0.00    -0.492 C  
HETATM   28  C   UNL     1     -12.857   7.987  71.794  1.00  0.00    -0.353 C  
HETATM   29  C   UNL     1     -11.947   7.332  70.762  1.00  0.00    -0.311 C  
HETATM   30  C   UNL     1     -10.514   7.887  70.771  1.00  0.00    -0.218 C  
ENDBRANCH  22  25
ENDBRANCH  14  15
ENDBRANCH  13  14
ENDBRANCH  11  13
ENDBRANCH   9  11
ENDBRANCH   5   9
BRANCH   8  31
HETATM   31  C   UNL     1      -5.257  18.151  67.381  1.00  0.00    -0.137 C  
BRANCH  31  32
HETATM   32  N   UNL     1      -5.362  19.119  68.500  1.00  0.00    -0.191 NA 
HETATM   33  O   UNL     1      -5.236  21.301  70.650  1.00  0.00    -0.577 OA 
HETATM   34  O   UNL     1      -6.492  20.563  72.364  1.00  0.00    -0.007 OA 
HETATM   35  C   UNL     1      -6.780  19.436  68.820  1.00  0.00    -0.303 C  
HETATM   36  C   UNL     1      -6.088  20.400  71.216  1.00  0.00    -0.140 C  
HETATM   37  C   UNL     1      -5.283  18.352  69.782  1.00  0.00    -0.195 C  
HETATM   38  C   UNL     1      -6.452  19.203  70.311  1.00  0.00     0.057 C  
ENDBRANCH  31  32
ENDBRANCH   8  31
ENDBRANCH   2   3
TORSDOF 9
ENDMDL
MODEL      327
REMARK 921   NORMALIZED FREE ENERGY PREDICTED BY IDOCK:   -2.13 KCAL/MOL
REMARK 922        TOTAL FREE ENERGY PREDICTED BY IDOCK:   -4.68 KCAL/MOL
REMARK 923 INTER-LIGAND FREE ENERGY PREDICTED BY IDOCK:   -4.25 KCAL/MOL
REMARK 924 INTRA-LIGAND FREE ENERGY PREDICTED BY IDOCK:   -0.43 KCAL/MOL
REMARK 927      BINDING AFFINITY PREDICTED BY RF-SCORE:    0.00 PKD
ROOT
HETATM    1  C   UNL     1     -13.648  11.030  72.071  1.00  0.00    -0.147 C  
HETATM    2  C   UNL     1     -13.733  10.874  70.561  1.00  0.00     1.206 C  
ENDROOT
BRANCH   2   3
HETATM    3  C   UNL     1     -12.377  10.840  69.893  1.00  0.00    -0.340 A  
HETATM    4  C   UNL     1     -11.908   9.555  69.579  1.00  0.00     0.396 A  
HETATM    5  C   UNL     1     -10.608   9.334  69.120  1.00  0.00    -0.228 A  
HETATM    6  C   UNL     1      -9.762  10.419  68.923  1.00  0.00    -0.203 A  
HETATM    7  C   UNL     1     -10.239  11.718  69.164  1.00  0.00     0.048 A  
HETATM    8  C   UNL     1     -11.553  11.956  69.631  1.00  0.00    -0.387 A  
BRANCH   5   9
HETATM    9  C   UNL     1     -10.180   7.911  69.007  1.00  0.00    -0.209 C  
HETATM   10  C   UNL     1      -8.726   7.566  68.828  1.00  0.00    -0.128 C  
BRANCH   9  11
HETATM   11  N   UNL     1     -11.123   7.014  69.072  1.00  0.00    -0.462 NA 
HETATM   12  H   UNL     1     -11.438   6.457  68.277  1.00  0.00     0.000 HD 
BRANCH  11  13
HETATM   13  O   UNL     1     -11.650   6.905  70.358  1.00  0.00    -0.325 OA 
BRANCH  13  14
HETATM   14  C   UNL     1     -11.364   5.595  70.833  1.00  0.00     0.089 C  
BRANCH  14  15
HETATM   15  C   UNL     1     -10.067   5.658  71.580  1.00  0.00    -0.253 A  
HETATM   16  F   UNL     1      -5.421   4.185  71.836  1.00  0.00     0.000 F  
HETATM   17  F   UNL     1      -6.946   2.988  70.880  1.00  0.00    -0.031 F  
HETATM   18  C   UNL     1      -9.992   6.292  72.811  1.00  0.00    -0.183 A  
HETATM   19  F   UNL     1      -6.207   4.775  69.893  1.00  0.00    -0.021 F  
HETATM   20  C   UNL     1      -8.771   6.383  73.472  1.00  0.00    -0.130 A  
HETATM   21  C   UNL     1      -8.930   5.018  71.084  1.00  0.00    -0.165 A  
HETATM   22  C   UNL     1      -7.574   5.883  72.917  1.00  0.00    -0.099 A  
HETATM   23  C   UNL     1      -6.569   4.282  71.112  1.00  0.00    -0.030 C  
HETATM   24  C   UNL     1      -7.684   5.091  71.747  1.00  0.00    -0.107 A  
BRANCH  22  25
HETATM   25  C   UNL     1      -6.222   6.240  73.553  1.00  0.00    -0.064 C  
HETATM   26  C   UNL     1      -5.144   6.554  72.489  1.00  0.00    -0.031 C  
HETATM   27  C   UNL     1      -5.437   7.853  71.745  1.00  0.00    -0.035 C  
HETATM   28  C   UNL     1      -5.460   9.032  72.706  1.00  0.00    -0.079 C  
HETATM   29  C   UNL     1      -6.386   8.810  73.897  1.00  0.00    -0.065 C  
HETATM   30  C   UNL     1      -6.216   7.429  74.552  1.00  0.00    -0.082 C  
ENDBRANCH  22  25
ENDBRANCH  14  15
ENDBRANCH  13  14
ENDBRANCH  11  13
ENDBRANCH   9  11
ENDBRANCH   5   9
BRANCH   8  31
HETATM   31  C   UNL     1     -11.989  13.378  69.963  1.00  0.00    -0.337 C  
BRANCH  31  32
HETATM   32  N   UNL     1     -11.253  14.463  69.270  1.00  0.00    -0.265 NA 
HETATM   33  O   UNL     1      -9.525  16.400  67.637  1.00  0.00    -0.222 OA 
HETATM   34  O   UNL     1      -9.628  18.379  68.701  1.00  0.00    -0.323 OA 
HETATM   35  C   UNL     1     -12.132  15.628  68.985  1.00  0.00    -0.205 C  
HETATM   36  C   UNL     1     -10.013  17.216  68.613  1.00  0.00    -0.313 C  
HETATM   37  C   UNL     1     -10.560  15.286  70.309  1.00  0.00    -0.232 C  
HETATM   38  C   UNL     1     -11.031  16.547  69.561  1.00  0.00    -0.289 C  
ENDBRANCH  31  32
ENDBRANCH   8  31
ENDBRANCH   2   3
TORSDOF 9
ENDMDL
MODEL      328
REMARK 921   NORMALIZED FREE ENERGY PREDICTED BY IDOCK:   -2.12 KCAL/MOL
REMARK 922        TOTAL FREE ENERGY PREDICTED BY IDOCK:   -4.66 KCAL/MOL
REMARK 923 INTER-LIGAND FREE ENERGY PREDICTED BY IDOCK:   -7.85 KCAL/MOL
REMARK 924 INTRA-LIGAND FREE ENERGY PREDICTED BY IDOCK:    3.19 KCAL/MOL
REMARK 927      BINDING AFFINITY PREDICTED BY RF-SCORE:    0.00 PKD
ROOT
HETATM    1  C   UNL     1     -10.411  15.230  65.248  1.00  0.00    -0.436 C  
HETATM    2  C   UNL     1      -9.231  14.371  65.670  1.00  0.00     0.319 C  
ENDROOT
BRANCH   2   3
HETATM    3  C   UNL     1      -9.565  13.414  66.792  1.00  0.00    -0.262 A  
HETATM    4  C   UNL     1      -9.555  12.058  66.432  1.00  0.00    -0.239 A  
HETATM    5  C   UNL     1     -10.008  11.060  67.297  1.00  0.00    -0.210 A  
HETATM    6  C   UNL     1     -10.441  11.408  68.570  1.00  0.00    -0.223 A  
HETATM    7  C   UNL     1     -10.391  12.754  68.972  1.00  0.00     0.040 A  
HETATM    8  C   UNL     1      -9.937  13.775  68.105  1.00  0.00    -0.242 A  
BRANCH   5   9
HETATM    9  C   UNL     1     -10.120   9.690  66.723  1.00  0.00    -0.236 C  
HETATM   10  C   UNL     1      -9.373   9.327  65.468  1.00  0.00    -0.303 C  
BRANCH   9  11
HETATM   11  N   UNL     1     -10.887   8.852  67.363  1.00  0.00    -0.439 NA 
HETATM   12  H   UNL     1     -11.824   8.587  67.059  1.00  0.00     0.000 HD 
BRANCH  11  13
HETATM   13  O   UNL     1     -10.273   8.361  68.515  1.00  0.00    -0.194 OA 
BRANCH  13  14
HETATM   14  C   UNL     1     -11.155   8.592  69.607  1.00  0.00    -0.013 C  
BRANCH  14  15
HETATM   15  C   UNL     1     -10.778   7.642  70.701  1.00  0.00    -0.237 A  
HETATM   16  F   UNL     1      -7.608   6.533  74.243  1.00  0.00    -0.097 F  
HETATM   17  F   UNL     1      -7.021   7.670  72.502  1.00  0.00    -0.063 F  
HETATM   18  C   UNL     1     -11.466   6.449  70.868  1.00  0.00    -0.406 A  
HETATM   19  F   UNL     1      -8.235   8.607  74.038  1.00  0.00    -0.273 F  
HETATM   20  C   UNL     1     -11.135   5.596  71.917  1.00  0.00    -0.278 A  
HETATM   21  C   UNL     1      -9.684   7.906  71.527  1.00  0.00    -0.201 A  
HETATM   22  C   UNL     1     -10.137   5.916  72.861  1.00  0.00    -0.199 A  
HETATM   23  C   UNL     1      -8.072   7.443  73.345  1.00  0.00    -0.112 C  
HETATM   24  C   UNL     1      -9.327   7.047  72.591  1.00  0.00    -0.159 A  
BRANCH  22  25
HETATM   25  C   UNL     1      -9.994   5.079  74.142  1.00  0.00    -0.215 C  
HETATM   26  C   UNL     1     -10.856   3.795  74.097  1.00  0.00    -0.222 C  
HETATM   27  C   UNL     1     -10.336   2.795  73.068  1.00  0.00    -0.239 C  
HETATM   28  C   UNL     1      -8.919   2.359  73.407  1.00  0.00    -0.076 C  
HETATM   29  C   UNL     1      -7.972   3.534  73.620  1.00  0.00    -0.074 C  
HETATM   30  C   UNL     1      -8.556   4.633  74.523  1.00  0.00    -0.105 C  
ENDBRANCH  22  25
ENDBRANCH  14  15
ENDBRANCH  13  14
ENDBRANCH  11  13
ENDBRANCH   9  11
ENDBRANCH   5   9
BRANCH   8  31
HETATM   31  C   UNL     1      -9.989  15.228  68.561  1.00  0.00    -0.222 C  
BRANCH  31  32
HETATM   32  N   UNL     1     -10.826  15.507  69.753  1.00  0.00    -0.271 NA 
HETATM   33  O   UNL     1     -12.196  16.169  72.415  1.00  0.00    -0.469 OA 
HETATM   34  O   UNL     1     -14.254  15.270  72.299  1.00  0.00    -0.518 OA 
HETATM   35  C   UNL     1     -12.108  16.162  69.381  1.00  0.00     0.049 C  
HETATM   36  C   UNL     1     -13.190  15.524  71.742  1.00  0.00    -0.481 C  
HETATM   37  C   UNL     1     -11.595  14.266  70.076  1.00  0.00    -0.261 C  
HETATM   38  C   UNL     1     -12.841  15.147  70.286  1.00  0.00    -0.284 C  
ENDBRANCH  31  32
ENDBRANCH   8  31
ENDBRANCH   2   3
TORSDOF 9
ENDMDL
MODEL      329
REMARK 921   NORMALIZED FREE ENERGY PREDICTED BY IDOCK:   -1.78 KCAL/MOL
REMARK 922        TOTAL FREE ENERGY PREDICTED BY IDOCK:   -4.14 KCAL/MOL
REMARK 923 INTER-LIGAND FREE ENERGY PREDICTED BY IDOCK:   -4.59 KCAL/MOL
REMARK 924 INTRA-LIGAND FREE ENERGY PREDICTED BY IDOCK:    0.45 KCAL/MOL
REMARK 927      BINDING AFFINITY PREDICTED BY RF-SCORE:    0.00 PKD
ROOT
HETATM    1  C   UNL     1     -10.925  15.284  66.339  1.00  0.00    -0.299 C  
HETATM    2  C   UNL     1     -11.986  15.805  67.294  1.00  0.00     0.635 C  
ENDROOT
BRANCH   2   3
HETATM    3  C   UNL     1     -11.560  15.742  68.743  1.00  0.00    -0.401 A  
HETATM    4  C   UNL     1     -12.160  14.716  69.489  1.00  0.00    -0.335 A  
HETATM    5  C   UNL     1     -12.011  14.624  70.874  1.00  0.00    -0.388 A  
HETATM    6  C   UNL     1     -11.211  15.548  71.535  1.00  0.00    -0.399 A  
HETATM    7  C   UNL     1     -10.545  16.540  70.795  1.00  0.00     0.619 A  
HETATM    8  C   UNL     1     -10.689  16.645  69.391  1.00  0.00    -0.331 A  
BRANCH   5   9
HETATM    9  C   UNL     1     -12.851  13.604  71.562  1.00  0.00    -0.359 C  
HETATM   10  C   UNL     1     -14.349  13.746  71.590  1.00  0.00    -0.002 C  
BRANCH   9  11
HETATM   11  N   UNL     1     -12.218  12.611  72.122  1.00  0.00     0.652 NA 
HETATM   12  H   UNL     1     -11.547  12.717  72.883  1.00  0.00     0.000 HD 
BRANCH  11  13
HETATM   13  O   UNL     1     -12.569  11.386  71.555  1.00  0.00    -0.348 OA 
BRANCH  13  14
HETATM   14  C   UNL     1     -13.002  11.636  70.222  1.00  0.00     0.315 C  
BRANCH  14  15
HETATM   15  C   UNL     1     -11.881  11.255  69.305  1.00  0.00    -0.423 A  
HETATM   16  F   UNL     1     -10.146  11.275  64.743  1.00  0.00    -0.257 F  
HETATM   17  F   UNL     1     -12.267  11.300  65.156  1.00  0.00     0.243 F  
HETATM   18  C   UNL     1     -10.835  10.464  69.757  1.00  0.00    -0.342 A  
HETATM   19  F   UNL     1     -11.086  13.090  65.493  1.00  0.00    -0.286 F  
HETATM   20  C   UNL     1      -9.778  10.156  68.907  1.00  0.00    -0.189 A  
HETATM   21  C   UNL     1     -11.906  11.629  67.960  1.00  0.00    -0.295 A  
HETATM   22  C   UNL     1      -9.701  10.654  67.589  1.00  0.00    -0.186 A  
HETATM   23  C   UNL     1     -11.063  11.734  65.636  1.00  0.00    -0.285 C  
HETATM   24  C   UNL     1     -10.846  11.316  67.079  1.00  0.00    -0.332 A  
BRANCH  22  25
HETATM   25  C   UNL     1      -8.399  10.509  66.786  1.00  0.00    -0.128 C  
HETATM   26  C   UNL     1      -7.221  11.262  67.450  1.00  0.00    -0.110 C  
HETATM   27  C   UNL     1      -6.796  10.611  68.763  1.00  0.00    -0.062 C  
HETATM   28  C   UNL     1      -6.328   9.182  68.531  1.00  0.00    -0.053 C  
HETATM   29  C   UNL     1      -7.339   8.345  67.756  1.00  0.00    -0.093 C  
HETATM   30  C   UNL     1      -7.904   9.062  66.519  1.00  0.00    -0.100 C  
ENDBRANCH  22  25
ENDBRANCH  14  15
ENDBRANCH  13  14
ENDBRANCH  11  13
ENDBRANCH   9  11
ENDBRANCH   5   9
BRANCH   8  31
HETATM   31  C   UNL     1     -10.017  17.794  68.650  1.00  0.00    -0.379 C  
BRANCH  31  32
HETATM   32  N   UNL     1      -8.948  18.509  69.388  1.00  0.00     0.258 NA 
HETATM   33  O   UNL     1      -7.042  20.125  71.165  1.00  0.00     0.091 OA 
HETATM   34  O   UNL     1      -5.153  20.395  69.974  1.00  0.00    -0.212 OA 
HETATM   35  C   UNL     1      -7.692  17.714  69.441  1.00  0.00     0.243 C  
HETATM   36  C   UNL     1      -6.268  19.888  70.069  1.00  0.00    -0.350 C  
HETATM   37  C   UNL     1      -8.273  19.441  68.432  1.00  0.00    -0.347 C  
HETATM   38  C   UNL     1      -6.921  18.979  69.005  1.00  0.00    -0.354 C  
ENDBRANCH  31  32
ENDBRANCH   8  31
ENDBRANCH   2   3
TORSDOF 9
ENDMDL
MODEL      330
REMARK 921   NORMALIZED FREE ENERGY PREDICTED BY IDOCK:   -1.46 KCAL/MOL
REMARK 922        TOTAL FREE ENERGY PREDICTED BY IDOCK:   -3.66 KCAL/MOL
REMARK 923 INTER-LIGAND FREE ENERGY PREDICTED BY IDOCK:   -3.07 KCAL/MOL
REMARK 924 INTRA-LIGAND FREE ENERGY PREDICTED BY IDOCK:   -0.59 KCAL/MOL
REMARK 927      BINDING AFFINITY PREDICTED BY RF-SCORE:    0.00 PKD
ROOT
HETATM    1  C   UNL     1      -8.838  16.627  66.190  1.00  0.00    -0.323 C  
HETATM    2  C   UNL     1      -8.964  15.309  65.443  1.00  0.00     0.992 C  
ENDROOT
BRANCH   2   3
HETATM    3  C   UNL     1     -10.225  14.549  65.790  1.00  0.00    -0.354 A  
HETATM    4  C   UNL     1     -10.874  14.988  66.954  1.00  0.00    -0.315 A  
HETATM    5  C   UNL     1     -11.948  14.289  67.510  1.00  0.00    -0.411 A  
HETATM    6  C   UNL     1     -12.421  13.150  66.871  1.00  0.00     0.052 A  
HETATM    7  C   UNL     1     -11.828  12.737  65.666  1.00  0.00    -0.472 A  
HETATM    8  C   UNL     1     -10.739  13.434  65.094  1.00  0.00    -0.339 A  
BRANCH   5   9
HETATM    9  C   UNL     1     -12.420  14.756  68.843  1.00  0.00     0.125 C  
HETATM   10  C   UNL     1     -12.052  16.127  69.344  1.00  0.00     0.040 C  
BRANCH   9  11
HETATM   11  N   UNL     1     -13.152  13.920  69.527  1.00  0.00     0.266 NA 
HETATM   12  H   UNL     1     -14.037  13.535  69.197  1.00  0.00     0.000 HD 
BRANCH  11  13
HETATM   13  O   UNL     1     -12.579  13.617  70.761  1.00  0.00    -0.338 OA 
BRANCH  13  14
HETATM   14  C   UNL     1     -12.712  12.216  70.966  1.00  0.00    -0.228 C  
BRANCH  14  15
HETATM   15  C   UNL     1     -11.480  11.560  70.424  1.00  0.00    -0.069 A  
HETATM   16  F   UNL     1      -8.382   7.800  70.716  1.00  0.00    -0.108 F  
HETATM   17  F   UNL     1      -9.506   8.487  72.429  1.00  0.00    -0.285 F  
HETATM   18  C   UNL     1     -10.691  12.208  69.484  1.00  0.00     0.170 A  
HETATM   19  F   UNL     1     -10.514   7.387  70.854  1.00  0.00    -0.212 F  
HETATM   20  C   UNL     1      -9.575  11.568  68.954  1.00  0.00    -0.045 A  
HETATM   21  C   UNL     1     -11.064  10.318  70.906  1.00  0.00    -0.218 A  
HETATM   22  C   UNL     1      -9.223  10.249  69.309  1.00  0.00    -0.215 A  
HETATM   23  C   UNL     1      -9.574   8.351  71.071  1.00  0.00    -0.169 C  
HETATM   24  C   UNL     1      -9.927   9.658  70.387  1.00  0.00    -0.330 A  
BRANCH  22  25
HETATM   25  C   UNL     1      -8.150   9.497  68.507  1.00  0.00    -0.101 C  
HETATM   26  C   UNL     1      -7.657  10.313  67.288  1.00  0.00    -0.095 C  
HETATM   27  C   UNL     1      -6.858  11.542  67.710  1.00  0.00    -0.077 C  
HETATM   28  C   UNL     1      -5.620  11.138  68.497  1.00  0.00    -0.042 C  
HETATM   29  C   UNL     1      -5.935  10.208  69.662  1.00  0.00    -0.044 C  
HETATM   30  C   UNL     1      -6.881   9.056  69.286  1.00  0.00    -0.050 C  
ENDBRANCH  22  25
ENDBRANCH  14  15
ENDBRANCH  13  14
ENDBRANCH  11  13
ENDBRANCH   9  11
ENDBRANCH   5   9
BRANCH   8  31
HETATM   31  C   UNL     1     -10.076  12.891  63.834  1.00  0.00    -0.004 C  
BRANCH  31  32
HETATM   32  N   UNL     1      -9.669  11.466  63.874  1.00  0.00    -0.265 NA 
HETATM   33  O   UNL     1      -8.926   8.531  64.367  1.00  0.00     0.089 OA 
HETATM   34  O   UNL     1      -7.627   7.917  62.636  1.00  0.00    -0.101 OA 
HETATM   35  C   UNL     1     -10.054  10.750  62.629  1.00  0.00     0.100 C  
HETATM   36  C   UNL     1      -8.337   8.771  63.161  1.00  0.00    -0.167 C  
HETATM   37  C   UNL     1      -8.241  11.381  63.438  1.00  0.00     0.685 C  
HETATM   38  C   UNL     1      -8.624  10.168  62.571  1.00  0.00    -0.208 C  
ENDBRANCH  31  32
ENDBRANCH   8  31
ENDBRANCH   2   3
TORSDOF 9
ENDMDL
MODEL      331
REMARK 921   NORMALIZED FREE ENERGY PREDICTED BY IDOCK:   -0.91 KCAL/MOL
REMARK 922        TOTAL FREE ENERGY PREDICTED BY IDOCK:   -2.81 KCAL/MOL
REMARK 923 INTER-LIGAND FREE ENERGY PREDICTED BY IDOCK:   -5.15 KCAL/MOL
REMARK 924 INTRA-LIGAND FREE ENERGY PREDICTED BY IDOCK:    2.34 KCAL/MOL
REMARK 927      BINDING AFFINITY PREDICTED BY RF-SCORE:    0.00 PKD
ROOT
HETATM    1  C   UNL     1      -7.233  10.709  66.647  1.00  0.00    -0.128 C  
HETATM    2  C   UNL     1      -7.347  12.164  66.222  1.00  0.00     0.724 C  
ENDROOT
BRANCH   2   3
HETATM    3  C   UNL     1      -8.224  12.982  67.142  1.00  0.00    -0.132 A  
HETATM    4  C   UNL     1      -9.570  12.585  67.180  1.00  0.00    -0.208 A  
HETATM    5  C   UNL     1     -10.544  13.337  67.840  1.00  0.00    -0.246 A  
HETATM    6  C   UNL     1     -10.170  14.489  68.519  1.00  0.00    -0.240 A  
HETATM    7  C   UNL     1      -8.816  14.863  68.551  1.00  0.00    -0.174 A  
HETATM    8  C   UNL     1      -7.819  14.112  67.886  1.00  0.00    -0.157 A  
BRANCH   5   9
HETATM    9  C   UNL     1     -11.956  12.905  67.642  1.00  0.00    -0.289 C  
HETATM   10  C   UNL     1     -12.806  13.547  66.578  1.00  0.00     0.293 C  
BRANCH   9  11
HETATM   11  N   UNL     1     -12.393  11.962  68.430  1.00  0.00    -0.191 NA 
HETATM   12  H   UNL     1     -13.340  11.586  68.400  1.00  0.00     0.000 HD 
BRANCH  11  13
HETATM   13  O   UNL     1     -11.408  11.529  69.317  1.00  0.00    -0.244 OA 
BRANCH  13  14
HETATM   14  C   UNL     1     -10.470  10.757  68.577  1.00  0.00    -0.187 C  
BRANCH  14  15
HETATM   15  C   UNL     1      -9.920   9.711  69.497  1.00  0.00    -0.223 A  
HETATM   16  F   UNL     1      -5.940   7.546  71.314  1.00  0.00    -0.035 F  
HETATM   17  F   UNL     1      -5.945   8.468  69.360  1.00  0.00    -0.034 F  
HETATM   18  C   UNL     1     -10.765   8.805  70.122  1.00  0.00    -0.239 A  
HETATM   19  F   UNL     1      -5.939   9.716  71.136  1.00  0.00    -0.060 F  
HETATM   20  C   UNL     1     -10.245   7.868  71.009  1.00  0.00    -0.217 A  
HETATM   21  C   UNL     1      -8.543   9.584  69.687  1.00  0.00    -0.189 A  
HETATM   22  C   UNL     1      -8.874   7.822  71.340  1.00  0.00    -0.149 A  
HETATM   23  C   UNL     1      -6.481   8.579  70.612  1.00  0.00    -0.038 C  
HETATM   24  C   UNL     1      -7.996   8.632  70.577  1.00  0.00    -0.107 A  
BRANCH  22  25
HETATM   25  C   UNL     1      -8.395   6.956  72.514  1.00  0.00    -0.116 C  
HETATM   26  C   UNL     1      -9.246   7.179  73.787  1.00  0.00    -0.253 C  
HETATM   27  C   UNL     1     -10.665   6.642  73.625  1.00  0.00    -0.262 C  
HETATM   28  C   UNL     1     -10.650   5.144  73.366  1.00  0.00    -0.302 C  
HETATM   29  C   UNL     1      -9.734   4.750  72.214  1.00  0.00    -0.209 C  
HETATM   30  C   UNL     1      -8.352   5.422  72.275  1.00  0.00    -0.122 C  
ENDBRANCH  22  25
ENDBRANCH  14  15
ENDBRANCH  13  14
ENDBRANCH  11  13
ENDBRANCH   9  11
ENDBRANCH   5   9
BRANCH   8  31
HETATM   31  C   UNL     1      -6.380  14.612  67.878  1.00  0.00    -0.159 C  
BRANCH  31  32
HETATM   32  N   UNL     1      -6.173  16.010  68.327  1.00  0.00    -0.108 NA 
HETATM   33  O   UNL     1      -5.758  18.747  69.646  1.00  0.00    -0.224 OA 
HETATM   34  O   UNL     1      -6.273  20.279  68.081  1.00  0.00    -0.249 OA 
HETATM   35  C   UNL     1      -5.262  16.751  67.414  1.00  0.00    -0.139 C  
HETATM   36  C   UNL     1      -6.106  19.099  68.376  1.00  0.00    -0.220 C  
HETATM   37  C   UNL     1      -7.307  16.834  67.804  1.00  0.00    -0.151 C  
HETATM   38  C   UNL     1      -6.282  17.911  67.405  1.00  0.00    -0.167 C  
ENDBRANCH  31  32
ENDBRANCH   8  31
ENDBRANCH   2   3
TORSDOF 9
ENDMDL
MODEL      332
REMARK 921   NORMALIZED FREE ENERGY PREDICTED BY IDOCK:   -0.73 KCAL/MOL
REMARK 922        TOTAL FREE ENERGY PREDICTED BY IDOCK:   -2.55 KCAL/MOL
REMARK 923 INTER-LIGAND FREE ENERGY PREDICTED BY IDOCK:   -2.70 KCAL/MOL
REMARK 924 INTRA-LIGAND FREE ENERGY PREDICTED BY IDOCK:    0.15 KCAL/MOL
REMARK 927      BINDING AFFINITY PREDICTED BY RF-SCORE:    0.00 PKD
ROOT
HETATM    1  C   UNL     1     -13.290  14.020  65.565  1.00  0.00     0.262 C  
HETATM    2  C   UNL     1     -12.900  13.068  66.684  1.00  0.00     1.049 C  
ENDROOT
BRANCH   2   3
HETATM    3  C   UNL     1     -12.263  13.769  67.863  1.00  0.00    -0.194 A  
HETATM    4  C   UNL     1     -11.691  15.015  67.567  1.00  0.00    -0.270 A  
HETATM    5  C   UNL     1     -10.914  15.712  68.496  1.00  0.00    -0.303 A  
HETATM    6  C   UNL     1     -10.737  15.182  69.767  1.00  0.00    -0.288 A  
HETATM    7  C   UNL     1     -11.362  13.969  70.103  1.00  0.00    -0.109 A  
HETATM    8  C   UNL     1     -12.149  13.252  69.172  1.00  0.00    -0.283 A  
BRANCH   5   9
HETATM    9  C   UNL     1     -10.213  16.926  67.992  1.00  0.00    -0.310 C  
HETATM   10  C   UNL     1      -9.463  17.820  68.942  1.00  0.00    -0.184 C  
BRANCH   9  11
HETATM   11  N   UNL     1     -10.289  17.152  66.711  1.00  0.00    -0.314 NA 
HETATM   12  H   UNL     1     -10.896  17.857  66.290  1.00  0.00     0.000 HD 
BRANCH  11  13
HETATM   13  O   UNL     1      -9.443  16.316  65.983  1.00  0.00    -0.312 OA 
BRANCH  13  14
HETATM   14  C   UNL     1     -10.230  15.250  65.466  1.00  0.00    -0.388 C  
BRANCH  14  15
HETATM   15  C   UNL     1      -9.476  13.977  65.698  1.00  0.00     0.027 A  
HETATM   16  F   UNL     1      -6.152  11.628  68.392  1.00  0.00    -0.049 F  
HETATM   17  F   UNL     1      -6.123  13.776  68.164  1.00  0.00    -0.077 F  
HETATM   18  C   UNL     1      -9.566  12.928  64.795  1.00  0.00     0.247 A  
HETATM   19  F   UNL     1      -7.631  12.850  69.421  1.00  0.00     0.091 F  
HETATM   20  C   UNL     1      -8.895  11.735  65.047  1.00  0.00     0.447 A  
HETATM   21  C   UNL     1      -8.614  13.851  66.789  1.00  0.00    -0.066 A  
HETATM   22  C   UNL     1      -8.145  11.526  66.223  1.00  0.00    -0.014 A  
HETATM   23  C   UNL     1      -6.968  12.705  68.238  1.00  0.00    -0.095 C  
HETATM   24  C   UNL     1      -7.917  12.650  67.055  1.00  0.00    -0.063 A  
BRANCH  22  25
HETATM   25  C   UNL     1      -7.650  10.116  66.580  1.00  0.00    -0.109 C  
HETATM   26  C   UNL     1      -8.317   9.027  65.705  1.00  0.00    -0.137 C  
HETATM   27  C   UNL     1      -7.863   9.107  64.251  1.00  0.00    -0.127 C  
HETATM   28  C   UNL     1      -6.360   8.896  64.142  1.00  0.00    -0.072 C  
HETATM   29  C   UNL     1      -5.564   9.814  65.061  1.00  0.00    -0.066 C  
HETATM   30  C   UNL     1      -6.118   9.874  66.494  1.00  0.00    -0.064 C  
ENDBRANCH  22  25
ENDBRANCH  14  15
ENDBRANCH  13  14
ENDBRANCH  11  13
ENDBRANCH   9  11
ENDBRANCH   5   9
BRANCH   8  31
HETATM   31  C   UNL     1     -12.729  11.898  69.560  1.00  0.00     0.565 C  
BRANCH  31  32
HETATM   32  N   UNL     1     -11.885  10.717  69.259  1.00  0.00    -0.302 NA 
HETATM   33  O   UNL     1     -10.499   8.071  68.566  1.00  0.00    -0.206 OA 
HETATM   34  O   UNL     1      -8.413   8.222  69.395  1.00  0.00    -0.120 OA 
HETATM   35  C   UNL     1     -10.630  11.103  68.560  1.00  0.00    -0.191 C  
HETATM   36  C   UNL     1      -9.493   8.762  69.174  1.00  0.00    -0.157 C  
HETATM   37  C   UNL     1     -11.069  10.412  70.476  1.00  0.00    -0.265 C  
HETATM   38  C   UNL     1      -9.851  10.215  69.555  1.00  0.00    -0.255 C  
ENDBRANCH  31  32
ENDBRANCH   8  31
ENDBRANCH   2   3
TORSDOF 9
ENDMDL
MODEL      333
REMARK 921   NORMALIZED FREE ENERGY PREDICTED BY IDOCK:   -0.50 KCAL/MOL
REMARK 922        TOTAL FREE ENERGY PREDICTED BY IDOCK:   -2.19 KCAL/MOL
REMARK 923 INTER-LIGAND FREE ENERGY PREDICTED BY IDOCK:   -1.94 KCAL/MOL
REMARK 924 INTRA-LIGAND FREE ENERGY PREDICTED BY IDOCK:   -0.26 KCAL/MOL
REMARK 927      BINDING AFFINITY PREDICTED BY RF-SCORE:    0.00 PKD
ROOT
HETATM    1  C   UNL     1      -5.845   8.336  72.898  1.00  0.00    -0.064 C  
HETATM    2  C   UNL     1      -5.680   7.045  72.113  1.00  0.00    -0.037 C  
ENDROOT
BRANCH   2   3
HETATM    3  C   UNL     1      -6.993   6.475  71.628  1.00  0.00    -0.072 A  
HETATM    4  C   UNL     1      -8.124   6.922  72.329  1.00  0.00    -0.093 A  
HETATM    5  C   UNL     1      -9.388   6.365  72.125  1.00  0.00    -0.149 A  
HETATM    6  C   UNL     1      -9.547   5.369  71.170  1.00  0.00    -0.214 A  
HETATM    7  C   UNL     1      -8.439   4.960  70.409  1.00  0.00    -0.104 A  
HETATM    8  C   UNL     1      -7.153   5.514  70.606  1.00  0.00    -0.062 A  
BRANCH   5   9
HETATM    9  C   UNL     1     -10.459   6.798  73.066  1.00  0.00    -0.254 C  
HETATM   10  C   UNL     1     -10.367   6.464  74.530  1.00  0.00    -0.207 C  
BRANCH   9  11
HETATM   11  N   UNL     1     -11.452   7.467  72.549  1.00  0.00    -0.374 NA 
HETATM   12  H   UNL     1     -12.416   7.404  72.877  1.00  0.00     0.000 HD 
BRANCH  11  13
HETATM   13  O   UNL     1     -11.038   8.279  71.494  1.00  0.00    -0.241 OA 
BRANCH  13  14
HETATM   14  C   UNL     1      -9.879   8.984  71.921  1.00  0.00    -0.213 C  
BRANCH  14  15
HETATM   15  C   UNL     1      -9.513   9.951  70.837  1.00  0.00     0.400 A  
HETATM   16  F   UNL     1      -6.048  12.771  68.871  1.00  0.00    -0.065 F  
HETATM   17  F   UNL     1      -6.052  12.268  70.972  1.00  0.00    -0.079 F  
HETATM   18  C   UNL     1     -10.482  10.449  69.978  1.00  0.00    -0.235 A  
HETATM   19  F   UNL     1      -5.500  10.763  69.509  1.00  0.00    -0.038 F  
HETATM   20  C   UNL     1     -10.121  11.311  68.947  1.00  0.00    -0.185 A  
HETATM   21  C   UNL     1      -8.205  10.423  70.717  1.00  0.00     1.697 A  
HETATM   22  C   UNL     1      -8.781  11.679  68.708  1.00  0.00    -0.015 A  
HETATM   23  C   UNL     1      -6.381  11.778  69.739  1.00  0.00    -0.125 C  
HETATM   24  C   UNL     1      -7.822  11.307  69.683  1.00  0.00     0.409 A  
BRANCH  22  25
HETATM   25  C   UNL     1      -8.403  12.409  67.410  1.00  0.00    -0.180 C  
HETATM   26  C   UNL     1      -7.891  11.435  66.322  1.00  0.00    -0.015 C  
HETATM   27  C   UNL     1      -9.001  10.527  65.801  1.00  0.00    -0.199 C  
HETATM   28  C   UNL     1     -10.115  11.345  65.166  1.00  0.00    -0.319 C  
HETATM   29  C   UNL     1     -10.634  12.450  66.079  1.00  0.00    -0.286 C  
HETATM   30  C   UNL     1      -9.515  13.267  66.746  1.00  0.00    -0.257 C  
ENDBRANCH  22  25
ENDBRANCH  14  15
ENDBRANCH  13  14
ENDBRANCH  11  13
ENDBRANCH   9  11
ENDBRANCH   5   9
BRANCH   8  31
HETATM   31  C   UNL     1      -5.969   4.969  69.817  1.00  0.00    -0.021 C  
BRANCH  31  32
HETATM   32  N   UNL     1      -5.860   5.424  68.409  1.00  0.00    -0.016 NA 
HETATM   33  O   UNL     1      -5.238   6.464  65.592  1.00  0.00    -0.013 OA 
HETATM   34  O   UNL     1      -7.226   6.862  64.620  1.00  0.00    -0.067 OA 
HETATM   35  C   UNL     1      -6.638   4.552  67.489  1.00  0.00    -0.047 C  
HETATM   36  C   UNL     1      -6.600   6.425  65.581  1.00  0.00    -0.047 C  
HETATM   37  C   UNL     1      -6.878   6.498  68.192  1.00  0.00    -0.074 C  
HETATM   38  C   UNL     1      -7.237   5.826  66.854  1.00  0.00    -0.075 C  
ENDBRANCH  31  32
ENDBRANCH   8  31
ENDBRANCH   2   3
TORSDOF 9
ENDMDL
MODEL      334
REMARK 921   NORMALIZED FREE ENERGY PREDICTED BY IDOCK:   -0.30 KCAL/MOL
REMARK 922        TOTAL FREE ENERGY PREDICTED BY IDOCK:   -1.88 KCAL/MOL
REMARK 923 INTER-LIGAND FREE ENERGY PREDICTED BY IDOCK:   -2.17 KCAL/MOL
REMARK 924 INTRA-LIGAND FREE ENERGY PREDICTED BY IDOCK:    0.29 KCAL/MOL
REMARK 927      BINDING AFFINITY PREDICTED BY RF-SCORE:    0.00 PKD
ROOT
HETATM    1  C   UNL     1      -9.494   9.474  62.474  1.00  0.00     0.193 C  
HETATM    2  C   UNL     1      -9.192   8.674  63.731  1.00  0.00     0.935 C  
ENDROOT
BRANCH   2   3
HETATM    3  C   UNL     1      -8.979   9.543  64.949  1.00  0.00    -0.264 A  
HETATM    4  C   UNL     1      -9.809  10.672  65.019  1.00  0.00    -0.353 A  
HETATM    5  C   UNL     1      -9.626  11.667  65.983  1.00  0.00    -0.249 A  
HETATM    6  C   UNL     1      -8.622  11.518  66.931  1.00  0.00    -0.163 A  
HETATM    7  C   UNL     1      -7.828  10.359  66.920  1.00  0.00    -0.114 A  
HETATM    8  C   UNL     1      -8.001   9.345  65.948  1.00  0.00    -0.106 A  
BRANCH   5   9
HETATM    9  C   UNL     1     -10.452  12.897  65.827  1.00  0.00    -0.278 C  
HETATM   10  C   UNL     1     -11.083  13.227  64.501  1.00  0.00    -0.392 C  
BRANCH   9  11
HETATM   11  N   UNL     1     -10.586  13.645  66.886  1.00  0.00    -0.271 NA 
HETATM   12  H   UNL     1     -11.482  13.863  67.322  1.00  0.00     0.000 HD 
BRANCH  11  13
HETATM   13  O   UNL     1      -9.357  14.113  67.351  1.00  0.00    -0.202 OA 
BRANCH  13  14
HETATM   14  C   UNL     1      -8.723  14.800  66.279  1.00  0.00     0.098 C  
BRANCH  14  15
HETATM   15  C   UNL     1      -8.131  16.058  66.836  1.00  0.00    -0.282 A  
HETATM   16  F   UNL     1      -5.582  20.123  65.941  1.00  0.00    -0.175 F  
HETATM   17  F   UNL     1      -5.338  18.338  64.748  1.00  0.00    -0.183 F  
HETATM   18  C   UNL     1      -8.131  16.294  68.203  1.00  0.00    -0.158 A  
HETATM   19  F   UNL     1      -7.127  19.545  64.520  1.00  0.00     0.109 F  
HETATM   20  C   UNL     1      -7.619  17.487  68.703  1.00  0.00    -0.273 A  
HETATM   21  C   UNL     1      -7.506  16.982  65.996  1.00  0.00    -0.115 A  
HETATM   22  C   UNL     1      -7.125  18.506  67.861  1.00  0.00    -0.233 A  
HETATM   23  C   UNL     1      -6.264  19.052  65.454  1.00  0.00    -0.265 C  
HETATM   24  C   UNL     1      -6.971  18.195  66.487  1.00  0.00    -0.252 A  
BRANCH  22  25
HETATM   25  C   UNL     1      -6.822  19.899  68.436  1.00  0.00    -0.335 C  
HETATM   26  C   UNL     1      -7.863  20.328  69.497  1.00  0.00     0.584 C  
HETATM   27  C   UNL     1      -7.760  19.490  70.768  1.00  0.00     1.731 C  
HETATM   28  C   UNL     1      -6.390  19.647  71.410  1.00  0.00     0.213 C  
HETATM   29  C   UNL     1      -5.246  19.388  70.437  1.00  0.00    -0.226 C  
HETATM   30  C   UNL     1      -5.424  20.095  69.083  1.00  0.00    -0.267 C  
ENDBRANCH  22  25
ENDBRANCH  14  15
ENDBRANCH  13  14
ENDBRANCH  11  13
ENDBRANCH   9  11
ENDBRANCH   5   9
BRANCH   8  31
HETATM   31  C   UNL     1      -7.054   8.153  65.927  1.00  0.00    -0.064 C  
BRANCH  31  32
HETATM   32  N   UNL     1      -7.495   6.956  66.683  1.00  0.00    -0.080 NA 
HETATM   33  O   UNL     1      -8.060   4.534  68.477  1.00  0.00    -0.082 OA 
HETATM   34  O   UNL     1      -9.555   3.271  67.369  1.00  0.00    -0.201 OA 
HETATM   35  C   UNL     1      -8.974   6.916  66.834  1.00  0.00    -0.122 C  
HETATM   36  C   UNL     1      -8.906   4.311  67.432  1.00  0.00    -0.110 C  
HETATM   37  C   UNL     1      -7.599   5.815  65.721  1.00  0.00    -0.090 C  
HETATM   38  C   UNL     1      -8.939   5.440  66.379  1.00  0.00    -0.131 C  
ENDBRANCH  31  32
ENDBRANCH   8  31
ENDBRANCH   2   3
TORSDOF 9
ENDMDL
MODEL      335
REMARK 921   NORMALIZED FREE ENERGY PREDICTED BY IDOCK:    0.36 KCAL/MOL
REMARK 922        TOTAL FREE ENERGY PREDICTED BY IDOCK:   -0.88 KCAL/MOL
REMARK 923 INTER-LIGAND FREE ENERGY PREDICTED BY IDOCK:   -5.76 KCAL/MOL
REMARK 924 INTRA-LIGAND FREE ENERGY PREDICTED BY IDOCK:    4.88 KCAL/MOL
REMARK 927      BINDING AFFINITY PREDICTED BY RF-SCORE:    0.00 PKD
ROOT
HETATM    1  C   UNL     1     -13.177   9.329  71.813  1.00  0.00    -0.472 C  
HETATM    2  C   UNL     1     -12.312  10.453  71.268  1.00  0.00    -0.507 C  
ENDROOT
BRANCH   2   3
HETATM    3  C   UNL     1     -11.767  10.165  69.887  1.00  0.00    -0.248 A  
HETATM    4  C   UNL     1     -11.211   8.887  69.729  1.00  0.00    -0.018 A  
HETATM    5  C   UNL     1     -10.512   8.522  68.576  1.00  0.00    -0.205 A  
HETATM    6  C   UNL     1     -10.398   9.433  67.533  1.00  0.00    -0.314 A  
HETATM    7  C   UNL     1     -11.010  10.692  67.646  1.00  0.00    -0.370 A  
HETATM    8  C   UNL     1     -11.720  11.075  68.809  1.00  0.00    -0.383 A  
BRANCH   5   9
HETATM    9  C   UNL     1      -9.814   7.207  68.616  1.00  0.00    -0.154 C  
HETATM   10  C   UNL     1      -8.481   7.074  69.302  1.00  0.00    -0.133 C  
BRANCH   9  11
HETATM   11  N   UNL     1     -10.418   6.210  68.033  1.00  0.00    -0.200 NA 
HETATM   12  H   UNL     1     -10.123   5.802  67.145  1.00  0.00     0.000 HD 
BRANCH  11  13
HETATM   13  O   UNL     1     -11.516   5.766  68.768  1.00  0.00     0.122 OA 
BRANCH  13  14
HETATM   14  C   UNL     1     -11.262   6.051  70.139  1.00  0.00    -0.342 C  
BRANCH  14  15
HETATM   15  C   UNL     1     -10.212   5.095  70.612  1.00  0.00    -0.326 A  
HETATM   16  F   UNL     1      -6.567   2.089  69.387  1.00  0.00    -0.028 F  
HETATM   17  F   UNL     1      -8.191   2.524  68.030  1.00  0.00    -0.061 F  
HETATM   18  C   UNL     1     -10.165   4.699  71.941  1.00  0.00    -0.254 A  
HETATM   19  F   UNL     1      -6.673   4.029  68.406  1.00  0.00    -0.042 F  
HETATM   20  C   UNL     1      -9.156   3.845  72.377  1.00  0.00    -0.142 A  
HETATM   21  C   UNL     1      -9.306   4.530  69.712  1.00  0.00    -0.223 A  
HETATM   22  C   UNL     1      -8.135   3.386  71.519  1.00  0.00    -0.061 A  
HETATM   23  C   UNL     1      -7.429   3.075  69.022  1.00  0.00    -0.048 C  
HETATM   24  C   UNL     1      -8.281   3.654  70.135  1.00  0.00    -0.070 A  
BRANCH  22  25
HETATM   25  C   UNL     1      -6.905   2.671  72.100  1.00  0.00    -0.022 C  
HETATM   26  C   UNL     1      -5.601   3.470  71.861  1.00  0.00    -0.008 C  
HETATM   27  C   UNL     1      -5.566   4.761  72.675  1.00  0.00    -0.008 C  
HETATM   28  C   UNL     1      -5.629   4.461  74.165  1.00  0.00    -0.009 C  
HETATM   29  C   UNL     1      -6.798   3.558  74.540  1.00  0.00    -0.046 C  
HETATM   30  C   UNL     1      -6.947   2.338  73.617  1.00  0.00    -0.024 C  
ENDBRANCH  22  25
ENDBRANCH  14  15
ENDBRANCH  13  14
ENDBRANCH  11  13
ENDBRANCH   9  11
ENDBRANCH   5   9
BRANCH   8  31
HETATM   31  C   UNL     1     -12.286  12.486  68.915  1.00  0.00     0.043 C  
BRANCH  31  32
HETATM   32  N   UNL     1     -11.350  13.590  68.592  1.00  0.00    -0.268 NA 
HETATM   33  O   UNL     1      -9.736  16.130  68.006  1.00  0.00    -0.225 OA 
HETATM   34  O   UNL     1      -7.955  15.475  66.798  1.00  0.00    -0.233 OA 
HETATM   35  C   UNL     1      -9.969  13.292  69.055  1.00  0.00     0.195 C  
HETATM   36  C   UNL     1      -8.955  15.166  67.440  1.00  0.00    -0.183 C  
HETATM   37  C   UNL     1     -10.880  13.398  67.185  1.00  0.00    -0.276 C  
HETATM   38  C   UNL     1      -9.453  13.722  67.664  1.00  0.00    -0.217 C  
ENDBRANCH  31  32
ENDBRANCH   8  31
ENDBRANCH   2   3
TORSDOF 9
ENDMDL
MODEL      336
REMARK 921   NORMALIZED FREE ENERGY PREDICTED BY IDOCK:    0.70 KCAL/MOL
REMARK 922        TOTAL FREE ENERGY PREDICTED BY IDOCK:   -0.36 KCAL/MOL
REMARK 923 INTER-LIGAND FREE ENERGY PREDICTED BY IDOCK:   -7.20 KCAL/MOL
REMARK 924 INTRA-LIGAND FREE ENERGY PREDICTED BY IDOCK:    6.85 KCAL/MOL
REMARK 927      BINDING AFFINITY PREDICTED BY RF-SCORE:    0.00 PKD
ROOT
HETATM    1  C   UNL     1      -8.580   7.690  64.083  1.00  0.00     0.355 C  
HETATM    2  C   UNL     1      -8.154   7.836  65.535  1.00  0.00    -0.128 C  
ENDROOT
BRANCH   2   3
HETATM    3  C   UNL     1      -9.222   8.458  66.406  1.00  0.00    -0.253 A  
HETATM    4  C   UNL     1      -9.396   7.840  67.654  1.00  0.00    -0.160 A  
HETATM    5  C   UNL     1     -10.451   8.177  68.505  1.00  0.00    -0.199 A  
HETATM    6  C   UNL     1     -11.332   9.184  68.130  1.00  0.00     0.528 A  
HETATM    7  C   UNL     1     -11.130   9.861  66.916  1.00  0.00     0.099 A  
HETATM    8  C   UNL     1     -10.067   9.529  66.044  1.00  0.00    -0.319 A  
BRANCH   5   9
HETATM    9  C   UNL     1     -10.629   7.317  69.708  1.00  0.00    -0.235 C  
HETATM   10  C   UNL     1      -9.804   6.070  69.880  1.00  0.00    -0.213 C  
BRANCH   9  11
HETATM   11  N   UNL     1     -11.520   7.708  70.576  1.00  0.00    -0.381 NA 
HETATM   12  H   UNL     1     -12.315   7.140  70.874  1.00  0.00     0.000 HD 
BRANCH  11  13
HETATM   13  O   UNL     1     -11.259   8.993  71.048  1.00  0.00    -0.257 OA 
BRANCH  13  14
HETATM   14  C   UNL     1     -10.471   9.661  70.068  1.00  0.00    -0.261 C  
BRANCH  14  15
HETATM   15  C   UNL     1     -10.957  11.075  69.985  1.00  0.00    -0.152 A  
HETATM   16  F   UNL     1     -13.945  14.486  71.791  1.00  0.00    -0.404 F  
HETATM   17  F   UNL     1     -14.408  12.379  71.921  1.00  0.00     0.190 F  
HETATM   18  C   UNL     1     -10.561  11.897  68.940  1.00  0.00    -0.205 A  
HETATM   19  F   UNL     1     -12.864  13.219  73.193  1.00  0.00    -0.184 F  
HETATM   20  C   UNL     1     -10.983  13.222  68.900  1.00  0.00    -0.278 A  
HETATM   21  C   UNL     1     -11.872  11.568  70.917  1.00  0.00    -0.038 A  
HETATM   22  C   UNL     1     -11.780  13.790  69.916  1.00  0.00    -0.353 A  
HETATM   23  C   UNL     1     -13.366  13.262  71.926  1.00  0.00    -0.451 C  
HETATM   24  C   UNL     1     -12.319  12.909  70.886  1.00  0.00    -0.365 A  
BRANCH  22  25
HETATM   25  C   UNL     1     -11.996  15.310  69.965  1.00  0.00    -0.375 C  
HETATM   26  C   UNL     1     -10.877  16.031  70.755  1.00  0.00    -0.105 C  
HETATM   27  C   UNL     1      -9.538  15.977  70.025  1.00  0.00     0.317 C  
HETATM   28  C   UNL     1      -9.632  16.666  68.673  1.00  0.00    -0.248 C  
HETATM   29  C   UNL     1     -10.789  16.153  67.824  1.00  0.00    -0.318 C  
HETATM   30  C   UNL     1     -12.112  16.041  68.599  1.00  0.00     0.152 C  
ENDBRANCH  22  25
ENDBRANCH  14  15
ENDBRANCH  13  14
ENDBRANCH  11  13
ENDBRANCH   9  11
ENDBRANCH   5   9
BRANCH   8  31
HETATM   31  C   UNL     1      -9.948  10.234  64.699  1.00  0.00    -0.307 C  
BRANCH  31  32
HETATM   32  N   UNL     1     -10.268  11.682  64.692  1.00  0.00    -0.266 NA 
HETATM   33  O   UNL     1     -10.669  14.706  65.006  1.00  0.00    -0.377 OA 
HETATM   34  O   UNL     1     -12.563  15.203  63.899  1.00  0.00    -0.794 OA 
HETATM   35  C   UNL     1     -10.428  12.202  63.307  1.00  0.00    -0.317 C  
HETATM   36  C   UNL     1     -11.717  14.367  64.203  1.00  0.00    -0.227 C  
HETATM   37  C   UNL     1     -11.745  11.829  64.879  1.00  0.00    -0.118 C  
HETATM   38  C   UNL     1     -11.736  12.888  63.761  1.00  0.00    -0.557 C  
ENDBRANCH  31  32
ENDBRANCH   8  31
ENDBRANCH   2   3
TORSDOF 9
ENDMDL
MODEL      337
REMARK 921   NORMALIZED FREE ENERGY PREDICTED BY IDOCK:    0.84 KCAL/MOL
REMARK 922        TOTAL FREE ENERGY PREDICTED BY IDOCK:   -0.15 KCAL/MOL
REMARK 923 INTER-LIGAND FREE ENERGY PREDICTED BY IDOCK:   -4.84 KCAL/MOL
REMARK 924 INTRA-LIGAND FREE ENERGY PREDICTED BY IDOCK:    4.68 KCAL/MOL
REMARK 927      BINDING AFFINITY PREDICTED BY RF-SCORE:    0.00 PKD
ROOT
HETATM    1  C   UNL     1     -11.014   9.743  68.614  1.00  0.00    -0.189 C  
HETATM    2  C   UNL     1     -10.235   8.453  68.416  1.00  0.00    -0.239 C  
ENDROOT
BRANCH   2   3
HETATM    3  C   UNL     1      -9.659   8.316  67.025  1.00  0.00    -0.249 A  
HETATM    4  C   UNL     1      -9.317   7.006  66.656  1.00  0.00    -0.203 A  
HETATM    5  C   UNL     1      -8.617   6.728  65.480  1.00  0.00    -0.095 A  
HETATM    6  C   UNL     1      -8.285   7.771  64.623  1.00  0.00    -0.080 A  
HETATM    7  C   UNL     1      -8.683   9.080  64.942  1.00  0.00    -0.200 A  
HETATM    8  C   UNL     1      -9.391   9.376  66.131  1.00  0.00    -0.262 A  
BRANCH   5   9
HETATM    9  C   UNL     1      -8.153   5.324  65.304  1.00  0.00    -0.123 C  
HETATM   10  C   UNL     1      -6.874   5.032  64.565  1.00  0.00    -0.049 C  
BRANCH   9  11
HETATM   11  N   UNL     1      -8.907   4.393  65.818  1.00  0.00    -0.119 NA 
HETATM   12  H   UNL     1      -9.725   3.998  65.354  1.00  0.00     0.000 HD 
BRANCH  11  13
HETATM   13  O   UNL     1      -8.461   4.002  67.080  1.00  0.00    -0.099 OA 
BRANCH  13  14
HETATM   14  C   UNL     1      -8.200   5.182  67.831  1.00  0.00    -0.098 C  
BRANCH  14  15
HETATM   15  C   UNL     1      -8.057   4.782  69.267  1.00  0.00    -0.074 A  
HETATM   16  F   UNL     1      -7.964   6.233  73.926  1.00  0.00    -0.099 F  
HETATM   17  F   UNL     1      -7.391   7.549  72.310  1.00  0.00    -0.065 F  
HETATM   18  C   UNL     1      -7.701   3.485  69.607  1.00  0.00    -0.051 A  
HETATM   19  F   UNL     1      -9.487   7.075  72.618  1.00  0.00    -0.149 F  
HETATM   20  C   UNL     1      -7.617   3.115  70.946  1.00  0.00    -0.040 A  
HETATM   21  C   UNL     1      -8.210   5.724  70.286  1.00  0.00    -0.110 A  
HETATM   22  C   UNL     1      -7.922   4.008  71.994  1.00  0.00    -0.084 A  
HETATM   23  C   UNL     1      -8.239   6.524  72.626  1.00  0.00    -0.110 C  
HETATM   24  C   UNL     1      -8.118   5.369  71.651  1.00  0.00    -0.117 A  
BRANCH  22  25
HETATM   25  C   UNL     1      -8.074   3.484  73.431  1.00  0.00    -0.075 C  
HETATM   26  C   UNL     1      -8.904   4.446  74.315  1.00  0.00    -0.101 C  
HETATM   27  C   UNL     1     -10.369   4.487  73.892  1.00  0.00    -0.273 C  
HETATM   28  C   UNL     1     -11.008   3.112  74.021  1.00  0.00    -0.217 C  
HETATM   29  C   UNL     1     -10.217   2.022  73.309  1.00  0.00    -0.189 C  
HETATM   30  C   UNL     1      -8.707   2.076  73.595  1.00  0.00    -0.062 C  
ENDBRANCH  22  25
ENDBRANCH  14  15
ENDBRANCH  13  14
ENDBRANCH  11  13
ENDBRANCH   9  11
ENDBRANCH   5   9
BRANCH   8  31
HETATM   31  C   UNL     1      -9.718  10.824  66.472  1.00  0.00    -0.196 C  
BRANCH  31  32
HETATM   32  N   UNL     1      -8.592  11.644  66.981  1.00  0.00    -0.163 NA 
HETATM   33  O   UNL     1      -6.285  13.544  67.667  1.00  0.00    -0.164 OA 
HETATM   34  O   UNL     1      -5.157  12.574  69.354  1.00  0.00    -0.069 OA 
HETATM   35  C   UNL     1      -8.709  11.891  68.443  1.00  0.00    -0.157 C  
HETATM   36  C   UNL     1      -6.126  12.563  68.600  1.00  0.00    -0.066 C  
HETATM   37  C   UNL     1      -7.446  10.726  67.265  1.00  0.00    -0.101 C  
HETATM   38  C   UNL     1      -7.227  11.481  68.589  1.00  0.00    -0.102 C  
ENDBRANCH  31  32
ENDBRANCH   8  31
ENDBRANCH   2   3
TORSDOF 9
ENDMDL
MODEL      338
REMARK 921   NORMALIZED FREE ENERGY PREDICTED BY IDOCK:    0.91 KCAL/MOL
REMARK 922        TOTAL FREE ENERGY PREDICTED BY IDOCK:   -0.04 KCAL/MOL
REMARK 923 INTER-LIGAND FREE ENERGY PREDICTED BY IDOCK:   -3.15 KCAL/MOL
REMARK 924 INTRA-LIGAND FREE ENERGY PREDICTED BY IDOCK:    3.11 KCAL/MOL
REMARK 927      BINDING AFFINITY PREDICTED BY RF-SCORE:    0.00 PKD
ROOT
HETATM    1  C   UNL     1      -7.409  10.796  66.650  1.00  0.00    -0.134 C  
HETATM    2  C   UNL     1      -7.662  12.203  66.132  1.00  0.00     0.730 C  
ENDROOT
BRANCH   2   3
HETATM    3  C   UNL     1      -8.500  13.038  67.074  1.00  0.00    -0.142 A  
HETATM    4  C   UNL     1      -9.819  12.592  67.240  1.00  0.00    -0.206 A  
HETATM    5  C   UNL     1     -10.771  13.343  67.934  1.00  0.00    -0.259 A  
HETATM    6  C   UNL     1     -10.396  14.546  68.517  1.00  0.00    -0.242 A  
HETATM    7  C   UNL     1      -9.061  14.973  68.421  1.00  0.00    -0.184 A  
HETATM    8  C   UNL     1      -8.087  14.224  67.720  1.00  0.00    -0.176 A  
BRANCH   5   9
HETATM    9  C   UNL     1     -12.175  12.847  67.873  1.00  0.00     0.024 C  
HETATM   10  C   UNL     1     -13.148  13.437  66.889  1.00  0.00     1.983 C  
BRANCH   9  11
HETATM   11  N   UNL     1     -12.492  11.895  68.706  1.00  0.00    -0.002 NA 
HETATM   12  H   UNL     1     -13.412  11.455  68.748  1.00  0.00     0.000 HD 
BRANCH  11  13
HETATM   13  O   UNL     1     -11.424  11.550  69.532  1.00  0.00    -0.268 OA 
BRANCH  13  14
HETATM   14  C   UNL     1     -10.459  10.877  68.732  1.00  0.00    -0.200 C  
BRANCH  14  15
HETATM   15  C   UNL     1      -9.883   9.766  69.556  1.00  0.00    -0.230 A  
HETATM   16  F   UNL     1     -10.411   5.205  71.211  1.00  0.00    -0.270 F  
HETATM   17  F   UNL     1     -12.112   6.439  70.705  1.00  0.00    -0.425 F  
HETATM   18  C   UNL     1      -8.756   9.978  70.337  1.00  0.00     0.207 A  
HETATM   19  F   UNL     1     -10.883   5.602  69.123  1.00  0.00    -0.327 F  
HETATM   20  C   UNL     1      -8.206   8.925  71.062  1.00  0.00    -0.217 A  
HETATM   21  C   UNL     1     -10.511   8.521  69.608  1.00  0.00    -0.221 A  
HETATM   22  C   UNL     1      -8.730   7.617  71.006  1.00  0.00    -0.137 A  
HETATM   23  C   UNL     1     -10.816   6.182  70.356  1.00  0.00    -0.310 C  
HETATM   24  C   UNL     1      -9.972   7.443  70.347  1.00  0.00    -0.188 A  
BRANCH  22  25
HETATM   25  C   UNL     1      -7.937   6.445  71.605  1.00  0.00    -0.102 C  
HETATM   26  C   UNL     1      -6.474   6.414  71.100  1.00  0.00    -0.049 C  
HETATM   27  C   UNL     1      -5.660   7.587  71.640  1.00  0.00    -0.036 C  
HETATM   28  C   UNL     1      -5.600   7.548  73.159  1.00  0.00    -0.044 C  
HETATM   29  C   UNL     1      -6.976   7.436  73.805  1.00  0.00    -0.093 C  
HETATM   30  C   UNL     1      -7.871   6.369  73.155  1.00  0.00    -0.101 C  
ENDBRANCH  22  25
ENDBRANCH  14  15
ENDBRANCH  13  14
ENDBRANCH  11  13
ENDBRANCH   9  11
ENDBRANCH   5   9
BRANCH   8  31
HETATM   31  C   UNL     1      -6.675  14.777  67.569  1.00  0.00    -0.130 C  
BRANCH  31  32
HETATM   32  N   UNL     1      -6.497  16.209  67.914  1.00  0.00    -0.130 NA 
HETATM   33  O   UNL     1      -6.068  19.036  69.020  1.00  0.00    -0.224 OA 
HETATM   34  O   UNL     1      -6.926  20.443  67.489  1.00  0.00    -0.266 OA 
HETATM   35  C   UNL     1      -5.794  16.950  66.833  1.00  0.00    -0.172 C  
HETATM   36  C   UNL     1      -6.635  19.294  67.808  1.00  0.00    -0.225 C  
HETATM   37  C   UNL     1      -7.753  16.931  67.543  1.00  0.00    -0.169 C  
HETATM   38  C   UNL     1      -6.880  18.044  66.934  1.00  0.00    -0.217 C  
ENDBRANCH  31  32
ENDBRANCH   8  31
ENDBRANCH   2   3
TORSDOF 9
ENDMDL
MODEL      339
REMARK 921   NORMALIZED FREE ENERGY PREDICTED BY IDOCK:    1.63 KCAL/MOL
REMARK 922        TOTAL FREE ENERGY PREDICTED BY IDOCK:    1.07 KCAL/MOL
REMARK 923 INTER-LIGAND FREE ENERGY PREDICTED BY IDOCK:   -4.55 KCAL/MOL
REMARK 924 INTRA-LIGAND FREE ENERGY PREDICTED BY IDOCK:    5.61 KCAL/MOL
REMARK 927      BINDING AFFINITY PREDICTED BY RF-SCORE:    0.00 PKD
ROOT
HETATM    1  C   UNL     1     -12.839  14.285  67.890  1.00  0.00     1.345 C  
HETATM    2  C   UNL     1     -11.849  13.433  68.667  1.00  0.00    -0.397 C  
ENDROOT
BRANCH   2   3
HETATM    3  C   UNL     1     -10.448  13.488  68.100  1.00  0.00    -0.249 A  
HETATM    4  C   UNL     1      -9.947  12.256  67.652  1.00  0.00    -0.199 A  
HETATM    5  C   UNL     1      -8.615  12.098  67.263  1.00  0.00    -0.180 A  
HETATM    6  C   UNL     1      -7.767  13.198  67.276  1.00  0.00    -0.107 A  
HETATM    7  C   UNL     1      -8.271  14.454  67.654  1.00  0.00    -0.185 A  
HETATM    8  C   UNL     1      -9.618  14.628  68.052  1.00  0.00    -0.212 A  
BRANCH   5   9
HETATM    9  C   UNL     1      -8.168  10.703  66.991  1.00  0.00    -0.124 C  
HETATM   10  C   UNL     1      -6.800  10.246  67.419  1.00  0.00    -0.077 C  
BRANCH   9  11
HETATM   11  N   UNL     1      -9.018   9.930  66.375  1.00  0.00    -0.145 NA 
HETATM   12  H   UNL     1      -9.695  10.258  65.687  1.00  0.00     0.000 HD 
BRANCH  11  13
HETATM   13  O   UNL     1      -8.890   8.599  66.770  1.00  0.00    -0.127 OA 
BRANCH  13  14
HETATM   14  C   UNL     1      -7.958   8.555  67.844  1.00  0.00    -0.108 C  
BRANCH  14  15
HETATM   15  C   UNL     1      -8.695   8.097  69.065  1.00  0.00    -0.144 A  
HETATM   16  F   UNL     1      -8.538   7.296  73.877  1.00  0.00    -0.152 F  
HETATM   17  F   UNL     1      -6.765   7.199  72.646  1.00  0.00    -0.064 F  
HETATM   18  C   UNL     1      -9.957   7.532  68.956  1.00  0.00    -0.175 A  
HETATM   19  F   UNL     1      -7.646   9.127  73.110  1.00  0.00     0.164 F  
HETATM   20  C   UNL     1     -10.650   7.152  70.102  1.00  0.00    -0.247 A  
HETATM   21  C   UNL     1      -8.097   8.165  70.324  1.00  0.00    -0.109 A  
HETATM   22  C   UNL     1     -10.131   7.357  71.398  1.00  0.00    -0.196 A  
HETATM   23  C   UNL     1      -7.963   7.844  72.773  1.00  0.00    -0.133 C  
HETATM   24  C   UNL     1      -8.781   7.775  71.498  1.00  0.00    -0.140 A  
BRANCH  22  25
HETATM   25  C   UNL     1     -11.035   7.171  72.626  1.00  0.00    -0.325 C  
HETATM   26  C   UNL     1     -12.220   6.218  72.337  1.00  0.00    -0.128 C  
HETATM   27  C   UNL     1     -11.758   4.779  72.129  1.00  0.00     0.758 C  
HETATM   28  C   UNL     1     -11.064   4.249  73.375  1.00  0.00    -0.371 C  
HETATM   29  C   UNL     1      -9.949   5.164  73.867  1.00  0.00    -0.196 C  
HETATM   30  C   UNL     1     -10.353   6.646  73.919  1.00  0.00    -0.385 C  
ENDBRANCH  22  25
ENDBRANCH  14  15
ENDBRANCH  13  14
ENDBRANCH  11  13
ENDBRANCH   9  11
ENDBRANCH   5   9
BRANCH   8  31
HETATM   31  C   UNL     1     -10.088  15.993  68.540  1.00  0.00    -0.233 C  
BRANCH  31  32
HETATM   32  N   UNL     1      -9.081  17.081  68.503  1.00  0.00    -0.253 NA 
HETATM   33  O   UNL     1      -7.036  19.340  68.846  1.00  0.00    -0.308 OA 
HETATM   34  O   UNL     1      -6.840  20.317  66.829  1.00  0.00    -0.217 OA 
HETATM   35  C   UNL     1      -8.057  16.846  67.450  1.00  0.00    -0.174 C  
HETATM   36  C   UNL     1      -7.313  19.413  67.513  1.00  0.00    -0.231 C  
HETATM   37  C   UNL     1      -9.633  18.192  67.668  1.00  0.00    -0.278 C  
HETATM   38  C   UNL     1      -8.255  18.307  66.990  1.00  0.00    -0.248 C  
ENDBRANCH  31  32
ENDBRANCH   8  31
ENDBRANCH   2   3
TORSDOF 9
ENDMDL
MODEL      340
REMARK 921   NORMALIZED FREE ENERGY PREDICTED BY IDOCK:    1.76 KCAL/MOL
REMARK 922        TOTAL FREE ENERGY PREDICTED BY IDOCK:    1.26 KCAL/MOL
REMARK 923 INTER-LIGAND FREE ENERGY PREDICTED BY IDOCK:   -3.85 KCAL/MOL
REMARK 924 INTRA-LIGAND FREE ENERGY PREDICTED BY IDOCK:    5.11 KCAL/MOL
REMARK 927      BINDING AFFINITY PREDICTED BY RF-SCORE:    0.00 PKD
ROOT
HETATM    1  C   UNL     1     -10.049   7.339  70.837  1.00  0.00    -0.192 C  
HETATM    2  C   UNL     1     -10.197   6.069  70.015  1.00  0.00    -0.264 C  
ENDROOT
BRANCH   2   3
HETATM    3  C   UNL     1     -10.129   6.317  68.525  1.00  0.00    -0.182 A  
HETATM    4  C   UNL     1      -9.673   5.227  67.768  1.00  0.00    -0.170 A  
HETATM    5  C   UNL     1      -9.387   5.341  66.406  1.00  0.00    -0.153 A  
HETATM    6  C   UNL     1      -9.600   6.555  65.765  1.00  0.00     0.273 A  
HETATM    7  C   UNL     1     -10.123   7.637  66.493  1.00  0.00    -0.205 A  
HETATM    8  C   UNL     1     -10.415   7.536  67.874  1.00  0.00    -0.266 A  
BRANCH   5   9
HETATM    9  C   UNL     1      -8.734   4.164  65.767  1.00  0.00    -0.119 C  
HETATM   10  C   UNL     1      -9.218   3.654  64.437  1.00  0.00    -0.136 C  
BRANCH   9  11
HETATM   11  N   UNL     1      -7.744   3.622  66.421  1.00  0.00    -0.084 NA 
HETATM   12  H   UNL     1      -7.817   3.261  67.372  1.00  0.00     0.000 HD 
BRANCH  11  13
HETATM   13  O   UNL     1      -6.574   3.596  65.663  1.00  0.00    -0.035 OA 
BRANCH  13  14
HETATM   14  C   UNL     1      -5.721   4.625  66.150  1.00  0.00    -0.022 C  
BRANCH  14  15
HETATM   15  C   UNL     1      -5.844   4.646  67.642  1.00  0.00    -0.022 A  
HETATM   16  F   UNL     1      -8.137   2.899  71.581  1.00  0.00    -0.053 F  
HETATM   17  F   UNL     1      -9.098   2.987  69.648  1.00  0.00    -0.134 F  
HETATM   18  C   UNL     1      -5.141   5.574  68.396  1.00  0.00    -0.003 A  
HETATM   19  F   UNL     1      -7.565   1.496  70.018  1.00  0.00    -0.036 F  
HETATM   20  C   UNL     1      -5.229   5.553  69.785  1.00  0.00    -0.004 A  
HETATM   21  C   UNL     1      -6.722   3.779  68.296  1.00  0.00    -0.046 A  
HETATM   22  C   UNL     1      -5.987   4.585  70.476  1.00  0.00    -0.017 A  
HETATM   23  C   UNL     1      -7.884   2.802  70.248  1.00  0.00    -0.042 C  
HETATM   24  C   UNL     1      -6.833   3.750  69.704  1.00  0.00    -0.041 A  
BRANCH  22  25
HETATM   25  C   UNL     1      -5.841   4.437  71.999  1.00  0.00    -0.012 C  
HETATM   26  C   UNL     1      -5.755   5.809  72.710  1.00  0.00    -0.031 C  
HETATM   27  C   UNL     1      -7.075   6.570  72.644  1.00  0.00    -0.074 C  
HETATM   28  C   UNL     1      -8.184   5.789  73.333  1.00  0.00    -0.112 C  
HETATM   29  C   UNL     1      -8.301   4.356  72.829  1.00  0.00    -0.105 C  
HETATM   30  C   UNL     1      -6.949   3.630  72.729  1.00  0.00    -0.044 C  
ENDBRANCH  22  25
ENDBRANCH  14  15
ENDBRANCH  13  14
ENDBRANCH  11  13
ENDBRANCH   9  11
ENDBRANCH   5   9
BRANCH   8  31
HETATM   31  C   UNL     1     -10.895   8.766  68.634  1.00  0.00     0.028 C  
BRANCH  31  32
HETATM   32  N   UNL     1     -11.253   9.944  67.808  1.00  0.00    -0.137 NA 
HETATM   33  O   UNL     1     -11.954  12.124  65.768  1.00  0.00    -0.536 OA 
HETATM   34  O   UNL     1     -11.656  14.087  66.825  1.00  0.00    -0.348 OA 
HETATM   35  C   UNL     1     -12.263  10.801  68.483  1.00  0.00     0.386 C  
HETATM   36  C   UNL     1     -11.678  12.861  66.881  1.00  0.00    -0.382 C  
HETATM   37  C   UNL     1     -10.234  11.010  68.060  1.00  0.00    -0.179 C  
HETATM   38  C   UNL     1     -11.386  12.028  68.148  1.00  0.00    -0.349 C  
ENDBRANCH  31  32
ENDBRANCH   8  31
ENDBRANCH   2   3
TORSDOF 9
ENDMDL
MODEL      341
REMARK 921   NORMALIZED FREE ENERGY PREDICTED BY IDOCK:    2.00 KCAL/MOL
REMARK 922        TOTAL FREE ENERGY PREDICTED BY IDOCK:    1.62 KCAL/MOL
REMARK 923 INTER-LIGAND FREE ENERGY PREDICTED BY IDOCK:   -4.75 KCAL/MOL
REMARK 924 INTRA-LIGAND FREE ENERGY PREDICTED BY IDOCK:    6.37 KCAL/MOL
REMARK 927      BINDING AFFINITY PREDICTED BY RF-SCORE:    0.00 PKD
ROOT
HETATM    1  C   UNL     1     -14.402   7.874  72.696  1.00  0.00     0.088 C  
HETATM    2  C   UNL     1     -13.902   9.274  72.378  1.00  0.00    -0.484 C  
ENDROOT
BRANCH   2   3
HETATM    3  C   UNL     1     -12.858   9.295  71.284  1.00  0.00    -0.354 A  
HETATM    4  C   UNL     1     -12.511   8.034  70.777  1.00  0.00     0.090 A  
HETATM    5  C   UNL     1     -11.445   7.861  69.891  1.00  0.00     0.132 A  
HETATM    6  C   UNL     1     -10.731   8.973  69.460  1.00  0.00    -0.215 A  
HETATM    7  C   UNL     1     -11.111  10.251  69.902  1.00  0.00    -0.362 A  
HETATM    8  C   UNL     1     -12.187  10.440  70.801  1.00  0.00    -0.457 A  
BRANCH   5   9
HETATM    9  C   UNL     1     -11.066   6.454  69.581  1.00  0.00    -0.401 C  
HETATM   10  C   UNL     1     -10.747   5.490  70.692  1.00  0.00    -0.303 C  
BRANCH   9  11
HETATM   11  N   UNL     1     -11.030   6.126  68.320  1.00  0.00    -0.324 NA 
HETATM   12  H   UNL     1     -10.528   5.317  67.954  1.00  0.00     0.000 HD 
BRANCH  11  13
HETATM   13  O   UNL     1     -11.761   7.013  67.531  1.00  0.00     0.438 OA 
BRANCH  13  14
HETATM   14  C   UNL     1     -10.972   8.184  67.353  1.00  0.00     0.130 C  
BRANCH  14  15
HETATM   15  C   UNL     1      -9.537   7.759  67.307  1.00  0.00    -0.207 A  
HETATM   16  F   UNL     1      -5.186   7.801  69.520  1.00  0.00    -0.021 F  
HETATM   17  F   UNL     1      -6.638   9.371  69.829  1.00  0.00    -0.039 F  
HETATM   18  C   UNL     1      -9.014   7.159  66.170  1.00  0.00    -0.168 A  
HETATM   19  F   UNL     1      -6.953   7.424  70.734  1.00  0.00    -0.052 F  
HETATM   20  C   UNL     1      -7.691   6.729  66.158  1.00  0.00    -0.091 A  
HETATM   21  C   UNL     1      -8.682   8.023  68.379  1.00  0.00    -0.130 A  
HETATM   22  C   UNL     1      -6.851   6.840  67.285  1.00  0.00    -0.072 A  
HETATM   23  C   UNL     1      -6.525   8.031  69.590  1.00  0.00    -0.037 C  
HETATM   24  C   UNL     1      -7.333   7.601  68.380  1.00  0.00    -0.095 A  
BRANCH  22  25
HETATM   25  C   UNL     1      -5.497   6.115  67.312  1.00  0.00    -0.005 C  
HETATM   26  C   UNL     1      -5.309   5.281  68.601  1.00  0.00    -0.004 C  
HETATM   27  C   UNL     1      -6.252   4.082  68.647  1.00  0.00    -0.032 C  
HETATM   28  C   UNL     1      -5.991   3.145  67.478  1.00  0.00    -0.027 C  
HETATM   29  C   UNL     1      -6.006   3.858  66.131  1.00  0.00    -0.027 C  
HETATM   30  C   UNL     1      -5.194   5.164  66.122  1.00  0.00    -0.009 C  
ENDBRANCH  22  25
ENDBRANCH  14  15
ENDBRANCH  13  14
ENDBRANCH  11  13
ENDBRANCH   9  11
ENDBRANCH   5   9
BRANCH   8  31
HETATM   31  C   UNL     1     -12.499  11.839  71.319  1.00  0.00    -0.246 C  
BRANCH  31  32
HETATM   32  N   UNL     1     -11.779  12.954  70.658  1.00  0.00     0.052 NA 
HETATM   33  O   UNL     1      -9.950  15.125  69.498  1.00  0.00    -0.231 OA 
HETATM   34  O   UNL     1     -11.310  16.737  68.718  1.00  0.00    -0.221 OA 
HETATM   35  C   UNL     1     -12.262  13.172  69.269  1.00  0.00    -0.116 C  
HETATM   36  C   UNL     1     -11.187  15.620  69.213  1.00  0.00    -0.320 C  
HETATM   37  C   UNL     1     -12.447  14.232  71.053  1.00  0.00    -0.362 C  
HETATM   38  C   UNL     1     -12.356  14.682  69.583  1.00  0.00    -0.270 C  
ENDBRANCH  31  32
ENDBRANCH   8  31
ENDBRANCH   2   3
TORSDOF 9
ENDMDL
MODEL      342
REMARK 921   NORMALIZED FREE ENERGY PREDICTED BY IDOCK:    2.42 KCAL/MOL
REMARK 922        TOTAL FREE ENERGY PREDICTED BY IDOCK:    2.26 KCAL/MOL
REMARK 923 INTER-LIGAND FREE ENERGY PREDICTED BY IDOCK:   -3.41 KCAL/MOL
REMARK 924 INTRA-LIGAND FREE ENERGY PREDICTED BY IDOCK:    5.67 KCAL/MOL
REMARK 927      BINDING AFFINITY PREDICTED BY RF-SCORE:    0.00 PKD
ROOT
HETATM    1  C   UNL     1      -5.925   8.533  72.944  1.00  0.00    -0.079 C  
HETATM    2  C   UNL     1      -5.437   7.588  71.858  1.00  0.00    -0.036 C  
ENDROOT
BRANCH   2   3
HETATM    3  C   UNL     1      -6.526   6.681  71.329  1.00  0.00    -0.049 A  
HETATM    4  C   UNL     1      -7.510   6.335  72.267  1.00  0.00    -0.094 A  
HETATM    5  C   UNL     1      -8.485   5.373  71.994  1.00  0.00    -0.127 A  
HETATM    6  C   UNL     1      -8.514   4.769  70.744  1.00  0.00    -0.110 A  
HETATM    7  C   UNL     1      -7.579   5.155  69.769  1.00  0.00    -0.061 A  
HETATM    8  C   UNL     1      -6.585   6.127  70.032  1.00  0.00    -0.044 A  
BRANCH   5   9
HETATM    9  C   UNL     1      -9.349   4.966  73.138  1.00  0.00    -0.121 C  
HETATM   10  C   UNL     1      -8.759   4.232  74.313  1.00  0.00    -0.095 C  
BRANCH   9  11
HETATM   11  N   UNL     1     -10.611   5.279  73.054  1.00  0.00    -0.215 NA 
HETATM   12  H   UNL     1     -11.358   4.780  73.538  1.00  0.00     0.000 HD 
BRANCH  11  13
HETATM   13  O   UNL     1     -10.820   6.380  72.224  1.00  0.00    -0.221 OA 
BRANCH  13  14
HETATM   14  C   UNL     1      -9.741   7.285  72.428  1.00  0.00    -0.154 C  
BRANCH  14  15
HETATM   15  C   UNL     1     -10.003   8.497  71.588  1.00  0.00    -0.329 A  
HETATM   16  F   UNL     1      -8.102  12.062  68.849  1.00  0.00    -0.119 F  
HETATM   17  F   UNL     1      -6.980  11.126  70.441  1.00  0.00    -0.078 F  
HETATM   18  C   UNL     1     -11.274   9.047  71.519  1.00  0.00    -0.418 A  
HETATM   19  F   UNL     1      -7.327  10.045  68.592  1.00  0.00    -0.075 F  
HETATM   20  C   UNL     1     -11.513  10.146  70.700  1.00  0.00    -0.432 A  
HETATM   21  C   UNL     1      -8.958   9.136  70.917  1.00  0.00    -0.298 A  
HETATM   22  C   UNL     1     -10.508  10.713  69.888  1.00  0.00    -0.136 A  
HETATM   23  C   UNL     1      -7.930  10.875  69.490  1.00  0.00     0.066 C  
HETATM   24  C   UNL     1      -9.180  10.259  70.088  1.00  0.00     0.220 A  
BRANCH  22  25
HETATM   25  C   UNL     1     -10.879  11.743  68.811  1.00  0.00    -0.268 C  
HETATM   26  C   UNL     1     -12.080  12.622  69.235  1.00  0.00    -0.218 C  
HETATM   27  C   UNL     1     -11.723  13.559  70.385  1.00  0.00    -0.201 C  
HETATM   28  C   UNL     1     -10.607  14.510  69.979  1.00  0.00     0.123 C  
HETATM   29  C   UNL     1      -9.393  13.789  69.404  1.00  0.00     0.730 C  
HETATM   30  C   UNL     1      -9.755  12.718  68.363  1.00  0.00    -0.186 C  
ENDBRANCH  22  25
ENDBRANCH  14  15
ENDBRANCH  13  14
ENDBRANCH  11  13
ENDBRANCH   9  11
ENDBRANCH   5   9
BRANCH   8  31
HETATM   31  C   UNL     1      -5.540   6.442  68.969  1.00  0.00    -0.016 C  
BRANCH  31  32
HETATM   32  N   UNL     1      -6.046   7.069  67.724  1.00  0.00    -0.032 NA 
HETATM   33  O   UNL     1      -6.946   8.726  65.305  1.00  0.00    -0.074 OA 
HETATM   34  O   UNL     1      -8.492   7.487  64.240  1.00  0.00     0.037 OA 
HETATM   35  C   UNL     1      -5.874   6.173  66.549  1.00  0.00    -0.020 C  
HETATM   36  C   UNL     1      -7.660   7.576  65.138  1.00  0.00    -0.096 C  
HETATM   37  C   UNL     1      -7.520   6.822  67.650  1.00  0.00    -0.098 C  
HETATM   38  C   UNL     1      -7.341   6.466  66.163  1.00  0.00    -0.080 C  
ENDBRANCH  31  32
ENDBRANCH   8  31
ENDBRANCH   2   3
TORSDOF 9
ENDMDL
MODEL      343
REMARK 921   NORMALIZED FREE ENERGY PREDICTED BY IDOCK:    3.10 KCAL/MOL
REMARK 922        TOTAL FREE ENERGY PREDICTED BY IDOCK:    3.31 KCAL/MOL
REMARK 923 INTER-LIGAND FREE ENERGY PREDICTED BY IDOCK:    2.00 KCAL/MOL
REMARK 924 INTRA-LIGAND FREE ENERGY PREDICTED BY IDOCK:    1.31 KCAL/MOL
REMARK 927      BINDING AFFINITY PREDICTED BY RF-SCORE:    0.00 PKD
ROOT
HETATM    1  C   UNL     1      -7.469  14.125  70.847  1.00  0.00     2.195 C  
HETATM    2  C   UNL     1      -8.785  13.748  70.185  1.00  0.00     2.704 C  
ENDROOT
BRANCH   2   3
HETATM    3  C   UNL     1      -8.601  13.025  68.871  1.00  0.00     0.295 A  
HETATM    4  C   UNL     1      -7.865  11.833  68.953  1.00  0.00    -0.013 A  
HETATM    5  C   UNL     1      -7.457  11.135  67.814  1.00  0.00    -0.095 A  
HETATM    6  C   UNL     1      -7.825  11.606  66.560  1.00  0.00    -0.025 A  
HETATM    7  C   UNL     1      -8.622  12.759  66.462  1.00  0.00     0.078 A  
HETATM    8  C   UNL     1      -9.041  13.476  67.607  1.00  0.00    -0.205 A  
BRANCH   5   9
HETATM    9  C   UNL     1      -6.525   9.995  68.037  1.00  0.00    -0.058 C  
HETATM   10  C   UNL     1      -5.200   9.945  67.324  1.00  0.00    -0.038 C  
BRANCH   9  11
HETATM   11  N   UNL     1      -6.923   9.071  68.866  1.00  0.00    -0.064 NA 
HETATM   12  H   UNL     1      -6.318   8.619  69.551  1.00  0.00     0.000 HD 
BRANCH  11  13
HETATM   13  O   UNL     1      -8.277   8.776  68.705  1.00  0.00    -0.114 OA 
BRANCH  13  14
HETATM   14  C   UNL     1      -8.511   8.569  67.317  1.00  0.00    -0.123 C  
BRANCH  14  15
HETATM   15  C   UNL     1      -8.201   7.136  67.014  1.00  0.00    -0.117 A  
HETATM   16  F   UNL     1      -8.853   2.461  68.258  1.00  0.00    -0.092 F  
HETATM   17  F   UNL     1      -8.980   4.056  69.711  1.00  0.00    -0.109 F  
HETATM   18  C   UNL     1      -7.262   6.805  66.048  1.00  0.00    -0.067 A  
HETATM   19  F   UNL     1     -10.584   3.780  68.275  1.00  0.00     0.489 F  
HETATM   20  C   UNL     1      -7.018   5.469  65.746  1.00  0.00    -0.066 A  
HETATM   21  C   UNL     1      -8.798   6.109  67.748  1.00  0.00    -0.110 A  
HETATM   22  C   UNL     1      -7.724   4.415  66.362  1.00  0.00    -0.094 A  
HETATM   23  C   UNL     1      -9.226   3.761  68.399  1.00  0.00    -0.157 C  
HETATM   24  C   UNL     1      -8.554   4.747  67.462  1.00  0.00    -0.104 A  
BRANCH  22  25
HETATM   25  C   UNL     1      -7.611   2.986  65.809  1.00  0.00    -0.073 C  
HETATM   26  C   UNL     1      -8.997   2.316  65.644  1.00  0.00    -0.118 C  
HETATM   27  C   UNL     1      -9.816   2.966  64.533  1.00  0.00    -0.071 C  
HETATM   28  C   UNL     1      -9.106   2.839  63.194  1.00  0.00    -0.094 C  
HETATM   29  C   UNL     1      -7.667   3.337  63.236  1.00  0.00    -0.067 C  
HETATM   30  C   UNL     1      -6.877   2.822  64.450  1.00  0.00    -0.040 C  
ENDBRANCH  22  25
ENDBRANCH  14  15
ENDBRANCH  13  14
ENDBRANCH  11  13
ENDBRANCH   9  11
ENDBRANCH   5   9
BRANCH   8  31
HETATM   31  C   UNL     1      -9.827  14.770  67.440  1.00  0.00    -0.222 C  
BRANCH  31  32
HETATM   32  N   UNL     1      -9.031  16.021  67.440  1.00  0.00    -0.189 NA 
HETATM   33  O   UNL     1      -7.635  18.734  67.127  1.00  0.00    -0.226 OA 
HETATM   34  O   UNL     1      -5.629  18.523  68.123  1.00  0.00    -0.174 OA 
HETATM   35  C   UNL     1      -8.629  16.416  68.816  1.00  0.00    -0.250 C  
HETATM   36  C   UNL     1      -6.726  18.034  67.863  1.00  0.00    -0.191 C  
HETATM   37  C   UNL     1      -7.605  15.660  67.166  1.00  0.00    -0.223 C  
HETATM   38  C   UNL     1      -7.191  16.626  68.291  1.00  0.00    -0.169 C  
ENDBRANCH  31  32
ENDBRANCH   8  31
ENDBRANCH   2   3
TORSDOF 9
ENDMDL
MODEL      344
REMARK 921   NORMALIZED FREE ENERGY PREDICTED BY IDOCK:    3.12 KCAL/MOL
REMARK 922        TOTAL FREE ENERGY PREDICTED BY IDOCK:    3.33 KCAL/MOL
REMARK 923 INTER-LIGAND FREE ENERGY PREDICTED BY IDOCK:    1.42 KCAL/MOL
REMARK 924 INTRA-LIGAND FREE ENERGY PREDICTED BY IDOCK:    1.91 KCAL/MOL
REMARK 927      BINDING AFFINITY PREDICTED BY RF-SCORE:    0.00 PKD
ROOT
HETATM    1  C   UNL     1      -7.670  14.658  70.984  1.00  0.00     2.258 C  
HETATM    2  C   UNL     1      -8.887  14.107  70.259  1.00  0.00     2.284 C  
ENDROOT
BRANCH   2   3
HETATM    3  C   UNL     1      -8.532  13.114  69.176  1.00  0.00     0.606 A  
HETATM    4  C   UNL     1      -7.914  11.940  69.633  1.00  0.00     1.049 A  
HETATM    5  C   UNL     1      -7.368  11.002  68.754  1.00  0.00    -0.111 A  
HETATM    6  C   UNL     1      -7.476  11.209  67.385  1.00  0.00    -0.109 A  
HETATM    7  C   UNL     1      -8.154  12.344  66.909  1.00  0.00    -0.064 A  
HETATM    8  C   UNL     1      -8.710  13.303  67.788  1.00  0.00    -0.194 A  
BRANCH   5   9
HETATM    9  C   UNL     1      -6.578   9.901  69.372  1.00  0.00    -0.051 C  
HETATM   10  C   UNL     1      -5.147   9.671  68.966  1.00  0.00    -0.036 C  
BRANCH   9  11
HETATM   11  N   UNL     1      -7.192   9.172  70.262  1.00  0.00    -0.063 NA 
HETATM   12  H   UNL     1      -6.759   8.833  71.121  1.00  0.00     0.000 HD 
BRANCH  11  13
HETATM   13  O   UNL     1      -8.513   8.912  69.898  1.00  0.00    -0.121 OA 
BRANCH  13  14
HETATM   14  C   UNL     1      -8.527   8.609  68.508  1.00  0.00    -0.131 C  
BRANCH  14  15
HETATM   15  C   UNL     1      -8.073   7.191  68.349  1.00  0.00    -0.124 A  
HETATM   16  F   UNL     1      -8.734   2.521  69.607  1.00  0.00    -0.083 F  
HETATM   17  F   UNL     1      -9.292   4.146  70.919  1.00  0.00    -0.156 F  
HETATM   18  C   UNL     1      -6.915   6.895  67.645  1.00  0.00    -0.083 A  
HETATM   19  F   UNL     1     -10.492   3.724  69.160  1.00  0.00     0.310 F  
HETATM   20  C   UNL     1      -6.530   5.570  67.467  1.00  0.00    -0.051 A  
HETATM   21  C   UNL     1      -8.768   6.149  68.967  1.00  0.00    -0.124 A  
HETATM   22  C   UNL     1      -7.301   4.490  67.946  1.00  0.00    -0.066 A  
HETATM   23  C   UNL     1      -9.203   3.798  69.600  1.00  0.00    -0.152 C  
HETATM   24  C   UNL     1      -8.386   4.798  68.805  1.00  0.00    -0.084 A  
BRANCH  22  25
HETATM   25  C   UNL     1      -6.980   3.056  67.497  1.00  0.00    -0.049 C  
HETATM   26  C   UNL     1      -8.259   2.252  67.160  1.00  0.00    -0.079 C  
HETATM   27  C   UNL     1      -8.947   2.775  65.903  1.00  0.00    -0.142 C  
HETATM   28  C   UNL     1      -8.027   2.660  64.697  1.00  0.00    -0.078 C  
HETATM   29  C   UNL     1      -6.661   3.293  64.930  1.00  0.00    -0.039 C  
HETATM   30  C   UNL     1      -6.030   2.905  66.277  1.00  0.00    -0.023 C  
ENDBRANCH  22  25
ENDBRANCH  14  15
ENDBRANCH  13  14
ENDBRANCH  11  13
ENDBRANCH   9  11
ENDBRANCH   5   9
BRANCH   8  31
HETATM   31  C   UNL     1      -9.356  14.561  67.219  1.00  0.00    -0.210 C  
BRANCH  31  32
HETATM   32  N   UNL     1     -10.535  14.349  66.345  1.00  0.00    -0.289 NA 
HETATM   33  O   UNL     1     -13.173  14.181  64.790  1.00  0.00    -0.452 OA 
HETATM   34  O   UNL     1     -13.053  12.303  63.557  1.00  0.00    -0.766 OA 
HETATM   35  C   UNL     1     -10.140  14.195  64.919  1.00  0.00    -0.246 C  
HETATM   36  C   UNL     1     -12.501  13.092  64.320  1.00  0.00    -0.315 C  
HETATM   37  C   UNL     1     -10.872  12.892  66.371  1.00  0.00    -0.274 C  
HETATM   38  C   UNL     1     -11.055  12.953  64.843  1.00  0.00    -0.326 C  
ENDBRANCH  31  32
ENDBRANCH   8  31
ENDBRANCH   2   3
TORSDOF 9
ENDMDL
MODEL      345
REMARK 921   NORMALIZED FREE ENERGY PREDICTED BY IDOCK:    3.38 KCAL/MOL
REMARK 922        TOTAL FREE ENERGY PREDICTED BY IDOCK:    3.72 KCAL/MOL
REMARK 923 INTER-LIGAND FREE ENERGY PREDICTED BY IDOCK:    1.29 KCAL/MOL
REMARK 924 INTRA-LIGAND FREE ENERGY PREDICTED BY IDOCK:    2.44 KCAL/MOL
REMARK 927      BINDING AFFINITY PREDICTED BY RF-SCORE:    0.00 PKD
ROOT
HETATM    1  C   UNL     1      -7.469  14.125  70.847  1.00  0.00     2.195 C  
HETATM    2  C   UNL     1      -8.780  13.744  70.178  1.00  0.00     2.704 C  
ENDROOT
BRANCH   2   3
HETATM    3  C   UNL     1      -8.586  13.023  68.863  1.00  0.00     0.295 A  
HETATM    4  C   UNL     1      -7.846  11.834  68.948  1.00  0.00    -0.013 A  
HETATM    5  C   UNL     1      -7.429  11.140  67.809  1.00  0.00    -0.095 A  
HETATM    6  C   UNL     1      -7.793  11.612  66.554  1.00  0.00    -0.025 A  
HETATM    7  C   UNL     1      -8.594  12.761  66.454  1.00  0.00     0.187 A  
HETATM    8  C   UNL     1      -9.022  13.475  67.599  1.00  0.00    -0.200 A  
BRANCH   5   9
HETATM    9  C   UNL     1      -6.493  10.003  68.035  1.00  0.00    -0.058 C  
HETATM   10  C   UNL     1      -5.165   9.960  67.329  1.00  0.00    -0.038 C  
BRANCH   9  11
HETATM   11  N   UNL     1      -6.892   9.077  68.861  1.00  0.00    -0.056 NA 
HETATM   12  H   UNL     1      -6.288   8.626  69.548  1.00  0.00     0.000 HD 
BRANCH  11  13
HETATM   13  O   UNL     1      -8.243   8.776  68.692  1.00  0.00    -0.114 OA 
BRANCH  13  14
HETATM   14  C   UNL     1      -8.469   8.571  67.303  1.00  0.00    -0.123 C  
BRANCH  14  15
HETATM   15  C   UNL     1      -8.152   7.139  67.000  1.00  0.00    -0.117 A  
HETATM   16  F   UNL     1      -8.789   2.459  68.233  1.00  0.00    -0.092 F  
HETATM   17  F   UNL     1      -8.931   4.051  69.687  1.00  0.00    -0.109 F  
HETATM   18  C   UNL     1      -7.207   6.814  66.038  1.00  0.00    -0.067 A  
HETATM   19  F   UNL     1     -10.527   3.771  68.243  1.00  0.00     0.269 F  
HETATM   20  C   UNL     1      -6.955   5.479  65.734  1.00  0.00    -0.066 A  
HETATM   21  C   UNL     1      -8.748   6.109  67.729  1.00  0.00    -0.112 A  
HETATM   22  C   UNL     1      -7.660   4.421  66.346  1.00  0.00    -0.086 A  
HETATM   23  C   UNL     1      -9.169   3.758  68.374  1.00  0.00    -0.157 C  
HETATM   24  C   UNL     1      -8.497   4.748  67.442  1.00  0.00    -0.104 A  
BRANCH  22  25
HETATM   25  C   UNL     1      -7.538   2.994  65.791  1.00  0.00    -0.073 C  
HETATM   26  C   UNL     1      -8.920   2.318  65.618  1.00  0.00    -0.118 C  
HETATM   27  C   UNL     1      -9.737   2.966  64.504  1.00  0.00    -0.114 C  
HETATM   28  C   UNL     1      -9.020   2.844  63.168  1.00  0.00    -0.091 C  
HETATM   29  C   UNL     1      -7.582   3.348  63.218  1.00  0.00    -0.063 C  
HETATM   30  C   UNL     1      -6.797   2.835  64.436  1.00  0.00    -0.040 C  
ENDBRANCH  22  25
ENDBRANCH  14  15
ENDBRANCH  13  14
ENDBRANCH  11  13
ENDBRANCH   9  11
ENDBRANCH   5   9
BRANCH   8  31
HETATM   31  C   UNL     1      -9.813  14.766  67.429  1.00  0.00    -0.222 C  
BRANCH  31  32
HETATM   32  N   UNL     1     -10.538  15.248  68.630  1.00  0.00    -0.230 NA 
HETATM   33  O   UNL     1     -11.659  16.358  71.259  1.00  0.00    -0.414 OA 
HETATM   34  O   UNL     1     -13.712  15.467  71.489  1.00  0.00    -0.492 OA 
HETATM   35  C   UNL     1     -11.855  15.840  68.275  1.00  0.00    -0.105 C  
HETATM   36  C   UNL     1     -12.706  15.616  70.800  1.00  0.00    -0.431 C  
HETATM   37  C   UNL     1     -11.263  14.084  69.228  1.00  0.00    -0.261 C  
HETATM   38  C   UNL     1     -12.491  14.997  69.402  1.00  0.00    -0.076 C  
ENDBRANCH  31  32
ENDBRANCH   8  31
ENDBRANCH   2   3
TORSDOF 9
ENDMDL
MODEL      346
REMARK 921   NORMALIZED FREE ENERGY PREDICTED BY IDOCK:    3.86 KCAL/MOL
REMARK 922        TOTAL FREE ENERGY PREDICTED BY IDOCK:    4.46 KCAL/MOL
REMARK 923 INTER-LIGAND FREE ENERGY PREDICTED BY IDOCK:   -5.03 KCAL/MOL
REMARK 924 INTRA-LIGAND FREE ENERGY PREDICTED BY IDOCK:    9.48 KCAL/MOL
REMARK 927      BINDING AFFINITY PREDICTED BY RF-SCORE:    0.00 PKD
ROOT
HETATM    1  C   UNL     1      -7.429   9.250  68.528  1.00  0.00    -0.081 C  
HETATM    2  C   UNL     1      -8.398   8.195  69.036  1.00  0.00    -0.128 C  
ENDROOT
BRANCH   2   3
HETATM    3  C   UNL     1      -8.655   7.094  68.032  1.00  0.00    -0.128 A  
HETATM    4  C   UNL     1      -8.133   7.331  66.752  1.00  0.00    -0.119 A  
HETATM    5  C   UNL     1      -8.427   6.501  65.668  1.00  0.00    -0.146 A  
HETATM    6  C   UNL     1      -9.223   5.381  65.866  1.00  0.00    -0.165 A  
HETATM    7  C   UNL     1      -9.696   5.088  67.156  1.00  0.00    -0.180 A  
HETATM    8  C   UNL     1      -9.407   5.921  68.263  1.00  0.00    -0.118 A  
BRANCH   5   9
HETATM    9  C   UNL     1      -7.965   6.972  64.332  1.00  0.00    -0.101 C  
HETATM   10  C   UNL     1      -7.363   6.002  63.350  1.00  0.00    -0.068 C  
BRANCH   9  11
HETATM   11  N   UNL     1      -8.114   8.242  64.079  1.00  0.00    -0.221 NA 
HETATM   12  H   UNL     1      -8.019   8.979  64.778  1.00  0.00     0.000 HD 
BRANCH  11  13
HETATM   13  O   UNL     1      -8.417   8.473  62.738  1.00  0.00    -0.182 OA 
BRANCH  13  14
HETATM   14  C   UNL     1      -8.750   9.849  62.601  1.00  0.00    -0.211 C  
BRANCH  14  15
HETATM   15  C   UNL     1      -8.759  10.451  63.973  1.00  0.00    -0.202 A  
HETATM   16  F   UNL     1      -6.167  11.642  67.933  1.00  0.00    -0.046 F  
HETATM   17  F   UNL     1      -5.581  10.019  66.632  1.00  0.00    -0.043 F  
HETATM   18  C   UNL     1      -9.956  10.790  64.587  1.00  0.00    -0.386 A  
HETATM   19  F   UNL     1      -5.312  12.071  65.978  1.00  0.00     0.104 F  
HETATM   20  C   UNL     1      -9.947  11.390  65.842  1.00  0.00    -0.274 A  
HETATM   21  C   UNL     1      -7.570  10.614  64.686  1.00  0.00     0.140 A  
HETATM   22  C   UNL     1      -8.750  11.710  66.516  1.00  0.00    -0.182 A  
HETATM   23  C   UNL     1      -6.180  11.247  66.632  1.00  0.00    -0.141 C  
HETATM   24  C   UNL     1      -7.543  11.211  65.966  1.00  0.00     0.023 A  
BRANCH  22  25
HETATM   25  C   UNL     1      -8.786  12.605  67.765  1.00  0.00    -0.179 C  
HETATM   26  C   UNL     1      -7.373  12.846  68.348  1.00  0.00    -0.119 C  
HETATM   27  C   UNL     1      -6.516  13.710  67.427  1.00  0.00     0.042 C  
HETATM   28  C   UNL     1      -7.148  15.080  67.231  1.00  0.00    -0.134 C  
HETATM   29  C   UNL     1      -8.603  15.004  66.785  1.00  0.00    -0.279 C  
HETATM   30  C   UNL     1      -9.440  14.004  67.600  1.00  0.00    -0.210 C  
ENDBRANCH  22  25
ENDBRANCH  14  15
ENDBRANCH  13  14
ENDBRANCH  11  13
ENDBRANCH   9  11
ENDBRANCH   5   9
BRANCH   8  31
HETATM   31  C   UNL     1     -10.020   5.607  69.622  1.00  0.00    -0.203 C  
BRANCH  31  32
HETATM   32  N   UNL     1      -9.255   6.071  70.804  1.00  0.00    -0.153 NA 
HETATM   33  O   UNL     1      -7.407   6.715  73.165  1.00  0.00    -0.084 OA 
HETATM   34  O   UNL     1      -8.608   8.004  74.565  1.00  0.00    -0.170 OA 
HETATM   35  C   UNL     1      -9.271   7.554  70.922  1.00  0.00    -0.153 C  
HETATM   36  C   UNL     1      -8.528   7.421  73.487  1.00  0.00    -0.152 C  
HETATM   37  C   UNL     1     -10.159   6.003  71.994  1.00  0.00    -0.186 C  
HETATM   38  C   UNL     1      -9.638   7.390  72.414  1.00  0.00    -0.192 C  
ENDBRANCH  31  32
ENDBRANCH   8  31
ENDBRANCH   2   3
TORSDOF 9
ENDMDL
MODEL      347
REMARK 921   NORMALIZED FREE ENERGY PREDICTED BY IDOCK:    4.25 KCAL/MOL
REMARK 922        TOTAL FREE ENERGY PREDICTED BY IDOCK:    5.07 KCAL/MOL
REMARK 923 INTER-LIGAND FREE ENERGY PREDICTED BY IDOCK:    0.13 KCAL/MOL
REMARK 924 INTRA-LIGAND FREE ENERGY PREDICTED BY IDOCK:    4.94 KCAL/MOL
REMARK 927      BINDING AFFINITY PREDICTED BY RF-SCORE:    0.00 PKD
ROOT
HETATM    1  C   UNL     1      -5.691   2.212  64.880  1.00  0.00    -0.013 C  
HETATM    2  C   UNL     1      -7.107   2.243  65.432  1.00  0.00    -0.056 C  
ENDROOT
BRANCH   2   3
HETATM    3  C   UNL     1      -7.501   3.598  65.976  1.00  0.00    -0.077 A  
HETATM    4  C   UNL     1      -7.154   4.684  65.159  1.00  0.00    -0.063 A  
HETATM    5  C   UNL     1      -7.288   6.006  65.589  1.00  0.00    -0.076 A  
HETATM    6  C   UNL     1      -7.822   6.261  66.846  1.00  0.00    -0.104 A  
HETATM    7  C   UNL     1      -8.241   5.187  67.649  1.00  0.00    -0.099 A  
HETATM    8  C   UNL     1      -8.109   3.843  67.227  1.00  0.00    -0.091 A  
BRANCH   5   9
HETATM    9  C   UNL     1      -6.709   7.052  64.700  1.00  0.00    -0.043 C  
HETATM   10  C   UNL     1      -7.433   7.476  63.451  1.00  0.00    -0.101 C  
BRANCH   9  11
HETATM   11  N   UNL     1      -5.565   7.559  65.068  1.00  0.00    -0.033 NA 
HETATM   12  H   UNL     1      -4.757   7.653  64.452  1.00  0.00     0.000 HD 
BRANCH  11  13
HETATM   13  O   UNL     1      -5.579   7.959  66.404  1.00  0.00    -0.030 OA 
BRANCH  13  14
HETATM   14  C   UNL     1      -6.602   8.937  66.551  1.00  0.00    -0.067 C  
BRANCH  14  15
HETATM   15  C   UNL     1      -7.506   8.483  67.656  1.00  0.00    -0.094 A  
HETATM   16  F   UNL     1      -7.863   6.946  72.275  1.00  0.00    -0.092 F  
HETATM   17  F   UNL     1      -6.077   6.626  71.101  1.00  0.00    -0.033 F  
HETATM   18  C   UNL     1      -8.852   8.252  67.417  1.00  0.00    -0.135 A  
HETATM   19  F   UNL     1      -6.531   8.613  71.847  1.00  0.00    -0.056 F  
HETATM   20  C   UNL     1      -9.689   7.875  68.463  1.00  0.00    -0.167 A  
HETATM   21  C   UNL     1      -6.995   8.217  68.928  1.00  0.00    -0.066 A  
HETATM   22  C   UNL     1      -9.228   7.753  69.790  1.00  0.00    -0.150 A  
HETATM   23  C   UNL     1      -7.104   7.506  71.294  1.00  0.00    -0.058 C  
HETATM   24  C   UNL     1      -7.828   7.824  70.000  1.00  0.00    -0.103 A  
BRANCH  22  25
HETATM   25  C   UNL     1     -10.232   7.599  70.943  1.00  0.00    -0.202 C  
HETATM   26  C   UNL     1     -10.975   8.922  71.248  1.00  0.00    -0.363 C  
HETATM   27  C   UNL     1     -11.925   9.316  70.120  1.00  0.00     0.164 C  
HETATM   28  C   UNL     1     -12.992   8.251  69.917  1.00  0.00     2.424 C  
HETATM   29  C   UNL     1     -12.411   6.854  69.739  1.00  0.00     0.643 C  
HETATM   30  C   UNL     1     -11.325   6.508  70.772  1.00  0.00    -0.399 C  
ENDBRANCH  22  25
ENDBRANCH  14  15
ENDBRANCH  13  14
ENDBRANCH  11  13
ENDBRANCH   9  11
ENDBRANCH   5   9
BRANCH   8  31
HETATM   31  C   UNL     1      -8.495   2.715  68.174  1.00  0.00    -0.078 C  
BRANCH  31  32
HETATM   32  N   UNL     1      -8.029   2.852  69.575  1.00  0.00    -0.045 NA 
HETATM   33  O   UNL     1      -6.994   3.539  72.379  1.00  0.00    -0.038 OA 
HETATM   34  O   UNL     1      -6.451   1.580  73.342  1.00  0.00    -0.012 OA 
HETATM   35  C   UNL     1      -8.834   2.017  70.506  1.00  0.00    -0.069 C  
HETATM   36  C   UNL     1      -6.941   2.177  72.387  1.00  0.00    -0.023 C  
HETATM   37  C   UNL     1      -6.886   1.908  69.775  1.00  0.00    -0.033 C  
HETATM   38  C   UNL     1      -7.514   1.503  71.121  1.00  0.00    -0.033 C  
ENDBRANCH  31  32
ENDBRANCH   8  31
ENDBRANCH   2   3
TORSDOF 9
ENDMDL
MODEL      348
REMARK 921   NORMALIZED FREE ENERGY PREDICTED BY IDOCK:    6.06 KCAL/MOL
REMARK 922        TOTAL FREE ENERGY PREDICTED BY IDOCK:    7.83 KCAL/MOL
REMARK 923 INTER-LIGAND FREE ENERGY PREDICTED BY IDOCK:    1.80 KCAL/MOL
REMARK 924 INTRA-LIGAND FREE ENERGY PREDICTED BY IDOCK:    6.03 KCAL/MOL
REMARK 927      BINDING AFFINITY PREDICTED BY RF-SCORE:    0.00 PKD
ROOT
HETATM    1  C   UNL     1     -12.951  10.435  72.343  1.00  0.00    -0.009 C  
HETATM    2  C   UNL     1     -13.213  10.407  70.847  1.00  0.00    -0.321 C  
ENDROOT
BRANCH   2   3
HETATM    3  C   UNL     1     -11.946  10.344  70.024  1.00  0.00    -0.324 A  
HETATM    4  C   UNL     1     -11.682   9.095  69.443  1.00  0.00     0.613 A  
HETATM    5  C   UNL     1     -10.474   8.818  68.801  1.00  0.00    -0.214 A  
HETATM    6  C   UNL     1      -9.517   9.820  68.691  1.00  0.00    -0.151 A  
HETATM    7  C   UNL     1      -9.794  11.098  69.204  1.00  0.00    -0.074 A  
HETATM    8  C   UNL     1     -11.013  11.391  69.859  1.00  0.00    -0.030 A  
BRANCH   5   9
HETATM    9  C   UNL     1     -10.249   7.402  68.398  1.00  0.00    -0.183 C  
HETATM   10  C   UNL     1      -8.864   6.918  68.059  1.00  0.00    -0.123 C  
BRANCH   9  11
HETATM   11  N   UNL     1     -11.301   6.634  68.360  1.00  0.00    -0.571 NA 
HETATM   12  H   UNL     1     -12.223   6.942  68.052  1.00  0.00     0.000 HD 
BRANCH  11  13
HETATM   13  O   UNL     1     -11.015   5.339  68.793  1.00  0.00     0.043 OA 
BRANCH  13  14
HETATM   14  C   UNL     1     -11.233   4.460  67.696  1.00  0.00     3.620 C  
BRANCH  14  15
HETATM   15  C   UNL     1      -9.940   4.341  66.948  1.00  0.00    -0.178 A  
HETATM   16  F   UNL     1      -7.538   5.159  62.779  1.00  0.00    -0.050 F  
HETATM   17  F   UNL     1      -9.679   4.868  62.823  1.00  0.00    -0.057 F  
HETATM   18  C   UNL     1      -8.875   3.635  67.488  1.00  0.00    -0.145 A  
HETATM   19  F   UNL     1      -8.833   6.732  63.544  1.00  0.00     0.292 F  
HETATM   20  C   UNL     1      -7.666   3.571  66.802  1.00  0.00    -0.080 A  
HETATM   21  C   UNL     1      -9.809   4.878  65.666  1.00  0.00    -0.153 A  
HETATM   22  C   UNL     1      -7.457   4.239  65.578  1.00  0.00    -0.081 A  
HETATM   23  C   UNL     1      -8.639   5.382  63.546  1.00  0.00    -0.001 C  
HETATM   24  C   UNL     1      -8.591   4.814  64.952  1.00  0.00    -0.145 A  
BRANCH  22  25
HETATM   25  C   UNL     1      -6.039   4.361  64.999  1.00  0.00    -0.023 C  
HETATM   26  C   UNL     1      -5.312   2.995  64.952  1.00  0.00    -0.009 C  
HETATM   27  C   UNL     1      -5.936   2.052  63.928  1.00  0.00    -0.013 C  
HETATM   28  C   UNL     1      -5.851   2.642  62.528  1.00  0.00    -0.009 C  
HETATM   29  C   UNL     1      -6.410   4.057  62.446  1.00  0.00    -0.021 C  
HETATM   30  C   UNL     1      -5.918   4.975  63.577  1.00  0.00    -0.018 C  
ENDBRANCH  22  25
ENDBRANCH  14  15
ENDBRANCH  13  14
ENDBRANCH  11  13
ENDBRANCH   9  11
ENDBRANCH   5   9
BRANCH   8  31
HETATM   31  C   UNL     1     -11.225  12.768  70.476  1.00  0.00     1.166 C  
BRANCH  31  32
HETATM   32  N   UNL     1     -11.367  13.895  69.523  1.00  0.00    -0.256 NA 
HETATM   33  O   UNL     1     -11.942  16.381  67.822  1.00  0.00     0.337 OA 
HETATM   34  O   UNL     1     -11.215  15.901  65.748  1.00  0.00    -0.139 OA 
HETATM   35  C   UNL     1     -10.069  14.243  68.887  1.00  0.00    -0.175 C  
HETATM   36  C   UNL     1     -11.313  15.569  66.926  1.00  0.00    -0.079 C  
HETATM   37  C   UNL     1     -11.817  13.334  68.211  1.00  0.00    -0.354 C  
HETATM   38  C   UNL     1     -10.786  14.244  67.519  1.00  0.00    -0.284 C  
ENDBRANCH  31  32
ENDBRANCH   8  31
ENDBRANCH   2   3
TORSDOF 9
ENDMDL
MODEL      349
REMARK 921   NORMALIZED FREE ENERGY PREDICTED BY IDOCK:    6.07 KCAL/MOL
REMARK 922        TOTAL FREE ENERGY PREDICTED BY IDOCK:    7.84 KCAL/MOL
REMARK 923 INTER-LIGAND FREE ENERGY PREDICTED BY IDOCK:   -3.72 KCAL/MOL
REMARK 924 INTRA-LIGAND FREE ENERGY PREDICTED BY IDOCK:   11.56 KCAL/MOL
REMARK 927      BINDING AFFINITY PREDICTED BY RF-SCORE:    0.00 PKD
ROOT
HETATM    1  C   UNL     1     -13.258  13.129  71.430  1.00  0.00    -0.290 C  
HETATM    2  C   UNL     1     -12.056  12.242  71.711  1.00  0.00     0.996 C  
ENDROOT
BRANCH   2   3
HETATM    3  C   UNL     1     -11.975  11.045  70.792  1.00  0.00    -0.436 A  
HETATM    4  C   UNL     1     -11.676   9.832  71.430  1.00  0.00    -0.475 A  
HETATM    5  C   UNL     1     -11.395   8.668  70.712  1.00  0.00    -0.299 A  
HETATM    6  C   UNL     1     -11.456   8.693  69.324  1.00  0.00     0.561 A  
HETATM    7  C   UNL     1     -11.824   9.882  68.671  1.00  0.00     0.581 A  
HETATM    8  C   UNL     1     -12.109  11.069  69.386  1.00  0.00    -0.389 A  
BRANCH   5   9
HETATM    9  C   UNL     1     -10.909   7.504  71.504  1.00  0.00    -0.227 C  
HETATM   10  C   UNL     1     -11.116   7.458  72.994  1.00  0.00    -0.390 C  
BRANCH   9  11
HETATM   11  N   UNL     1     -10.310   6.556  70.839  1.00  0.00    -0.204 NA 
HETATM   12  H   UNL     1     -10.470   5.560  70.994  1.00  0.00     0.000 HD 
BRANCH  11  13
HETATM   13  O   UNL     1      -9.425   7.066  69.890  1.00  0.00    -0.157 OA 
BRANCH  13  14
HETATM   14  C   UNL     1      -9.757   6.486  68.634  1.00  0.00    -0.127 C  
BRANCH  14  15
HETATM   15  C   UNL     1      -8.667   6.839  67.670  1.00  0.00    -0.119 A  
HETATM   16  F   UNL     1      -7.227   9.715  63.999  1.00  0.00    -0.101 F  
HETATM   17  F   UNL     1      -9.312   9.263  64.343  1.00  0.00    -0.256 F  
HETATM   18  C   UNL     1      -7.528   6.052  67.573  1.00  0.00    -0.082 A  
HETATM   19  F   UNL     1      -8.276  10.632  65.672  1.00  0.00    -0.148 F  
HETATM   20  C   UNL     1      -6.503   6.418  66.706  1.00  0.00    -0.046 A  
HETATM   21  C   UNL     1      -8.808   7.924  66.804  1.00  0.00    -0.154 A  
HETATM   22  C   UNL     1      -6.553   7.597  65.935  1.00  0.00    -0.046 A  
HETATM   23  C   UNL     1      -8.124   9.461  64.989  1.00  0.00    -0.129 C  
HETATM   24  C   UNL     1      -7.781   8.304  65.910  1.00  0.00    -0.087 A  
BRANCH  22  25
HETATM   25  C   UNL     1      -5.296   8.092  65.203  1.00  0.00    -0.032 C  
HETATM   26  C   UNL     1      -5.179   7.496  63.780  1.00  0.00    -0.033 C  
HETATM   27  C   UNL     1      -6.258   8.035  62.846  1.00  0.00    -0.080 C  
HETATM   28  C   UNL     1      -6.141   9.545  62.699  1.00  0.00    -0.097 C  
HETATM   29  C   UNL     1      -6.102  10.270  64.038  1.00  0.00    -0.120 C  
HETATM   30  C   UNL     1      -5.139   9.630  65.052  1.00  0.00    -0.044 C  
ENDBRANCH  22  25
ENDBRANCH  14  15
ENDBRANCH  13  14
ENDBRANCH  11  13
ENDBRANCH   9  11
ENDBRANCH   5   9
BRANCH   8  31
HETATM   31  C   UNL     1     -12.414  12.352  68.625  1.00  0.00     0.646 C  
BRANCH  31  32
HETATM   32  N   UNL     1     -12.044  12.361  67.188  1.00  0.00    -0.512 NA 
HETATM   33  O   UNL     1     -11.512  12.030  64.187  1.00  0.00    -0.345 OA 
HETATM   34  O   UNL     1      -9.693  13.274  63.735  1.00  0.00     0.255 OA 
HETATM   35  C   UNL     1     -11.973  13.745  66.649  1.00  0.00    -0.431 C  
HETATM   36  C   UNL     1     -10.542  12.918  64.547  1.00  0.00    -0.382 C  
HETATM   37  C   UNL     1     -10.553  12.287  67.097  1.00  0.00    -0.225 C  
HETATM   38  C   UNL     1     -10.610  13.384  66.017  1.00  0.00    -0.290 C  
ENDBRANCH  31  32
ENDBRANCH   8  31
ENDBRANCH   2   3
TORSDOF 9
ENDMDL
MODEL      350
REMARK 921   NORMALIZED FREE ENERGY PREDICTED BY IDOCK:    7.26 KCAL/MOL
REMARK 922        TOTAL FREE ENERGY PREDICTED BY IDOCK:    9.66 KCAL/MOL
REMARK 923 INTER-LIGAND FREE ENERGY PREDICTED BY IDOCK:   -2.44 KCAL/MOL
REMARK 924 INTRA-LIGAND FREE ENERGY PREDICTED BY IDOCK:   12.10 KCAL/MOL
REMARK 927      BINDING AFFINITY PREDICTED BY RF-SCORE:    0.00 PKD
ROOT
HETATM    1  C   UNL     1     -13.348  11.459  71.691  1.00  0.00    -0.288 C  
HETATM    2  C   UNL     1     -12.063  10.799  72.163  1.00  0.00     1.050 C  
ENDROOT
BRANCH   2   3
HETATM    3  C   UNL     1     -11.816   9.455  71.517  1.00  0.00    -0.456 A  
HETATM    4  C   UNL     1     -11.186   8.512  72.343  1.00  0.00    -0.399 A  
HETATM    5  C   UNL     1     -10.730   7.286  71.853  1.00  0.00    -0.243 A  
HETATM    6  C   UNL     1     -10.944   6.966  70.518  1.00  0.00    -0.313 A  
HETATM    7  C   UNL     1     -11.636   7.869  69.694  1.00  0.00     0.442 A  
HETATM    8  C   UNL     1     -12.101   9.114  70.177  1.00  0.00     0.328 A  
BRANCH   5   9
HETATM    9  C   UNL     1      -9.914   6.463  72.788  1.00  0.00    -0.172 C  
HETATM   10  C   UNL     1     -10.171   6.516  74.271  1.00  0.00    -0.373 C  
BRANCH   9  11
HETATM   11  N   UNL     1      -8.990   5.716  72.252  1.00  0.00    -0.139 NA 
HETATM   12  H   UNL     1      -8.774   4.767  72.557  1.00  0.00     0.000 HD 
BRANCH  11  13
HETATM   13  O   UNL     1      -8.334   6.369  71.209  1.00  0.00    -0.121 OA 
BRANCH  13  14
HETATM   14  C   UNL     1      -8.528   5.601  70.028  1.00  0.00    -0.122 C  
BRANCH  14  15
HETATM   15  C   UNL     1      -7.767   6.268  68.924  1.00  0.00    -0.097 A  
HETATM   16  F   UNL     1      -7.954   9.147  64.987  1.00  0.00    -0.104 F  
HETATM   17  F   UNL     1      -9.641   7.946  65.602  1.00  0.00    -0.095 F  
HETATM   18  C   UNL     1      -6.424   5.985  68.721  1.00  0.00    -0.049 A  
HETATM   19  F   UNL     1      -9.116   9.721  66.736  1.00  0.00    -0.147 F  
HETATM   20  C   UNL     1      -5.718   6.646  67.721  1.00  0.00    -0.016 A  
HETATM   21  C   UNL     1      -8.412   7.131  68.037  1.00  0.00    -0.122 A  
HETATM   22  C   UNL     1      -6.308   7.640  66.913  1.00  0.00    -0.053 A  
HETATM   23  C   UNL     1      -8.575   8.648  66.090  1.00  0.00    -0.142 C  
HETATM   24  C   UNL     1      -7.713   7.804  67.009  1.00  0.00    -0.104 A  
BRANCH  22  25
HETATM   25  C   UNL     1      -5.430   8.523  66.014  1.00  0.00    -0.034 C  
HETATM   26  C   UNL     1      -5.155   7.862  64.641  1.00  0.00    -0.029 C  
HETATM   27  C   UNL     1      -6.414   7.782  63.784  1.00  0.00    -0.062 C  
HETATM   28  C   UNL     1      -6.962   9.172  63.499  1.00  0.00    -0.089 C  
HETATM   29  C   UNL     1      -7.158  10.004  64.760  1.00  0.00    -0.137 C  
HETATM   30  C   UNL     1      -5.955   9.954  65.717  1.00  0.00    -0.067 C  
ENDBRANCH  22  25
ENDBRANCH  14  15
ENDBRANCH  13  14
ENDBRANCH  11  13
ENDBRANCH   9  11
ENDBRANCH   5   9
BRANCH   8  31
HETATM   31  C   UNL     1     -12.766  10.094  69.218  1.00  0.00     1.261 C  
BRANCH  31  32
HETATM   32  N   UNL     1     -11.855  10.994  68.471  1.00  0.00    -0.520 NA 
HETATM   33  O   UNL     1     -10.143  12.696  66.579  1.00  0.00    -0.238 OA 
HETATM   34  O   UNL     1      -8.395  13.418  67.797  1.00  0.00    -0.151 OA 
HETATM   35  C   UNL     1     -11.679  12.297  69.166  1.00  0.00    -0.323 C  
HETATM   36  C   UNL     1      -9.469  12.823  67.757  1.00  0.00    -0.205 C  
HETATM   37  C   UNL     1     -10.450  10.645  68.849  1.00  0.00    -0.210 C  
HETATM   38  C   UNL     1     -10.154  12.151  68.966  1.00  0.00     0.094 C  
ENDBRANCH  31  32
ENDBRANCH   8  31
ENDBRANCH   2   3
TORSDOF 9
ENDMDL
MODEL      351
REMARK 921   NORMALIZED FREE ENERGY PREDICTED BY IDOCK:    9.19 KCAL/MOL
REMARK 922        TOTAL FREE ENERGY PREDICTED BY IDOCK:   12.60 KCAL/MOL
REMARK 923 INTER-LIGAND FREE ENERGY PREDICTED BY IDOCK:   15.57 KCAL/MOL
REMARK 924 INTRA-LIGAND FREE ENERGY PREDICTED BY IDOCK:   -2.97 KCAL/MOL
REMARK 927      BINDING AFFINITY PREDICTED BY RF-SCORE:    0.00 PKD
ROOT
HETATM    1  C   UNL     1      -8.161  17.807  65.499  1.00  0.00     0.771 C  
HETATM    2  C   UNL     1      -8.559  16.398  65.091  1.00  0.00     2.634 C  
ENDROOT
BRANCH   2   3
HETATM    3  C   UNL     1      -9.965  16.034  65.512  1.00  0.00    -0.282 A  
HETATM    4  C   UNL     1     -10.425  16.694  66.661  1.00  0.00    -0.258 A  
HETATM    5  C   UNL     1     -11.628  16.349  67.281  1.00  0.00     0.536 A  
HETATM    6  C   UNL     1     -12.419  15.353  66.723  1.00  0.00     1.254 A  
HETATM    7  C   UNL     1     -12.008  14.731  65.532  1.00  0.00    -0.189 A  
HETATM    8  C   UNL     1     -10.792  15.070  64.895  1.00  0.00    -0.430 A  
BRANCH   5   9
HETATM    9  C   UNL     1     -11.903  16.996  68.595  1.00  0.00     1.043 C  
HETATM   10  C   UNL     1     -11.279  18.322  68.935  1.00  0.00     1.522 C  
BRANCH   9  11
HETATM   11  N   UNL     1     -12.697  16.353  69.405  1.00  0.00    -0.034 NA 
HETATM   12  H   UNL     1     -13.695  16.219  69.239  1.00  0.00     0.000 HD 
BRANCH  11  13
HETATM   13  O   UNL     1     -12.020  15.871  70.524  1.00  0.00    -0.362 OA 
BRANCH  13  14
HETATM   14  C   UNL     1     -11.732  14.497  70.296  1.00  0.00    -0.293 C  
BRANCH  14  15
HETATM   15  C   UNL     1     -10.254  14.372  70.093  1.00  0.00     0.651 A  
HETATM   16  F   UNL     1      -6.636  12.265  67.584  1.00  0.00    -0.072 F  
HETATM   17  F   UNL     1      -8.551  11.300  67.850  1.00  0.00    -0.121 F  
HETATM   18  C   UNL     1      -9.367  14.978  70.970  1.00  0.00     2.281 A  
HETATM   19  F   UNL     1      -8.373  12.975  66.481  1.00  0.00    -0.078 F  
HETATM   20  C   UNL     1      -7.997  14.891  70.742  1.00  0.00     1.791 A  
HETATM   21  C   UNL     1      -9.743  13.585  69.059  1.00  0.00     0.214 A  
HETATM   22  C   UNL     1      -7.460  14.235  69.615  1.00  0.00     0.180 A  
HETATM   23  C   UNL     1      -7.965  12.526  67.703  1.00  0.00    -0.170 C  
HETATM   24  C   UNL     1      -8.354  13.477  68.819  1.00  0.00     0.067 A  
BRANCH  22  25
HETATM   25  C   UNL     1      -5.972  14.394  69.268  1.00  0.00    -0.097 C  
HETATM   26  C   UNL     1      -5.764  14.912  67.824  1.00  0.00    -0.098 C  
HETATM   27  C   UNL     1      -6.230  16.356  67.663  1.00  0.00    -0.165 C  
HETATM   28  C   UNL     1      -5.442  17.282  68.578  1.00  0.00    -0.145 C  
HETATM   29  C   UNL     1      -5.439  16.820  70.030  1.00  0.00    -0.206 C  
HETATM   30  C   UNL     1      -5.137  15.322  70.193  1.00  0.00    -0.103 C  
ENDBRANCH  22  25
ENDBRANCH  14  15
ENDBRANCH  13  14
ENDBRANCH  11  13
ENDBRANCH   9  11
ENDBRANCH   5   9
BRANCH   8  31
HETATM   31  C   UNL     1     -10.351  14.301  63.655  1.00  0.00     2.924 C  
BRANCH  31  32
HETATM   32  N   UNL     1     -10.254  12.829  63.803  1.00  0.00    -0.366 NA 
HETATM   33  O   UNL     1     -10.182   9.844  64.503  1.00  0.00    -0.025 OA 
HETATM   34  O   UNL     1      -8.886   8.868  62.944  1.00  0.00    -0.149 OA 
HETATM   35  C   UNL     1     -10.664  12.124  62.559  1.00  0.00     1.783 C  
HETATM   36  C   UNL     1      -9.449   9.880  63.354  1.00  0.00    -0.070 C  
HETATM   37  C   UNL     1      -8.841  12.430  63.519  1.00  0.00     1.945 C  
HETATM   38  C   UNL     1      -9.386  11.264  62.674  1.00  0.00    -0.313 C  
ENDBRANCH  31  32
ENDBRANCH   8  31
ENDBRANCH   2   3
TORSDOF 9
ENDMDL
MODEL      352
REMARK 921   NORMALIZED FREE ENERGY PREDICTED BY IDOCK:   11.10 KCAL/MOL
REMARK 922        TOTAL FREE ENERGY PREDICTED BY IDOCK:   15.52 KCAL/MOL
REMARK 923 INTER-LIGAND FREE ENERGY PREDICTED BY IDOCK:   -2.34 KCAL/MOL
REMARK 924 INTRA-LIGAND FREE ENERGY PREDICTED BY IDOCK:   17.85 KCAL/MOL
REMARK 927      BINDING AFFINITY PREDICTED BY RF-SCORE:    0.00 PKD
ROOT
HETATM    1  C   UNL     1     -10.788   8.447  69.227  1.00  0.00    -0.069 C  
HETATM    2  C   UNL     1     -10.061   7.220  68.703  1.00  0.00    -0.182 C  
ENDROOT
BRANCH   2   3
HETATM    3  C   UNL     1      -9.776   7.289  67.220  1.00  0.00    -0.204 A  
HETATM    4  C   UNL     1      -9.330   6.087  66.650  1.00  0.00    -0.156 A  
HETATM    5  C   UNL     1      -8.859   6.021  65.336  1.00  0.00    -0.042 A  
HETATM    6  C   UNL     1      -8.872   7.167  64.551  1.00  0.00     0.642 A  
HETATM    7  C   UNL     1      -9.382   8.363  65.083  1.00  0.00     0.366 A  
HETATM    8  C   UNL     1      -9.860   8.444  66.412  1.00  0.00    -0.310 A  
BRANCH   5   9
HETATM    9  C   UNL     1      -8.241   4.731  64.920  1.00  0.00    -0.120 C  
HETATM   10  C   UNL     1      -7.707   4.559  63.523  1.00  0.00    -0.074 C  
BRANCH   9  11
HETATM   11  N   UNL     1      -8.196   3.790  65.821  1.00  0.00    -0.104 NA 
HETATM   12  H   UNL     1      -8.683   2.897  65.740  1.00  0.00     0.000 HD 
BRANCH  11  13
HETATM   13  O   UNL     1      -7.402   4.150  66.909  1.00  0.00    -0.071 OA 
BRANCH  13  14
HETATM   14  C   UNL     1      -7.827   5.436  67.347  1.00  0.00    -0.101 C  
BRANCH  14  15
HETATM   15  C   UNL     1      -7.305   5.635  68.736  1.00  0.00    -0.083 A  
HETATM   16  F   UNL     1      -8.362   6.593  73.404  1.00  0.00    -0.116 F  
HETATM   17  F   UNL     1      -9.617   7.284  71.786  1.00  0.00    -0.151 F  
HETATM   18  C   UNL     1      -5.940   5.703  68.975  1.00  0.00    -0.024 A  
HETATM   19  F   UNL     1      -9.627   5.183  72.332  1.00  0.00    -0.155 F  
HETATM   20  C   UNL     1      -5.467   5.844  70.276  1.00  0.00    -0.013 A  
HETATM   21  C   UNL     1      -8.182   5.828  69.805  1.00  0.00    -0.108 A  
HETATM   22  C   UNL     1      -6.331   5.882  71.391  1.00  0.00    -0.044 A  
HETATM   23  C   UNL     1      -8.800   6.254  72.162  1.00  0.00    -0.137 C  
HETATM   24  C   UNL     1      -7.720   5.983  71.132  1.00  0.00    -0.109 A  
BRANCH  22  25
HETATM   25  C   UNL     1      -5.758   5.768  72.812  1.00  0.00    -0.031 C  
HETATM   26  C   UNL     1      -6.789   6.183  73.889  1.00  0.00    -0.080 C  
HETATM   27  C   UNL     1      -7.941   5.188  73.988  1.00  0.00    -0.101 C  
HETATM   28  C   UNL     1      -7.432   3.809  74.378  1.00  0.00    -0.062 C  
HETATM   29  C   UNL     1      -6.303   3.318  73.480  1.00  0.00    -0.024 C  
HETATM   30  C   UNL     1      -5.215   4.375  73.234  1.00  0.00    -0.007 C  
ENDBRANCH  22  25
ENDBRANCH  14  15
ENDBRANCH  13  14
ENDBRANCH  11  13
ENDBRANCH   9  11
ENDBRANCH   5   9
BRANCH   8  31
HETATM   31  C   UNL     1     -10.318   9.787  66.968  1.00  0.00    -0.239 C  
BRANCH  31  32
HETATM   32  N   UNL     1      -9.325  10.526  67.785  1.00  0.00    -0.148 NA 
HETATM   33  O   UNL     1      -7.454  11.870  69.809  1.00  0.00     0.386 OA 
HETATM   34  O   UNL     1      -6.543  13.630  68.745  1.00  0.00    -0.088 OA 
HETATM   35  C   UNL     1      -8.009  10.620  67.099  1.00  0.00    -0.121 C  
HETATM   36  C   UNL     1      -7.251  12.628  68.694  1.00  0.00    -0.108 C  
HETATM   37  C   UNL     1      -9.520  11.988  67.535  1.00  0.00    -0.178 C  
HETATM   38  C   UNL     1      -7.989  12.128  67.434  1.00  0.00    -0.168 C  
ENDBRANCH  31  32
ENDBRANCH   8  31
ENDBRANCH   2   3
TORSDOF 9
ENDMDL
MODEL      353
REMARK 921   NORMALIZED FREE ENERGY PREDICTED BY IDOCK:   11.20 KCAL/MOL
REMARK 922        TOTAL FREE ENERGY PREDICTED BY IDOCK:   15.67 KCAL/MOL
REMARK 923 INTER-LIGAND FREE ENERGY PREDICTED BY IDOCK:   -1.56 KCAL/MOL
REMARK 924 INTRA-LIGAND FREE ENERGY PREDICTED BY IDOCK:   17.23 KCAL/MOL
REMARK 927      BINDING AFFINITY PREDICTED BY RF-SCORE:    0.00 PKD
ROOT
HETATM    1  C   UNL     1     -10.878   8.722  66.012  1.00  0.00     1.616 C  
HETATM    2  C   UNL     1     -10.863   9.657  67.211  1.00  0.00    -0.212 C  
ENDROOT
BRANCH   2   3
HETATM    3  C   UNL     1     -10.992  11.114  66.828  1.00  0.00    -0.309 A  
HETATM    4  C   UNL     1     -11.346  11.970  67.881  1.00  0.00    -0.369 A  
HETATM    5  C   UNL     1     -11.673  13.311  67.666  1.00  0.00    -0.408 A  
HETATM    6  C   UNL     1     -11.606  13.829  66.379  1.00  0.00    -0.380 A  
HETATM    7  C   UNL     1     -11.185  13.004  65.323  1.00  0.00    -0.316 A  
HETATM    8  C   UNL     1     -10.852  11.644  65.527  1.00  0.00    -0.334 A  
BRANCH   5   9
HETATM    9  C   UNL     1     -12.212  14.055  68.839  1.00  0.00    -0.226 C  
HETATM   10  C   UNL     1     -12.382  13.365  70.165  1.00  0.00    -0.322 C  
BRANCH   9  11
HETATM   11  N   UNL     1     -12.517  15.308  68.643  1.00  0.00    -0.409 NA 
HETATM   12  H   UNL     1     -12.255  15.836  67.810  1.00  0.00     0.000 HD 
BRANCH  11  13
HETATM   13  O   UNL     1     -13.243  15.839  69.708  1.00  0.00     0.178 OA 
BRANCH  13  14
HETATM   14  C   UNL     1     -12.336  16.056  70.783  1.00  0.00    -0.160 C  
BRANCH  14  15
HETATM   15  C   UNL     1     -11.154  16.795  70.235  1.00  0.00     0.118 A  
HETATM   16  F   UNL     1      -6.474  16.583  68.864  1.00  0.00    -0.134 F  
HETATM   17  F   UNL     1      -7.287  15.247  70.356  1.00  0.00    -0.034 F  
HETATM   18  C   UNL     1     -11.197  18.172  70.069  1.00  0.00     2.862 A  
HETATM   19  F   UNL     1      -7.795  14.960  68.265  1.00  0.00    -0.108 F  
HETATM   20  C   UNL     1     -10.109  18.840  69.516  1.00  0.00     0.225 A  
HETATM   21  C   UNL     1      -9.965  16.122  69.949  1.00  0.00    -0.001 A  
HETATM   22  C   UNL     1      -8.955  18.161  69.071  1.00  0.00    -0.038 A  
HETATM   23  C   UNL     1      -7.612  15.923  69.213  1.00  0.00    -0.221 C  
HETATM   24  C   UNL     1      -8.846  16.786  69.396  1.00  0.00     0.168 A  
BRANCH  22  25
HETATM   25  C   UNL     1      -7.903  18.901  68.232  1.00  0.00    -0.340 C  
HETATM   26  C   UNL     1      -6.463  18.620  68.725  1.00  0.00    -0.260 C  
HETATM   27  C   UNL     1      -6.042  17.177  68.464  1.00  0.00    -0.149 C  
HETATM   28  C   UNL     1      -6.062  16.869  66.974  1.00  0.00    -0.225 C  
HETATM   29  C   UNL     1      -7.387  17.228  66.312  1.00  0.00    -0.342 C  
HETATM   30  C   UNL     1      -7.909  18.620  66.704  1.00  0.00    -0.271 C  
ENDBRANCH  22  25
ENDBRANCH  14  15
ENDBRANCH  13  14
ENDBRANCH  11  13
ENDBRANCH   9  11
ENDBRANCH   5   9
BRANCH   8  31
HETATM   31  C   UNL     1     -10.488  10.770  64.332  1.00  0.00    -0.274 C  
BRANCH  31  32
HETATM   32  N   UNL     1      -9.085  10.292  64.278  1.00  0.00    -0.221 NA 
HETATM   33  O   UNL     1      -6.078   9.695  64.274  1.00  0.00    -0.086 OA 
HETATM   34  O   UNL     1      -5.817   7.806  63.081  1.00  0.00    -0.053 OA 
HETATM   35  C   UNL     1      -8.963   8.892  64.765  1.00  0.00    -0.036 C  
HETATM   36  C   UNL     1      -6.576   8.626  63.591  1.00  0.00    -0.088 C  
HETATM   37  C   UNL     1      -8.822   9.795  62.892  1.00  0.00    -0.250 C  
HETATM   38  C   UNL     1      -8.117   8.574  63.512  1.00  0.00    -0.155 C  
ENDBRANCH  31  32
ENDBRANCH   8  31
ENDBRANCH   2   3
TORSDOF 9
ENDMDL
MODEL      354
REMARK 921   NORMALIZED FREE ENERGY PREDICTED BY IDOCK:   11.29 KCAL/MOL
REMARK 922        TOTAL FREE ENERGY PREDICTED BY IDOCK:   15.80 KCAL/MOL
REMARK 923 INTER-LIGAND FREE ENERGY PREDICTED BY IDOCK:    9.32 KCAL/MOL
REMARK 924 INTRA-LIGAND FREE ENERGY PREDICTED BY IDOCK:    6.48 KCAL/MOL
REMARK 927      BINDING AFFINITY PREDICTED BY RF-SCORE:    0.00 PKD
ROOT
HETATM    1  C   UNL     1      -5.552  13.202  66.427  1.00  0.00     2.810 C  
HETATM    2  C   UNL     1      -6.452  14.407  66.647  1.00  0.00     2.417 C  
ENDROOT
BRANCH   2   3
HETATM    3  C   UNL     1      -6.883  14.569  68.088  1.00  0.00    -0.129 A  
HETATM    4  C   UNL     1      -6.910  15.894  68.549  1.00  0.00    -0.124 A  
HETATM    5  C   UNL     1      -7.117  16.204  69.895  1.00  0.00     0.205 A  
HETATM    6  C   UNL     1      -7.347  15.177  70.802  1.00  0.00     1.122 A  
HETATM    7  C   UNL     1      -7.395  13.850  70.345  1.00  0.00     1.193 A  
HETATM    8  C   UNL     1      -7.185  13.521  68.985  1.00  0.00    -0.031 A  
BRANCH   5   9
HETATM    9  C   UNL     1      -6.932  17.632  70.279  1.00  0.00     1.373 C  
HETATM   10  C   UNL     1      -5.870  18.021  71.271  1.00  0.00     0.702 C  
BRANCH   9  11
HETATM   11  N   UNL     1      -7.730  18.494  69.713  1.00  0.00     0.578 NA 
HETATM   12  H   UNL     1      -8.688  18.672  70.017  1.00  0.00     0.000 HD 
BRANCH  11  13
HETATM   13  O   UNL     1      -7.117  19.144  68.643  1.00  0.00    -0.289 OA 
BRANCH  13  14
HETATM   14  C   UNL     1      -7.971  19.014  67.512  1.00  0.00    -0.252 C  
BRANCH  14  15
HETATM   15  C   UNL     1      -8.882  17.853  67.765  1.00  0.00    -0.251 A  
HETATM   16  F   UNL     1     -11.290  15.188  71.070  1.00  0.00    -0.301 F  
HETATM   17  F   UNL     1      -9.478  16.256  71.567  1.00  0.00     2.892 F  
HETATM   18  C   UNL     1      -9.220  16.984  66.738  1.00  0.00    -0.270 A  
HETATM   19  F   UNL     1     -11.327  17.355  71.273  1.00  0.00     0.171 F  
HETATM   20  C   UNL     1     -10.104  15.936  66.976  1.00  0.00    -0.268 A  
HETATM   21  C   UNL     1      -9.349  17.582  69.052  1.00  0.00    -0.089 A  
HETATM   22  C   UNL     1     -10.714  15.735  68.232  1.00  0.00    -0.281 A  
HETATM   23  C   UNL     1     -10.592  16.318  70.777  1.00  0.00     0.438 C  
HETATM   24  C   UNL     1     -10.239  16.516  69.315  1.00  0.00    -0.290 A  
BRANCH  22  25
HETATM   25  C   UNL     1     -11.874  14.739  68.374  1.00  0.00    -0.319 C  
HETATM   26  C   UNL     1     -11.923  13.733  67.199  1.00  0.00    -0.442 C  
HETATM   27  C   UNL     1     -10.741  12.768  67.225  1.00  0.00    -0.256 C  
HETATM   28  C   UNL     1     -10.742  11.946  68.505  1.00  0.00    -0.254 C  
HETATM   29  C   UNL     1     -10.833  12.805  69.761  1.00  0.00     0.433 C  
HETATM   30  C   UNL     1     -11.912  13.896  69.678  1.00  0.00    -0.399 C  
ENDBRANCH  22  25
ENDBRANCH  14  15
ENDBRANCH  13  14
ENDBRANCH  11  13
ENDBRANCH   9  11
ENDBRANCH   5   9
BRANCH   8  31
HETATM   31  C   UNL     1      -7.158  12.059  68.559  1.00  0.00    -0.098 C  
BRANCH  31  32
HETATM   32  N   UNL     1      -7.174  11.061  69.656  1.00  0.00    -0.103 NA 
HETATM   33  O   UNL     1      -7.356   9.308  72.165  1.00  0.00    -0.289 OA 
HETATM   34  O   UNL     1      -6.045   7.522  71.776  1.00  0.00    -0.036 OA 
HETATM   35  C   UNL     1      -7.561   9.711  69.164  1.00  0.00    -0.082 C  
HETATM   36  C   UNL     1      -6.557   8.556  71.356  1.00  0.00    -0.066 C  
HETATM   37  C   UNL     1      -5.779  10.554  69.839  1.00  0.00    -0.053 C  
HETATM   38  C   UNL     1      -6.356   9.130  69.937  1.00  0.00    -0.042 C  
ENDBRANCH  31  32
ENDBRANCH   8  31
ENDBRANCH   2   3
TORSDOF 9
ENDMDL
MODEL      355
REMARK 921   NORMALIZED FREE ENERGY PREDICTED BY IDOCK:   15.19 KCAL/MOL
REMARK 922        TOTAL FREE ENERGY PREDICTED BY IDOCK:   21.76 KCAL/MOL
REMARK 923 INTER-LIGAND FREE ENERGY PREDICTED BY IDOCK:    4.65 KCAL/MOL
REMARK 924 INTRA-LIGAND FREE ENERGY PREDICTED BY IDOCK:   17.11 KCAL/MOL
REMARK 927      BINDING AFFINITY PREDICTED BY RF-SCORE:    0.00 PKD
ROOT
HETATM    1  C   UNL     1      -9.738   6.072  66.867  1.00  0.00    -0.173 C  
HETATM    2  C   UNL     1      -9.380   7.352  66.130  1.00  0.00    -0.111 C  
ENDROOT
BRANCH   2   3
HETATM    3  C   UNL     1      -7.957   7.800  66.377  1.00  0.00    -0.099 A  
HETATM    4  C   UNL     1      -7.647   9.076  65.882  1.00  0.00    -0.094 A  
HETATM    5  C   UNL     1      -6.340   9.567  65.872  1.00  0.00    -0.075 A  
HETATM    6  C   UNL     1      -5.318   8.793  66.407  1.00  0.00    -0.034 A  
HETATM    7  C   UNL     1      -5.622   7.543  66.972  1.00  0.00    -0.031 A  
HETATM    8  C   UNL     1      -6.941   7.032  66.987  1.00  0.00    -0.070 A  
BRANCH   5   9
HETATM    9  C   UNL     1      -6.123  10.851  65.149  1.00  0.00     0.127 C  
HETATM   10  C   UNL     1      -6.638  11.031  63.746  1.00  0.00     0.784 C  
BRANCH   9  11
HETATM   11  N   UNL     1      -5.477  11.781  65.795  1.00  0.00    -0.356 NA 
HETATM   12  H   UNL     1      -4.573  12.154  65.507  1.00  0.00     0.000 HD 
BRANCH  11  13
HETATM   13  O   UNL     1      -6.171  12.205  66.928  1.00  0.00    -0.141 OA 
BRANCH  13  14
HETATM   14  C   UNL     1      -6.402  11.063  67.745  1.00  0.00    -0.058 C  
BRANCH  14  15
HETATM   15  C   UNL     1      -7.879  10.962  67.973  1.00  0.00    -0.107 A  
HETATM   16  F   UNL     1     -12.173   9.354  66.301  1.00  0.00     4.066 F  
HETATM   17  F   UNL     1     -10.539   9.832  64.971  1.00  0.00    -0.127 F  
HETATM   18  C   UNL     1      -8.480  11.642  69.022  1.00  0.00     0.158 A  
HETATM   19  F   UNL     1     -10.455   8.024  66.168  1.00  0.00    -0.199 F  
HETATM   20  C   UNL     1      -9.846  11.503  69.249  1.00  0.00     0.207 A  
HETATM   21  C   UNL     1      -8.686  10.238  67.093  1.00  0.00    -0.131 A  
HETATM   22  C   UNL     1     -10.656  10.652  68.469  1.00  0.00    -0.229 A  
HETATM   23  C   UNL     1     -10.816   9.338  66.215  1.00  0.00     0.576 C  
HETATM   24  C   UNL     1     -10.076  10.094  67.302  1.00  0.00    -0.254 A  
BRANCH  22  25
HETATM   25  C   UNL     1     -12.088  10.327  68.920  1.00  0.00     0.362 C  
HETATM   26  C   UNL     1     -12.271   8.823  69.235  1.00  0.00     2.147 C  
HETATM   27  C   UNL     1     -11.499   8.404  70.483  1.00  0.00    -0.189 C  
HETATM   28  C   UNL     1     -11.988   9.169  71.703  1.00  0.00    -0.437 C  
HETATM   29  C   UNL     1     -11.997  10.679  71.492  1.00  0.00    -0.148 C  
HETATM   30  C   UNL     1     -12.622  11.105  70.154  1.00  0.00    -0.249 C  
ENDBRANCH  22  25
ENDBRANCH  14  15
ENDBRANCH  13  14
ENDBRANCH  11  13
ENDBRANCH   9  11
ENDBRANCH   5   9
BRANCH   8  31
HETATM   31  C   UNL     1      -7.201   5.632  67.529  1.00  0.00    -0.076 C  
BRANCH  31  32
HETATM   32  N   UNL     1      -6.845   5.409  68.952  1.00  0.00    -0.053 NA 
HETATM   33  O   UNL     1      -6.071   4.541  71.789  1.00  0.00    -0.016 OA 
HETATM   34  O   UNL     1      -6.728   6.205  73.152  1.00  0.00    -0.072 OA 
HETATM   35  C   UNL     1      -6.043   6.534  69.500  1.00  0.00    -0.022 C  
HETATM   36  C   UNL     1      -6.588   5.783  72.008  1.00  0.00    -0.058 C  
HETATM   37  C   UNL     1      -7.995   5.867  69.791  1.00  0.00    -0.101 C  
HETATM   38  C   UNL     1      -6.981   6.550  70.727  1.00  0.00    -0.068 C  
ENDBRANCH  31  32
ENDBRANCH   8  31
ENDBRANCH   2   3
TORSDOF 9
ENDMDL
MODEL      356
REMARK 921   NORMALIZED FREE ENERGY PREDICTED BY IDOCK:   16.83 KCAL/MOL
REMARK 922        TOTAL FREE ENERGY PREDICTED BY IDOCK:   24.25 KCAL/MOL
REMARK 923 INTER-LIGAND FREE ENERGY PREDICTED BY IDOCK:    9.88 KCAL/MOL
REMARK 924 INTRA-LIGAND FREE ENERGY PREDICTED BY IDOCK:   14.38 KCAL/MOL
REMARK 927      BINDING AFFINITY PREDICTED BY RF-SCORE:    0.00 PKD
ROOT
HETATM    1  C   UNL     1     -11.406   8.674  65.762  1.00  0.00     4.958 C  
HETATM    2  C   UNL     1     -12.284   9.517  66.672  1.00  0.00     7.146 C  
ENDROOT
BRANCH   2   3
HETATM    3  C   UNL     1     -11.526  10.624  67.368  1.00  0.00    -0.022 A  
HETATM    4  C   UNL     1     -11.823  11.918  66.913  1.00  0.00    -0.177 A  
HETATM    5  C   UNL     1     -11.091  13.033  67.325  1.00  0.00    -0.303 A  
HETATM    6  C   UNL     1     -10.064  12.870  68.246  1.00  0.00    -0.242 A  
HETATM    7  C   UNL     1      -9.799  11.592  68.766  1.00  0.00    -0.129 A  
HETATM    8  C   UNL     1     -10.532  10.454  68.357  1.00  0.00    -0.216 A  
BRANCH   5   9
HETATM    9  C   UNL     1     -11.387  14.313  66.623  1.00  0.00    -0.349 C  
HETATM   10  C   UNL     1     -12.809  14.705  66.324  1.00  0.00     0.529 C  
BRANCH   9  11
HETATM   11  N   UNL     1     -10.362  15.049  66.297  1.00  0.00    -0.284 NA 
HETATM   12  H   UNL     1      -9.529  15.158  66.875  1.00  0.00     0.000 HD 
BRANCH  11  13
HETATM   13  O   UNL     1     -10.540  15.669  65.060  1.00  0.00    -0.418 OA 
BRANCH  13  14
HETATM   14  C   UNL     1     -11.079  16.964  65.300  1.00  0.00     0.051 C  
BRANCH  14  15
HETATM   15  C   UNL     1     -10.082  17.724  66.119  1.00  0.00    -0.308 A  
HETATM   16  F   UNL     1      -7.462  17.911  70.233  1.00  0.00     0.881 F  
HETATM   17  F   UNL     1      -9.345  16.857  70.128  1.00  0.00     0.572 F  
HETATM   18  C   UNL     1      -9.686  19.000  65.744  1.00  0.00     0.145 A  
HETATM   19  F   UNL     1      -7.585  16.011  69.179  1.00  0.00    -0.173 F  
HETATM   20  C   UNL     1      -8.726  19.676  66.490  1.00  0.00    -0.402 A  
HETATM   21  C   UNL     1      -9.588  17.192  67.312  1.00  0.00    -0.245 A  
HETATM   22  C   UNL     1      -8.095  19.096  67.610  1.00  0.00    -0.299 A  
HETATM   23  C   UNL     1      -8.244  17.187  69.388  1.00  0.00     0.311 C  
HETATM   24  C   UNL     1      -8.620  17.870  68.087  1.00  0.00    -0.265 A  
BRANCH  22  25
HETATM   25  C   UNL     1      -6.862  19.769  68.233  1.00  0.00    -0.326 C  
HETATM   26  C   UNL     1      -6.969  19.865  69.774  1.00  0.00    -0.176 C  
HETATM   27  C   UNL     1      -6.885  18.494  70.438  1.00  0.00     1.011 C  
HETATM   28  C   UNL     1      -5.553  17.826  70.132  1.00  0.00    -0.242 C  
HETATM   29  C   UNL     1      -5.240  17.781  68.641  1.00  0.00    -0.152 C  
HETATM   30  C   UNL     1      -5.485  19.120  67.925  1.00  0.00    -0.177 C  
ENDBRANCH  22  25
ENDBRANCH  14  15
ENDBRANCH  13  14
ENDBRANCH  11  13
ENDBRANCH   9  11
ENDBRANCH   5   9
BRANCH   8  31
HETATM   31  C   UNL     1     -10.144   9.078  68.884  1.00  0.00    -0.196 C  
BRANCH  31  32
HETATM   32  N   UNL     1      -8.700   8.867  69.151  1.00  0.00    -0.130 NA 
HETATM   33  O   UNL     1      -5.661   8.481  69.290  1.00  0.00    -0.034 OA 
HETATM   34  O   UNL     1      -5.250   7.458  71.251  1.00  0.00    -0.027 OA 
HETATM   35  C   UNL     1      -8.288   9.469  70.447  1.00  0.00    -0.192 C  
HETATM   36  C   UNL     1      -6.061   7.989  70.497  1.00  0.00    -0.033 C  
HETATM   37  C   UNL     1      -8.540   7.514  69.770  1.00  0.00    -0.140 C  
HETATM   38  C   UNL     1      -7.570   8.144  70.787  1.00  0.00    -0.071 C  
ENDBRANCH  31  32
ENDBRANCH   8  31
ENDBRANCH   2   3
TORSDOF 9
ENDMDL
MODEL      357
REMARK 921   NORMALIZED FREE ENERGY PREDICTED BY IDOCK:   23.43 KCAL/MOL
REMARK 922        TOTAL FREE ENERGY PREDICTED BY IDOCK:   34.32 KCAL/MOL
REMARK 923 INTER-LIGAND FREE ENERGY PREDICTED BY IDOCK:    3.18 KCAL/MOL
REMARK 924 INTRA-LIGAND FREE ENERGY PREDICTED BY IDOCK:   31.14 KCAL/MOL
REMARK 927      BINDING AFFINITY PREDICTED BY RF-SCORE:    0.00 PKD
ROOT
HETATM    1  C   UNL     1     -12.469  10.686  71.293  1.00  0.00    -0.515 C  
HETATM    2  C   UNL     1     -11.314   9.826  71.781  1.00  0.00    -0.061 C  
ENDROOT
BRANCH   2   3
HETATM    3  C   UNL     1     -11.533   8.349  71.539  1.00  0.00    -0.335 A  
HETATM    4  C   UNL     1     -10.485   7.521  71.969  1.00  0.00    -0.245 A  
HETATM    5  C   UNL     1     -10.448   6.158  71.667  1.00  0.00    -0.267 A  
HETATM    6  C   UNL     1     -11.498   5.590  70.957  1.00  0.00     0.292 A  
HETATM    7  C   UNL     1     -12.590   6.391  70.580  1.00  0.00     0.476 A  
HETATM    8  C   UNL     1     -12.639   7.773  70.878  1.00  0.00    -0.045 A  
BRANCH   5   9
HETATM    9  C   UNL     1      -9.193   5.438  72.019  1.00  0.00    -0.137 C  
HETATM   10  C   UNL     1      -9.082   4.696  73.324  1.00  0.00    -0.118 C  
BRANCH   9  11
HETATM   11  N   UNL     1      -8.226   5.492  71.146  1.00  0.00    -0.118 NA 
HETATM   12  H   UNL     1      -7.811   4.673  70.701  1.00  0.00     0.000 HD 
BRANCH  11  13
HETATM   13  O   UNL     1      -7.826   6.804  70.894  1.00  0.00    -0.095 OA 
BRANCH  13  14
HETATM   14  C   UNL     1      -7.617   6.929  69.492  1.00  0.00    -0.099 C  
BRANCH  14  15
HETATM   15  C   UNL     1      -7.058   8.295  69.239  1.00  0.00    -0.060 A  
HETATM   16  F   UNL     1      -7.992  12.951  68.110  1.00  0.00    -0.118 F  
HETATM   17  F   UNL     1      -9.293  11.343  67.484  1.00  0.00    -0.158 F  
HETATM   18  C   UNL     1      -5.688   8.494  69.159  1.00  0.00    -0.039 A  
HETATM   19  F   UNL     1      -9.281  11.967  69.563  1.00  0.00     0.434 F  
HETATM   20  C   UNL     1      -5.181   9.776  68.969  1.00  0.00    -0.036 A  
HETATM   21  C   UNL     1      -7.907   9.379  69.009  1.00  0.00    -0.079 A  
HETATM   22  C   UNL     1      -6.014  10.911  68.892  1.00  0.00    -0.040 A  
HETATM   23  C   UNL     1      -8.463  11.735  68.497  1.00  0.00    -0.125 C  
HETATM   24  C   UNL     1      -7.410  10.686  68.804  1.00  0.00    -0.100 A  
BRANCH  22  25
HETATM   25  C   UNL     1      -5.402  12.319  68.950  1.00  0.00    -0.054 C  
HETATM   26  C   UNL     1      -5.564  13.080  67.612  1.00  0.00    -0.105 C  
HETATM   27  C   UNL     1      -7.021  13.436  67.331  1.00  0.00    -0.098 C  
HETATM   28  C   UNL     1      -7.575  14.342  68.419  1.00  0.00    -0.122 C  
HETATM   29  C   UNL     1      -7.363  13.785  69.822  1.00  0.00     0.475 C  
HETATM   30  C   UNL     1      -5.936  13.264  70.062  1.00  0.00    -0.134 C  
ENDBRANCH  22  25
ENDBRANCH  14  15
ENDBRANCH  13  14
ENDBRANCH  11  13
ENDBRANCH   9  11
ENDBRANCH   5   9
BRANCH   8  31
HETATM   31  C   UNL     1     -13.803   8.612  70.367  1.00  0.00     1.407 C  
BRANCH  31  32
HETATM   32  N   UNL     1     -13.443   9.790  69.542  1.00  0.00     1.732 NA 
HETATM   33  O   UNL     1     -12.899  12.032  67.521  1.00  0.00     1.363 OA 
HETATM   34  O   UNL     1     -11.203  13.241  68.370  1.00  0.00    -0.250 OA 
HETATM   35  C   UNL     1     -13.501  11.051  70.329  1.00  0.00     0.892 C  
HETATM   36  C   UNL     1     -12.012  12.328  68.512  1.00  0.00    -0.219 C  
HETATM   37  C   UNL     1     -11.952   9.908  69.532  1.00  0.00     0.266 C  
HETATM   38  C   UNL     1     -12.114  11.422  69.758  1.00  0.00    -0.388 C  
ENDBRANCH  31  32
ENDBRANCH   8  31
ENDBRANCH   2   3
TORSDOF 9
ENDMDL
MODEL      358
REMARK 921   NORMALIZED FREE ENERGY PREDICTED BY IDOCK:   24.27 KCAL/MOL
REMARK 922        TOTAL FREE ENERGY PREDICTED BY IDOCK:   35.61 KCAL/MOL
REMARK 923 INTER-LIGAND FREE ENERGY PREDICTED BY IDOCK:   15.94 KCAL/MOL
REMARK 924 INTRA-LIGAND FREE ENERGY PREDICTED BY IDOCK:   19.67 KCAL/MOL
REMARK 927      BINDING AFFINITY PREDICTED BY RF-SCORE:    0.00 PKD
ROOT
HETATM    1  C   UNL     1     -13.854   8.082  72.895  1.00  0.00     0.515 C  
HETATM    2  C   UNL     1     -13.125   9.345  72.466  1.00  0.00    -0.374 C  
ENDROOT
BRANCH   2   3
HETATM    3  C   UNL     1     -12.197   9.124  71.293  1.00  0.00    -0.395 A  
HETATM    4  C   UNL     1     -12.220   7.826  70.762  1.00  0.00    -0.076 A  
HETATM    5  C   UNL     1     -11.303   7.407  69.795  1.00  0.00    -0.039 A  
HETATM    6  C   UNL     1     -10.367   8.311  69.308  1.00  0.00    -0.223 A  
HETATM    7  C   UNL     1     -10.377   9.635  69.777  1.00  0.00    -0.266 A  
HETATM    8  C   UNL     1     -11.298  10.072  70.758  1.00  0.00    -0.439 A  
BRANCH   5   9
HETATM    9  C   UNL     1     -11.317   5.956  69.457  1.00  0.00    -0.068 C  
HETATM   10  C   UNL     1     -10.794   4.942  70.438  1.00  0.00     0.382 C  
BRANCH   9  11
HETATM   11  N   UNL     1     -11.798   5.635  68.288  1.00  0.00     1.574 NA 
HETATM   12  H   UNL     1     -11.647   4.734  67.836  1.00  0.00     0.000 HD 
BRANCH  11  13
HETATM   13  O   UNL     1     -12.544   6.673  67.731  1.00  0.00     4.018 OA 
BRANCH  13  14
HETATM   14  C   UNL     1     -11.723   7.835  67.714  1.00  0.00     2.005 C  
BRANCH  14  15
HETATM   15  C   UNL     1     -10.340   7.405  67.336  1.00  0.00    -0.340 A  
HETATM   16  F   UNL     1      -6.458   4.666  68.457  1.00  0.00    -0.033 F  
HETATM   17  F   UNL     1      -7.817   5.394  69.972  1.00  0.00    -0.074 F  
HETATM   18  C   UNL     1      -9.672   8.018  66.286  1.00  0.00    -0.197 A  
HETATM   19  F   UNL     1      -8.436   3.779  68.661  1.00  0.00    -0.082 F  
HETATM   20  C   UNL     1      -8.405   7.578  65.916  1.00  0.00    -0.140 A  
HETATM   21  C   UNL     1      -9.670   6.430  68.077  1.00  0.00    -0.122 A  
HETATM   22  C   UNL     1      -7.771   6.488  66.549  1.00  0.00    -0.099 A  
HETATM   23  C   UNL     1      -7.767   4.967  68.675  1.00  0.00    -0.078 C  
HETATM   24  C   UNL     1      -8.379   5.978  67.723  1.00  0.00    -0.112 A  
BRANCH  22  25
HETATM   25  C   UNL     1      -6.503   5.875  65.937  1.00  0.00    -0.043 C  
HETATM   26  C   UNL     1      -6.188   4.480  66.529  1.00  0.00    -0.032 C  
HETATM   27  C   UNL     1      -7.218   3.436  66.107  1.00  0.00    -0.067 C  
HETATM   28  C   UNL     1      -7.235   3.275  64.594  1.00  0.00    -0.062 C  
HETATM   29  C   UNL     1      -7.400   4.600  63.859  1.00  0.00    -0.054 C  
HETATM   30  C   UNL     1      -6.483   5.713  64.393  1.00  0.00    -0.037 C  
ENDBRANCH  22  25
ENDBRANCH  14  15
ENDBRANCH  13  14
ENDBRANCH  11  13
ENDBRANCH   9  11
ENDBRANCH   5   9
BRANCH   8  31
HETATM   31  C   UNL     1     -11.205  11.494  71.298  1.00  0.00     2.418 C  
BRANCH  31  32
HETATM   32  N   UNL     1     -10.087  12.317  70.777  1.00  0.00     5.017 NA 
HETATM   33  O   UNL     1      -7.567  13.905  70.047  1.00  0.00     0.576 OA 
HETATM   34  O   UNL     1      -8.201  15.402  68.492  1.00  0.00    -0.134 OA 
HETATM   35  C   UNL     1      -9.980  12.223  69.296  1.00  0.00     0.514 C  
HETATM   36  C   UNL     1      -8.491  14.443  69.201  1.00  0.00     0.080 C  
HETATM   37  C   UNL     1     -10.583  13.719  70.616  1.00  0.00     2.080 C  
HETATM   38  C   UNL     1      -9.877  13.764  69.248  1.00  0.00     0.349 C  
ENDBRANCH  31  32
ENDBRANCH   8  31
ENDBRANCH   2   3
TORSDOF 9
ENDMDL
MODEL      359
REMARK 921   NORMALIZED FREE ENERGY PREDICTED BY IDOCK:   26.02 KCAL/MOL
REMARK 922        TOTAL FREE ENERGY PREDICTED BY IDOCK:   38.28 KCAL/MOL
REMARK 923 INTER-LIGAND FREE ENERGY PREDICTED BY IDOCK:   26.57 KCAL/MOL
REMARK 924 INTRA-LIGAND FREE ENERGY PREDICTED BY IDOCK:   11.71 KCAL/MOL
REMARK 927      BINDING AFFINITY PREDICTED BY RF-SCORE:    0.00 PKD
ROOT
HETATM    1  C   UNL     1     -13.702  14.506  69.580  1.00  0.00     2.994 C  
HETATM    2  C   UNL     1     -13.447  13.713  70.851  1.00  0.00     0.073 C  
ENDROOT
BRANCH   2   3
HETATM    3  C   UNL     1     -12.258  12.785  70.742  1.00  0.00    -0.338 A  
HETATM    4  C   UNL     1     -11.010  13.426  70.738  1.00  0.00     1.943 A  
HETATM    5  C   UNL     1      -9.826  12.736  70.471  1.00  0.00     5.272 A  
HETATM    6  C   UNL     1      -9.872  11.366  70.247  1.00  0.00     2.263 A  
HETATM    7  C   UNL     1     -11.105  10.696  70.318  1.00  0.00    -0.310 A  
HETATM    8  C   UNL     1     -12.313  11.383  70.585  1.00  0.00    -0.466 A  
BRANCH   5   9
HETATM    9  C   UNL     1      -8.600  13.567  70.311  1.00  0.00     3.666 C  
HETATM   10  C   UNL     1      -8.639  14.831  69.495  1.00  0.00     0.101 C  
BRANCH   9  11
HETATM   11  N   UNL     1      -7.523  13.136  70.907  1.00  0.00     2.634 NA 
HETATM   12  H   UNL     1      -7.357  12.160  71.153  1.00  0.00     0.000 HD 
BRANCH  11  13
HETATM   13  O   UNL     1      -6.625  14.171  71.169  1.00  0.00     0.139 OA 
BRANCH  13  14
HETATM   14  C   UNL     1      -5.997  14.519  69.940  1.00  0.00    -0.132 C  
BRANCH  14  15
HETATM   15  C   UNL     1      -6.610  13.676  68.865  1.00  0.00    -0.105 A  
HETATM   16  F   UNL     1      -8.172   9.248  67.531  1.00  0.00    -0.110 F  
HETATM   17  F   UNL     1      -6.620   9.511  69.012  1.00  0.00    -0.048 F  
HETATM   18  C   UNL     1      -6.802  14.188  67.590  1.00  0.00    -0.196 A  
HETATM   19  F   UNL     1      -8.681   9.960  69.524  1.00  0.00    -0.133 F  
HETATM   20  C   UNL     1      -7.414  13.408  66.613  1.00  0.00     1.057 A  
HETATM   21  C   UNL     1      -6.932  12.339  69.106  1.00  0.00    -0.041 A  
HETATM   22  C   UNL     1      -7.893  12.108  66.877  1.00  0.00    -0.069 A  
HETATM   23  C   UNL     1      -7.762  10.082  68.524  1.00  0.00    -0.089 C  
HETATM   24  C   UNL     1      -7.544  11.529  68.123  1.00  0.00    -0.113 A  
BRANCH  22  25
HETATM   25  C   UNL     1      -8.791  11.396  65.854  1.00  0.00    -0.149 C  
HETATM   26  C   UNL     1      -9.975  10.664  66.530  1.00  0.00    -0.265 C  
HETATM   27  C   UNL     1     -10.981  11.641  67.131  1.00  0.00    -0.330 C  
HETATM   28  C   UNL     1     -11.577  12.534  66.053  1.00  0.00    -0.456 C  
HETATM   29  C   UNL     1     -10.518  13.225  65.203  1.00  0.00    -0.346 C  
HETATM   30  C   UNL     1      -9.401  12.279  64.731  1.00  0.00     0.338 C  
ENDBRANCH  22  25
ENDBRANCH  14  15
ENDBRANCH  13  14
ENDBRANCH  11  13
ENDBRANCH   9  11
ENDBRANCH   5   9
BRANCH   8  31
HETATM   31  C   UNL     1     -13.633  10.622  70.562  1.00  0.00     0.661 C  
BRANCH  31  32
HETATM   32  N   UNL     1     -13.758   9.504  71.527  1.00  0.00    -0.320 NA 
HETATM   33  O   UNL     1     -14.390   7.356  73.622  1.00  0.00     2.217 OA 
HETATM   34  O   UNL     1     -12.424   6.397  74.147  1.00  0.00     4.160 OA 
HETATM   35  C   UNL     1     -13.162   8.250  70.995  1.00  0.00     0.121 C  
HETATM   36  C   UNL     1     -13.049   7.188  73.446  1.00  0.00     3.171 C  
HETATM   37  C   UNL     1     -12.615   9.596  72.489  1.00  0.00     0.028 C  
HETATM   38  C   UNL     1     -12.429   8.074  72.344  1.00  0.00    -0.256 C  
ENDBRANCH  31  32
ENDBRANCH   8  31
ENDBRANCH   2   3
TORSDOF 9
ENDMDL
MODEL      360
REMARK 921   NORMALIZED FREE ENERGY PREDICTED BY IDOCK:   26.02 KCAL/MOL
REMARK 922        TOTAL FREE ENERGY PREDICTED BY IDOCK:   38.28 KCAL/MOL
REMARK 923 INTER-LIGAND FREE ENERGY PREDICTED BY IDOCK:   14.76 KCAL/MOL
REMARK 924 INTRA-LIGAND FREE ENERGY PREDICTED BY IDOCK:   23.52 KCAL/MOL
REMARK 927      BINDING AFFINITY PREDICTED BY RF-SCORE:    0.00 PKD
ROOT
HETATM    1  C   UNL     1      -9.570   7.002  67.145  1.00  0.00    -0.187 C  
HETATM    2  C   UNL     1      -9.223   8.279  66.397  1.00  0.00    -0.247 C  
ENDROOT
BRANCH   2   3
HETATM    3  C   UNL     1      -7.802   8.737  66.636  1.00  0.00    -0.100 A  
HETATM    4  C   UNL     1      -7.502  10.012  66.132  1.00  0.00    -0.109 A  
HETATM    5  C   UNL     1      -6.198  10.512  66.114  1.00  0.00    -0.111 A  
HETATM    6  C   UNL     1      -5.169   9.748  66.651  1.00  0.00    -0.040 A  
HETATM    7  C   UNL     1      -5.463   8.500  67.225  1.00  0.00    -0.038 A  
HETATM    8  C   UNL     1      -6.779   7.980  67.248  1.00  0.00    -0.065 A  
BRANCH   5   9
HETATM    9  C   UNL     1      -5.992  11.792  65.381  1.00  0.00     1.997 C  
HETATM   10  C   UNL     1      -6.513  11.958  63.979  1.00  0.00     4.477 C  
BRANCH   9  11
HETATM   11  N   UNL     1      -5.350  12.731  66.019  1.00  0.00     1.549 NA 
HETATM   12  H   UNL     1      -4.449  13.108  65.725  1.00  0.00     0.000 HD 
BRANCH  11  13
HETATM   13  O   UNL     1      -6.043  13.158  67.151  1.00  0.00    -0.301 OA 
BRANCH  13  14
HETATM   14  C   UNL     1      -6.259  12.021  67.979  1.00  0.00    -0.058 C  
BRANCH  14  15
HETATM   15  C   UNL     1      -7.734  11.908  68.214  1.00  0.00    -0.127 A  
HETATM   16  F   UNL     1     -12.021  10.245  66.576  1.00  0.00     1.055 F  
HETATM   17  F   UNL     1     -10.397  10.727  65.234  1.00  0.00    -0.311 F  
HETATM   18  C   UNL     1      -8.337  12.592  69.259  1.00  0.00     0.804 A  
HETATM   19  F   UNL     1     -10.291   8.930  66.446  1.00  0.00    -0.348 F  
HETATM   20  C   UNL     1      -9.700  12.441  69.494  1.00  0.00     1.243 A  
HETATM   21  C   UNL     1      -8.538  11.169  67.344  1.00  0.00    -0.137 A  
HETATM   22  C   UNL     1     -10.506  11.576  68.725  1.00  0.00    -0.227 A  
HETATM   23  C   UNL     1     -10.664  10.241  66.483  1.00  0.00    -0.078 C  
HETATM   24  C   UNL     1      -9.926  11.014  67.561  1.00  0.00    -0.199 A  
BRANCH  22  25
HETATM   25  C   UNL     1     -11.933  11.242  69.186  1.00  0.00    -0.405 C  
HETATM   26  C   UNL     1     -12.101   9.739  69.515  1.00  0.00     0.421 C  
HETATM   27  C   UNL     1     -11.319   9.338  70.763  1.00  0.00    -0.349 C  
HETATM   28  C   UNL     1     -11.810  10.110  71.978  1.00  0.00     0.402 C  
HETATM   29  C   UNL     1     -11.834  11.617  71.754  1.00  0.00     1.650 C  
HETATM   30  C   UNL     1     -12.469  12.025  70.415  1.00  0.00    -0.235 C  
ENDBRANCH  22  25
ENDBRANCH  14  15
ENDBRANCH  13  14
ENDBRANCH  11  13
ENDBRANCH   9  11
ENDBRANCH   5   9
BRANCH   8  31
HETATM   31  C   UNL     1      -7.028   6.583  67.801  1.00  0.00    -0.082 C  
BRANCH  31  32
HETATM   32  N   UNL     1      -8.215   5.872  67.266  1.00  0.00    -0.106 NA 
HETATM   33  O   UNL     1     -10.830   4.785  66.091  1.00  0.00    -0.258 OA 
HETATM   34  O   UNL     1     -10.975   2.643  66.765  1.00  0.00     4.530 OA 
HETATM   35  C   UNL     1      -7.830   4.637  66.533  1.00  0.00    -0.099 C  
HETATM   36  C   UNL     1     -10.321   3.682  66.710  1.00  0.00     1.103 C  
HETATM   37  C   UNL     1      -8.765   5.009  68.357  1.00  0.00    -0.101 C  
HETATM   38  C   UNL     1      -8.919   3.878  67.324  1.00  0.00    -0.151 C  
ENDBRANCH  31  32
ENDBRANCH   8  31
ENDBRANCH   2   3
TORSDOF 9
ENDMDL
MODEL      361
REMARK 921   NORMALIZED FREE ENERGY PREDICTED BY IDOCK:   29.67 KCAL/MOL
REMARK 922        TOTAL FREE ENERGY PREDICTED BY IDOCK:   43.86 KCAL/MOL
REMARK 923 INTER-LIGAND FREE ENERGY PREDICTED BY IDOCK:   39.81 KCAL/MOL
REMARK 924 INTRA-LIGAND FREE ENERGY PREDICTED BY IDOCK:    4.05 KCAL/MOL
REMARK 927      BINDING AFFINITY PREDICTED BY RF-SCORE:    0.00 PKD
ROOT
HETATM    1  C   UNL     1      -8.478  18.321  66.179  1.00  0.00    -0.143 C  
HETATM    2  C   UNL     1      -8.632  16.812  66.069  1.00  0.00    -0.213 C  
ENDROOT
BRANCH   2   3
HETATM    3  C   UNL     1     -10.062  16.350  66.239  1.00  0.00    -0.346 A  
HETATM    4  C   UNL     1     -10.763  16.977  67.280  1.00  0.00    -0.206 A  
HETATM    5  C   UNL     1     -12.030  16.546  67.682  1.00  0.00     0.998 A  
HETATM    6  C   UNL     1     -12.638  15.496  67.006  1.00  0.00     1.760 A  
HETATM    7  C   UNL     1     -11.979  14.904  65.916  1.00  0.00    -0.054 A  
HETATM    8  C   UNL     1     -10.696  15.328  65.499  1.00  0.00    -0.385 A  
BRANCH   5   9
HETATM    9  C   UNL     1     -12.579  17.173  68.917  1.00  0.00     4.011 C  
HETATM   10  C   UNL     1     -12.742  18.667  69.004  1.00  0.00    11.355 C  
BRANCH   9  11
HETATM   11  N   UNL     1     -12.899  16.364  69.887  1.00  0.00     0.020 NA 
HETATM   12  H   UNL     1     -13.556  15.589  69.793  1.00  0.00     0.000 HD 
BRANCH  11  13
HETATM   13  O   UNL     1     -12.235  16.683  71.071  1.00  0.00     0.388 OA 
BRANCH  13  14
HETATM   14  C   UNL     1     -11.793  15.466  71.660  1.00  0.00    -0.401 C  
BRANCH  14  15
HETATM   15  C   UNL     1     -10.309  15.388  71.478  1.00  0.00     1.007 A  
HETATM   16  F   UNL     1      -6.576  15.254  68.336  1.00  0.00    -0.096 F  
HETATM   17  F   UNL     1      -8.542  14.534  67.802  1.00  0.00    -0.149 F  
HETATM   18  C   UNL     1      -9.475  15.157  72.563  1.00  0.00     6.261 A  
HETATM   19  F   UNL     1      -8.186  16.670  67.959  1.00  0.00    -0.171 F  
HETATM   20  C   UNL     1      -8.095  15.132  72.386  1.00  0.00     7.035 A  
HETATM   21  C   UNL     1      -9.743  15.475  70.205  1.00  0.00     0.100 A  
HETATM   22  C   UNL     1      -7.491  15.376  71.135  1.00  0.00     2.391 A  
HETATM   23  C   UNL     1      -7.900  15.477  68.555  1.00  0.00    -0.135 C  
HETATM   24  C   UNL     1      -8.344  15.442  70.005  1.00  0.00     0.365 A  
BRANCH  22  25
HETATM   25  C   UNL     1      -5.974  15.602  71.043  1.00  0.00     0.374 C  
HETATM   26  C   UNL     1      -5.620  16.805  70.137  1.00  0.00    -0.218 C  
HETATM   27  C   UNL     1      -6.048  18.132  70.756  1.00  0.00     0.578 C  
HETATM   28  C   UNL     1      -5.342  18.361  72.083  1.00  0.00     0.682 C  
HETATM   29  C   UNL     1      -5.487  17.186  73.043  1.00  0.00     3.669 C  
HETATM   30  C   UNL     1      -5.222  15.823  72.384  1.00  0.00     0.540 C  
ENDBRANCH  22  25
ENDBRANCH  14  15
ENDBRANCH  13  14
ENDBRANCH  11  13
ENDBRANCH   9  11
ENDBRANCH   5   9
BRANCH   8  31
HETATM   31  C   UNL     1      -9.989  14.591  64.368  1.00  0.00     1.053 C  
BRANCH  31  32
HETATM   32  N   UNL     1      -9.528  13.216  64.675  1.00  0.00     0.417 NA 
HETATM   33  O   UNL     1      -8.455  10.353  64.907  1.00  0.00    -0.170 OA 
HETATM   34  O   UNL     1      -9.389   9.483  66.759  1.00  0.00    -0.144 OA 
HETATM   35  C   UNL     1      -8.961  13.120  66.046  1.00  0.00     0.343 C  
HETATM   36  C   UNL     1      -9.216  10.458  66.033  1.00  0.00    -0.167 C  
HETATM   37  C   UNL     1     -10.709  12.429  65.147  1.00  0.00    -0.292 C  
HETATM   38  C   UNL     1      -9.824  11.857  66.269  1.00  0.00    -0.246 C  
ENDBRANCH  31  32
ENDBRANCH   8  31
ENDBRANCH   2   3
TORSDOF 9
ENDMDL
MODEL      362
REMARK 921   NORMALIZED FREE ENERGY PREDICTED BY IDOCK:   33.79 KCAL/MOL
REMARK 922        TOTAL FREE ENERGY PREDICTED BY IDOCK:   50.14 KCAL/MOL
REMARK 923 INTER-LIGAND FREE ENERGY PREDICTED BY IDOCK:   36.67 KCAL/MOL
REMARK 924 INTRA-LIGAND FREE ENERGY PREDICTED BY IDOCK:   13.46 KCAL/MOL
REMARK 927      BINDING AFFINITY PREDICTED BY RF-SCORE:    0.00 PKD
ROOT
HETATM    1  C   UNL     1      -9.398  16.174  64.013  1.00  0.00     7.663 C  
HETATM    2  C   UNL     1      -8.335  15.092  64.105  1.00  0.00    12.081 C  
ENDROOT
BRANCH   2   3
HETATM    3  C   UNL     1      -8.705  13.978  65.059  1.00  0.00     3.396 A  
HETATM    4  C   UNL     1      -9.768  13.168  64.634  1.00  0.00     0.142 A  
HETATM    5  C   UNL     1     -10.346  12.208  65.468  1.00  0.00    -0.296 A  
HETATM    6  C   UNL     1      -9.829  12.015  66.743  1.00  0.00    -0.218 A  
HETATM    7  C   UNL     1      -8.718  12.768  67.159  1.00  0.00    -0.202 A  
HETATM    8  C   UNL     1      -8.124  13.744  66.325  1.00  0.00     1.309 A  
BRANCH   5   9
HETATM    9  C   UNL     1     -11.585  11.553  64.962  1.00  0.00     0.038 C  
HETATM   10  C   UNL     1     -11.831  11.433  63.482  1.00  0.00    -0.008 C  
BRANCH   9  11
HETATM   11  N   UNL     1     -12.415  11.104  65.861  1.00  0.00     2.231 NA 
HETATM   12  H   UNL     1     -13.396  11.377  65.920  1.00  0.00     0.000 HD 
BRANCH  11  13
HETATM   13  O   UNL     1     -11.801  10.205  66.732  1.00  0.00     0.931 OA 
BRANCH  13  14
HETATM   14  C   UNL     1     -12.048  10.653  68.060  1.00  0.00     0.861 C  
BRANCH  14  15
HETATM   15  C   UNL     1     -11.713   9.526  68.987  1.00  0.00     0.549 A  
HETATM   16  F   UNL     1      -9.364   5.291  69.595  1.00  0.00    -0.131 F  
HETATM   17  F   UNL     1     -10.058   5.942  67.655  1.00  0.00    -0.125 F  
HETATM   18  C   UNL     1     -12.322   9.430  70.230  1.00  0.00     0.250 A  
HETATM   19  F   UNL     1      -8.330   6.900  68.554  1.00  0.00    -0.116 F  
HETATM   20  C   UNL     1     -11.968   8.403  71.100  1.00  0.00    -0.301 A  
HETATM   21  C   UNL     1     -10.837   8.515  68.589  1.00  0.00     0.014 A  
HETATM   22  C   UNL     1     -10.968   7.459  70.784  1.00  0.00    -0.272 A  
HETATM   23  C   UNL     1      -9.568   6.406  68.844  1.00  0.00    -0.126 C  
HETATM   24  C   UNL     1     -10.473   7.459  69.456  1.00  0.00    -0.236 A  
BRANCH  22  25
HETATM   25  C   UNL     1     -10.428   6.517  71.871  1.00  0.00    -0.233 C  
HETATM   26  C   UNL     1     -11.216   5.187  71.931  1.00  0.00     0.041 C  
HETATM   27  C   UNL     1     -10.978   4.326  70.693  1.00  0.00     1.783 C  
HETATM   28  C   UNL     1      -9.507   3.959  70.566  1.00  0.00    -0.251 C  
HETATM   29  C   UNL     1      -8.585   5.170  70.630  1.00  0.00    -0.126 C  
HETATM   30  C   UNL     1      -8.925   6.137  71.777  1.00  0.00    -0.141 C  
ENDBRANCH  22  25
ENDBRANCH  14  15
ENDBRANCH  13  14
ENDBRANCH  11  13
ENDBRANCH   9  11
ENDBRANCH   5   9
BRANCH   8  31
HETATM   31  C   UNL     1      -6.979  14.595  66.859  1.00  0.00     0.874 C  
BRANCH  31  32
HETATM   32  N   UNL     1      -6.848  14.658  68.335  1.00  0.00    -0.095 NA 
HETATM   33  O   UNL     1      -6.196  14.619  71.331  1.00  0.00     0.039 OA 
HETATM   34  O   UNL     1      -8.165  14.809  72.402  1.00  0.00     4.472 OA 
HETATM   35  C   UNL     1      -7.492  15.878  68.892  1.00  0.00    -0.178 C  
HETATM   36  C   UNL     1      -7.546  14.807  71.341  1.00  0.00     2.843 C  
HETATM   37  C   UNL     1      -7.954  13.847  68.930  1.00  0.00     0.006 C  
HETATM   38  C   UNL     1      -8.181  14.982  69.945  1.00  0.00     0.208 C  
ENDBRANCH  31  32
ENDBRANCH   8  31
ENDBRANCH   2   3
TORSDOF 9
ENDMDL
MODEL      363
REMARK 921   NORMALIZED FREE ENERGY PREDICTED BY IDOCK:   35.34 KCAL/MOL
REMARK 922        TOTAL FREE ENERGY PREDICTED BY IDOCK:   52.51 KCAL/MOL
REMARK 923 INTER-LIGAND FREE ENERGY PREDICTED BY IDOCK:   17.73 KCAL/MOL
REMARK 924 INTRA-LIGAND FREE ENERGY PREDICTED BY IDOCK:   34.78 KCAL/MOL
REMARK 927      BINDING AFFINITY PREDICTED BY RF-SCORE:    0.00 PKD
ROOT
HETATM    1  C   UNL     1     -10.172   8.518  64.354  1.00  0.00     4.481 C  
HETATM    2  C   UNL     1      -9.165   8.731  65.473  1.00  0.00    -0.202 C  
ENDROOT
BRANCH   2   3
HETATM    3  C   UNL     1      -9.450   9.964  66.300  1.00  0.00    -0.245 A  
HETATM    4  C   UNL     1      -9.214   9.818  67.675  1.00  0.00    -0.143 A  
HETATM    5  C   UNL     1      -9.589  10.798  68.598  1.00  0.00    -0.187 A  
HETATM    6  C   UNL     1     -10.172  11.974  68.142  1.00  0.00    -0.203 A  
HETATM    7  C   UNL     1     -10.351  12.166  66.762  1.00  0.00    -0.237 A  
HETATM    8  C   UNL     1      -9.978  11.182  65.817  1.00  0.00    -0.292 A  
BRANCH   5   9
HETATM    9  C   UNL     1      -9.454  10.436  70.036  1.00  0.00     0.230 C  
HETATM   10  C   UNL     1      -8.468   9.383  70.467  1.00  0.00    -0.251 C  
BRANCH   9  11
HETATM   11  N   UNL     1     -10.224  11.074  70.872  1.00  0.00     1.651 NA 
HETATM   12  H   UNL     1     -10.314  10.840  71.861  1.00  0.00     0.000 HD 
BRANCH  11  13
HETATM   13  O   UNL     1     -10.912  12.117  70.252  1.00  0.00     0.515 OA 
BRANCH  13  14
HETATM   14  C   UNL     1     -10.864  11.891  68.848  1.00  0.00    -0.221 C  
BRANCH  14  15
HETATM   15  C   UNL     1     -10.560  13.202  68.190  1.00  0.00    -0.257 A  
HETATM   16  F   UNL     1     -12.330  17.150  65.931  1.00  0.00     2.669 F  
HETATM   17  F   UNL     1     -13.355  15.248  65.873  1.00  0.00     0.814 F  
HETATM   18  C   UNL     1      -9.249  13.581  67.943  1.00  0.00    -0.211 A  
HETATM   19  F   UNL     1     -13.373  16.423  67.698  1.00  0.00     2.863 F  
HETATM   20  C   UNL     1      -8.980  14.821  67.372  1.00  0.00    -0.200 A  
HETATM   21  C   UNL     1     -11.593  14.031  67.748  1.00  0.00    -0.378 A  
HETATM   22  C   UNL     1      -9.999  15.745  67.062  1.00  0.00    -0.240 A  
HETATM   23  C   UNL     1     -12.567  16.032  66.669  1.00  0.00     2.771 C  
HETATM   24  C   UNL     1     -11.338  15.290  67.157  1.00  0.00    -0.247 A  
BRANCH  22  25
HETATM   25  C   UNL     1      -9.640  17.191  66.687  1.00  0.00    -0.279 C  
HETATM   26  C   UNL     1     -10.637  18.212  67.286  1.00  0.00    -0.384 C  
HETATM   27  C   UNL     1     -10.523  18.297  68.805  1.00  0.00    -0.115 C  
HETATM   28  C   UNL     1      -9.132  18.751  69.218  1.00  0.00     0.082 C  
HETATM   29  C   UNL     1      -8.023  17.915  68.588  1.00  0.00    -0.285 C  
HETATM   30  C   UNL     1      -8.218  17.679  67.081  1.00  0.00    -0.229 C  
ENDBRANCH  22  25
ENDBRANCH  14  15
ENDBRANCH  13  14
ENDBRANCH  11  13
ENDBRANCH   9  11
ENDBRANCH   5   9
BRANCH   8  31
HETATM   31  C   UNL     1     -10.277  11.405  64.340  1.00  0.00    -0.308 C  
BRANCH  31  32
HETATM   32  N   UNL     1     -10.803  12.742  63.976  1.00  0.00    -0.402 NA 
HETATM   33  O   UNL     1     -11.553  15.663  63.418  1.00  0.00     0.292 OA 
HETATM   34  O   UNL     1     -13.747  15.661  62.921  1.00  0.00     3.062 OA 
HETATM   35  C   UNL     1     -11.455  12.731  62.640  1.00  0.00     1.753 C  
HETATM   36  C   UNL     1     -12.730  15.020  63.172  1.00  0.00     2.349 C  
HETATM   37  C   UNL     1     -12.157  12.888  64.595  1.00  0.00    -0.418 C  
HETATM   38  C   UNL     1     -12.653  13.481  63.264  1.00  0.00     0.133 C  
ENDBRANCH  31  32
ENDBRANCH   8  31
ENDBRANCH   2   3
TORSDOF 9
ENDMDL
MODEL      364
REMARK 921   NORMALIZED FREE ENERGY PREDICTED BY IDOCK:   41.93 KCAL/MOL
REMARK 922        TOTAL FREE ENERGY PREDICTED BY IDOCK:   62.56 KCAL/MOL
REMARK 923 INTER-LIGAND FREE ENERGY PREDICTED BY IDOCK:   27.43 KCAL/MOL
REMARK 924 INTRA-LIGAND FREE ENERGY PREDICTED BY IDOCK:   35.14 KCAL/MOL
REMARK 927      BINDING AFFINITY PREDICTED BY RF-SCORE:    0.00 PKD
ROOT
HETATM    1  C   UNL     1     -10.259   8.720  64.494  1.00  0.00     3.453 C  
HETATM    2  C   UNL     1      -9.142   8.800  65.522  1.00  0.00    -0.221 C  
ENDROOT
BRANCH   2   3
HETATM    3  C   UNL     1      -9.415   9.806  66.617  1.00  0.00    -0.220 A  
HETATM    4  C   UNL     1      -9.094   9.369  67.911  1.00  0.00    -0.136 A  
HETATM    5  C   UNL     1      -9.443  10.102  69.047  1.00  0.00    -0.195 A  
HETATM    6  C   UNL     1     -10.089  11.323  68.897  1.00  0.00    -0.185 A  
HETATM    7  C   UNL     1     -10.355  11.809  67.606  1.00  0.00    -0.219 A  
HETATM    8  C   UNL     1     -10.008  11.076  66.447  1.00  0.00    -0.264 A  
BRANCH   5   9
HETATM    9  C   UNL     1      -9.212   9.436  70.360  1.00  0.00    -0.257 C  
HETATM   10  C   UNL     1      -8.033   8.519  70.550  1.00  0.00    -0.095 C  
BRANCH   9  11
HETATM   11  N   UNL     1     -10.073   9.694  71.303  1.00  0.00    -0.233 NA 
HETATM   12  H   UNL     1     -10.102   9.209  72.200  1.00  0.00     0.000 HD 
BRANCH  11  13
HETATM   13  O   UNL     1     -10.952  10.714  70.940  1.00  0.00     0.039 OA 
BRANCH  13  14
HETATM   14  C   UNL     1     -10.772  10.965  69.551  1.00  0.00    -0.206 C  
BRANCH  14  15
HETATM   15  C   UNL     1     -10.627  12.445  69.374  1.00  0.00     0.200 A  
HETATM   16  F   UNL     1     -12.870  16.705  68.569  1.00  0.00     1.026 F  
HETATM   17  F   UNL     1     -13.693  14.833  67.870  1.00  0.00     3.378 F  
HETATM   18  C   UNL     1      -9.371  13.025  69.275  1.00  0.00     0.874 A  
HETATM   19  F   UNL     1     -13.773  15.319  69.984  1.00  0.00     0.131 F  
HETATM   20  C   UNL     1      -9.251  14.406  69.156  1.00  0.00     0.076 A  
HETATM   21  C   UNL     1     -11.754  13.257  69.233  1.00  0.00    -0.380 A  
HETATM   22  C   UNL     1     -10.370  15.264  69.171  1.00  0.00    -0.248 A  
HETATM   23  C   UNL     1     -12.966  15.386  68.887  1.00  0.00     1.256 C  
HETATM   24  C   UNL     1     -11.651  14.660  69.101  1.00  0.00    -0.331 A  
BRANCH  22  25
HETATM   25  C   UNL     1     -10.175  16.782  69.307  1.00  0.00    -0.278 C  
HETATM   26  C   UNL     1     -11.216  17.419  70.259  1.00  0.00     1.398 C  
HETATM   27  C   UNL     1     -10.999  16.994  71.708  1.00  0.00     1.461 C  
HETATM   28  C   UNL     1      -9.628  17.434  72.200  1.00  0.00     9.964 C  
HETATM   29  C   UNL     1      -8.497  16.993  71.279  1.00  0.00     8.067 C  
HETATM   30  C   UNL     1      -8.780  17.263  69.792  1.00  0.00     1.232 C  
ENDBRANCH  22  25
ENDBRANCH  14  15
ENDBRANCH  13  14
ENDBRANCH  11  13
ENDBRANCH   9  11
ENDBRANCH   5   9
BRANCH   8  31
HETATM   31  C   UNL     1     -10.401  11.607  65.074  1.00  0.00    -0.281 C  
BRANCH  31  32
HETATM   32  N   UNL     1     -10.661  13.065  64.990  1.00  0.00    -0.303 NA 
HETATM   33  O   UNL     1     -11.400  15.993  64.457  1.00  0.00    -0.457 OA 
HETATM   34  O   UNL     1     -10.020  17.228  65.734  1.00  0.00    -0.532 OA 
HETATM   35  C   UNL     1     -10.914  13.656  66.331  1.00  0.00    -0.297 C  
HETATM   36  C   UNL     1     -10.431  16.118  65.407  1.00  0.00    -0.373 C  
HETATM   37  C   UNL     1      -9.341  13.768  64.969  1.00  0.00     0.916 C  
HETATM   38  C   UNL     1      -9.914  14.780  65.978  1.00  0.00    -0.336 C  
ENDBRANCH  31  32
ENDBRANCH   8  31
ENDBRANCH   2   3
TORSDOF 9
ENDMDL
MODEL      365
REMARK 921   NORMALIZED FREE ENERGY PREDICTED BY IDOCK:   49.84 KCAL/MOL
REMARK 922        TOTAL FREE ENERGY PREDICTED BY IDOCK:   74.63 KCAL/MOL
REMARK 923 INTER-LIGAND FREE ENERGY PREDICTED BY IDOCK:    1.16 KCAL/MOL
REMARK 924 INTRA-LIGAND FREE ENERGY PREDICTED BY IDOCK:   73.47 KCAL/MOL
REMARK 927      BINDING AFFINITY PREDICTED BY RF-SCORE:    0.00 PKD
ROOT
HETATM    1  C   UNL     1      -8.910  10.433  68.659  1.00  0.00    -0.142 C  
HETATM    2  C   UNL     1      -8.599   9.114  67.971  1.00  0.00    -0.125 C  
ENDROOT
BRANCH   2   3
HETATM    3  C   UNL     1      -9.057   9.076  66.530  1.00  0.00    -0.202 A  
HETATM    4  C   UNL     1      -8.876   7.841  65.888  1.00  0.00    -0.176 A  
HETATM    5  C   UNL     1      -9.084   7.684  64.516  1.00  0.00     1.051 A  
HETATM    6  C   UNL     1      -9.525   8.767  63.766  1.00  0.00     1.457 A  
HETATM    7  C   UNL     1      -9.779   9.992  64.406  1.00  0.00    -0.277 A  
HETATM    8  C   UNL     1      -9.572  10.165  65.795  1.00  0.00    -0.288 A  
BRANCH   5   9
HETATM    9  C   UNL     1      -8.674   6.376  63.932  1.00  0.00     0.549 C  
HETATM   10  C   UNL     1      -8.860   6.108  62.463  1.00  0.00     0.312 C  
BRANCH   9  11
HETATM   11  N   UNL     1      -8.160   5.507  64.756  1.00  0.00    -0.120 NA 
HETATM   12  H   UNL     1      -8.082   4.509  64.558  1.00  0.00     0.000 HD 
BRANCH  11  13
HETATM   13  O   UNL     1      -7.729   6.104  65.940  1.00  0.00    -0.088 OA 
BRANCH  13  14
HETATM   14  C   UNL     1      -8.027   7.493  65.856  1.00  0.00    -0.117 C  
BRANCH  14  15
HETATM   15  C   UNL     1      -8.215   8.000  67.253  1.00  0.00    -0.122 A  
HETATM   16  F   UNL     1     -11.213   8.421  71.082  1.00  0.00    -0.256 F  
HETATM   17  F   UNL     1     -11.960   8.256  69.061  1.00  0.00     0.934 F  
HETATM   18  C   UNL     1      -7.254   8.806  67.846  1.00  0.00    -0.084 A  
HETATM   19  F   UNL     1     -11.131   6.508  70.046  1.00  0.00    -0.286 F  
HETATM   20  C   UNL     1      -7.421   9.232  69.160  1.00  0.00    -0.072 A  
HETATM   21  C   UNL     1      -9.391   7.730  67.955  1.00  0.00    -0.148 A  
HETATM   22  C   UNL     1      -8.526   8.842  69.945  1.00  0.00    -0.135 A  
HETATM   23  C   UNL     1     -10.943   7.849  69.878  1.00  0.00    -0.178 C  
HETATM   24  C   UNL     1      -9.582   8.164  69.286  1.00  0.00    -0.164 A  
BRANCH  22  25
HETATM   25  C   UNL     1      -8.531   9.115  71.457  1.00  0.00     0.044 C  
HETATM   26  C   UNL     1      -9.553   8.226  72.205  1.00  0.00    -0.338 C  
HETATM   27  C   UNL     1      -9.141   6.757  72.202  1.00  0.00    -0.140 C  
HETATM   28  C   UNL     1      -7.804   6.570  72.903  1.00  0.00    -0.101 C  
HETATM   29  C   UNL     1      -6.717   7.490  72.362  1.00  0.00    -0.056 C  
HETATM   30  C   UNL     1      -7.176   8.948  72.198  1.00  0.00     0.087 C  
ENDBRANCH  22  25
ENDBRANCH  14  15
ENDBRANCH  13  14
ENDBRANCH  11  13
ENDBRANCH   9  11
ENDBRANCH   5   9
BRANCH   8  31
HETATM   31  C   UNL     1      -9.777  11.539  66.421  1.00  0.00    -0.207 C  
BRANCH  31  32
HETATM   32  N   UNL     1      -8.596  12.130  67.097  1.00  0.00    -0.179 NA 
HETATM   33  O   UNL     1      -6.067  12.960  68.619  1.00  0.00    -0.062 OA 
HETATM   34  O   UNL     1      -6.238  15.177  68.954  1.00  0.00    -0.091 OA 
HETATM   35  C   UNL     1      -8.007  13.240  66.302  1.00  0.00     1.373 C  
HETATM   36  C   UNL     1      -6.692  14.158  68.441  1.00  0.00    -0.105 C  
HETATM   37  C   UNL     1      -9.088  13.144  68.080  1.00  0.00    -0.200 C  
HETATM   38  C   UNL     1      -7.978  14.092  67.590  1.00  0.00    -0.186 C  
ENDBRANCH  31  32
ENDBRANCH   8  31
ENDBRANCH   2   3
TORSDOF 9
ENDMDL
MODEL      366
REMARK 921   NORMALIZED FREE ENERGY PREDICTED BY IDOCK:   56.69 KCAL/MOL
REMARK 922        TOTAL FREE ENERGY PREDICTED BY IDOCK:   85.08 KCAL/MOL
REMARK 923 INTER-LIGAND FREE ENERGY PREDICTED BY IDOCK:   21.65 KCAL/MOL
REMARK 924 INTRA-LIGAND FREE ENERGY PREDICTED BY IDOCK:   63.44 KCAL/MOL
REMARK 927      BINDING AFFINITY PREDICTED BY RF-SCORE:    0.00 PKD
ROOT
HETATM    1  C   UNL     1     -13.420  14.527  69.176  1.00  0.00     2.975 C  
HETATM    2  C   UNL     1     -12.485  13.699  70.044  1.00  0.00    -0.267 C  
ENDROOT
BRANCH   2   3
HETATM    3  C   UNL     1     -11.059  13.697  69.542  1.00  0.00    -0.127 A  
HETATM    4  C   UNL     1     -10.333  14.863  69.828  1.00  0.00    -0.111 A  
HETATM    5  C   UNL     1      -9.065  15.095  69.290  1.00  0.00    -0.201 A  
HETATM    6  C   UNL     1      -8.481  14.127  68.483  1.00  0.00    -0.157 A  
HETATM    7  C   UNL     1      -9.164  12.923  68.245  1.00  0.00    -0.187 A  
HETATM    8  C   UNL     1     -10.450  12.675  68.782  1.00  0.00    -0.167 A  
BRANCH   5   9
HETATM    9  C   UNL     1      -8.489  16.450  69.519  1.00  0.00     0.207 C  
HETATM   10  C   UNL     1      -8.475  17.468  68.410  1.00  0.00    -0.275 C  
BRANCH   9  11
HETATM   11  N   UNL     1      -8.012  16.686  70.709  1.00  0.00     3.724 NA 
HETATM   12  H   UNL     1      -7.189  16.224  71.096  1.00  0.00     0.000 HD 
BRANCH  11  13
HETATM   13  O   UNL     1      -8.762  17.645  71.389  1.00  0.00     8.091 OA 
BRANCH  13  14
HETATM   14  C   UNL     1      -9.205  18.603  70.435  1.00  0.00     2.584 C  
BRANCH  14  15
HETATM   15  C   UNL     1      -9.028  18.002  69.074  1.00  0.00    -0.028 A  
HETATM   16  F   UNL     1      -6.309  15.161  66.182  1.00  0.00     1.981 F  
HETATM   17  F   UNL     1      -5.457  16.237  67.851  1.00  0.00    -0.090 F  
HETATM   18  C   UNL     1      -9.851  18.378  68.023  1.00  0.00    -0.359 A  
HETATM   19  F   UNL     1      -6.691  14.490  68.217  1.00  0.00    -0.087 F  
HETATM   20  C   UNL     1      -9.704  17.778  66.776  1.00  0.00    -0.309 A  
HETATM   21  C   UNL     1      -7.986  17.106  68.823  1.00  0.00    -0.255 A  
HETATM   22  C   UNL     1      -8.763  16.755  66.538  1.00  0.00    -0.310 A  
HETATM   23  C   UNL     1      -6.595  15.603  67.436  1.00  0.00    -0.159 C  
HETATM   24  C   UNL     1      -7.816  16.495  67.560  1.00  0.00    -0.175 A  
BRANCH  22  25
HETATM   25  C   UNL     1      -8.820  15.945  65.235  1.00  0.00     1.561 C  
HETATM   26  C   UNL     1      -8.075  14.593  65.357  1.00  0.00     4.807 C  
HETATM   27  C   UNL     1      -8.793  13.630  66.298  1.00  0.00     0.232 C  
HETATM   28  C   UNL     1     -10.190  13.315  65.787  1.00  0.00    -0.296 C  
HETATM   29  C   UNL     1     -11.007  14.566  65.485  1.00  0.00    -0.337 C  
HETATM   30  C   UNL     1     -10.233  15.621  64.678  1.00  0.00     0.462 C  
ENDBRANCH  22  25
ENDBRANCH  14  15
ENDBRANCH  13  14
ENDBRANCH  11  13
ENDBRANCH   9  11
ENDBRANCH   5   9
BRANCH   8  31
HETATM   31  C   UNL     1     -11.183  11.391  68.418  1.00  0.00    -0.263 C  
BRANCH  31  32
HETATM   32  N   UNL     1     -10.521  10.126  68.820  1.00  0.00    -0.193 NA 
HETATM   33  O   UNL     1      -9.529   7.391  69.790  1.00  0.00    -0.160 OA 
HETATM   34  O   UNL     1      -7.293   7.563  69.964  1.00  0.00    -0.077 OA 
HETATM   35  C   UNL     1      -9.477   9.719  67.842  1.00  0.00    -0.130 C  
HETATM   36  C   UNL     1      -8.359   8.072  69.628  1.00  0.00    -0.126 C  
HETATM   37  C   UNL     1      -9.431  10.464  69.787  1.00  0.00    -0.003 C  
HETATM   38  C   UNL     1      -8.515   9.486  69.029  1.00  0.00    -0.128 C  
ENDBRANCH  31  32
ENDBRANCH   8  31
ENDBRANCH   2   3
TORSDOF 9
ENDMDL
MODEL      367
REMARK 921   NORMALIZED FREE ENERGY PREDICTED BY IDOCK:   65.95 KCAL/MOL
REMARK 922        TOTAL FREE ENERGY PREDICTED BY IDOCK:   99.22 KCAL/MOL
REMARK 923 INTER-LIGAND FREE ENERGY PREDICTED BY IDOCK:   22.36 KCAL/MOL
REMARK 924 INTRA-LIGAND FREE ENERGY PREDICTED BY IDOCK:   76.86 KCAL/MOL
REMARK 927      BINDING AFFINITY PREDICTED BY RF-SCORE:    0.00 PKD
ROOT
HETATM    1  C   UNL     1      -9.583   7.018  67.151  1.00  0.00    -0.187 C  
HETATM    2  C   UNL     1      -9.293   8.303  66.393  1.00  0.00    -0.274 C  
ENDROOT
BRANCH   2   3
HETATM    3  C   UNL     1      -7.870   8.786  66.568  1.00  0.00    -0.103 A  
HETATM    4  C   UNL     1      -7.614  10.063  66.048  1.00  0.00    -0.111 A  
HETATM    5  C   UNL     1      -6.320  10.584  65.971  1.00  0.00    -0.124 A  
HETATM    6  C   UNL     1      -5.256   9.839  66.463  1.00  0.00    -0.044 A  
HETATM    7  C   UNL     1      -5.504   8.588  67.052  1.00  0.00    -0.037 A  
HETATM    8  C   UNL     1      -6.809   8.047  67.135  1.00  0.00    -0.073 A  
BRANCH   5   9
HETATM    9  C   UNL     1      -6.168  11.866  65.227  1.00  0.00     2.864 C  
HETATM   10  C   UNL     1      -6.736  12.013  63.841  1.00  0.00     5.129 C  
BRANCH   9  11
HETATM   11  N   UNL     1      -5.529  12.822  65.840  1.00  0.00     2.142 NA 
HETATM   12  H   UNL     1      -4.725  13.314  65.450  1.00  0.00     0.000 HD 
BRANCH  11  13
HETATM   13  O   UNL     1      -6.076  13.093  67.094  1.00  0.00    -0.301 OA 
BRANCH  13  14
HETATM   14  C   UNL     1      -5.224  12.508  68.072  1.00  0.00    -0.078 C  
BRANCH  14  15
HETATM   15  C   UNL     1      -6.005  11.439  68.771  1.00  0.00    -0.043 A  
HETATM   16  F   UNL     1      -7.319   6.739  68.875  1.00  0.00    -0.082 F  
HETATM   17  F   UNL     1      -6.795   7.736  67.031  1.00  0.00    -0.061 F  
HETATM   18  C   UNL     1      -6.864  11.759  69.812  1.00  0.00     0.086 A  
HETATM   19  F   UNL     1      -5.238   7.215  68.451  1.00  0.00    -0.016 F  
HETATM   20  C   UNL     1      -7.549  10.751  70.483  1.00  0.00     1.325 A  
HETATM   21  C   UNL     1      -5.937  10.112  68.342  1.00  0.00    -0.041 A  
HETATM   22  C   UNL     1      -7.376   9.386  70.171  1.00  0.00    -0.110 A  
HETATM   23  C   UNL     1      -6.508   7.706  68.367  1.00  0.00    -0.052 C  
HETATM   24  C   UNL     1      -6.634   9.077  69.005  1.00  0.00    -0.048 A  
BRANCH  22  25
HETATM   25  C   UNL     1      -7.942   8.306  71.106  1.00  0.00    -0.112 C  
HETATM   26  C   UNL     1      -6.825   7.441  71.738  1.00  0.00    -0.058 C  
HETATM   27  C   UNL     1      -5.982   8.235  72.731  1.00  0.00    -0.066 C  
HETATM   28  C   UNL     1      -6.840   8.748  73.878  1.00  0.00     0.015 C  
HETATM   29  C   UNL     1      -8.070   9.512  73.403  1.00  0.00     2.812 C  
HETATM   30  C   UNL     1      -8.835   8.797  72.277  1.00  0.00    -0.101 C  
ENDBRANCH  22  25
ENDBRANCH  14  15
ENDBRANCH  13  14
ENDBRANCH  11  13
ENDBRANCH   9  11
ENDBRANCH   5   9
BRANCH   8  31
HETATM   31  C   UNL     1      -7.010   6.647  67.702  1.00  0.00    -0.083 C  
BRANCH  31  32
HETATM   32  N   UNL     1      -8.223   5.927  67.244  1.00  0.00    -0.106 NA 
HETATM   33  O   UNL     1     -10.708   4.677  65.954  1.00  0.00    -0.307 OA 
HETATM   34  O   UNL     1     -11.835   3.668  67.619  1.00  0.00     9.339 OA 
HETATM   35  C   UNL     1      -8.198   4.497  67.652  1.00  0.00    -0.099 C  
HETATM   36  C   UNL     1     -10.832   4.273  67.250  1.00  0.00     1.684 C  
HETATM   37  C   UNL     1      -9.303   6.158  68.253  1.00  0.00    -0.116 C  
HETATM   38  C   UNL     1      -9.648   4.660  68.161  1.00  0.00    -0.204 C  
ENDBRANCH  31  32
ENDBRANCH   8  31
ENDBRANCH   2   3
TORSDOF 9
ENDMDL
