MODEL        1
REMARK 921   NORMALIZED FREE ENERGY PREDICTED BY IDOCK:   -8.44 KCAL/MOL
REMARK 922        TOTAL FREE ENERGY PREDICTED BY IDOCK:  -11.48 KCAL/MOL
REMARK 923 INTER-LIGAND FREE ENERGY PREDICTED BY IDOCK:  -10.41 KCAL/MOL
REMARK 924 INTRA-LIGAND FREE ENERGY PREDICTED BY IDOCK:   -1.07 KCAL/MOL
REMARK 927      BINDING AFFINITY PREDICTED BY RF-SCORE:    0.00 PKD
ROOT
HETATM    1  N   UNL     1     -12.355  14.474  63.604  1.00  0.00    -1.104 NA 
HETATM    2  C   UNL     1     -11.606  13.980  64.779  1.00  0.00    -0.381 C  
HETATM    3  H1  UNL     1     -13.175  13.880  63.477  1.00  0.00     0.000 HD 
HETATM    4  H2  UNL     1     -11.777  14.531  62.765  1.00  0.00     0.000 HD 
ENDROOT
BRANCH   2   5
HETATM    5  C   UNL     1     -12.535  13.956  66.018  1.00  0.00    -0.501 C  
BRANCH   5   6
HETATM    6  C   UNL     1     -12.029  13.058  67.125  1.00  0.00    -0.389 A  
HETATM    7  F   UNL     1     -12.248  14.805  68.718  1.00  0.00    -0.311 F  
HETATM    8  C   UNL     1     -11.928  13.533  68.439  1.00  0.00    -0.343 A  
HETATM    9  C   UNL     1     -11.500  12.712  69.477  1.00  0.00    -0.294 A  
HETATM   10  C   UNL     1     -11.660  11.729  66.860  1.00  0.00    -0.310 A  
HETATM   11  C   UNL     1     -11.242  10.905  67.900  1.00  0.00    -0.321 A  
HETATM   12  F   UNL     1     -10.767  10.593  70.196  1.00  0.00    -0.311 F  
HETATM   13  C   UNL     1     -11.166  11.393  69.200  1.00  0.00    -0.272 A  
HETATM   14  F   UNL     1     -10.916   9.631  67.638  1.00  0.00    -0.326 F  
ENDBRANCH   5   6
ENDBRANCH   2   5
BRANCH   2  15
HETATM   15  C   UNL     1     -10.375  14.870  64.970  1.00  0.00    -0.401 C  
BRANCH  15  16
HETATM   16  C   UNL     1     -10.669  16.356  65.132  1.00  0.00    -0.291 C  
HETATM   17  N   UNL     1      -8.335  18.308  67.869  1.00  0.00    -0.246 NA 
HETATM   18  C   UNL     1     -10.396  18.381  66.517  1.00  0.00    -0.400 C  
HETATM   19  N   UNL     1     -10.148  16.957  66.273  1.00  0.00    -0.311 N  
HETATM   20  C   UNL     1      -8.556  16.976  68.096  1.00  0.00    -0.228 A  
HETATM   21  O   UNL     1     -11.300  16.992  64.292  1.00  0.00    -1.191 OA 
HETATM   22  C   UNL     1      -9.624  16.203  67.416  1.00  0.00    -0.229 C  
HETATM   23  C   UNL     1      -9.110  19.101  66.935  1.00  0.00    -0.307 C  
HETATM   24  N   UNL     1      -7.678  16.536  68.963  1.00  0.00    -0.234 NA 
HETATM   25  N   UNL     1      -6.844  17.578  69.279  1.00  0.00    -0.232 NA 
HETATM   26  C   UNL     1      -7.226  18.647  68.599  1.00  0.00    -0.291 A  
HETATM   27  C   UNL     1      -6.570  19.979  68.600  1.00  0.00    -0.306 C  
HETATM   28  F   UNL     1      -7.210  20.875  67.801  1.00  0.00    -0.337 F  
HETATM   29  F   UNL     1      -6.535  20.531  69.839  1.00  0.00    -0.360 F  
HETATM   30  F   UNL     1      -5.291  19.919  68.150  1.00  0.00    -0.180 F  
ENDBRANCH  15  16
ENDBRANCH   2  15
TORSDOF 4
ENDMDL
MODEL        2
REMARK 921   NORMALIZED FREE ENERGY PREDICTED BY IDOCK:   -8.31 KCAL/MOL
REMARK 922        TOTAL FREE ENERGY PREDICTED BY IDOCK:  -11.32 KCAL/MOL
REMARK 923 INTER-LIGAND FREE ENERGY PREDICTED BY IDOCK:  -10.26 KCAL/MOL
REMARK 924 INTRA-LIGAND FREE ENERGY PREDICTED BY IDOCK:   -1.07 KCAL/MOL
REMARK 927      BINDING AFFINITY PREDICTED BY RF-SCORE:    0.00 PKD
ROOT
HETATM    1  N   UNL     1     -12.147  11.036  68.125  1.00  0.00    -0.780 NA 
HETATM    2  C   UNL     1     -11.285  12.219  68.336  1.00  0.00    -0.266 C  
HETATM    3  H1  UNL     1     -12.841  11.010  68.873  1.00  0.00     0.000 HD 
HETATM    4  H2  UNL     1     -11.615  10.169  68.052  1.00  0.00     0.000 HD 
ENDROOT
BRANCH   2   5
HETATM    5  C   UNL     1     -12.157  13.496  68.397  1.00  0.00    -0.293 C  
BRANCH   5   6
HETATM    6  C   UNL     1     -12.095  14.198  69.736  1.00  0.00    -0.409 A  
HETATM    7  F   UNL     1     -10.916  16.027  68.787  1.00  0.00    -0.249 F  
HETATM    8  C   UNL     1     -11.484  15.452  69.857  1.00  0.00    -0.312 A  
HETATM    9  C   UNL     1     -11.448  16.128  71.072  1.00  0.00    -0.424 A  
HETATM   10  C   UNL     1     -12.656  13.609  70.882  1.00  0.00    -0.421 A  
HETATM   11  C   UNL     1     -12.631  14.291  72.094  1.00  0.00    -0.267 A  
HETATM   12  F   UNL     1     -12.016  16.194  73.356  1.00  0.00    -0.514 F  
HETATM   13  C   UNL     1     -12.033  15.543  72.187  1.00  0.00    -0.446 A  
HETATM   14  F   UNL     1     -13.191  13.729  73.175  1.00  0.00    -0.572 F  
ENDBRANCH   5   6
ENDBRANCH   2   5
BRANCH   2  15
HETATM   15  C   UNL     1     -10.243  12.258  67.214  1.00  0.00    -0.222 C  
BRANCH  15  16
HETATM   16  C   UNL     1      -9.079  13.212  67.445  1.00  0.00    -0.208 C  
HETATM   17  N   UNL     1      -9.649  17.022  66.063  1.00  0.00    -0.484 NA 
HETATM   18  C   UNL     1      -8.009  15.354  66.843  1.00  0.00    -0.195 C  
HETATM   19  N   UNL     1      -9.099  14.385  66.697  1.00  0.00    -0.259 N  
HETATM   20  C   UNL     1     -10.314  16.026  65.398  1.00  0.00    -0.359 A  
HETATM   21  O   UNL     1      -8.194  12.978  68.263  1.00  0.00    -0.146 OA 
HETATM   22  C   UNL     1      -9.974  14.589  65.538  1.00  0.00    -0.342 C  
HETATM   23  C   UNL     1      -8.554  16.780  66.980  1.00  0.00    -0.209 C  
HETATM   24  N   UNL     1     -11.267  16.556  64.672  1.00  0.00    -0.742 NA 
HETATM   25  N   UNL     1     -11.258  17.910  64.893  1.00  0.00    -0.411 NA 
HETATM   26  C   UNL     1     -10.294  18.191  65.754  1.00  0.00    -0.172 A  
HETATM   27  C   UNL     1      -9.966  19.527  66.311  1.00  0.00    -0.450 C  
HETATM   28  F   UNL     1      -8.910  19.490  67.169  1.00  0.00    -0.296 F  
HETATM   29  F   UNL     1      -9.638  20.419  65.343  1.00  0.00    -0.289 F  
HETATM   30  F   UNL     1     -11.001  20.057  67.012  1.00  0.00    -0.523 F  
ENDBRANCH  15  16
ENDBRANCH   2  15
TORSDOF 4
ENDMDL
MODEL        3
REMARK 921   NORMALIZED FREE ENERGY PREDICTED BY IDOCK:   -8.25 KCAL/MOL
REMARK 922        TOTAL FREE ENERGY PREDICTED BY IDOCK:  -11.25 KCAL/MOL
REMARK 923 INTER-LIGAND FREE ENERGY PREDICTED BY IDOCK:   -9.90 KCAL/MOL
REMARK 924 INTRA-LIGAND FREE ENERGY PREDICTED BY IDOCK:   -1.34 KCAL/MOL
REMARK 927      BINDING AFFINITY PREDICTED BY RF-SCORE:    0.00 PKD
ROOT
HETATM    1  N   UNL     1     -11.590  10.535  67.842  1.00  0.00    -0.701 NA 
HETATM    2  C   UNL     1     -10.939  11.833  68.123  1.00  0.00    -0.228 C  
HETATM    3  H1  UNL     1     -12.380  10.431  68.479  1.00  0.00     0.000 HD 
HETATM    4  H2  UNL     1     -10.940   9.751  67.888  1.00  0.00     0.000 HD 
ENDROOT
BRANCH   2   5
HETATM    5  C   UNL     1     -11.976  12.975  67.997  1.00  0.00    -0.335 C  
BRANCH   5   6
HETATM    6  C   UNL     1     -11.908  13.971  69.133  1.00  0.00    -0.391 A  
HETATM    7  F   UNL     1     -12.829  12.392  70.648  1.00  0.00    -0.277 F  
HETATM    8  C   UNL     1     -12.328  13.615  70.421  1.00  0.00    -0.345 A  
HETATM    9  C   UNL     1     -12.239  14.505  71.486  1.00  0.00    -0.415 A  
HETATM   10  C   UNL     1     -11.413  15.269  68.922  1.00  0.00    -0.346 A  
HETATM   11  C   UNL     1     -11.314  16.156  69.989  1.00  0.00    -0.328 A  
HETATM   12  F   UNL     1     -11.619  16.631  72.286  1.00  0.00    -0.533 F  
HETATM   13  C   UNL     1     -11.721  15.774  71.263  1.00  0.00    -0.440 A  
HETATM   14  F   UNL     1     -10.818  17.384  69.779  1.00  0.00    -0.209 F  
ENDBRANCH   5   6
ENDBRANCH   2   5
BRANCH   2  15
HETATM   15  C   UNL     1      -9.754  11.990  67.166  1.00  0.00    -0.203 C  
BRANCH  15  16
HETATM   16  C   UNL     1      -8.740  13.057  67.562  1.00  0.00    -0.197 C  
HETATM   17  N   UNL     1      -9.559  16.829  66.203  1.00  0.00    -0.376 NA 
HETATM   18  C   UNL     1      -7.851  15.322  67.146  1.00  0.00    -0.214 C  
HETATM   19  N   UNL     1      -8.799  14.246  66.843  1.00  0.00    -0.230 N  
HETATM   20  C   UNL     1     -10.023  15.792  65.438  1.00  0.00    -0.237 A  
HETATM   21  O   UNL     1      -7.941  12.890  68.479  1.00  0.00    -0.144 OA 
HETATM   22  C   UNL     1      -9.544  14.396  65.588  1.00  0.00    -0.131 C  
HETATM   23  C   UNL     1      -8.564  16.674  67.245  1.00  0.00    -0.191 C  
HETATM   24  N   UNL     1     -10.934  16.241  64.611  1.00  0.00    -0.681 NA 
HETATM   25  N   UNL     1     -11.103  17.579  64.861  1.00  0.00    -0.773 NA 
HETATM   26  C   UNL     1     -10.288  17.932  65.842  1.00  0.00    -0.259 A  
HETATM   27  C   UNL     1     -10.182  19.275  66.465  1.00  0.00    -0.435 C  
HETATM   28  F   UNL     1      -9.240  19.322  67.446  1.00  0.00    -0.306 F  
HETATM   29  F   UNL     1      -9.840  20.231  65.565  1.00  0.00    -0.466 F  
HETATM   30  F   UNL     1     -11.347  19.665  67.042  1.00  0.00    -0.510 F  
ENDBRANCH  15  16
ENDBRANCH   2  15
TORSDOF 4
ENDMDL
MODEL        4
REMARK 921   NORMALIZED FREE ENERGY PREDICTED BY IDOCK:   -8.12 KCAL/MOL
REMARK 922        TOTAL FREE ENERGY PREDICTED BY IDOCK:  -11.09 KCAL/MOL
REMARK 923 INTER-LIGAND FREE ENERGY PREDICTED BY IDOCK:   -9.94 KCAL/MOL
REMARK 924 INTRA-LIGAND FREE ENERGY PREDICTED BY IDOCK:   -1.15 KCAL/MOL
REMARK 927      BINDING AFFINITY PREDICTED BY RF-SCORE:    0.00 PKD
ROOT
HETATM    1  N   UNL     1     -12.312  14.145  63.386  1.00  0.00    -1.144 NA 
HETATM    2  C   UNL     1     -12.073  14.802  64.690  1.00  0.00    -0.427 C  
HETATM    3  H1  UNL     1     -11.968  14.764  62.651  1.00  0.00     0.000 HD 
HETATM    4  H2  UNL     1     -13.287  13.879  63.253  1.00  0.00     0.000 HD 
ENDROOT
BRANCH   2   5
HETATM    5  C   UNL     1     -10.570  15.141  64.836  1.00  0.00    -0.392 C  
BRANCH   5   6
HETATM    6  C   UNL     1     -10.289  16.147  65.930  1.00  0.00    -0.384 A  
HETATM    7  F   UNL     1      -9.053  14.541  67.167  1.00  0.00    -0.186 F  
HETATM    8  C   UNL     1      -9.519  15.793  67.045  1.00  0.00    -0.223 A  
HETATM    9  C   UNL     1      -9.220  16.713  68.043  1.00  0.00    -0.223 A  
HETATM   10  C   UNL     1     -10.785  17.458  65.845  1.00  0.00    -0.123 A  
HETATM   11  C   UNL     1     -10.477  18.383  66.838  1.00  0.00    -0.389 A  
HETATM   12  F   UNL     1      -9.401  18.908  68.877  1.00  0.00    -0.358 F  
HETATM   13  C   UNL     1      -9.697  18.013  67.928  1.00  0.00    -0.297 A  
HETATM   14  F   UNL     1     -10.937  19.638  66.733  1.00  0.00    -0.559 F  
ENDBRANCH   5   6
ENDBRANCH   2   5
BRANCH   2  15
HETATM   15  C   UNL     1     -12.588  13.874  65.794  1.00  0.00    -0.533 C  
BRANCH  15  16
HETATM   16  C   UNL     1     -11.766  12.611  66.014  1.00  0.00    -0.417 C  
HETATM   17  N   UNL     1     -11.944  11.052  69.794  1.00  0.00    -0.328 NA 
HETATM   18  C   UNL     1     -10.735  11.071  67.645  1.00  0.00    -0.238 C  
HETATM   19  N   UNL     1     -11.531  12.264  67.340  1.00  0.00    -0.330 N  
HETATM   20  C   UNL     1     -12.119  12.406  69.684  1.00  0.00    -0.206 A  
HETATM   21  O   UNL     1     -11.362  11.923  65.080  1.00  0.00    -0.317 OA 
HETATM   22  C   UNL     1     -11.760  13.174  68.467  1.00  0.00    -0.352 C  
HETATM   23  C   UNL     1     -11.404  10.225  68.733  1.00  0.00    -0.167 C  
HETATM   24  N   UNL     1     -12.653  12.862  70.790  1.00  0.00    -0.280 NA 
HETATM   25  N   UNL     1     -12.871  11.792  71.620  1.00  0.00    -0.367 NA 
HETATM   26  C   UNL     1     -12.465  10.692  71.009  1.00  0.00    -0.413 A  
HETATM   27  C   UNL     1     -12.564   9.303  71.525  1.00  0.00    -0.352 C  
HETATM   28  F   UNL     1     -12.047   8.388  70.661  1.00  0.00    -0.255 F  
HETATM   29  F   UNL     1     -11.895   9.143  72.694  1.00  0.00    -0.309 F  
HETATM   30  F   UNL     1     -13.851   8.930  71.744  1.00  0.00    -0.375 F  
ENDBRANCH  15  16
ENDBRANCH   2  15
TORSDOF 4
ENDMDL
MODEL        5
REMARK 921   NORMALIZED FREE ENERGY PREDICTED BY IDOCK:   -7.89 KCAL/MOL
REMARK 922        TOTAL FREE ENERGY PREDICTED BY IDOCK:  -10.80 KCAL/MOL
REMARK 923 INTER-LIGAND FREE ENERGY PREDICTED BY IDOCK:   -9.86 KCAL/MOL
REMARK 924 INTRA-LIGAND FREE ENERGY PREDICTED BY IDOCK:   -0.93 KCAL/MOL
REMARK 927      BINDING AFFINITY PREDICTED BY RF-SCORE:    0.00 PKD
ROOT
HETATM    1  N   UNL     1     -11.394  14.299  64.101  1.00  0.00    -0.608 NA 
HETATM    2  C   UNL     1     -11.619  14.795  65.476  1.00  0.00    -0.301 C  
HETATM    3  H1  UNL     1     -10.921  15.032  63.572  1.00  0.00     0.000 HD 
HETATM    4  H2  UNL     1     -12.253  13.981  63.652  1.00  0.00     0.000 HD 
ENDROOT
BRANCH   2   5
HETATM    5  C   UNL     1     -10.270  15.223  66.104  1.00  0.00    -0.320 C  
BRANCH   5   6
HETATM    6  C   UNL     1     -10.304  16.611  66.703  1.00  0.00    -0.296 A  
HETATM    7  F   UNL     1      -9.957  15.741  68.884  1.00  0.00    -0.192 F  
HETATM    8  C   UNL     1     -10.125  16.800  68.078  1.00  0.00    -0.284 A  
HETATM    9  C   UNL     1     -10.117  18.071  68.642  1.00  0.00    -0.401 A  
HETATM   10  C   UNL     1     -10.506  17.739  65.890  1.00  0.00    -0.251 A  
HETATM   11  C   UNL     1     -10.487  19.011  66.451  1.00  0.00    -0.446 A  
HETATM   12  F   UNL     1     -10.270  20.403  68.351  1.00  0.00    -0.511 F  
HETATM   13  C   UNL     1     -10.291  19.176  67.818  1.00  0.00    -0.421 A  
HETATM   14  F   UNL     1     -10.657  20.081  65.661  1.00  0.00    -0.560 F  
ENDBRANCH   5   6
ENDBRANCH   2   5
BRANCH   2  15
HETATM   15  C   UNL     1     -12.328  13.695  66.271  1.00  0.00    -0.464 C  
BRANCH  15  16
HETATM   16  C   UNL     1     -11.517  12.423  66.482  1.00  0.00    -0.371 C  
HETATM   17  N   UNL     1     -11.970  10.654  70.145  1.00  0.00    -0.308 NA 
HETATM   18  C   UNL     1     -10.603  10.796  68.098  1.00  0.00    -0.203 C  
HETATM   19  N   UNL     1     -11.380  12.003  67.801  1.00  0.00    -0.280 N  
HETATM   20  C   UNL     1     -12.145  12.012  70.097  1.00  0.00    -0.298 A  
HETATM   21  O   UNL     1     -11.039  11.790  65.545  1.00  0.00    -0.305 OA 
HETATM   22  C   UNL     1     -11.700  12.848  68.956  1.00  0.00    -0.327 C  
HETATM   23  C   UNL     1     -11.346   9.889  69.084  1.00  0.00    -0.039 C  
HETATM   24  N   UNL     1     -12.764  12.404  71.184  1.00  0.00    -0.313 NA 
HETATM   25  N   UNL     1     -13.038  11.289  71.934  1.00  0.00    -0.477 NA 
HETATM   26  C   UNL     1     -12.579  10.225  71.295  1.00  0.00    -0.418 A  
HETATM   27  C   UNL     1     -12.708   8.810  71.724  1.00  0.00    -0.359 C  
HETATM   28  F   UNL     1     -12.122   7.945  70.852  1.00  0.00    -0.305 F  
HETATM   29  F   UNL     1     -12.129   8.586  72.930  1.00  0.00    -0.440 F  
HETATM   30  F   UNL     1     -14.006   8.422  71.823  1.00  0.00    -0.365 F  
ENDBRANCH  15  16
ENDBRANCH   2  15
TORSDOF 4
ENDMDL
MODEL        6
REMARK 921   NORMALIZED FREE ENERGY PREDICTED BY IDOCK:   -7.78 KCAL/MOL
REMARK 922        TOTAL FREE ENERGY PREDICTED BY IDOCK:  -10.66 KCAL/MOL
REMARK 923 INTER-LIGAND FREE ENERGY PREDICTED BY IDOCK:   -9.73 KCAL/MOL
REMARK 924 INTRA-LIGAND FREE ENERGY PREDICTED BY IDOCK:   -0.93 KCAL/MOL
REMARK 927      BINDING AFFINITY PREDICTED BY RF-SCORE:    0.00 PKD
ROOT
HETATM    1  N   UNL     1     -12.253  14.138  63.450  1.00  0.00    -1.099 NA 
HETATM    2  C   UNL     1     -12.033  14.560  64.850  1.00  0.00    -0.422 C  
HETATM    3  H1  UNL     1     -11.880  14.863  62.837  1.00  0.00     0.000 HD 
HETATM    4  H2  UNL     1     -13.230  13.921  63.254  1.00  0.00     0.000 HD 
ENDROOT
BRANCH   2   5
HETATM    5  C   UNL     1     -10.528  14.834  65.082  1.00  0.00    -0.443 C  
BRANCH   5   6
HETATM    6  C   UNL     1     -10.268  15.873  66.151  1.00  0.00    -0.340 A  
HETATM    7  F   UNL     1     -11.126  17.598  64.763  1.00  0.00    -0.330 F  
HETATM    8  C   UNL     1     -10.603  17.216  65.937  1.00  0.00    -0.215 A  
HETATM    9  C   UNL     1     -10.405  18.179  66.920  1.00  0.00    -0.386 A  
HETATM   10  C   UNL     1      -9.697  15.510  67.382  1.00  0.00    -0.218 A  
HETATM   11  C   UNL     1      -9.509  16.471  68.370  1.00  0.00    -0.223 A  
HETATM   12  F   UNL     1      -9.685  18.715  69.098  1.00  0.00    -0.348 F  
HETATM   13  C   UNL     1      -9.864  17.796  68.141  1.00  0.00    -0.326 A  
HETATM   14  F   UNL     1      -8.985  16.107  69.549  1.00  0.00    -0.241 F  
ENDBRANCH   5   6
ENDBRANCH   2   5
BRANCH   2  15
HETATM   15  C   UNL     1     -12.594  13.472  65.771  1.00  0.00    -0.490 C  
BRANCH  15  16
HETATM   16  C   UNL     1     -11.683  12.269  65.980  1.00  0.00    -0.388 C  
HETATM   17  N   UNL     1     -11.735  10.678  69.750  1.00  0.00    -0.290 NA 
HETATM   18  C   UNL     1     -10.539  10.796  67.597  1.00  0.00    -0.231 C  
HETATM   19  N   UNL     1     -11.418  11.931  67.303  1.00  0.00    -0.321 N  
HETATM   20  C   UNL     1     -12.005  12.017  69.650  1.00  0.00    -0.293 A  
HETATM   21  O   UNL     1     -11.235  11.617  65.040  1.00  0.00    -0.283 OA 
HETATM   22  C   UNL     1     -11.707  12.816  68.436  1.00  0.00    -0.339 C  
HETATM   23  C   UNL     1     -11.141   9.898  68.682  1.00  0.00    -0.134 C  
HETATM   24  N   UNL     1     -12.566  12.426  70.761  1.00  0.00    -0.266 NA 
HETATM   25  N   UNL     1     -12.705  11.339  71.585  1.00  0.00    -0.375 NA 
HETATM   26  C   UNL     1     -12.223  10.274  70.965  1.00  0.00    -0.384 A  
HETATM   27  C   UNL     1     -12.222   8.879  71.473  1.00  0.00    -0.327 C  
HETATM   28  F   UNL     1     -11.645   8.008  70.601  1.00  0.00    -0.280 F  
HETATM   29  F   UNL     1     -11.538   8.760  72.638  1.00  0.00    -0.409 F  
HETATM   30  F   UNL     1     -13.478   8.414  71.694  1.00  0.00    -0.325 F  
ENDBRANCH  15  16
ENDBRANCH   2  15
TORSDOF 4
ENDMDL
MODEL        7
REMARK 921   NORMALIZED FREE ENERGY PREDICTED BY IDOCK:   -7.64 KCAL/MOL
REMARK 922        TOTAL FREE ENERGY PREDICTED BY IDOCK:  -10.50 KCAL/MOL
REMARK 923 INTER-LIGAND FREE ENERGY PREDICTED BY IDOCK:   -9.73 KCAL/MOL
REMARK 924 INTRA-LIGAND FREE ENERGY PREDICTED BY IDOCK:   -0.76 KCAL/MOL
REMARK 927      BINDING AFFINITY PREDICTED BY RF-SCORE:    0.00 PKD
ROOT
HETATM    1  N   UNL     1     -11.256  15.465  72.315  1.00  0.00    -0.363 NA 
HETATM    2  C   UNL     1     -11.625  15.917  70.956  1.00  0.00    -0.424 C  
HETATM    3  H1  UNL     1     -12.076  15.555  72.915  1.00  0.00     0.000 HD 
HETATM    4  H2  UNL     1     -10.441  15.955  72.685  1.00  0.00     0.000 HD 
ENDROOT
BRANCH   2   5
HETATM    5  C   UNL     1     -12.840  15.105  70.448  1.00  0.00    -0.346 C  
BRANCH   5   6
HETATM    6  C   UNL     1     -12.720  13.621  70.716  1.00  0.00    -0.338 A  
HETATM    7  F   UNL     1     -14.008  13.818  72.701  1.00  0.00    -0.566 F  
HETATM    8  C   UNL     1     -13.335  13.046  71.836  1.00  0.00    -0.446 A  
HETATM    9  C   UNL     1     -13.266  11.679  72.080  1.00  0.00    -0.443 A  
HETATM   10  C   UNL     1     -11.999  12.789  69.844  1.00  0.00    -0.368 A  
HETATM   11  C   UNL     1     -11.940  11.420  70.081  1.00  0.00    -0.377 A  
HETATM   12  F   UNL     1     -12.514   9.550  71.410  1.00  0.00    -0.340 F  
HETATM   13  C   UNL     1     -12.572  10.869  71.190  1.00  0.00    -0.428 A  
HETATM   14  F   UNL     1     -11.268  10.634  69.227  1.00  0.00    -0.225 F  
ENDBRANCH   5   6
ENDBRANCH   2   5
BRANCH   2  15
HETATM   15  C   UNL     1     -10.393  15.781  70.056  1.00  0.00    -0.286 C  
BRANCH  15  16
HETATM   16  C   UNL     1     -10.529  16.409  68.675  1.00  0.00    -0.293 C  
HETATM   17  N   UNL     1     -10.766  13.753  65.570  1.00  0.00    -0.293 NA 
HETATM   18  C   UNL     1     -10.357  16.092  66.232  1.00  0.00    -0.328 C  
HETATM   19  N   UNL     1     -10.266  15.568  67.598  1.00  0.00    -0.252 N  
HETATM   20  C   UNL     1     -10.068  13.340  66.673  1.00  0.00    -0.266 A  
HETATM   21  O   UNL     1     -10.881  17.575  68.518  1.00  0.00    -0.284 OA 
HETATM   22  C   UNL     1      -9.600  14.268  67.732  1.00  0.00    -0.221 C  
HETATM   23  C   UNL     1     -11.133  15.133  65.324  1.00  0.00    -0.383 C  
HETATM   24  N   UNL     1      -9.919  12.039  66.626  1.00  0.00    -0.198 NA 
HETATM   25  N   UNL     1     -10.562  11.585  65.503  1.00  0.00    -0.274 NA 
HETATM   26  C   UNL     1     -11.096  12.619  64.875  1.00  0.00    -0.296 A  
HETATM   27  C   UNL     1     -11.925  12.576  63.643  1.00  0.00    -0.537 C  
HETATM   28  F   UNL     1     -12.319  13.813  63.236  1.00  0.00    -0.550 F  
HETATM   29  F   UNL     1     -11.258  12.026  62.597  1.00  0.00    -0.019 F  
HETATM   30  F   UNL     1     -13.063  11.856  63.818  1.00  0.00    -0.587 F  
ENDBRANCH  15  16
ENDBRANCH   2  15
TORSDOF 4
ENDMDL
MODEL        8
REMARK 921   NORMALIZED FREE ENERGY PREDICTED BY IDOCK:   -7.59 KCAL/MOL
REMARK 922        TOTAL FREE ENERGY PREDICTED BY IDOCK:  -10.43 KCAL/MOL
REMARK 923 INTER-LIGAND FREE ENERGY PREDICTED BY IDOCK:   -9.77 KCAL/MOL
REMARK 924 INTRA-LIGAND FREE ENERGY PREDICTED BY IDOCK:   -0.66 KCAL/MOL
REMARK 927      BINDING AFFINITY PREDICTED BY RF-SCORE:    0.00 PKD
ROOT
HETATM    1  N   UNL     1     -13.956   8.979  73.094  1.00  0.00    -1.215 NA 
HETATM    2  C   UNL     1     -13.536   8.680  71.708  1.00  0.00    -0.382 C  
HETATM    3  H1  UNL     1     -14.820   8.470  73.281  1.00  0.00     0.000 HD 
HETATM    4  H2  UNL     1     -14.043   9.980  73.271  1.00  0.00     0.000 HD 
ENDROOT
BRANCH   2   5
HETATM    5  C   UNL     1     -13.389   7.150  71.525  1.00  0.00    -0.413 C  
BRANCH   5   6
HETATM    6  C   UNL     1     -11.954   6.677  71.587  1.00  0.00    -0.395 A  
HETATM    7  F   UNL     1     -11.908   6.325  69.240  1.00  0.00    -0.445 F  
HETATM    8  C   UNL     1     -11.275   6.301  70.422  1.00  0.00    -0.373 A  
HETATM    9  C   UNL     1      -9.945   5.898  70.454  1.00  0.00    -0.247 A  
HETATM   10  C   UNL     1     -11.271   6.614  72.813  1.00  0.00    -0.263 A  
HETATM   11  C   UNL     1      -9.937   6.221  72.844  1.00  0.00    -0.170 A  
HETATM   12  F   UNL     1      -7.993   5.496  71.709  1.00  0.00    -0.104 F  
HETATM   13  C   UNL     1      -9.278   5.869  71.672  1.00  0.00    -0.146 A  
HETATM   14  F   UNL     1      -9.289   6.188  74.018  1.00  0.00    -0.125 F  
ENDBRANCH   5   6
ENDBRANCH   2   5
BRANCH   2  15
HETATM   15  C   UNL     1     -12.239   9.445  71.426  1.00  0.00    -0.438 C  
BRANCH  15  16
HETATM   16  C   UNL     1     -12.413  10.930  71.138  1.00  0.00    -0.405 C  
HETATM   17  N   UNL     1     -11.559  12.072  67.301  1.00  0.00    -0.475 NA 
HETATM   18  C   UNL     1     -11.915  12.817  69.625  1.00  0.00    -0.288 C  
HETATM   19  N   UNL     1     -11.811  11.396  69.974  1.00  0.00    -0.333 N  
HETATM   20  C   UNL     1     -10.885  10.979  67.777  1.00  0.00    -0.249 A  
HETATM   21  O   UNL     1     -13.070  11.666  71.869  1.00  0.00    -0.478 OA 
HETATM   22  C   UNL     1     -10.814  10.632  69.217  1.00  0.00    -0.239 C  
HETATM   23  C   UNL     1     -12.284  12.997  68.149  1.00  0.00     0.008 C  
HETATM   24  N   UNL     1     -10.361  10.325  66.769  1.00  0.00    -0.230 NA 
HETATM   25  N   UNL     1     -10.730  10.969  65.616  1.00  0.00    -0.195 NA 
HETATM   26  C   UNL     1     -11.476  12.014  65.935  1.00  0.00    -0.333 A  
HETATM   27  C   UNL     1     -12.129  12.957  64.992  1.00  0.00    -0.435 C  
HETATM   28  F   UNL     1     -12.823  13.937  65.633  1.00  0.00    -0.503 F  
HETATM   29  F   UNL     1     -11.232  13.587  64.193  1.00  0.00    -0.373 F  
HETATM   30  F   UNL     1     -13.021  12.333  64.181  1.00  0.00    -0.529 F  
ENDBRANCH  15  16
ENDBRANCH   2  15
TORSDOF 4
ENDMDL
MODEL        9
REMARK 921   NORMALIZED FREE ENERGY PREDICTED BY IDOCK:   -7.47 KCAL/MOL
REMARK 922        TOTAL FREE ENERGY PREDICTED BY IDOCK:  -10.28 KCAL/MOL
REMARK 923 INTER-LIGAND FREE ENERGY PREDICTED BY IDOCK:   -9.24 KCAL/MOL
REMARK 924 INTRA-LIGAND FREE ENERGY PREDICTED BY IDOCK:   -1.04 KCAL/MOL
REMARK 927      BINDING AFFINITY PREDICTED BY RF-SCORE:    0.00 PKD
ROOT
HETATM    1  N   UNL     1     -12.825  12.593  64.941  1.00  0.00    -0.842 NA 
HETATM    2  C   UNL     1     -11.968  12.840  66.120  1.00  0.00    -0.414 C  
HETATM    3  H1  UNL     1     -13.783  12.843  65.185  1.00  0.00     0.000 HD 
HETATM    4  H2  UNL     1     -12.745  11.638  64.590  1.00  0.00     0.000 HD 
ENDROOT
BRANCH   2   5
HETATM    5  C   UNL     1     -12.113  14.314  66.571  1.00  0.00    -0.454 C  
BRANCH   5   6
HETATM    6  C   UNL     1     -11.893  14.509  68.055  1.00  0.00    -0.350 A  
HETATM    7  F   UNL     1     -11.255  16.771  67.721  1.00  0.00    -0.303 F  
HETATM    8  C   UNL     1     -11.487  15.751  68.559  1.00  0.00    -0.379 A  
HETATM    9  C   UNL     1     -11.315  15.959  69.923  1.00  0.00    -0.348 A  
HETATM   10  C   UNL     1     -12.101  13.452  68.956  1.00  0.00    -0.299 A  
HETATM   11  C   UNL     1     -11.940  13.663  70.321  1.00  0.00    -0.327 A  
HETATM   12  F   UNL     1     -11.403  15.106  72.117  1.00  0.00    -0.455 F  
HETATM   13  C   UNL     1     -11.552  14.909  70.801  1.00  0.00    -0.296 A  
HETATM   14  F   UNL     1     -12.164  12.652  71.173  1.00  0.00    -0.427 F  
ENDBRANCH   5   6
ENDBRANCH   2   5
BRANCH   2  15
HETATM   15  C   UNL     1     -10.529  12.465  65.753  1.00  0.00    -0.288 C  
BRANCH  15  16
HETATM   16  C   UNL     1     -10.301  10.988  65.458  1.00  0.00    -0.260 C  
HETATM   17  N   UNL     1     -10.456   8.515  68.716  1.00  0.00    -0.210 NA 
HETATM   18  C   UNL     1      -9.757   8.757  66.364  1.00  0.00    -0.265 C  
HETATM   19  N   UNL     1     -10.006  10.188  66.557  1.00  0.00    -0.214 N  
HETATM   20  C   UNL     1     -10.052   9.803  68.946  1.00  0.00    -0.183 A  
HETATM   21  O   UNL     1     -10.403  10.525  64.325  1.00  0.00    -0.332 OA 
HETATM   22  C   UNL     1      -9.621  10.724  67.867  1.00  0.00    -0.160 C  
HETATM   23  C   UNL     1     -10.518   7.920  67.396  1.00  0.00    -0.290 C  
HETATM   24  N   UNL     1     -10.135  10.056  70.229  1.00  0.00    -0.232 NA 
HETATM   25  N   UNL     1     -10.639   8.939  70.845  1.00  0.00    -0.216 NA 
HETATM   26  C   UNL     1     -10.857   8.012  69.926  1.00  0.00    -0.217 A  
HETATM   27  C   UNL     1     -11.447   6.668  70.146  1.00  0.00    -0.385 C  
HETATM   28  F   UNL     1     -11.532   5.942  68.998  1.00  0.00    -0.413 F  
HETATM   29  F   UNL     1     -10.715   5.924  71.013  1.00  0.00    -0.271 F  
HETATM   30  F   UNL     1     -12.708   6.738  70.642  1.00  0.00    -0.408 F  
ENDBRANCH  15  16
ENDBRANCH   2  15
TORSDOF 4
ENDMDL
MODEL       10
REMARK 921   NORMALIZED FREE ENERGY PREDICTED BY IDOCK:   -7.43 KCAL/MOL
REMARK 922        TOTAL FREE ENERGY PREDICTED BY IDOCK:  -10.23 KCAL/MOL
REMARK 923 INTER-LIGAND FREE ENERGY PREDICTED BY IDOCK:   -8.99 KCAL/MOL
REMARK 924 INTRA-LIGAND FREE ENERGY PREDICTED BY IDOCK:   -1.25 KCAL/MOL
REMARK 927      BINDING AFFINITY PREDICTED BY RF-SCORE:    0.00 PKD
ROOT
HETATM    1  N   UNL     1      -9.239  11.086  69.480  1.00  0.00    -0.355 NA 
HETATM    2  C   UNL     1      -9.754  11.898  68.356  1.00  0.00    -0.201 C  
HETATM    3  H1  UNL     1     -10.033  10.790  70.048  1.00  0.00     0.000 HD 
HETATM    4  H2  UNL     1      -8.525  11.573  70.022  1.00  0.00     0.000 HD 
ENDROOT
BRANCH   2   5
HETATM    5  C   UNL     1     -10.801  11.083  67.559  1.00  0.00    -0.314 C  
BRANCH   5   6
HETATM    6  C   UNL     1     -11.214  11.746  66.264  1.00  0.00    -0.370 A  
HETATM    7  F   UNL     1     -10.095  10.085  64.989  1.00  0.00    -0.378 F  
HETATM    8  C   UNL     1     -10.849  11.193  65.030  1.00  0.00    -0.173 A  
HETATM    9  C   UNL     1     -11.249  11.768  63.829  1.00  0.00    -0.518 A  
HETATM   10  C   UNL     1     -11.981  12.923  66.273  1.00  0.00    -0.472 A  
HETATM   11  C   UNL     1     -12.392  13.492  65.072  1.00  0.00    -0.428 A  
HETATM   12  F   UNL     1     -12.432  13.468  62.707  1.00  0.00    -0.445 F  
HETATM   13  C   UNL     1     -12.030  12.917  63.859  1.00  0.00    -0.480 A  
HETATM   14  F   UNL     1     -13.143  14.603  65.094  1.00  0.00    -0.320 F  
ENDBRANCH   5   6
ENDBRANCH   2   5
BRANCH   2  15
HETATM   15  C   UNL     1      -8.563  12.342  67.502  1.00  0.00    -0.177 C  
BRANCH  15  16
HETATM   16  C   UNL     1      -7.795  13.543  68.037  1.00  0.00    -0.147 C  
HETATM   17  N   UNL     1      -9.208  17.192  66.837  1.00  0.00    -0.234 NA 
HETATM   18  C   UNL     1      -7.317  15.956  67.824  1.00  0.00    -0.144 C  
HETATM   19  N   UNL     1      -8.026  14.750  67.385  1.00  0.00    -0.185 N  
HETATM   20  C   UNL     1      -9.418  16.145  65.980  1.00  0.00    -0.339 A  
HETATM   21  O   UNL     1      -7.042  13.460  69.004  1.00  0.00    -0.105 OA 
HETATM   22  C   UNL     1      -8.699  14.852  66.086  1.00  0.00     0.190 C  
HETATM   23  C   UNL     1      -8.274  17.146  67.944  1.00  0.00    -0.202 C  
HETATM   24  N   UNL     1     -10.339  16.480  65.110  1.00  0.00    -0.623 NA 
HETATM   25  N   UNL     1     -10.770  17.743  65.423  1.00  0.00    -0.569 NA 
HETATM   26  C   UNL     1     -10.103  18.167  66.484  1.00  0.00    -0.386 A  
HETATM   27  C   UNL     1     -10.291  19.460  67.190  1.00  0.00    -0.438 C  
HETATM   28  F   UNL     1      -9.443  19.606  68.244  1.00  0.00    -0.374 F  
HETATM   29  F   UNL     1     -10.074  20.523  66.377  1.00  0.00    -0.539 F  
HETATM   30  F   UNL     1     -11.545  19.589  67.695  1.00  0.00    -0.262 F  
ENDBRANCH  15  16
ENDBRANCH   2  15
TORSDOF 4
ENDMDL
MODEL       11
REMARK 921   NORMALIZED FREE ENERGY PREDICTED BY IDOCK:   -7.41 KCAL/MOL
REMARK 922        TOTAL FREE ENERGY PREDICTED BY IDOCK:  -10.20 KCAL/MOL
REMARK 923 INTER-LIGAND FREE ENERGY PREDICTED BY IDOCK:   -9.68 KCAL/MOL
REMARK 924 INTRA-LIGAND FREE ENERGY PREDICTED BY IDOCK:   -0.53 KCAL/MOL
REMARK 927      BINDING AFFINITY PREDICTED BY RF-SCORE:    0.00 PKD
ROOT
HETATM    1  N   UNL     1     -12.629  13.779  66.516  1.00  0.00    -0.400 NA 
HETATM    2  C   UNL     1     -11.826  12.842  67.332  1.00  0.00    -0.342 C  
HETATM    3  H1  UNL     1     -13.543  13.884  66.958  1.00  0.00     0.000 HD 
HETATM    4  H2  UNL     1     -12.694  13.493  65.539  1.00  0.00     0.000 HD 
ENDROOT
BRANCH   2   5
HETATM    5  C   UNL     1     -11.740  13.360  68.788  1.00  0.00    -0.377 C  
BRANCH   5   6
HETATM    6  C   UNL     1     -12.050  12.297  69.819  1.00  0.00    -0.298 A  
HETATM    7  F   UNL     1     -13.085  13.894  71.239  1.00  0.00    -0.375 F  
HETATM    8  C   UNL     1     -12.731  12.623  70.998  1.00  0.00    -0.226 A  
HETATM    9  C   UNL     1     -13.057  11.653  71.941  1.00  0.00    -0.490 A  
HETATM   10  C   UNL     1     -11.669  10.961  69.610  1.00  0.00    -0.403 A  
HETATM   11  C   UNL     1     -12.004   9.989  70.547  1.00  0.00    -0.272 A  
HETATM   12  F   UNL     1     -13.019   9.392  72.598  1.00  0.00    -0.450 F  
HETATM   13  C   UNL     1     -12.696  10.333  71.703  1.00  0.00    -0.456 A  
HETATM   14  F   UNL     1     -11.655   8.714  70.324  1.00  0.00    -0.247 F  
ENDBRANCH   5   6
ENDBRANCH   2   5
BRANCH   2  15
HETATM   15  C   UNL     1     -10.455  12.684  66.670  1.00  0.00    -0.261 C  
BRANCH  15  16
HETATM   16  C   UNL     1      -9.308  13.391  67.381  1.00  0.00    -0.221 C  
HETATM   17  N   UNL     1      -9.327  17.473  67.091  1.00  0.00    -0.246 NA 
HETATM   18  C   UNL     1      -8.000  15.469  67.640  1.00  0.00    -0.151 C  
HETATM   19  N   UNL     1      -9.093  14.716  67.017  1.00  0.00    -0.226 N  
HETATM   20  C   UNL     1      -9.898  16.785  66.053  1.00  0.00    -0.287 A  
HETATM   21  O   UNL     1      -8.633  12.836  68.244  1.00  0.00    -0.177 OA 
HETATM   22  C   UNL     1      -9.687  15.334  65.828  1.00  0.00    -0.350 C  
HETATM   23  C   UNL     1      -8.470  16.858  68.084  1.00  0.00    -0.217 C  
HETATM   24  N   UNL     1     -10.639  17.605  65.350  1.00  0.00    -0.625 NA 
HETATM   25  N   UNL     1     -10.591  18.835  65.955  1.00  0.00    -0.526 NA 
HETATM   26  C   UNL     1      -9.816  18.751  67.023  1.00  0.00    -0.325 A  
HETATM   27  C   UNL     1      -9.529  19.834  67.997  1.00  0.00    -0.365 C  
HETATM   28  F   UNL     1      -8.684  19.436  68.986  1.00  0.00    -0.392 F  
HETATM   29  F   UNL     1      -8.947  20.910  67.410  1.00  0.00    -0.454 F  
HETATM   30  F   UNL     1     -10.654  20.275  68.618  1.00  0.00    -0.517 F  
ENDBRANCH  15  16
ENDBRANCH   2  15
TORSDOF 4
ENDMDL
MODEL       12
REMARK 921   NORMALIZED FREE ENERGY PREDICTED BY IDOCK:   -7.39 KCAL/MOL
REMARK 922        TOTAL FREE ENERGY PREDICTED BY IDOCK:  -10.19 KCAL/MOL
REMARK 923 INTER-LIGAND FREE ENERGY PREDICTED BY IDOCK:   -9.46 KCAL/MOL
REMARK 924 INTRA-LIGAND FREE ENERGY PREDICTED BY IDOCK:   -0.73 KCAL/MOL
REMARK 927      BINDING AFFINITY PREDICTED BY RF-SCORE:    0.00 PKD
ROOT
HETATM    1  N   UNL     1      -8.028   9.038  68.268  1.00  0.00    -0.104 NA 
HETATM    2  C   UNL     1      -8.690   9.904  69.268  1.00  0.00    -0.169 C  
HETATM    3  H1  UNL     1      -7.117   8.764  68.637  1.00  0.00     0.000 HD 
HETATM    4  H2  UNL     1      -7.966   9.476  67.349  1.00  0.00     0.000 HD 
ENDROOT
BRANCH   2   5
HETATM    5  C   UNL     1      -8.782   9.160  70.623  1.00  0.00    -0.272 C  
BRANCH   5   6
HETATM    6  C   UNL     1     -10.137   8.534  70.869  1.00  0.00    -0.246 A  
HETATM    7  F   UNL     1      -9.587   6.669  69.506  1.00  0.00    -0.146 F  
HETATM    8  C   UNL     1     -10.465   7.296  70.303  1.00  0.00    -0.219 A  
HETATM    9  C   UNL     1     -11.692   6.688  70.547  1.00  0.00    -0.453 A  
HETATM   10  C   UNL     1     -11.089   9.178  71.676  1.00  0.00    -0.445 A  
HETATM   11  C   UNL     1     -12.312   8.565  71.929  1.00  0.00    -0.352 A  
HETATM   12  F   UNL     1     -13.787   6.742  71.622  1.00  0.00    -0.382 F  
HETATM   13  C   UNL     1     -12.610   7.328  71.371  1.00  0.00    -0.388 A  
HETATM   14  F   UNL     1     -13.203   9.180  72.722  1.00  0.00    -0.485 F  
ENDBRANCH   5   6
ENDBRANCH   2   5
BRANCH   2  15
HETATM   15  C   UNL     1     -10.057  10.315  68.716  1.00  0.00    -0.198 C  
BRANCH  15  16
HETATM   16  C   UNL     1     -10.208  11.798  68.400  1.00  0.00    -0.206 C  
HETATM   17  N   UNL     1     -12.424  13.937  71.094  1.00  0.00    -0.359 NA 
HETATM   18  C   UNL     1     -11.445  13.890  68.832  1.00  0.00    -0.301 C  
HETATM   19  N   UNL     1     -11.218  12.464  69.085  1.00  0.00    -0.248 N  
HETATM   20  C   UNL     1     -12.738  12.610  70.964  1.00  0.00    -0.226 A  
HETATM   21  O   UNL     1      -9.465  12.377  67.612  1.00  0.00    -0.180 OA 
HETATM   22  C   UNL     1     -12.283  11.777  69.824  1.00  0.00    -0.203 C  
HETATM   23  C   UNL     1     -11.607  14.664  70.144  1.00  0.00    -0.282 C  
HETATM   24  N   UNL     1     -13.458  12.236  71.992  1.00  0.00    -0.423 NA 
HETATM   25  N   UNL     1     -13.585  13.314  72.829  1.00  0.00    -0.598 NA 
HETATM   26  C   UNL     1     -12.939  14.340  72.298  1.00  0.00    -0.376 A  
HETATM   27  C   UNL     1     -12.775  15.689  72.897  1.00  0.00    -0.453 C  
HETATM   28  F   UNL     1     -12.063  16.530  72.098  1.00  0.00    -0.510 F  
HETATM   29  F   UNL     1     -13.967  16.296  73.123  1.00  0.00    -0.679 F  
HETATM   30  F   UNL     1     -12.115  15.646  74.082  1.00  0.00    -0.551 F  
ENDBRANCH  15  16
ENDBRANCH   2  15
TORSDOF 4
ENDMDL
MODEL       13
REMARK 921   NORMALIZED FREE ENERGY PREDICTED BY IDOCK:   -7.36 KCAL/MOL
REMARK 922        TOTAL FREE ENERGY PREDICTED BY IDOCK:  -10.15 KCAL/MOL
REMARK 923 INTER-LIGAND FREE ENERGY PREDICTED BY IDOCK:   -9.44 KCAL/MOL
REMARK 924 INTRA-LIGAND FREE ENERGY PREDICTED BY IDOCK:   -0.72 KCAL/MOL
REMARK 927      BINDING AFFINITY PREDICTED BY RF-SCORE:    0.00 PKD
ROOT
HETATM    1  N   UNL     1     -12.150  11.963  66.954  1.00  0.00    -0.505 NA 
HETATM    2  C   UNL     1     -11.037  11.799  67.914  1.00  0.00    -0.245 C  
HETATM    3  H1  UNL     1     -12.913  11.351  67.243  1.00  0.00     0.000 HD 
HETATM    4  H2  UNL     1     -11.862  11.805  65.988  1.00  0.00     0.000 HD 
ENDROOT
BRANCH   2   5
HETATM    5  C   UNL     1     -11.539  12.091  69.349  1.00  0.00    -0.393 C  
BRANCH   5   6
HETATM    6  C   UNL     1     -11.761  10.840  70.170  1.00  0.00    -0.425 A  
HETATM    7  F   UNL     1     -13.335  11.958  71.553  1.00  0.00    -0.457 F  
HETATM    8  C   UNL     1     -12.674  10.836  71.232  1.00  0.00    -0.441 A  
HETATM    9  C   UNL     1     -12.918   9.686  71.975  1.00  0.00    -0.518 A  
HETATM   10  C   UNL     1     -11.064   9.656  69.877  1.00  0.00    -0.268 A  
HETATM   11  C   UNL     1     -11.317   8.503  70.613  1.00  0.00    -0.241 A  
HETATM   12  F   UNL     1     -12.480   7.404  72.354  1.00  0.00    -0.260 F  
HETATM   13  C   UNL     1     -12.240   8.518  71.653  1.00  0.00    -0.322 A  
HETATM   14  F   UNL     1     -10.662   7.373  70.308  1.00  0.00    -0.216 F  
ENDBRANCH   5   6
ENDBRANCH   2   5
BRANCH   2  15
HETATM   15  C   UNL     1      -9.892  12.718  67.481  1.00  0.00    -0.211 C  
BRANCH  15  16
HETATM   16  C   UNL     1     -10.205  13.633  66.304  1.00  0.00    -0.296 C  
HETATM   17  N   UNL     1     -10.220  17.634  67.163  1.00  0.00    -0.330 NA 
HETATM   18  C   UNL     1     -10.888  15.885  65.559  1.00  0.00    -0.315 C  
HETATM   19  N   UNL     1     -10.555  14.939  66.628  1.00  0.00    -0.299 N  
HETATM   20  C   UNL     1     -10.549  16.789  68.190  1.00  0.00    -0.350 A  
HETATM   21  O   UNL     1     -10.124  13.251  65.140  1.00  0.00    -0.288 OA 
HETATM   22  C   UNL     1     -10.917  15.367  67.984  1.00  0.00    -0.307 C  
HETATM   23  C   UNL     1     -10.185  17.229  65.772  1.00  0.00    -0.198 C  
HETATM   24  N   UNL     1     -10.459  17.437  69.325  1.00  0.00    -0.283 NA 
HETATM   25  N   UNL     1     -10.028  18.708  69.048  1.00  0.00    -0.359 NA 
HETATM   26  C   UNL     1      -9.859  18.823  67.741  1.00  0.00    -0.333 A  
HETATM   27  C   UNL     1      -9.352  20.014  67.014  1.00  0.00    -0.386 C  
HETATM   28  F   UNL     1      -9.302  19.821  65.668  1.00  0.00    -0.325 F  
HETATM   29  F   UNL     1     -10.133  21.105  67.213  1.00  0.00    -0.533 F  
HETATM   30  F   UNL     1      -8.092  20.347  67.394  1.00  0.00    -0.331 F  
ENDBRANCH  15  16
ENDBRANCH   2  15
TORSDOF 4
ENDMDL
MODEL       14
REMARK 921   NORMALIZED FREE ENERGY PREDICTED BY IDOCK:   -7.35 KCAL/MOL
REMARK 922        TOTAL FREE ENERGY PREDICTED BY IDOCK:  -10.13 KCAL/MOL
REMARK 923 INTER-LIGAND FREE ENERGY PREDICTED BY IDOCK:   -9.10 KCAL/MOL
REMARK 924 INTRA-LIGAND FREE ENERGY PREDICTED BY IDOCK:   -1.04 KCAL/MOL
REMARK 927      BINDING AFFINITY PREDICTED BY RF-SCORE:    0.00 PKD
ROOT
HETATM    1  N   UNL     1      -9.324  11.043  69.402  1.00  0.00    -0.403 NA 
HETATM    2  C   UNL     1      -9.954  12.016  68.484  1.00  0.00    -0.184 C  
HETATM    3  H1  UNL     1     -10.035  10.716  70.057  1.00  0.00     0.000 HD 
HETATM    4  H2  UNL     1      -8.500  11.421  69.871  1.00  0.00     0.000 HD 
ENDROOT
BRANCH   2   5
HETATM    5  C   UNL     1     -11.169  11.361  67.783  1.00  0.00    -0.346 C  
BRANCH   5   6
HETATM    6  C   UNL     1     -11.522  12.017  66.466  1.00  0.00    -0.413 A  
HETATM    7  F   UNL     1     -12.506  13.865  67.584  1.00  0.00    -0.352 F  
HETATM    8  C   UNL     1     -12.165  13.260  66.437  1.00  0.00    -0.356 A  
HETATM    9  C   UNL     1     -12.466  13.895  65.237  1.00  0.00    -0.504 A  
HETATM   10  C   UNL     1     -11.203  11.396  65.247  1.00  0.00    -0.144 A  
HETATM   11  C   UNL     1     -11.494  12.035  64.046  1.00  0.00    -0.404 A  
HETATM   12  F   UNL     1     -12.391  13.889  62.883  1.00  0.00    -0.363 F  
HETATM   13  C   UNL     1     -12.118  13.278  64.042  1.00  0.00    -0.447 A  
HETATM   14  F   UNL     1     -11.163  11.443  62.889  1.00  0.00    -0.263 F  
ENDBRANCH   5   6
ENDBRANCH   2   5
BRANCH   2  15
HETATM   15  C   UNL     1      -8.887  12.507  67.501  1.00  0.00    -0.184 C  
BRANCH  15  16
HETATM   16  C   UNL     1      -7.940  13.566  68.050  1.00  0.00    -0.151 C  
HETATM   17  N   UNL     1      -8.950  17.433  67.166  1.00  0.00    -0.235 NA 
HETATM   18  C   UNL     1      -7.173  15.911  67.944  1.00  0.00    -0.136 C  
HETATM   19  N   UNL     1      -8.056  14.833  67.487  1.00  0.00    -0.167 N  
HETATM   20  C   UNL     1      -9.345  16.479  66.267  1.00  0.00    -0.302 A  
HETATM   21  O   UNL     1      -7.145  13.327  68.955  1.00  0.00    -0.103 OA 
HETATM   22  C   UNL     1      -8.791  15.103  66.247  1.00  0.00    -0.176 C  
HETATM   23  C   UNL     1      -7.962  17.199  68.200  1.00  0.00    -0.216 C  
HETATM   24  N   UNL     1     -10.268  16.981  65.485  1.00  0.00    -0.617 NA 
HETATM   25  N   UNL     1     -10.515  18.264  65.900  1.00  0.00    -0.585 NA 
HETATM   26  C   UNL     1      -9.735  18.532  66.934  1.00  0.00    -0.322 A  
HETATM   27  C   UNL     1      -9.712  19.788  67.725  1.00  0.00    -0.378 C  
HETATM   28  F   UNL     1      -8.788  19.758  68.724  1.00  0.00    -0.371 F  
HETATM   29  F   UNL     1      -9.413  20.868  66.962  1.00  0.00    -0.516 F  
HETATM   30  F   UNL     1     -10.905  20.037  68.324  1.00  0.00    -0.459 F  
ENDBRANCH  15  16
ENDBRANCH   2  15
TORSDOF 4
ENDMDL
MODEL       15
REMARK 921   NORMALIZED FREE ENERGY PREDICTED BY IDOCK:   -7.34 KCAL/MOL
REMARK 922        TOTAL FREE ENERGY PREDICTED BY IDOCK:  -10.13 KCAL/MOL
REMARK 923 INTER-LIGAND FREE ENERGY PREDICTED BY IDOCK:   -9.18 KCAL/MOL
REMARK 924 INTRA-LIGAND FREE ENERGY PREDICTED BY IDOCK:   -0.95 KCAL/MOL
REMARK 927      BINDING AFFINITY PREDICTED BY RF-SCORE:    0.00 PKD
ROOT
HETATM    1  N   UNL     1     -12.295  14.400  63.529  1.00  0.00    -1.114 NA 
HETATM    2  C   UNL     1     -12.141  14.459  64.999  1.00  0.00    -0.415 C  
HETATM    3  H1  UNL     1     -12.075  15.321  63.149  1.00  0.00     0.000 HD 
HETATM    4  H2  UNL     1     -13.216  14.066  63.244  1.00  0.00     0.000 HD 
ENDROOT
BRANCH   2   5
HETATM    5  C   UNL     1     -10.712  14.937  65.355  1.00  0.00    -0.391 C  
BRANCH   5   6
HETATM    6  C   UNL     1     -10.693  16.234  66.134  1.00  0.00    -0.198 A  
HETATM    7  F   UNL     1     -10.901  15.067  68.191  1.00  0.00    -0.241 F  
HETATM    8  C   UNL     1     -10.772  16.228  67.532  1.00  0.00    -0.300 A  
HETATM    9  C   UNL     1     -10.720  17.407  68.267  1.00  0.00    -0.327 A  
HETATM   10  C   UNL     1     -10.587  17.468  65.471  1.00  0.00    -0.097 A  
HETATM   11  C   UNL     1     -10.523  18.647  66.207  1.00  0.00    -0.424 A  
HETATM   12  F   UNL     1     -10.520  19.753  68.297  1.00  0.00    -0.505 F  
HETATM   13  C   UNL     1     -10.586  18.615  67.596  1.00  0.00    -0.409 A  
HETATM   14  F   UNL     1     -10.397  19.816  65.564  1.00  0.00    -0.484 F  
ENDBRANCH   5   6
ENDBRANCH   2   5
BRANCH   2  15
HETATM   15  C   UNL     1     -12.471  13.077  65.570  1.00  0.00    -0.496 C  
BRANCH  15  16
HETATM   16  C   UNL     1     -11.461  11.984  65.243  1.00  0.00    -0.302 C  
HETATM   17  N   UNL     1     -10.593   9.436  68.326  1.00  0.00    -0.224 NA 
HETATM   18  C   UNL     1      -9.902  10.280  66.115  1.00  0.00    -0.225 C  
HETATM   19  N   UNL     1     -10.895  11.336  66.336  1.00  0.00    -0.270 N  
HETATM   20  C   UNL     1     -10.964  10.708  68.673  1.00  0.00    -0.246 A  
HETATM   21  O   UNL     1     -11.187  11.672  64.088  1.00  0.00    -0.352 OA 
HETATM   22  C   UNL     1     -10.987  11.837  67.711  1.00  0.00    -0.225 C  
HETATM   23  C   UNL     1     -10.196   9.055  66.986  1.00  0.00    -0.266 C  
HETATM   24  N   UNL     1     -11.296  10.729  69.940  1.00  0.00    -0.288 NA 
HETATM   25  N   UNL     1     -11.183   9.451  70.423  1.00  0.00    -0.254 NA 
HETATM   26  C   UNL     1     -10.780   8.661  69.441  1.00  0.00    -0.158 A  
HETATM   27  C   UNL     1     -10.579   7.192  69.511  1.00  0.00    -0.234 C  
HETATM   28  F   UNL     1     -10.150   6.668  68.330  1.00  0.00    -0.139 F  
HETATM   29  F   UNL     1      -9.653   6.846  70.439  1.00  0.00    -0.166 F  
HETATM   30  F   UNL     1     -11.725   6.533  69.820  1.00  0.00    -0.427 F  
ENDBRANCH  15  16
ENDBRANCH   2  15
TORSDOF 4
ENDMDL
MODEL       16
REMARK 921   NORMALIZED FREE ENERGY PREDICTED BY IDOCK:   -7.30 KCAL/MOL
REMARK 922        TOTAL FREE ENERGY PREDICTED BY IDOCK:  -10.07 KCAL/MOL
REMARK 923 INTER-LIGAND FREE ENERGY PREDICTED BY IDOCK:   -9.42 KCAL/MOL
REMARK 924 INTRA-LIGAND FREE ENERGY PREDICTED BY IDOCK:   -0.65 KCAL/MOL
REMARK 927      BINDING AFFINITY PREDICTED BY RF-SCORE:    0.00 PKD
ROOT
HETATM    1  N   UNL     1      -9.165  15.201  66.149  1.00  0.00    -0.391 NA 
HETATM    2  C   UNL     1     -10.570  15.644  66.280  1.00  0.00    -0.307 C  
HETATM    3  H1  UNL     1      -8.574  16.031  66.094  1.00  0.00     0.000 HD 
HETATM    4  H2  UNL     1      -9.025  14.565  65.363  1.00  0.00     0.000 HD 
ENDROOT
BRANCH   2   5
HETATM    5  C   UNL     1     -10.712  16.572  67.510  1.00  0.00    -0.283 C  
BRANCH   5   6
HETATM    6  C   UNL     1      -9.825  17.795  67.441  1.00  0.00    -0.311 A  
HETATM    7  F   UNL     1     -10.882  18.519  65.442  1.00  0.00    -0.489 F  
HETATM    8  C   UNL     1      -9.972  18.725  66.405  1.00  0.00    -0.392 A  
HETATM    9  C   UNL     1      -9.190  19.874  66.344  1.00  0.00    -0.470 A  
HETATM   10  C   UNL     1      -8.843  18.027  68.419  1.00  0.00    -0.300 A  
HETATM   11  C   UNL     1      -8.069  19.181  68.364  1.00  0.00    -0.343 A  
HETATM   12  F   UNL     1      -7.498  21.210  67.291  1.00  0.00    -0.406 F  
HETATM   13  C   UNL     1      -8.244  20.099  67.335  1.00  0.00    -0.340 A  
HETATM   14  F   UNL     1      -7.152  19.402  69.317  1.00  0.00    -0.355 F  
ENDBRANCH   5   6
ENDBRANCH   2   5
BRANCH   2  15
HETATM   15  C   UNL     1     -11.458  14.399  66.362  1.00  0.00    -0.365 C  
BRANCH  15  16
HETATM   16  C   UNL     1     -10.720  13.095  66.636  1.00  0.00    -0.279 C  
HETATM   17  N   UNL     1     -11.772  11.192  70.104  1.00  0.00    -0.331 NA 
HETATM   18  C   UNL     1     -10.104  11.375  68.298  1.00  0.00    -0.196 C  
HETATM   19  N   UNL     1     -10.797  12.617  67.940  1.00  0.00    -0.213 N  
HETATM   20  C   UNL     1     -11.905  12.555  70.092  1.00  0.00    -0.258 A  
HETATM   21  O   UNL     1     -10.119  12.485  65.755  1.00  0.00    -0.256 OA 
HETATM   22  C   UNL     1     -11.270  13.423  69.070  1.00  0.00    -0.275 C  
HETATM   23  C   UNL     1     -11.012  10.453  69.117  1.00  0.00    -0.241 C  
HETATM   24  N   UNL     1     -12.673  12.921  71.088  1.00  0.00    -0.335 NA 
HETATM   25  N   UNL     1     -13.086  11.786  71.737  1.00  0.00    -0.445 NA 
HETATM   26  C   UNL     1     -12.561  10.736  71.127  1.00  0.00    -0.428 A  
HETATM   27  C   UNL     1     -12.788   9.309  71.467  1.00  0.00    -0.354 C  
HETATM   28  F   UNL     1     -12.096   8.463  70.657  1.00  0.00    -0.255 F  
HETATM   29  F   UNL     1     -12.406   9.018  72.736  1.00  0.00    -0.380 F  
HETATM   30  F   UNL     1     -14.094   8.957  71.351  1.00  0.00    -0.425 F  
ENDBRANCH  15  16
ENDBRANCH   2  15
TORSDOF 4
ENDMDL
MODEL       17
REMARK 921   NORMALIZED FREE ENERGY PREDICTED BY IDOCK:   -7.30 KCAL/MOL
REMARK 922        TOTAL FREE ENERGY PREDICTED BY IDOCK:  -10.07 KCAL/MOL
REMARK 923 INTER-LIGAND FREE ENERGY PREDICTED BY IDOCK:   -8.76 KCAL/MOL
REMARK 924 INTRA-LIGAND FREE ENERGY PREDICTED BY IDOCK:   -1.32 KCAL/MOL
REMARK 927      BINDING AFFINITY PREDICTED BY RF-SCORE:    0.00 PKD
ROOT
HETATM    1  N   UNL     1     -11.748   8.980  71.687  1.00  0.00    -0.335 NA 
HETATM    2  C   UNL     1     -11.277  10.006  70.730  1.00  0.00    -0.352 C  
HETATM    3  H1  UNL     1     -12.295   9.447  72.410  1.00  0.00     0.000 HD 
HETATM    4  H2  UNL     1     -10.986   8.420  72.069  1.00  0.00     0.000 HD 
ENDROOT
BRANCH   2   5
HETATM    5  C   UNL     1     -12.488  10.788  70.166  1.00  0.00    -0.357 C  
BRANCH   5   6
HETATM    6  C   UNL     1     -12.492  12.248  70.562  1.00  0.00    -0.272 A  
HETATM    7  F   UNL     1     -13.653  11.758  72.574  1.00  0.00    -0.494 F  
HETATM    8  C   UNL     1     -13.067  12.658  71.770  1.00  0.00    -0.360 A  
HETATM    9  C   UNL     1     -13.049  13.990  72.168  1.00  0.00    -0.501 A  
HETATM   10  C   UNL     1     -11.911  13.219  69.730  1.00  0.00    -0.394 A  
HETATM   11  C   UNL     1     -11.882  14.550  70.132  1.00  0.00    -0.308 A  
HETATM   12  F   UNL     1     -12.410  16.214  71.728  1.00  0.00    -0.458 F  
HETATM   13  C   UNL     1     -12.445  14.932  71.345  1.00  0.00    -0.337 A  
HETATM   14  F   UNL     1     -11.303  15.464  69.340  1.00  0.00    -0.239 F  
ENDBRANCH   5   6
ENDBRANCH   2   5
BRANCH   2  15
HETATM   15  C   UNL     1     -10.456   9.306  69.644  1.00  0.00    -0.234 C  
BRANCH  15  16
HETATM   16  C   UNL     1      -9.266  10.099  69.120  1.00  0.00    -0.197 C  
HETATM   17  N   UNL     1     -10.195  13.113  66.511  1.00  0.00    -0.271 NA 
HETATM   18  C   UNL     1      -8.414  11.665  67.411  1.00  0.00    -0.150 C  
HETATM   19  N   UNL     1      -9.507  10.879  67.994  1.00  0.00    -0.159 N  
HETATM   20  C   UNL     1     -11.049  12.042  66.535  1.00  0.00    -0.314 A  
HETATM   21  O   UNL     1      -8.171  10.078  69.674  1.00  0.00    -0.150 OA 
HETATM   22  C   UNL     1     -10.701  10.740  67.153  1.00  0.00    -0.272 C  
HETATM   23  C   UNL     1      -8.869  13.093  67.095  1.00  0.00    -0.222 C  
HETATM   24  N   UNL     1     -12.176  12.379  65.958  1.00  0.00    -0.624 NA 
HETATM   25  N   UNL     1     -12.080  13.696  65.588  1.00  0.00    -0.397 NA 
HETATM   26  C   UNL     1     -10.889  14.149  65.944  1.00  0.00    -0.294 A  
HETATM   27  C   UNL     1     -10.385  15.536  65.781  1.00  0.00    -0.363 C  
HETATM   28  F   UNL     1      -9.112  15.685  66.240  1.00  0.00    -0.262 F  
HETATM   29  F   UNL     1     -10.369  15.926  64.482  1.00  0.00    -0.235 F  
HETATM   30  F   UNL     1     -11.138  16.437  66.462  1.00  0.00    -0.204 F  
ENDBRANCH  15  16
ENDBRANCH   2  15
TORSDOF 4
ENDMDL
MODEL       18
REMARK 921   NORMALIZED FREE ENERGY PREDICTED BY IDOCK:   -7.29 KCAL/MOL
REMARK 922        TOTAL FREE ENERGY PREDICTED BY IDOCK:  -10.06 KCAL/MOL
REMARK 923 INTER-LIGAND FREE ENERGY PREDICTED BY IDOCK:   -9.63 KCAL/MOL
REMARK 924 INTRA-LIGAND FREE ENERGY PREDICTED BY IDOCK:   -0.43 KCAL/MOL
REMARK 927      BINDING AFFINITY PREDICTED BY RF-SCORE:    0.00 PKD
ROOT
HETATM    1  N   UNL     1     -12.247  10.677  68.618  1.00  0.00    -0.814 NA 
HETATM    2  C   UNL     1     -11.928  11.587  69.740  1.00  0.00    -0.346 C  
HETATM    3  H1  UNL     1     -11.895   9.748  68.853  1.00  0.00     0.000 HD 
HETATM    4  H2  UNL     1     -11.895  11.017  67.723  1.00  0.00     0.000 HD 
ENDROOT
BRANCH   2   5
HETATM    5  C   UNL     1     -12.525  11.026  71.053  1.00  0.00    -0.512 C  
BRANCH   5   6
HETATM    6  C   UNL     1     -12.137   9.588  71.318  1.00  0.00    -0.443 A  
HETATM    7  F   UNL     1     -14.406   8.897  71.217  1.00  0.00    -0.437 F  
HETATM    8  C   UNL     1     -13.111   8.584  71.369  1.00  0.00    -0.230 A  
HETATM    9  C   UNL     1     -12.771   7.251  71.576  1.00  0.00    -0.422 A  
HETATM   10  C   UNL     1     -10.792   9.231  71.509  1.00  0.00    -0.442 A  
HETATM   11  C   UNL     1     -10.450   7.897  71.705  1.00  0.00    -0.209 A  
HETATM   12  F   UNL     1     -11.096   5.632  71.919  1.00  0.00    -0.294 F  
HETATM   13  C   UNL     1     -11.433   6.914  71.734  1.00  0.00    -0.275 A  
HETATM   14  F   UNL     1      -9.160   7.566  71.862  1.00  0.00    -0.132 F  
ENDBRANCH   5   6
ENDBRANCH   2   5
BRANCH   2  15
HETATM   15  C   UNL     1     -12.456  12.981  69.389  1.00  0.00     0.160 C  
BRANCH  15  16
HETATM   16  C   UNL     1     -11.704  14.139  70.032  1.00  0.00    -0.291 C  
HETATM   17  N   UNL     1     -10.413  17.033  67.441  1.00  0.00    -0.329 NA 
HETATM   18  C   UNL     1     -10.199  16.068  69.700  1.00  0.00    -0.265 C  
HETATM   19  N   UNL     1     -10.967  14.939  69.165  1.00  0.00    -0.249 N  
HETATM   20  C   UNL     1     -10.526  15.765  66.933  1.00  0.00    -0.315 A  
HETATM   21  O   UNL     1     -11.768  14.372  71.236  1.00  0.00    -0.289 OA 
HETATM   22  C   UNL     1     -10.649  14.557  67.785  1.00  0.00    -0.250 C  
HETATM   23  C   UNL     1     -10.415  17.330  68.859  1.00  0.00    -0.327 C  
HETATM   24  N   UNL     1     -10.524  15.825  65.625  1.00  0.00    -0.360 NA 
HETATM   25  N   UNL     1     -10.453  17.147  65.266  1.00  0.00    -0.662 NA 
HETATM   26  C   UNL     1     -10.409  17.881  66.366  1.00  0.00    -0.365 A  
HETATM   27  C   UNL     1     -10.380  19.364  66.440  1.00  0.00    -0.483 C  
HETATM   28  F   UNL     1     -10.328  19.821  67.721  1.00  0.00    -0.468 F  
HETATM   29  F   UNL     1      -9.301  19.887  65.806  1.00  0.00    -0.397 F  
HETATM   30  F   UNL     1     -11.485  19.926  65.885  1.00  0.00    -0.180 F  
ENDBRANCH  15  16
ENDBRANCH   2  15
TORSDOF 4
ENDMDL
MODEL       19
REMARK 921   NORMALIZED FREE ENERGY PREDICTED BY IDOCK:   -7.28 KCAL/MOL
REMARK 922        TOTAL FREE ENERGY PREDICTED BY IDOCK:  -10.04 KCAL/MOL
REMARK 923 INTER-LIGAND FREE ENERGY PREDICTED BY IDOCK:   -9.40 KCAL/MOL
REMARK 924 INTRA-LIGAND FREE ENERGY PREDICTED BY IDOCK:   -0.64 KCAL/MOL
REMARK 927      BINDING AFFINITY PREDICTED BY RF-SCORE:    0.00 PKD
ROOT
HETATM    1  N   UNL     1     -11.642  10.331  67.905  1.00  0.00    -0.670 NA 
HETATM    2  C   UNL     1     -10.197  10.302  68.221  1.00  0.00    -0.159 C  
HETATM    3  H1  UNL     1     -12.109   9.641  68.494  1.00  0.00     0.000 HD 
HETATM    4  H2  UNL     1     -11.830  10.193  66.912  1.00  0.00     0.000 HD 
ENDROOT
BRANCH   2   5
HETATM    5  C   UNL     1      -9.988  10.555  69.734  1.00  0.00    -0.090 C  
BRANCH   5   6
HETATM    6  C   UNL     1     -11.128  10.042  70.587  1.00  0.00    -0.408 A  
HETATM    7  F   UNL     1     -12.054  12.221  70.759  1.00  0.00    -0.435 F  
HETATM    8  C   UNL     1     -12.124  10.913  71.046  1.00  0.00    -0.320 A  
HETATM    9  C   UNL     1     -13.198  10.455  71.800  1.00  0.00    -0.529 A  
HETATM   10  C   UNL     1     -11.214   8.682  70.928  1.00  0.00    -0.311 A  
HETATM   11  C   UNL     1     -12.294   8.221  71.673  1.00  0.00    -0.315 A  
HETATM   12  F   UNL     1     -14.319   8.650  72.817  1.00  0.00    -0.456 F  
HETATM   13  C   UNL     1     -13.281   9.101  72.103  1.00  0.00    -0.458 A  
HETATM   14  F   UNL     1     -12.377   6.916  71.971  1.00  0.00    -0.333 F  
ENDBRANCH   5   6
ENDBRANCH   2   5
BRANCH   2  15
HETATM   15  C   UNL     1      -9.494  11.337  67.338  1.00  0.00    -0.175 C  
BRANCH  15  16
HETATM   16  C   UNL     1     -10.409  12.121  66.406  1.00  0.00    -0.218 C  
HETATM   17  N   UNL     1     -10.649  16.135  67.167  1.00  0.00    -0.306 NA 
HETATM   18  C   UNL     1     -11.669  14.208  66.015  1.00  0.00    -0.382 C  
HETATM   19  N   UNL     1     -10.777  13.389  66.842  1.00  0.00    -0.272 N  
HETATM   20  C   UNL     1     -10.381  15.326  68.239  1.00  0.00    -0.234 A  
HETATM   21  O   UNL     1     -10.775  11.674  65.322  1.00  0.00    -0.279 OA 
HETATM   22  C   UNL     1     -10.587  13.857  68.219  1.00  0.00    -0.257 C  
HETATM   23  C   UNL     1     -11.148  15.644  65.898  1.00  0.00    -0.155 C  
HETATM   24  N   UNL     1      -9.915  16.056  69.222  1.00  0.00    -0.239 NA 
HETATM   25  N   UNL     1      -9.835  17.351  68.780  1.00  0.00    -0.306 NA 
HETATM   26  C   UNL     1     -10.256  17.397  67.527  1.00  0.00    -0.332 A  
HETATM   27  C   UNL     1     -10.288  18.592  66.646  1.00  0.00    -0.415 C  
HETATM   28  F   UNL     1     -10.787  18.316  65.410  1.00  0.00    -0.466 F  
HETATM   29  F   UNL     1     -11.062  19.583  67.156  1.00  0.00    -0.577 F  
HETATM   30  F   UNL     1      -9.050  19.112  66.445  1.00  0.00    -0.304 F  
ENDBRANCH  15  16
ENDBRANCH   2  15
TORSDOF 4
ENDMDL
MODEL       20
REMARK 921   NORMALIZED FREE ENERGY PREDICTED BY IDOCK:   -7.26 KCAL/MOL
REMARK 922        TOTAL FREE ENERGY PREDICTED BY IDOCK:  -10.03 KCAL/MOL
REMARK 923 INTER-LIGAND FREE ENERGY PREDICTED BY IDOCK:   -9.03 KCAL/MOL
REMARK 924 INTRA-LIGAND FREE ENERGY PREDICTED BY IDOCK:   -1.00 KCAL/MOL
REMARK 927      BINDING AFFINITY PREDICTED BY RF-SCORE:    0.00 PKD
ROOT
HETATM    1  N   UNL     1      -5.649  15.301  67.690  1.00  0.00    -0.307 NA 
HETATM    2  C   UNL     1      -7.091  15.524  67.936  1.00  0.00    -0.139 C  
HETATM    3  H1  UNL     1      -5.301  16.072  67.121  1.00  0.00     0.000 HD 
HETATM    4  H2  UNL     1      -5.458  14.388  67.276  1.00  0.00     0.000 HD 
ENDROOT
BRANCH   2   5
HETATM    5  C   UNL     1      -7.298  16.908  68.598  1.00  0.00    -0.222 C  
BRANCH   5   6
HETATM    6  C   UNL     1      -8.373  17.735  67.926  1.00  0.00    -0.241 A  
HETATM    7  F   UNL     1      -7.884  19.600  69.312  1.00  0.00    -0.392 F  
HETATM    8  C   UNL     1      -8.599  19.062  68.313  1.00  0.00    -0.331 A  
HETATM    9  C   UNL     1      -9.557  19.848  67.683  1.00  0.00    -0.493 A  
HETATM   10  C   UNL     1      -9.157  17.192  66.895  1.00  0.00    -0.254 A  
HETATM   11  C   UNL     1     -10.108  17.982  66.257  1.00  0.00    -0.363 A  
HETATM   12  F   UNL     1     -11.217  20.058  66.026  1.00  0.00    -0.383 F  
HETATM   13  C   UNL     1     -10.304  19.302  66.647  1.00  0.00    -0.438 A  
HETATM   14  F   UNL     1     -10.834  17.459  65.259  1.00  0.00    -0.394 F  
ENDBRANCH   5   6
ENDBRANCH   2   5
BRANCH   2  15
HETATM   15  C   UNL     1      -7.615  14.366  68.791  1.00  0.00    -0.131 C  
BRANCH  15  16
HETATM   16  C   UNL     1      -7.724  13.028  68.071  1.00  0.00    -0.145 C  
HETATM   17  N   UNL     1     -11.068  12.561  65.759  1.00  0.00    -0.297 NA 
HETATM   18  C   UNL     1      -9.182  11.433  66.878  1.00  0.00    -0.176 C  
HETATM   19  N   UNL     1      -8.982  12.709  67.572  1.00  0.00    -0.177 N  
HETATM   20  C   UNL     1     -11.186  13.392  66.841  1.00  0.00    -0.308 A  
HETATM   21  O   UNL     1      -6.755  12.290  67.913  1.00  0.00    -0.075 OA 
HETATM   22  C   UNL     1     -10.207  13.418  67.955  1.00  0.00    -0.243 C  
HETATM   23  C   UNL     1      -9.972  11.629  65.581  1.00  0.00    -0.240 C  
HETATM   24  N   UNL     1     -12.258  14.132  66.699  1.00  0.00    -0.456 NA 
HETATM   25  N   UNL     1     -12.828  13.816  65.493  1.00  0.00    -0.652 NA 
HETATM   26  C   UNL     1     -12.095  12.881  64.911  1.00  0.00    -0.432 A  
HETATM   27  C   UNL     1     -12.321  12.286  63.569  1.00  0.00    -0.565 C  
HETATM   28  F   UNL     1     -11.395  11.338  63.257  1.00  0.00    -0.434 F  
HETATM   29  F   UNL     1     -13.531  11.681  63.475  1.00  0.00    -0.408 F  
HETATM   30  F   UNL     1     -12.257  13.214  62.581  1.00  0.00    -0.338 F  
ENDBRANCH  15  16
ENDBRANCH   2  15
TORSDOF 4
ENDMDL
MODEL       21
REMARK 921   NORMALIZED FREE ENERGY PREDICTED BY IDOCK:   -7.21 KCAL/MOL
REMARK 922        TOTAL FREE ENERGY PREDICTED BY IDOCK:   -9.96 KCAL/MOL
REMARK 923 INTER-LIGAND FREE ENERGY PREDICTED BY IDOCK:   -9.06 KCAL/MOL
REMARK 924 INTRA-LIGAND FREE ENERGY PREDICTED BY IDOCK:   -0.90 KCAL/MOL
REMARK 927      BINDING AFFINITY PREDICTED BY RF-SCORE:    0.00 PKD
ROOT
HETATM    1  N   UNL     1     -14.054   8.982  73.231  1.00  0.00    -1.211 NA 
HETATM    2  C   UNL     1     -13.314   8.527  72.034  1.00  0.00    -0.369 C  
HETATM    3  H1  UNL     1     -13.854   8.334  73.994  1.00  0.00     0.000 HD 
HETATM    4  H2  UNL     1     -15.053   9.091  73.058  1.00  0.00     0.000 HD 
ENDROOT
BRANCH   2   5
HETATM    5  C   UNL     1     -11.805   8.422  72.362  1.00  0.00    -0.452 C  
BRANCH   5   6
HETATM    6  C   UNL     1     -11.174   7.140  71.865  1.00  0.00    -0.282 A  
HETATM    7  F   UNL     1     -10.541   6.530  74.071  1.00  0.00    -0.299 F  
HETATM    8  C   UNL     1     -10.583   6.242  72.762  1.00  0.00    -0.228 A  
HETATM    9  C   UNL     1     -10.030   5.041  72.329  1.00  0.00    -0.233 A  
HETATM   10  C   UNL     1     -11.177   6.822  70.497  1.00  0.00    -0.370 A  
HETATM   11  C   UNL     1     -10.634   5.616  70.065  1.00  0.00    -0.318 A  
HETATM   12  F   UNL     1      -9.551   3.571  70.553  1.00  0.00    -0.215 F  
HETATM   13  C   UNL     1     -10.068   4.731  70.975  1.00  0.00    -0.199 A  
HETATM   14  F   UNL     1     -10.665   5.313  68.759  1.00  0.00    -0.264 F  
ENDBRANCH   5   6
ENDBRANCH   2   5
BRANCH   2  15
HETATM   15  C   UNL     1     -13.613   9.499  70.889  1.00  0.00    -0.049 C  
BRANCH  15  16
HETATM   16  C   UNL     1     -13.091  10.915  71.090  1.00  0.00    -0.257 C  
HETATM   17  N   UNL     1     -11.538  12.690  67.744  1.00  0.00    -0.328 NA 
HETATM   18  C   UNL     1     -11.699  12.752  70.204  1.00  0.00    -0.162 C  
HETATM   19  N   UNL     1     -12.260  11.403  70.086  1.00  0.00    -0.325 N  
HETATM   20  C   UNL     1     -11.453  11.324  67.805  1.00  0.00    -0.275 A  
HETATM   21  O   UNL     1     -13.407  11.598  72.061  1.00  0.00    -0.481 OA 
HETATM   22  C   UNL     1     -11.651  10.554  69.058  1.00  0.00    -0.207 C  
HETATM   23  C   UNL     1     -11.841  13.526  68.889  1.00  0.00    -0.345 C  
HETATM   24  N   UNL     1     -11.200  10.856  66.608  1.00  0.00    -0.211 NA 
HETATM   25  N   UNL     1     -11.159  11.919  65.743  1.00  0.00    -0.316 NA 
HETATM   26  C   UNL     1     -11.388  13.029  66.425  1.00  0.00    -0.317 A  
HETATM   27  C   UNL     1     -11.485  14.404  65.873  1.00  0.00    -0.341 C  
HETATM   28  F   UNL     1     -11.720  15.336  66.836  1.00  0.00    -0.290 F  
HETATM   29  F   UNL     1     -10.345  14.785  65.245  1.00  0.00    -0.314 F  
HETATM   30  F   UNL     1     -12.498  14.524  64.978  1.00  0.00    -0.405 F  
ENDBRANCH  15  16
ENDBRANCH   2  15
TORSDOF 4
ENDMDL
MODEL       22
REMARK 921   NORMALIZED FREE ENERGY PREDICTED BY IDOCK:   -7.21 KCAL/MOL
REMARK 922        TOTAL FREE ENERGY PREDICTED BY IDOCK:   -9.96 KCAL/MOL
REMARK 923 INTER-LIGAND FREE ENERGY PREDICTED BY IDOCK:   -9.23 KCAL/MOL
REMARK 924 INTRA-LIGAND FREE ENERGY PREDICTED BY IDOCK:   -0.72 KCAL/MOL
REMARK 927      BINDING AFFINITY PREDICTED BY RF-SCORE:    0.00 PKD
ROOT
HETATM    1  N   UNL     1      -8.471  11.316  66.183  1.00  0.00    -0.254 NA 
HETATM    2  C   UNL     1      -9.745  11.356  66.933  1.00  0.00    -0.192 C  
HETATM    3  H1  UNL     1      -7.716  11.145  66.848  1.00  0.00     0.000 HD 
HETATM    4  H2  UNL     1      -8.319  12.153  65.621  1.00  0.00     0.000 HD 
ENDROOT
BRANCH   2   5
HETATM    5  C   UNL     1      -9.924  10.041  67.730  1.00  0.00    -0.203 C  
BRANCH   5   6
HETATM    6  C   UNL     1     -10.789  10.202  68.960  1.00  0.00    -0.257 A  
HETATM    7  F   UNL     1     -10.538   7.905  69.507  1.00  0.00    -0.218 F  
HETATM    8  C   UNL     1     -11.039   9.113  69.804  1.00  0.00    -0.125 A  
HETATM    9  C   UNL     1     -11.802   9.249  70.959  1.00  0.00    -0.376 A  
HETATM   10  C   UNL     1     -11.351  11.448  69.285  1.00  0.00    -0.355 A  
HETATM   11  C   UNL     1     -12.104  11.587  70.446  1.00  0.00    -0.382 A  
HETATM   12  F   UNL     1     -13.048  10.638  72.396  1.00  0.00    -0.513 F  
HETATM   13  C   UNL     1     -12.325  10.496  71.278  1.00  0.00    -0.397 A  
HETATM   14  F   UNL     1     -12.615  12.788  70.757  1.00  0.00    -0.400 F  
ENDBRANCH   5   6
ENDBRANCH   2   5
BRANCH   2  15
HETATM   15  C   UNL     1     -10.879  11.612  65.936  1.00  0.00    -0.339 C  
BRANCH  15  16
HETATM   16  C   UNL     1     -10.726  12.871  65.091  1.00  0.00    -0.305 C  
HETATM   17  N   UNL     1     -10.757  16.388  67.184  1.00  0.00    -0.279 NA 
HETATM   18  C   UNL     1     -10.975  15.324  64.970  1.00  0.00    -0.437 C  
HETATM   19  N   UNL     1     -11.075  14.064  65.714  1.00  0.00    -0.301 N  
HETATM   20  C   UNL     1     -11.460  15.347  67.730  1.00  0.00    -0.278 A  
HETATM   21  O   UNL     1     -10.292  12.839  63.943  1.00  0.00    -0.420 OA 
HETATM   22  C   UNL     1     -11.833  14.131  66.967  1.00  0.00    -0.429 C  
HETATM   23  C   UNL     1     -10.293  16.408  65.812  1.00  0.00    -0.369 C  
HETATM   24  N   UNL     1     -11.707  15.609  68.990  1.00  0.00    -0.385 NA 
HETATM   25  N   UNL     1     -11.124  16.814  69.289  1.00  0.00    -0.203 NA 
HETATM   26  C   UNL     1     -10.528  17.276  68.202  1.00  0.00    -0.382 A  
HETATM   27  C   UNL     1      -9.732  18.524  68.091  1.00  0.00    -0.339 C  
HETATM   28  F   UNL     1      -9.254  18.729  66.833  1.00  0.00    -0.277 F  
HETATM   29  F   UNL     1     -10.460  19.625  68.405  1.00  0.00    -0.494 F  
HETATM   30  F   UNL     1      -8.647  18.514  68.908  1.00  0.00    -0.326 F  
ENDBRANCH  15  16
ENDBRANCH   2  15
TORSDOF 4
ENDMDL
MODEL       23
REMARK 921   NORMALIZED FREE ENERGY PREDICTED BY IDOCK:   -7.19 KCAL/MOL
REMARK 922        TOTAL FREE ENERGY PREDICTED BY IDOCK:   -9.94 KCAL/MOL
REMARK 923 INTER-LIGAND FREE ENERGY PREDICTED BY IDOCK:   -8.87 KCAL/MOL
REMARK 924 INTRA-LIGAND FREE ENERGY PREDICTED BY IDOCK:   -1.07 KCAL/MOL
REMARK 927      BINDING AFFINITY PREDICTED BY RF-SCORE:    0.00 PKD
ROOT
HETATM    1  N   UNL     1      -7.442  12.446  66.942  1.00  0.00    -0.382 NA 
HETATM    2  C   UNL     1      -8.671  12.134  67.703  1.00  0.00    -0.172 C  
HETATM    3  H1  UNL     1      -6.664  11.948  67.376  1.00  0.00     0.000 HD 
HETATM    4  H2  UNL     1      -7.272  13.449  66.863  1.00  0.00     0.000 HD 
ENDROOT
BRANCH   2   5
HETATM    5  C   UNL     1      -8.881  10.601  67.747  1.00  0.00    -0.133 C  
BRANCH   5   6
HETATM    6  C   UNL     1      -9.525  10.124  69.031  1.00  0.00    -0.195 A  
HETATM    7  F   UNL     1     -11.692  10.614  68.193  1.00  0.00    -0.369 F  
HETATM    8  C   UNL     1     -10.917  10.140  69.180  1.00  0.00    -0.230 A  
HETATM    9  C   UNL     1     -11.529   9.672  70.338  1.00  0.00    -0.325 A  
HETATM   10  C   UNL     1      -8.740   9.647  70.094  1.00  0.00    -0.263 A  
HETATM   11  C   UNL     1      -9.352   9.168  71.247  1.00  0.00    -0.215 A  
HETATM   12  F   UNL     1     -11.320   8.713  72.478  1.00  0.00    -0.421 F  
HETATM   13  C   UNL     1     -10.738   9.178  71.367  1.00  0.00    -0.343 A  
HETATM   14  F   UNL     1      -8.593   8.693  72.245  1.00  0.00    -0.237 F  
ENDBRANCH   5   6
ENDBRANCH   2   5
BRANCH   2  15
HETATM   15  C   UNL     1      -9.839  12.881  67.053  1.00  0.00    -0.233 C  
BRANCH  15  16
HETATM   16  C   UNL     1      -9.958  14.351  67.432  1.00  0.00    -0.242 C  
HETATM   17  N   UNL     1     -12.078  15.103  70.851  1.00  0.00    -0.305 NA 
HETATM   18  C   UNL     1     -11.136  16.052  68.779  1.00  0.00    -0.338 C  
HETATM   19  N   UNL     1     -10.940  14.658  68.367  1.00  0.00    -0.244 N  
HETATM   20  C   UNL     1     -12.426  13.978  70.152  1.00  0.00    -0.319 A  
HETATM   21  O   UNL     1      -9.213  15.209  66.966  1.00  0.00    -0.202 OA 
HETATM   22  C   UNL     1     -12.010  13.731  68.750  1.00  0.00    -0.365 C  
HETATM   23  C   UNL     1     -11.258  16.164  70.302  1.00  0.00    -0.381 C  
HETATM   24  N   UNL     1     -13.140  13.196  70.925  1.00  0.00    -0.054 NA 
HETATM   25  N   UNL     1     -13.227  13.792  72.157  1.00  0.00    -0.417 NA 
HETATM   26  C   UNL     1     -12.564  14.936  72.121  1.00  0.00    -0.327 A  
HETATM   27  C   UNL     1     -12.357  15.876  73.252  1.00  0.00    -0.523 C  
HETATM   28  F   UNL     1     -11.637  16.973  72.893  1.00  0.00    -0.525 F  
HETATM   29  F   UNL     1     -13.529  16.338  73.754  1.00  0.00    -0.579 F  
HETATM   30  F   UNL     1     -11.679  15.300  74.278  1.00  0.00    -0.527 F  
ENDBRANCH  15  16
ENDBRANCH   2  15
TORSDOF 4
ENDMDL
MODEL       24
REMARK 921   NORMALIZED FREE ENERGY PREDICTED BY IDOCK:   -7.15 KCAL/MOL
REMARK 922        TOTAL FREE ENERGY PREDICTED BY IDOCK:   -9.89 KCAL/MOL
REMARK 923 INTER-LIGAND FREE ENERGY PREDICTED BY IDOCK:   -9.25 KCAL/MOL
REMARK 924 INTRA-LIGAND FREE ENERGY PREDICTED BY IDOCK:   -0.64 KCAL/MOL
REMARK 927      BINDING AFFINITY PREDICTED BY RF-SCORE:    0.00 PKD
ROOT
HETATM    1  N   UNL     1     -11.935  10.565  68.139  1.00  0.00    -0.740 NA 
HETATM    2  C   UNL     1     -10.491  10.372  68.397  1.00  0.00    -0.189 C  
HETATM    3  H1  UNL     1     -12.431   9.740  68.479  1.00  0.00     0.000 HD 
HETATM    4  H2  UNL     1     -12.135  10.770  67.160  1.00  0.00     0.000 HD 
ENDROOT
BRANCH   2   5
HETATM    5  C   UNL     1     -10.262  10.104  69.904  1.00  0.00    -0.284 C  
BRANCH   5   6
HETATM    6  C   UNL     1     -11.238   9.106  70.488  1.00  0.00    -0.309 A  
HETATM    7  F   UNL     1     -10.114   7.302  69.429  1.00  0.00    -0.169 F  
HETATM    8  C   UNL     1     -11.099   7.737  70.229  1.00  0.00    -0.234 A  
HETATM    9  C   UNL     1     -11.964   6.801  70.786  1.00  0.00    -0.433 A  
HETATM   10  C   UNL     1     -12.296   9.531  71.308  1.00  0.00    -0.430 A  
HETATM   11  C   UNL     1     -13.155   8.595  71.874  1.00  0.00    -0.373 A  
HETATM   12  F   UNL     1     -13.815   6.343  72.168  1.00  0.00    -0.305 F  
HETATM   13  C   UNL     1     -12.987   7.239  71.616  1.00  0.00    -0.372 A  
HETATM   14  F   UNL     1     -14.146   9.013  72.674  1.00  0.00    -0.470 F  
ENDBRANCH   5   6
ENDBRANCH   2   5
BRANCH   2  15
HETATM   15  C   UNL     1      -9.746  11.609  67.888  1.00  0.00    -0.181 C  
BRANCH  15  16
HETATM   16  C   UNL     1     -10.432  12.356  66.752  1.00  0.00    -0.221 C  
HETATM   17  N   UNL     1     -10.815  16.394  67.302  1.00  0.00    -0.251 NA 
HETATM   18  C   UNL     1     -11.566  14.424  66.023  1.00  0.00    -0.363 C  
HETATM   19  N   UNL     1     -10.880  13.638  67.053  1.00  0.00    -0.284 N  
HETATM   20  C   UNL     1     -10.791  15.624  68.434  1.00  0.00    -0.290 A  
HETATM   21  O   UNL     1     -10.554  11.871  65.630  1.00  0.00    -0.251 OA 
HETATM   22  C   UNL     1     -10.994  14.154  68.421  1.00  0.00    -0.254 C  
HETATM   23  C   UNL     1     -11.027  15.857  65.972  1.00  0.00    -0.139 C  
HETATM   24  N   UNL     1     -10.548  16.389  69.469  1.00  0.00    -0.308 NA 
HETATM   25  N   UNL     1     -10.367  17.669  69.011  1.00  0.00    -0.342 NA 
HETATM   26  C   UNL     1     -10.505  17.669  67.695  1.00  0.00    -0.372 A  
HETATM   27  C   UNL     1     -10.338  18.833  66.787  1.00  0.00    -0.412 C  
HETATM   28  F   UNL     1     -10.556  18.512  65.483  1.00  0.00    -0.440 F  
HETATM   29  F   UNL     1     -11.201  19.838  67.081  1.00  0.00    -0.540 F  
HETATM   30  F   UNL     1      -9.084  19.350  66.843  1.00  0.00    -0.293 F  
ENDBRANCH  15  16
ENDBRANCH   2  15
TORSDOF 4
ENDMDL
MODEL       25
REMARK 921   NORMALIZED FREE ENERGY PREDICTED BY IDOCK:   -7.10 KCAL/MOL
REMARK 922        TOTAL FREE ENERGY PREDICTED BY IDOCK:   -9.83 KCAL/MOL
REMARK 923 INTER-LIGAND FREE ENERGY PREDICTED BY IDOCK:   -8.67 KCAL/MOL
REMARK 924 INTRA-LIGAND FREE ENERGY PREDICTED BY IDOCK:   -1.15 KCAL/MOL
REMARK 927      BINDING AFFINITY PREDICTED BY RF-SCORE:    0.00 PKD
ROOT
HETATM    1  N   UNL     1     -12.005  10.500  68.533  1.00  0.00    -0.786 NA 
HETATM    2  C   UNL     1     -11.755  11.869  68.030  1.00  0.00    -0.312 C  
HETATM    3  H1  UNL     1     -12.567  10.005  67.840  1.00  0.00     0.000 HD 
HETATM    4  H2  UNL     1     -12.427  10.494  69.461  1.00  0.00     0.000 HD 
ENDROOT
BRANCH   2   5
HETATM    5  C   UNL     1     -11.081  11.799  66.639  1.00  0.00    -0.364 C  
BRANCH   5   6
HETATM    6  C   UNL     1     -11.189  13.090  65.858  1.00  0.00    -0.315 A  
HETATM    7  F   UNL     1     -13.092  12.289  64.686  1.00  0.00    -0.543 F  
HETATM    8  C   UNL     1     -12.214  13.275  64.922  1.00  0.00    -0.420 A  
HETATM    9  C   UNL     1     -12.351  14.468  64.221  1.00  0.00    -0.396 A  
HETATM   10  C   UNL     1     -10.269  14.132  66.062  1.00  0.00    -0.318 A  
HETATM   11  C   UNL     1     -10.412  15.329  65.369  1.00  0.00    -0.398 A  
HETATM   12  F   UNL     1     -11.583  16.653  63.797  1.00  0.00    -0.141 F  
HETATM   13  C   UNL     1     -11.448  15.496  64.457  1.00  0.00    -0.308 A  
HETATM   14  F   UNL     1      -9.541  16.325  65.591  1.00  0.00    -0.333 F  
ENDBRANCH   5   6
ENDBRANCH   2   5
BRANCH   2  15
HETATM   15  C   UNL     1     -10.912  12.613  69.069  1.00  0.00    -0.240 C  
BRANCH  15  16
HETATM   16  C   UNL     1     -11.495  13.937  69.548  1.00  0.00    -0.274 C  
HETATM   17  N   UNL     1      -9.268  17.250  68.648  1.00  0.00    -0.271 NA 
HETATM   18  C   UNL     1     -11.088  16.324  70.029  1.00  0.00    -0.348 C  
HETATM   19  N   UNL     1     -10.616  15.015  69.567  1.00  0.00    -0.255 N  
HETATM   20  C   UNL     1      -8.579  16.077  68.806  1.00  0.00    -0.223 A  
HETATM   21  O   UNL     1     -12.675  14.053  69.868  1.00  0.00    -0.241 OA 
HETATM   22  C   UNL     1      -9.161  14.874  69.450  1.00  0.00    -0.041 C  
HETATM   23  C   UNL     1     -10.638  17.439  69.080  1.00  0.00    -0.207 C  
HETATM   24  N   UNL     1      -7.382  16.208  68.289  1.00  0.00    -0.136 NA 
HETATM   25  N   UNL     1      -7.296  17.466  67.748  1.00  0.00    -0.174 NA 
HETATM   26  C   UNL     1      -8.446  18.090  67.944  1.00  0.00    -0.252 A  
HETATM   27  C   UNL     1      -8.805  19.452  67.474  1.00  0.00    -0.304 C  
HETATM   28  F   UNL     1     -10.064  19.815  67.843  1.00  0.00    -0.434 F  
HETATM   29  F   UNL     1      -7.974  20.401  67.971  1.00  0.00    -0.314 F  
HETATM   30  F   UNL     1      -8.766  19.552  66.120  1.00  0.00    -0.328 F  
ENDBRANCH  15  16
ENDBRANCH   2  15
TORSDOF 4
ENDMDL
MODEL       26
REMARK 921   NORMALIZED FREE ENERGY PREDICTED BY IDOCK:   -7.05 KCAL/MOL
REMARK 922        TOTAL FREE ENERGY PREDICTED BY IDOCK:   -9.76 KCAL/MOL
REMARK 923 INTER-LIGAND FREE ENERGY PREDICTED BY IDOCK:   -9.35 KCAL/MOL
REMARK 924 INTRA-LIGAND FREE ENERGY PREDICTED BY IDOCK:   -0.42 KCAL/MOL
REMARK 927      BINDING AFFINITY PREDICTED BY RF-SCORE:    0.00 PKD
ROOT
HETATM    1  N   UNL     1     -12.016  10.593  68.330  1.00  0.00    -0.811 NA 
HETATM    2  C   UNL     1     -11.450  11.565  69.291  1.00  0.00    -0.305 C  
HETATM    3  H1  UNL     1     -11.846   9.654  68.691  1.00  0.00     0.000 HD 
HETATM    4  H2  UNL     1     -11.660  10.722  67.384  1.00  0.00     0.000 HD 
ENDROOT
BRANCH   2   5
HETATM    5  C   UNL     1     -12.065  11.332  70.692  1.00  0.00    -0.480 C  
BRANCH   5   6
HETATM    6  C   UNL     1     -12.042   9.882  71.121  1.00  0.00    -0.466 A  
HETATM    7  F   UNL     1      -9.671   9.830  71.017  1.00  0.00    -0.300 F  
HETATM    8  C   UNL     1     -10.827   9.204  71.280  1.00  0.00    -0.332 A  
HETATM    9  C   UNL     1     -10.785   7.881  71.707  1.00  0.00    -0.281 A  
HETATM   10  C   UNL     1     -13.237   9.190  71.376  1.00  0.00    -0.359 A  
HETATM   11  C   UNL     1     -13.195   7.870  71.815  1.00  0.00    -0.329 A  
HETATM   12  F   UNL     1     -11.942   5.954  72.408  1.00  0.00    -0.349 F  
HETATM   13  C   UNL     1     -11.976   7.222  71.982  1.00  0.00    -0.296 A  
HETATM   14  F   UNL     1     -14.342   7.228  72.079  1.00  0.00    -0.445 F  
ENDBRANCH   5   6
ENDBRANCH   2   5
BRANCH   2  15
HETATM   15  C   UNL     1     -11.706  12.975  68.750  1.00  0.00    -0.363 C  
BRANCH  15  16
HETATM   16  C   UNL     1     -11.077  13.272  67.395  1.00  0.00    -0.278 C  
HETATM   17  N   UNL     1      -9.441  17.004  67.014  1.00  0.00    -0.243 NA 
HETATM   18  C   UNL     1     -10.243  14.993  65.834  1.00  0.00    -0.315 C  
HETATM   19  N   UNL     1     -10.832  14.614  67.122  1.00  0.00    -0.296 N  
HETATM   20  C   UNL     1     -10.489  16.884  67.887  1.00  0.00    -0.344 A  
HETATM   21  O   UNL     1     -10.776  12.382  66.605  1.00  0.00    -0.229 OA 
HETATM   22  C   UNL     1     -11.402  15.716  67.904  1.00  0.00    -0.302 C  
HETATM   23  C   UNL     1      -9.105  16.001  66.023  1.00  0.00    -0.326 C  
HETATM   24  N   UNL     1     -10.514  17.931  68.675  1.00  0.00    -0.322 NA 
HETATM   25  N   UNL     1      -9.448  18.729  68.345  1.00  0.00    -0.333 NA 
HETATM   26  C   UNL     1      -8.783  18.156  67.355  1.00  0.00    -0.245 A  
HETATM   27  C   UNL     1      -7.533  18.652  66.725  1.00  0.00    -0.225 C  
HETATM   28  F   UNL     1      -7.097  17.841  65.722  1.00  0.00    -0.307 F  
HETATM   29  F   UNL     1      -7.688  19.884  66.179  1.00  0.00    -0.273 F  
HETATM   30  F   UNL     1      -6.510  18.733  67.614  1.00  0.00    -0.196 F  
ENDBRANCH  15  16
ENDBRANCH   2  15
TORSDOF 4
ENDMDL
MODEL       27
REMARK 921   NORMALIZED FREE ENERGY PREDICTED BY IDOCK:   -7.03 KCAL/MOL
REMARK 922        TOTAL FREE ENERGY PREDICTED BY IDOCK:   -9.74 KCAL/MOL
REMARK 923 INTER-LIGAND FREE ENERGY PREDICTED BY IDOCK:   -8.82 KCAL/MOL
REMARK 924 INTRA-LIGAND FREE ENERGY PREDICTED BY IDOCK:   -0.92 KCAL/MOL
REMARK 927      BINDING AFFINITY PREDICTED BY RF-SCORE:    0.00 PKD
ROOT
HETATM    1  N   UNL     1      -9.659  15.157  69.932  1.00  0.00    -0.474 NA 
HETATM    2  C   UNL     1     -10.458  15.822  68.881  1.00  0.00    -0.223 C  
HETATM    3  H1  UNL     1      -8.745  15.610  69.972  1.00  0.00     0.000 HD 
HETATM    4  H2  UNL     1      -9.592  14.148  69.796  1.00  0.00     0.000 HD 
ENDROOT
BRANCH   2   5
HETATM    5  C   UNL     1     -10.547  17.340  69.175  1.00  0.00    -0.209 C  
BRANCH   5   6
HETATM    6  C   UNL     1      -9.836  18.189  68.144  1.00  0.00    -0.350 A  
HETATM    7  F   UNL     1      -7.726  17.712  69.124  1.00  0.00    -0.245 F  
HETATM    8  C   UNL     1      -8.441  18.317  68.164  1.00  0.00    -0.278 A  
HETATM    9  C   UNL     1      -7.767  19.064  67.204  1.00  0.00    -0.249 A  
HETATM   10  C   UNL     1     -10.558  18.858  67.143  1.00  0.00    -0.531 A  
HETATM   11  C   UNL     1      -9.883  19.596  66.176  1.00  0.00    -0.436 A  
HETATM   12  F   UNL     1      -7.854  20.404  65.269  1.00  0.00    -0.225 F  
HETATM   13  C   UNL     1      -8.497  19.695  66.205  1.00  0.00    -0.360 A  
HETATM   14  F   UNL     1     -10.584  20.210  65.211  1.00  0.00    -0.520 F  
ENDBRANCH   5   6
ENDBRANCH   2   5
BRANCH   2  15
HETATM   15  C   UNL     1     -11.829  15.142  68.820  1.00  0.00    -0.329 C  
BRANCH  15  16
HETATM   16  C   UNL     1     -11.802  13.622  68.913  1.00  0.00    -0.364 C  
HETATM   17  N   UNL     1     -10.713  11.687  65.475  1.00  0.00    -0.276 NA 
HETATM   18  C   UNL     1     -11.768  11.475  67.694  1.00  0.00    -0.208 C  
HETATM   19  N   UNL     1     -11.779  12.942  67.700  1.00  0.00    -0.360 N  
HETATM   20  C   UNL     1     -11.326  12.902  65.322  1.00  0.00    -0.300 A  
HETATM   21  O   UNL     1     -11.771  13.033  69.990  1.00  0.00    -0.289 OA 
HETATM   22  C   UNL     1     -12.075  13.576  66.411  1.00  0.00    -0.417 C  
HETATM   23  C   UNL     1     -10.721  10.936  66.714  1.00  0.00    -0.252 C  
HETATM   24  N   UNL     1     -11.116  13.340  64.105  1.00  0.00    -0.383 NA 
HETATM   25  N   UNL     1     -10.323  12.424  63.463  1.00  0.00    -0.410 NA 
HETATM   26  C   UNL     1     -10.058  11.434  64.299  1.00  0.00    -0.297 A  
HETATM   27  C   UNL     1      -9.191  10.258  64.032  1.00  0.00    -0.271 C  
HETATM   28  F   UNL     1      -9.126   9.408  65.093  1.00  0.00    -0.208 F  
HETATM   29  F   UNL     1      -9.635   9.522  62.983  1.00  0.00    -0.209 F  
HETATM   30  F   UNL     1      -7.911  10.618  63.759  1.00  0.00    -0.146 F  
ENDBRANCH  15  16
ENDBRANCH   2  15
TORSDOF 4
ENDMDL
MODEL       28
REMARK 921   NORMALIZED FREE ENERGY PREDICTED BY IDOCK:   -7.01 KCAL/MOL
REMARK 922        TOTAL FREE ENERGY PREDICTED BY IDOCK:   -9.71 KCAL/MOL
REMARK 923 INTER-LIGAND FREE ENERGY PREDICTED BY IDOCK:   -9.18 KCAL/MOL
REMARK 924 INTRA-LIGAND FREE ENERGY PREDICTED BY IDOCK:   -0.53 KCAL/MOL
REMARK 927      BINDING AFFINITY PREDICTED BY RF-SCORE:    0.00 PKD
ROOT
HETATM    1  N   UNL     1      -8.629  11.156  65.454  1.00  0.00    -0.367 NA 
HETATM    2  C   UNL     1      -9.650  11.534  66.455  1.00  0.00    -0.205 C  
HETATM    3  H1  UNL     1      -8.098  10.367  65.823  1.00  0.00     0.000 HD 
HETATM    4  H2  UNL     1      -8.035  11.940  65.183  1.00  0.00     0.000 HD 
ENDROOT
BRANCH   2   5
HETATM    5  C   UNL     1     -10.535  10.308  66.787  1.00  0.00    -0.279 C  
BRANCH   5   6
HETATM    6  C   UNL     1     -10.584   9.990  68.265  1.00  0.00    -0.264 A  
HETATM    7  F   UNL     1      -8.876   8.358  68.028  1.00  0.00    -0.137 F  
HETATM    8  C   UNL     1      -9.727   9.030  68.817  1.00  0.00    -0.159 A  
HETATM    9  C   UNL     1      -9.732   8.749  70.179  1.00  0.00    -0.188 A  
HETATM   10  C   UNL     1     -11.483  10.657  69.114  1.00  0.00    -0.349 A  
HETATM   11  C   UNL     1     -11.480  10.385  70.478  1.00  0.00    -0.345 A  
HETATM   12  F   UNL     1     -10.609   9.185  72.321  1.00  0.00    -0.393 F  
HETATM   13  C   UNL     1     -10.608   9.439  71.006  1.00  0.00    -0.330 A  
HETATM   14  F   UNL     1     -12.327  11.046  71.281  1.00  0.00    -0.420 F  
ENDBRANCH   5   6
ENDBRANCH   2   5
BRANCH   2  15
HETATM   15  C   UNL     1     -10.448  12.718  65.902  1.00  0.00    -0.295 C  
BRANCH  15  16
HETATM   16  C   UNL     1     -11.076  13.624  66.953  1.00  0.00    -0.304 C  
HETATM   17  N   UNL     1      -9.678  17.470  67.000  1.00  0.00    -0.274 NA 
HETATM   18  C   UNL     1     -10.917  15.730  68.231  1.00  0.00    -0.325 C  
HETATM   19  N   UNL     1     -10.393  14.805  67.221  1.00  0.00    -0.246 N  
HETATM   20  C   UNL     1      -8.805  16.509  66.562  1.00  0.00    -0.282 A  
HETATM   21  O   UNL     1     -12.136  13.345  67.508  1.00  0.00    -0.347 OA 
HETATM   22  C   UNL     1      -9.015  15.058  66.789  1.00  0.00    -0.265 C  
HETATM   23  C   UNL     1     -10.901  17.174  67.719  1.00  0.00    -0.270 C  
HETATM   24  N   UNL     1      -7.818  17.085  65.922  1.00  0.00    -0.404 NA 
HETATM   25  N   UNL     1      -8.063  18.434  65.901  1.00  0.00    -0.511 NA 
HETATM   26  C   UNL     1      -9.202  18.667  66.533  1.00  0.00    -0.320 A  
HETATM   27  C   UNL     1      -9.870  19.982  66.700  1.00  0.00    -0.450 C  
HETATM   28  F   UNL     1     -11.028  19.893  67.409  1.00  0.00    -0.515 F  
HETATM   29  F   UNL     1      -9.088  20.873  67.359  1.00  0.00    -0.478 F  
HETATM   30  F   UNL     1     -10.200  20.543  65.508  1.00  0.00    -0.461 F  
ENDBRANCH  15  16
ENDBRANCH   2  15
TORSDOF 4
ENDMDL
MODEL       29
REMARK 921   NORMALIZED FREE ENERGY PREDICTED BY IDOCK:   -7.01 KCAL/MOL
REMARK 922        TOTAL FREE ENERGY PREDICTED BY IDOCK:   -9.71 KCAL/MOL
REMARK 923 INTER-LIGAND FREE ENERGY PREDICTED BY IDOCK:   -9.32 KCAL/MOL
REMARK 924 INTRA-LIGAND FREE ENERGY PREDICTED BY IDOCK:   -0.39 KCAL/MOL
REMARK 927      BINDING AFFINITY PREDICTED BY RF-SCORE:    0.00 PKD
ROOT
HETATM    1  N   UNL     1      -8.359  10.617  68.704  1.00  0.00    -0.129 NA 
HETATM    2  C   UNL     1      -9.564  11.245  68.119  1.00  0.00    -0.186 C  
HETATM    3  H1  UNL     1      -8.579   9.643  68.915  1.00  0.00     0.000 HD 
HETATM    4  H2  UNL     1      -8.004  11.126  69.514  1.00  0.00     0.000 HD 
ENDROOT
BRANCH   2   5
HETATM    5  C   UNL     1     -10.020  10.442  66.877  1.00  0.00    -0.254 C  
BRANCH   5   6
HETATM    6  C   UNL     1     -10.648  11.307  65.806  1.00  0.00    -0.306 A  
HETATM    7  F   UNL     1      -9.126  10.491  64.176  1.00  0.00    -0.181 F  
HETATM    8  C   UNL     1     -10.172  11.271  64.489  1.00  0.00    -0.314 A  
HETATM    9  C   UNL     1     -10.759  12.031  63.483  1.00  0.00    -0.513 A  
HETATM   10  C   UNL     1     -11.727  12.154  66.108  1.00  0.00    -0.384 A  
HETATM   11  C   UNL     1     -12.321  12.906  65.100  1.00  0.00    -0.493 A  
HETATM   12  F   UNL     1     -12.422  13.565  62.830  1.00  0.00    -0.521 F  
HETATM   13  C   UNL     1     -11.842  12.842  63.796  1.00  0.00    -0.499 A  
HETATM   14  F   UNL     1     -13.366  13.693  65.397  1.00  0.00    -0.430 F  
ENDBRANCH   5   6
ENDBRANCH   2   5
BRANCH   2  15
HETATM   15  C   UNL     1      -9.236  12.706  67.802  1.00  0.00    -0.195 C  
BRANCH  15  16
HETATM   16  C   UNL     1      -9.976  13.735  68.647  1.00  0.00    -0.174 C  
HETATM   17  N   UNL     1      -9.599  17.614  67.399  1.00  0.00    -0.262 NA 
HETATM   18  C   UNL     1     -10.243  16.115  69.247  1.00  0.00    -0.257 C  
HETATM   19  N   UNL     1      -9.594  15.059  68.463  1.00  0.00    -0.203 N  
HETATM   20  C   UNL     1      -8.554  16.777  67.111  1.00  0.00    -0.196 A  
HETATM   21  O   UNL     1     -10.878  13.419  69.419  1.00  0.00    -0.113 OA 
HETATM   22  C   UNL     1      -8.368  15.457  67.763  1.00  0.00    -0.147 C  
HETATM   23  C   UNL     1     -10.638  17.298  68.358  1.00  0.00    -0.368 C  
HETATM   24  N   UNL     1      -7.805  17.325  66.187  1.00  0.00    -0.444 NA 
HETATM   25  N   UNL     1      -8.385  18.516  65.831  1.00  0.00    -0.475 NA 
HETATM   26  C   UNL     1      -9.485  18.682  66.547  1.00  0.00    -0.322 A  
HETATM   27  C   UNL     1     -10.446  19.809  66.447  1.00  0.00    -0.507 C  
HETATM   28  F   UNL     1     -11.477  19.695  67.329  1.00  0.00    -0.448 F  
HETATM   29  F   UNL     1      -9.860  21.006  66.699  1.00  0.00    -0.413 F  
HETATM   30  F   UNL     1     -11.012  19.890  65.216  1.00  0.00    -0.583 F  
ENDBRANCH  15  16
ENDBRANCH   2  15
TORSDOF 4
ENDMDL
MODEL       30
REMARK 921   NORMALIZED FREE ENERGY PREDICTED BY IDOCK:   -7.00 KCAL/MOL
REMARK 922        TOTAL FREE ENERGY PREDICTED BY IDOCK:   -9.71 KCAL/MOL
REMARK 923 INTER-LIGAND FREE ENERGY PREDICTED BY IDOCK:   -9.43 KCAL/MOL
REMARK 924 INTRA-LIGAND FREE ENERGY PREDICTED BY IDOCK:   -0.28 KCAL/MOL
REMARK 927      BINDING AFFINITY PREDICTED BY RF-SCORE:    0.00 PKD
ROOT
HETATM    1  N   UNL     1     -12.636  14.669  64.919  1.00  0.00    -0.467 NA 
HETATM    2  C   UNL     1     -11.440  14.888  65.762  1.00  0.00    -0.281 C  
HETATM    3  H1  UNL     1     -13.149  15.549  64.860  1.00  0.00     0.000 HD 
HETATM    4  H2  UNL     1     -13.215  13.897  65.250  1.00  0.00     0.000 HD 
ENDROOT
BRANCH   2   5
HETATM    5  C   UNL     1     -10.595  16.046  65.178  1.00  0.00    -0.394 C  
BRANCH   5   6
HETATM    6  C   UNL     1      -9.980  16.930  66.240  1.00  0.00    -0.324 A  
HETATM    7  F   UNL     1     -11.036  18.852  65.331  1.00  0.00    -0.492 F  
HETATM    8  C   UNL     1     -10.252  18.303  66.270  1.00  0.00    -0.401 A  
HETATM    9  C   UNL     1      -9.725  19.126  67.260  1.00  0.00    -0.386 A  
HETATM   10  C   UNL     1      -9.133  16.390  67.221  1.00  0.00    -0.211 A  
HETATM   11  C   UNL     1      -8.615  17.211  68.218  1.00  0.00    -0.241 A  
HETATM   12  F   UNL     1      -8.413  19.352  69.202  1.00  0.00    -0.386 F  
HETATM   13  C   UNL     1      -8.912  18.569  68.238  1.00  0.00    -0.310 A  
HETATM   14  F   UNL     1      -7.826  16.679  69.163  1.00  0.00    -0.227 F  
ENDBRANCH   5   6
ENDBRANCH   2   5
BRANCH   2  15
HETATM   15  C   UNL     1     -10.670  13.568  65.850  1.00  0.00    -0.279 C  
BRANCH  15  16
HETATM   16  C   UNL     1     -11.246  12.546  66.822  1.00  0.00    -0.296 C  
HETATM   17  N   UNL     1     -11.871  13.918  70.626  1.00  0.00    -0.267 NA 
HETATM   18  C   UNL     1     -11.659  11.934  69.178  1.00  0.00    -0.312 C  
HETATM   19  N   UNL     1     -11.144  12.868  68.171  1.00  0.00    -0.239 N  
HETATM   20  C   UNL     1     -10.861  14.516  69.921  1.00  0.00    -0.048 A  
HETATM   21  O   UNL     1     -11.794  11.516  66.438  1.00  0.00    -0.397 OA 
HETATM   22  C   UNL     1     -10.281  13.937  68.684  1.00  0.00    -0.218 C  
HETATM   23  C   UNL     1     -12.489  12.667  70.236  1.00  0.00    -0.090 C  
HETATM   24  N   UNL     1     -10.538  15.644  70.504  1.00  0.00    -0.278 NA 
HETATM   25  N   UNL     1     -11.372  15.812  71.580  1.00  0.00    -0.381 NA 
HETATM   26  C   UNL     1     -12.196  14.779  71.641  1.00  0.00    -0.349 A  
HETATM   27  C   UNL     1     -13.296  14.581  72.619  1.00  0.00    -0.495 C  
HETATM   28  F   UNL     1     -13.960  13.409  72.425  1.00  0.00    -0.561 F  
HETATM   29  F   UNL     1     -12.845  14.555  73.898  1.00  0.00    -0.537 F  
HETATM   30  F   UNL     1     -14.232  15.561  72.542  1.00  0.00    -0.560 F  
ENDBRANCH  15  16
ENDBRANCH   2  15
TORSDOF 4
ENDMDL
MODEL       31
REMARK 921   NORMALIZED FREE ENERGY PREDICTED BY IDOCK:   -6.98 KCAL/MOL
REMARK 922        TOTAL FREE ENERGY PREDICTED BY IDOCK:   -9.68 KCAL/MOL
REMARK 923 INTER-LIGAND FREE ENERGY PREDICTED BY IDOCK:   -9.16 KCAL/MOL
REMARK 924 INTRA-LIGAND FREE ENERGY PREDICTED BY IDOCK:   -0.52 KCAL/MOL
REMARK 927      BINDING AFFINITY PREDICTED BY RF-SCORE:    0.00 PKD
ROOT
HETATM    1  N   UNL     1     -12.381  14.243  67.046  1.00  0.00    -0.580 NA 
HETATM    2  C   UNL     1     -11.432  15.038  67.855  1.00  0.00    -0.340 C  
HETATM    3  H1  UNL     1     -12.764  14.848  66.319  1.00  0.00     0.000 HD 
HETATM    4  H2  UNL     1     -13.105  13.800  67.612  1.00  0.00     0.000 HD 
ENDROOT
BRANCH   2   5
HETATM    5  C   UNL     1     -10.345  15.646  66.937  1.00  0.00    -0.293 C  
BRANCH   5   6
HETATM    6  C   UNL     1     -10.208  17.145  67.086  1.00  0.00    -0.316 A  
HETATM    7  F   UNL     1      -9.233  16.900  69.237  1.00  0.00    -0.242 F  
HETATM    8  C   UNL     1      -9.635  17.699  68.237  1.00  0.00    -0.306 A  
HETATM    9  C   UNL     1      -9.467  19.072  68.377  1.00  0.00    -0.417 A  
HETATM   10  C   UNL     1     -10.643  18.011  66.068  1.00  0.00    -0.258 A  
HETATM   11  C   UNL     1     -10.465  19.384  66.203  1.00  0.00    -0.508 A  
HETATM   12  F   UNL     1      -9.707  21.232  67.469  1.00  0.00    -0.588 F  
HETATM   13  C   UNL     1      -9.878  19.910  67.348  1.00  0.00    -0.409 A  
HETATM   14  F   UNL     1     -10.864  20.197  65.214  1.00  0.00    -0.543 F  
ENDBRANCH   5   6
ENDBRANCH   2   5
BRANCH   2  15
HETATM   15  C   UNL     1     -10.857  14.131  68.946  1.00  0.00    -0.276 C  
BRANCH  15  16
HETATM   16  C   UNL     1     -11.878  13.576  69.931  1.00  0.00    -0.316 C  
HETATM   17  N   UNL     1     -11.577   9.562  70.676  1.00  0.00    -0.277 NA 
HETATM   18  C   UNL     1     -12.995  11.572  70.844  1.00  0.00    -0.088 C  
HETATM   19  N   UNL     1     -12.024  12.192  69.938  1.00  0.00    -0.325 N  
HETATM   20  C   UNL     1     -11.157   9.987  69.443  1.00  0.00    -0.223 A  
HETATM   21  O   UNL     1     -12.510  14.300  70.695  1.00  0.00    -0.317 OA 
HETATM   22  C   UNL     1     -11.496  11.319  68.885  1.00  0.00    -0.297 C  
HETATM   23  C   UNL     1     -12.384  10.369  71.569  1.00  0.00    -0.368 C  
HETATM   24  N   UNL     1     -10.423   9.051  68.893  1.00  0.00    -0.219 NA 
HETATM   25  N   UNL     1     -10.323   8.018  69.789  1.00  0.00    -0.215 NA 
HETATM   26  C   UNL     1     -11.002   8.336  70.879  1.00  0.00    -0.246 A  
HETATM   27  C   UNL     1     -11.115   7.527  72.119  1.00  0.00    -0.256 C  
HETATM   28  F   UNL     1     -11.894   8.124  73.062  1.00  0.00    -0.450 F  
HETATM   29  F   UNL     1     -11.665   6.309  71.887  1.00  0.00    -0.319 F  
HETATM   30  F   UNL     1      -9.909   7.318  72.706  1.00  0.00    -0.171 F  
ENDBRANCH  15  16
ENDBRANCH   2  15
TORSDOF 4
ENDMDL
MODEL       32
REMARK 921   NORMALIZED FREE ENERGY PREDICTED BY IDOCK:   -6.90 KCAL/MOL
REMARK 922        TOTAL FREE ENERGY PREDICTED BY IDOCK:   -9.58 KCAL/MOL
REMARK 923 INTER-LIGAND FREE ENERGY PREDICTED BY IDOCK:   -8.72 KCAL/MOL
REMARK 924 INTRA-LIGAND FREE ENERGY PREDICTED BY IDOCK:   -0.86 KCAL/MOL
REMARK 927      BINDING AFFINITY PREDICTED BY RF-SCORE:    0.00 PKD
ROOT
HETATM    1  N   UNL     1     -12.182  10.781  68.936  1.00  0.00    -0.795 NA 
HETATM    2  C   UNL     1     -11.654  11.319  67.663  1.00  0.00    -0.210 C  
HETATM    3  H1  UNL     1     -11.936   9.793  68.990  1.00  0.00     0.000 HD 
HETATM    4  H2  UNL     1     -13.183  10.945  69.046  1.00  0.00     0.000 HD 
ENDROOT
BRANCH   2   5
HETATM    5  C   UNL     1     -10.128  11.068  67.584  1.00  0.00    -0.208 C  
BRANCH   5   6
HETATM    6  C   UNL     1      -9.680  10.531  66.242  1.00  0.00    -0.254 A  
HETATM    7  F   UNL     1      -8.647   8.658  67.272  1.00  0.00    -0.120 F  
HETATM    8  C   UNL     1      -8.969   9.329  66.156  1.00  0.00    -0.165 A  
HETATM    9  C   UNL     1      -8.580   8.801  64.929  1.00  0.00    -0.177 A  
HETATM   10  C   UNL     1      -9.978  11.224  65.057  1.00  0.00    -0.323 A  
HETATM   11  C   UNL     1      -9.599  10.691  63.829  1.00  0.00    -0.306 A  
HETATM   12  F   UNL     1      -8.550   8.978  62.581  1.00  0.00    -0.180 F  
HETATM   13  C   UNL     1      -8.908   9.486  63.766  1.00  0.00    -0.210 A  
HETATM   14  F   UNL     1      -9.910  11.350  62.703  1.00  0.00    -0.305 F  
ENDBRANCH   5   6
ENDBRANCH   2   5
BRANCH   2  15
HETATM   15  C   UNL     1     -12.022  12.803  67.581  1.00  0.00    -0.331 C  
BRANCH  15  16
HETATM   16  C   UNL     1     -11.582  13.646  68.771  1.00  0.00    -0.324 C  
HETATM   17  N   UNL     1      -9.738  17.174  67.820  1.00  0.00    -0.265 NA 
HETATM   18  C   UNL     1     -10.174  15.505  69.582  1.00  0.00    -0.286 C  
HETATM   19  N   UNL     1     -10.665  14.654  68.493  1.00  0.00    -0.240 N  
HETATM   20  C   UNL     1      -9.606  16.154  66.916  1.00  0.00    -0.230 A  
HETATM   21  O   UNL     1     -12.032  13.468  69.900  1.00  0.00    -0.316 OA 
HETATM   22  C   UNL     1      -9.911  14.738  67.238  1.00  0.00    -0.231 C  
HETATM   23  C   UNL     1     -10.199  16.983  69.181  1.00  0.00    -0.288 C  
HETATM   24  N   UNL     1      -9.202  16.645  65.770  1.00  0.00    -0.503 NA 
HETATM   25  N   UNL     1      -9.107  18.006  65.908  1.00  0.00    -0.492 NA 
HETATM   26  C   UNL     1      -9.455  18.330  67.143  1.00  0.00    -0.268 A  
HETATM   27  C   UNL     1      -9.545  19.701  67.706  1.00  0.00    -0.354 C  
HETATM   28  F   UNL     1      -9.922  19.704  69.014  1.00  0.00    -0.463 F  
HETATM   29  F   UNL     1      -8.358  20.356  67.652  1.00  0.00    -0.343 F  
HETATM   30  F   UNL     1     -10.455  20.465  67.050  1.00  0.00    -0.531 F  
ENDBRANCH  15  16
ENDBRANCH   2  15
TORSDOF 4
ENDMDL
MODEL       33
REMARK 921   NORMALIZED FREE ENERGY PREDICTED BY IDOCK:   -6.89 KCAL/MOL
REMARK 922        TOTAL FREE ENERGY PREDICTED BY IDOCK:   -9.56 KCAL/MOL
REMARK 923 INTER-LIGAND FREE ENERGY PREDICTED BY IDOCK:   -8.73 KCAL/MOL
REMARK 924 INTRA-LIGAND FREE ENERGY PREDICTED BY IDOCK:   -0.83 KCAL/MOL
REMARK 927      BINDING AFFINITY PREDICTED BY RF-SCORE:    0.00 PKD
ROOT
HETATM    1  N   UNL     1     -10.617  11.054  63.105  1.00  0.00    -0.778 NA 
HETATM    2  C   UNL     1     -11.049  11.691  64.368  1.00  0.00    -0.317 C  
HETATM    3  H1  UNL     1     -11.416  11.031  62.471  1.00  0.00     0.000 HD 
HETATM    4  H2  UNL     1     -10.203  10.133  63.251  1.00  0.00     0.000 HD 
ENDROOT
BRANCH   2   5
HETATM    5  C   UNL     1     -11.630  13.095  64.072  1.00  0.00    -0.481 C  
BRANCH   5   6
HETATM    6  C   UNL     1     -11.386  14.089  65.187  1.00  0.00    -0.328 A  
HETATM    7  F   UNL     1     -12.759  12.847  66.673  1.00  0.00    -0.155 F  
HETATM    8  C   UNL     1     -11.958  13.899  66.451  1.00  0.00    -0.438 A  
HETATM    9  C   UNL     1     -11.715  14.782  67.497  1.00  0.00    -0.370 A  
HETATM   10  C   UNL     1     -10.573  15.216  64.978  1.00  0.00    -0.439 A  
HETATM   11  C   UNL     1     -10.322  16.093  66.028  1.00  0.00    -0.358 A  
HETATM   12  F   UNL     1     -10.637  16.721  68.286  1.00  0.00    -0.283 F  
HETATM   13  C   UNL     1     -10.887  15.875  67.279  1.00  0.00    -0.279 A  
HETATM   14  F   UNL     1      -9.525  17.152  65.822  1.00  0.00    -0.232 F  
ENDBRANCH   5   6
ENDBRANCH   2   5
BRANCH   2  15
HETATM   15  C   UNL     1      -9.851  11.726  65.321  1.00  0.00    -0.267 C  
BRANCH  15  16
HETATM   16  C   UNL     1      -9.556  10.415  66.038  1.00  0.00    -0.201 C  
HETATM   17  N   UNL     1     -11.305  10.009  69.716  1.00  0.00    -0.245 NA 
HETATM   18  C   UNL     1      -9.571   9.176  68.174  1.00  0.00    -0.144 C  
HETATM   19  N   UNL     1      -9.839  10.392  67.400  1.00  0.00    -0.174 N  
HETATM   20  C   UNL     1     -11.018  11.287  69.315  1.00  0.00    -0.243 A  
HETATM   21  O   UNL     1      -9.125   9.429  65.447  1.00  0.00    -0.197 OA 
HETATM   22  C   UNL     1     -10.101  11.599  68.192  1.00  0.00    -0.196 C  
HETATM   23  C   UNL     1     -10.755   8.829  69.082  1.00  0.00    -0.131 C  
HETATM   24  N   UNL     1     -11.689  12.132  70.059  1.00  0.00    -0.291 NA 
HETATM   25  N   UNL     1     -12.457  11.404  70.931  1.00  0.00    -0.390 NA 
HETATM   26  C   UNL     1     -12.244  10.117  70.709  1.00  0.00    -0.338 A  
HETATM   27  C   UNL     1     -12.908   8.978  71.391  1.00  0.00    -0.300 C  
HETATM   28  F   UNL     1     -12.465   7.772  70.944  1.00  0.00    -0.297 F  
HETATM   29  F   UNL     1     -12.695   8.989  72.731  1.00  0.00    -0.445 F  
HETATM   30  F   UNL     1     -14.252   8.980  71.198  1.00  0.00    -0.420 F  
ENDBRANCH  15  16
ENDBRANCH   2  15
TORSDOF 4
ENDMDL
MODEL       34
REMARK 921   NORMALIZED FREE ENERGY PREDICTED BY IDOCK:   -6.89 KCAL/MOL
REMARK 922        TOTAL FREE ENERGY PREDICTED BY IDOCK:   -9.56 KCAL/MOL
REMARK 923 INTER-LIGAND FREE ENERGY PREDICTED BY IDOCK:   -8.51 KCAL/MOL
REMARK 924 INTRA-LIGAND FREE ENERGY PREDICTED BY IDOCK:   -1.06 KCAL/MOL
REMARK 927      BINDING AFFINITY PREDICTED BY RF-SCORE:    0.00 PKD
ROOT
HETATM    1  N   UNL     1     -13.851   8.859  72.979  1.00  0.00    -1.107 NA 
HETATM    2  C   UNL     1     -12.612   9.332  72.323  1.00  0.00    -0.332 C  
HETATM    3  H1  UNL     1     -14.478   9.657  73.087  1.00  0.00     0.000 HD 
HETATM    4  H2  UNL     1     -13.670   8.378  73.860  1.00  0.00     0.000 HD 
ENDROOT
BRANCH   2   5
HETATM    5  C   UNL     1     -12.962  10.015  70.979  1.00  0.00    -0.445 C  
BRANCH   5   6
HETATM    6  C   UNL     1     -12.755  11.514  71.001  1.00  0.00    -0.426 A  
HETATM    7  F   UNL     1     -11.425  11.416  69.037  1.00  0.00    -0.236 F  
HETATM    8  C   UNL     1     -12.002  12.145  70.004  1.00  0.00    -0.315 A  
HETATM    9  C   UNL     1     -11.831  13.525  69.986  1.00  0.00    -0.371 A  
HETATM   10  C   UNL     1     -13.323  12.302  72.015  1.00  0.00    -0.491 A  
HETATM   11  C   UNL     1     -13.162  13.684  71.992  1.00  0.00    -0.434 A  
HETATM   12  F   UNL     1     -12.276  15.621  70.964  1.00  0.00    -0.313 F  
HETATM   13  C   UNL     1     -12.423  14.291  70.982  1.00  0.00    -0.362 A  
HETATM   14  F   UNL     1     -13.729  14.427  72.953  1.00  0.00    -0.526 F  
ENDBRANCH   5   6
ENDBRANCH   2   5
BRANCH   2  15
HETATM   15  C   UNL     1     -11.671   8.135  72.160  1.00  0.00    -0.418 C  
BRANCH  15  16
HETATM   16  C   UNL     1     -10.198   8.487  71.999  1.00  0.00    -0.321 C  
HETATM   17  N   UNL     1      -9.030   9.391  68.182  1.00  0.00    -0.128 NA 
HETATM   18  C   UNL     1      -8.295   8.768  70.452  1.00  0.00    -0.140 C  
HETATM   19  N   UNL     1      -9.706   8.457  70.698  1.00  0.00    -0.174 N  
HETATM   20  C   UNL     1     -10.084   8.526  68.309  1.00  0.00    -0.192 A  
HETATM   21  O   UNL     1      -9.495   8.809  72.953  1.00  0.00    -0.199 OA 
HETATM   22  C   UNL     1     -10.421   7.836  69.578  1.00  0.00    -0.225 C  
HETATM   23  C   UNL     1      -8.140   9.734  69.274  1.00  0.00    -0.115 C  
HETATM   24  N   UNL     1     -10.714   8.446  67.163  1.00  0.00    -0.241 NA 
HETATM   25  N   UNL     1     -10.095   9.298  66.284  1.00  0.00    -0.276 NA 
HETATM   26  C   UNL     1      -9.089   9.889  66.907  1.00  0.00    -0.142 A  
HETATM   27  C   UNL     1      -8.186  10.926  66.346  1.00  0.00    -0.163 C  
HETATM   28  F   UNL     1      -7.240  11.331  67.237  1.00  0.00    -0.089 F  
HETATM   29  F   UNL     1      -7.514  10.481  65.254  1.00  0.00    -0.143 F  
HETATM   30  F   UNL     1      -8.859  12.045  65.976  1.00  0.00    -0.183 F  
ENDBRANCH  15  16
ENDBRANCH   2  15
TORSDOF 4
ENDMDL
MODEL       35
REMARK 921   NORMALIZED FREE ENERGY PREDICTED BY IDOCK:   -6.86 KCAL/MOL
REMARK 922        TOTAL FREE ENERGY PREDICTED BY IDOCK:   -9.54 KCAL/MOL
REMARK 923 INTER-LIGAND FREE ENERGY PREDICTED BY IDOCK:   -9.16 KCAL/MOL
REMARK 924 INTRA-LIGAND FREE ENERGY PREDICTED BY IDOCK:   -0.38 KCAL/MOL
REMARK 927      BINDING AFFINITY PREDICTED BY RF-SCORE:    0.00 PKD
ROOT
HETATM    1  N   UNL     1     -12.530  15.493  68.968  1.00  0.00    -0.567 NA 
HETATM    2  C   UNL     1     -11.088  15.169  68.896  1.00  0.00    -0.270 C  
HETATM    3  H1  UNL     1     -12.637  16.498  68.824  1.00  0.00     0.000 HD 
HETATM    4  H2  UNL     1     -12.963  15.170  69.833  1.00  0.00     0.000 HD 
ENDROOT
BRANCH   2   5
HETATM    5  C   UNL     1     -10.511  15.655  67.545  1.00  0.00    -0.285 C  
BRANCH   5   6
HETATM    6  C   UNL     1     -10.319  17.154  67.482  1.00  0.00    -0.341 A  
HETATM    7  F   UNL     1     -10.758  17.169  65.149  1.00  0.00    -0.352 F  
HETATM    8  C   UNL     1     -10.473  17.843  66.272  1.00  0.00    -0.320 A  
HETATM    9  C   UNL     1     -10.337  19.225  66.202  1.00  0.00    -0.578 A  
HETATM   10  C   UNL     1      -9.993  17.885  68.636  1.00  0.00    -0.387 A  
HETATM   11  C   UNL     1      -9.868  19.269  68.568  1.00  0.00    -0.424 A  
HETATM   12  F   UNL     1      -9.924  21.266  67.302  1.00  0.00    -0.560 F  
HETATM   13  C   UNL     1     -10.042  19.934  67.360  1.00  0.00    -0.430 A  
HETATM   14  F   UNL     1      -9.580  19.958  69.682  1.00  0.00    -0.325 F  
ENDBRANCH   5   6
ENDBRANCH   2   5
BRANCH   2  15
HETATM   15  C   UNL     1     -10.926  13.661  69.111  1.00  0.00    -0.235 C  
BRANCH  15  16
HETATM   16  C   UNL     1     -11.872  13.048  70.135  1.00  0.00    -0.252 C  
HETATM   17  N   UNL     1     -11.449   9.017  70.703  1.00  0.00    -0.263 NA 
HETATM   18  C   UNL     1     -12.892  10.988  71.036  1.00  0.00    -0.346 C  
HETATM   19  N   UNL     1     -11.991  11.663  70.097  1.00  0.00    -0.349 N  
HETATM   20  C   UNL     1     -11.115   9.497  69.464  1.00  0.00    -0.142 A  
HETATM   21  O   UNL     1     -12.469  13.729  70.964  1.00  0.00    -0.349 OA 
HETATM   22  C   UNL     1     -11.514  10.841  68.980  1.00  0.00    -0.298 C  
HETATM   23  C   UNL     1     -12.213   9.772  71.675  1.00  0.00    -0.404 C  
HETATM   24  N   UNL     1     -10.400   8.598  68.834  1.00  0.00    -0.211 NA 
HETATM   25  N   UNL     1     -10.224   7.534  69.680  1.00  0.00    -0.200 NA 
HETATM   26  C   UNL     1     -10.839   7.796  70.822  1.00  0.00    -0.239 A  
HETATM   27  C   UNL     1     -10.858   6.939  72.034  1.00  0.00    -0.225 C  
HETATM   28  F   UNL     1     -11.588   7.484  73.046  1.00  0.00    -0.337 F  
HETATM   29  F   UNL     1     -11.399   5.719  71.790  1.00  0.00    -0.315 F  
HETATM   30  F   UNL     1      -9.614   6.734  72.536  1.00  0.00    -0.153 F  
ENDBRANCH  15  16
ENDBRANCH   2  15
TORSDOF 4
ENDMDL
MODEL       36
REMARK 921   NORMALIZED FREE ENERGY PREDICTED BY IDOCK:   -6.86 KCAL/MOL
REMARK 922        TOTAL FREE ENERGY PREDICTED BY IDOCK:   -9.54 KCAL/MOL
REMARK 923 INTER-LIGAND FREE ENERGY PREDICTED BY IDOCK:   -8.75 KCAL/MOL
REMARK 924 INTRA-LIGAND FREE ENERGY PREDICTED BY IDOCK:   -0.79 KCAL/MOL
REMARK 927      BINDING AFFINITY PREDICTED BY RF-SCORE:    0.00 PKD
ROOT
HETATM    1  N   UNL     1     -13.951  15.466  70.621  1.00  0.00    -0.783 NA 
HETATM    2  C   UNL     1     -12.502  15.445  70.322  1.00  0.00    -0.374 C  
HETATM    3  H1  UNL     1     -14.388  16.172  70.027  1.00  0.00     0.000 HD 
HETATM    4  H2  UNL     1     -14.146  15.609  71.612  1.00  0.00     0.000 HD 
ENDROOT
BRANCH   2   5
HETATM    5  C   UNL     1     -12.285  15.187  68.811  1.00  0.00    -0.104 C  
BRANCH   5   6
HETATM    6  C   UNL     1     -11.191  16.043  68.211  1.00  0.00    -0.350 A  
HETATM    7  F   UNL     1     -11.197  14.753  66.218  1.00  0.00    -0.324 F  
HETATM    8  C   UNL     1     -10.711  15.787  66.921  1.00  0.00    -0.299 A  
HETATM    9  C   UNL     1      -9.733  16.585  66.338  1.00  0.00    -0.305 A  
HETATM   10  C   UNL     1     -10.643  17.117  68.932  1.00  0.00    -0.314 A  
HETATM   11  C   UNL     1      -9.672  17.922  68.346  1.00  0.00    -0.340 A  
HETATM   12  F   UNL     1      -8.291  18.440  66.497  1.00  0.00    -0.247 F  
HETATM   13  C   UNL     1      -9.222  17.659  67.057  1.00  0.00    -0.250 A  
HETATM   14  F   UNL     1      -9.174  18.958  69.036  1.00  0.00    -0.355 F  
ENDBRANCH   5   6
ENDBRANCH   2   5
BRANCH   2  15
HETATM   15  C   UNL     1     -11.846  14.386  71.212  1.00  0.00    -0.287 C  
BRANCH  15  16
HETATM   16  C   UNL     1     -12.800  13.355  71.802  1.00  0.00    -0.289 C  
HETATM   17  N   UNL     1     -11.946   9.461  70.877  1.00  0.00    -0.291 NA 
HETATM   18  C   UNL     1     -13.641  11.035  71.731  1.00  0.00     0.015 C  
HETATM   19  N   UNL     1     -12.746  12.086  71.235  1.00  0.00    -0.344 N  
HETATM   20  C   UNL     1     -11.562  10.404  69.960  1.00  0.00    -0.301 A  
HETATM   21  O   UNL     1     -13.547  13.618  72.740  1.00  0.00    -0.672 OA 
HETATM   22  C   UNL     1     -12.075  11.795  69.965  1.00  0.00    -0.310 C  
HETATM   23  C   UNL     1     -12.880   9.724  71.953  1.00  0.00    -0.427 C  
HETATM   24  N   UNL     1     -10.689   9.874  69.139  1.00  0.00    -0.217 NA 
HETATM   25  N   UNL     1     -10.463   8.584  69.544  1.00  0.00    -0.220 NA 
HETATM   26  C   UNL     1     -11.206   8.339  70.611  1.00  0.00    -0.256 A  
HETATM   27  C   UNL     1     -11.231   7.083  71.403  1.00  0.00    -0.252 C  
HETATM   28  F   UNL     1     -12.110   7.140  72.441  1.00  0.00    -0.289 F  
HETATM   29  F   UNL     1     -11.596   6.013  70.654  1.00  0.00    -0.386 F  
HETATM   30  F   UNL     1     -10.021   6.798  71.949  1.00  0.00    -0.176 F  
ENDBRANCH  15  16
ENDBRANCH   2  15
TORSDOF 4
ENDMDL
MODEL       37
REMARK 921   NORMALIZED FREE ENERGY PREDICTED BY IDOCK:   -6.84 KCAL/MOL
REMARK 922        TOTAL FREE ENERGY PREDICTED BY IDOCK:   -9.51 KCAL/MOL
REMARK 923 INTER-LIGAND FREE ENERGY PREDICTED BY IDOCK:   -8.71 KCAL/MOL
REMARK 924 INTRA-LIGAND FREE ENERGY PREDICTED BY IDOCK:   -0.80 KCAL/MOL
REMARK 927      BINDING AFFINITY PREDICTED BY RF-SCORE:    0.00 PKD
ROOT
HETATM    1  N   UNL     1     -11.993  15.524  68.400  1.00  0.00    -0.506 NA 
HETATM    2  C   UNL     1     -11.368  14.321  67.809  1.00  0.00    -0.307 C  
HETATM    3  H1  UNL     1     -12.369  16.093  67.640  1.00  0.00     0.000 HD 
HETATM    4  H2  UNL     1     -11.354  16.043  69.002  1.00  0.00     0.000 HD 
ENDROOT
BRANCH   2   5
HETATM    5  C   UNL     1     -12.406  13.567  66.941  1.00  0.00    -0.289 C  
BRANCH   5   6
HETATM    6  C   UNL     1     -11.791  12.871  65.746  1.00  0.00    -0.469 A  
HETATM    7  F   UNL     1     -12.546  14.586  64.288  1.00  0.00    -0.466 F  
HETATM    8  C   UNL     1     -11.880  13.435  64.468  1.00  0.00    -0.398 A  
HETATM    9  C   UNL     1     -11.291  12.829  63.364  1.00  0.00    -0.395 A  
HETATM   10  C   UNL     1     -11.111  11.651  65.897  1.00  0.00    -0.320 A  
HETATM   11  C   UNL     1     -10.512  11.050  64.795  1.00  0.00    -0.316 A  
HETATM   12  F   UNL     1     -10.017  11.056  62.483  1.00  0.00    -0.224 F  
HETATM   13  C   UNL     1     -10.599  11.637  63.538  1.00  0.00    -0.435 A  
HETATM   14  F   UNL     1      -9.846   9.898  64.957  1.00  0.00    -0.340 F  
ENDBRANCH   5   6
ENDBRANCH   2   5
BRANCH   2  15
HETATM   15  C   UNL     1     -10.805  13.466  68.947  1.00  0.00    -0.253 C  
BRANCH  15  16
HETATM   16  C   UNL     1     -11.844  12.893  69.901  1.00  0.00    -0.303 C  
HETATM   17  N   UNL     1     -11.278   8.976  70.946  1.00  0.00    -0.270 NA 
HETATM   18  C   UNL     1     -12.860  10.866  70.880  1.00  0.00    -0.326 C  
HETATM   19  N   UNL     1     -11.880  11.505  69.996  1.00  0.00    -0.335 N  
HETATM   20  C   UNL     1     -10.809   9.353  69.715  1.00  0.00    -0.232 A  
HETATM   21  O   UNL     1     -12.584  13.609  70.570  1.00  0.00    -0.317 OA 
HETATM   22  C   UNL     1     -11.213  10.612  69.044  1.00  0.00    -0.265 C  
HETATM   23  C   UNL     1     -12.207   9.769  71.726  1.00  0.00    -0.367 C  
HETATM   24  N   UNL     1      -9.966   8.449  69.281  1.00  0.00    -0.190 NA 
HETATM   25  N   UNL     1      -9.847   7.488  70.252  1.00  0.00    -0.183 NA 
HETATM   26  C   UNL     1     -10.623   7.818  71.272  1.00  0.00    -0.218 A  
HETATM   27  C   UNL     1     -10.758   7.085  72.556  1.00  0.00    -0.242 C  
HETATM   28  F   UNL     1     -11.646   7.675  73.402  1.00  0.00    -0.312 F  
HETATM   29  F   UNL     1     -11.192   5.813  72.376  1.00  0.00    -0.274 F  
HETATM   30  F   UNL     1      -9.583   7.017  73.232  1.00  0.00    -0.159 F  
ENDBRANCH  15  16
ENDBRANCH   2  15
TORSDOF 4
ENDMDL
MODEL       38
REMARK 921   NORMALIZED FREE ENERGY PREDICTED BY IDOCK:   -6.81 KCAL/MOL
REMARK 922        TOTAL FREE ENERGY PREDICTED BY IDOCK:   -9.47 KCAL/MOL
REMARK 923 INTER-LIGAND FREE ENERGY PREDICTED BY IDOCK:   -8.76 KCAL/MOL
REMARK 924 INTRA-LIGAND FREE ENERGY PREDICTED BY IDOCK:   -0.71 KCAL/MOL
REMARK 927      BINDING AFFINITY PREDICTED BY RF-SCORE:    0.00 PKD
ROOT
HETATM    1  N   UNL     1      -9.206  10.559  68.547  1.00  0.00    -0.160 NA 
HETATM    2  C   UNL     1     -10.173  10.196  69.606  1.00  0.00    -0.242 C  
HETATM    3  H1  UNL     1      -8.376   9.977  68.661  1.00  0.00     0.000 HD 
HETATM    4  H2  UNL     1      -8.990  11.556  68.537  1.00  0.00     0.000 HD 
ENDROOT
BRANCH   2   5
HETATM    5  C   UNL     1     -10.480   8.680  69.534  1.00  0.00    -0.222 C  
BRANCH   5   6
HETATM    6  C   UNL     1     -10.490   8.008  70.889  1.00  0.00    -0.223 A  
HETATM    7  F   UNL     1     -12.124   6.445  70.167  1.00  0.00    -0.465 F  
HETATM    8  C   UNL     1     -11.310   6.899  71.131  1.00  0.00    -0.290 A  
HETATM    9  C   UNL     1     -11.305   6.246  72.359  1.00  0.00    -0.333 A  
HETATM   10  C   UNL     1      -9.669   8.477  71.929  1.00  0.00    -0.358 A  
HETATM   11  C   UNL     1      -9.656   7.817  73.153  1.00  0.00    -0.275 A  
HETATM   12  F   UNL     1     -10.446   6.075  74.545  1.00  0.00    -0.279 F  
HETATM   13  C   UNL     1     -10.467   6.708  73.365  1.00  0.00    -0.290 A  
HETATM   14  F   UNL     1      -8.850   8.261  74.129  1.00  0.00    -0.311 F  
ENDBRANCH   5   6
ENDBRANCH   2   5
BRANCH   2  15
HETATM   15  C   UNL     1     -11.419  11.069  69.436  1.00  0.00    -0.364 C  
BRANCH  15  16
HETATM   16  C   UNL     1     -11.592  11.689  68.055  1.00  0.00    -0.313 C  
HETATM   17  N   UNL     1     -11.000  15.734  67.875  1.00  0.00    -0.317 NA 
HETATM   18  C   UNL     1     -11.926  13.751  66.740  1.00  0.00    -0.426 C  
HETATM   19  N   UNL     1     -11.739  13.071  68.026  1.00  0.00    -0.340 N  
HETATM   20  C   UNL     1     -11.451  15.237  69.069  1.00  0.00    -0.324 A  
HETATM   21  O   UNL     1     -11.570  11.015  67.029  1.00  0.00    -0.427 OA 
HETATM   22  C   UNL     1     -12.031  13.879  69.215  1.00  0.00    -0.357 C  
HETATM   23  C   UNL     1     -11.027  14.987  66.634  1.00  0.00    -0.325 C  
HETATM   24  N   UNL     1     -11.264  16.132  70.007  1.00  0.00    -0.354 NA 
HETATM   25  N   UNL     1     -10.645  17.214  69.435  1.00  0.00    -0.268 NA 
HETATM   26  C   UNL     1     -10.462  16.965  68.148  1.00  0.00    -0.350 A  
HETATM   27  C   UNL     1      -9.781  17.843  67.164  1.00  0.00    -0.289 C  
HETATM   28  F   UNL     1      -9.762  17.308  65.913  1.00  0.00    -0.271 F  
HETATM   29  F   UNL     1     -10.387  19.052  67.051  1.00  0.00    -0.356 F  
HETATM   30  F   UNL     1      -8.484  18.073  67.495  1.00  0.00    -0.229 F  
ENDBRANCH  15  16
ENDBRANCH   2  15
TORSDOF 4
ENDMDL
MODEL       39
REMARK 921   NORMALIZED FREE ENERGY PREDICTED BY IDOCK:   -6.80 KCAL/MOL
REMARK 922        TOTAL FREE ENERGY PREDICTED BY IDOCK:   -9.46 KCAL/MOL
REMARK 923 INTER-LIGAND FREE ENERGY PREDICTED BY IDOCK:   -8.93 KCAL/MOL
REMARK 924 INTRA-LIGAND FREE ENERGY PREDICTED BY IDOCK:   -0.53 KCAL/MOL
REMARK 927      BINDING AFFINITY PREDICTED BY RF-SCORE:    0.00 PKD
ROOT
HETATM    1  N   UNL     1      -8.137  15.509  67.800  1.00  0.00    -0.135 NA 
HETATM    2  C   UNL     1      -8.335  16.176  66.495  1.00  0.00    -0.317 C  
HETATM    3  H1  UNL     1      -7.195  15.116  67.817  1.00  0.00     0.000 HD 
HETATM    4  H2  UNL     1      -8.857  14.814  68.000  1.00  0.00     0.000 HD 
ENDROOT
BRANCH   2   5
HETATM    5  C   UNL     1      -7.230  17.239  66.279  1.00  0.00    -0.335 C  
BRANCH   5   6
HETATM    6  C   UNL     1      -6.984  18.100  67.499  1.00  0.00    -0.204 A  
HETATM    7  F   UNL     1      -8.323  19.846  66.606  1.00  0.00    -0.294 F  
HETATM    8  C   UNL     1      -7.567  19.369  67.606  1.00  0.00    -0.258 A  
HETATM    9  C   UNL     1      -7.382  20.160  68.734  1.00  0.00    -0.128 A  
HETATM   10  C   UNL     1      -6.175  17.640  68.551  1.00  0.00    -0.182 A  
HETATM   11  C   UNL     1      -5.999  18.427  69.685  1.00  0.00    -0.257 A  
HETATM   12  F   UNL     1      -6.431  20.426  70.872  1.00  0.00    -0.399 F  
HETATM   13  C   UNL     1      -6.601  19.676  69.776  1.00  0.00    -0.301 A  
HETATM   14  F   UNL     1      -5.243  17.966  70.692  1.00  0.00    -0.212 F  
ENDBRANCH   5   6
ENDBRANCH   2   5
BRANCH   2  15
HETATM   15  C   UNL     1      -9.748  16.766  66.470  1.00  0.00    -0.298 C  
BRANCH  15  16
HETATM   16  C   UNL     1     -10.482  16.745  67.804  1.00  0.00    -0.335 C  
HETATM   17  N   UNL     1     -11.949  13.093  68.929  1.00  0.00    -0.306 NA 
HETATM   18  C   UNL     1     -12.031  15.530  69.295  1.00  0.00    -0.316 C  
HETATM   19  N   UNL     1     -11.275  15.627  68.042  1.00  0.00    -0.341 N  
HETATM   20  C   UNL     1     -11.845  13.320  67.582  1.00  0.00    -0.357 A  
HETATM   21  O   UNL     1     -10.358  17.643  68.633  1.00  0.00    -0.355 OA 
HETATM   22  C   UNL     1     -11.659  14.671  66.999  1.00  0.00    -0.371 C  
HETATM   23  C   UNL     1     -11.877  14.143  69.926  1.00  0.00    -0.325 C  
HETATM   24  N   UNL     1     -11.916  12.177  66.947  1.00  0.00    -0.609 NA 
HETATM   25  N   UNL     1     -12.025  11.183  67.885  1.00  0.00    -0.620 NA 
HETATM   26  C   UNL     1     -12.022  11.735  69.088  1.00  0.00    -0.293 A  
HETATM   27  C   UNL     1     -12.068  11.022  70.390  1.00  0.00    -0.373 C  
HETATM   28  F   UNL     1     -12.059  11.874  71.451  1.00  0.00    -0.285 F  
HETATM   29  F   UNL     1     -13.186  10.265  70.519  1.00  0.00    -0.416 F  
HETATM   30  F   UNL     1     -11.003  10.198  70.560  1.00  0.00    -0.311 F  
ENDBRANCH  15  16
ENDBRANCH   2  15
TORSDOF 4
ENDMDL
MODEL       40
REMARK 921   NORMALIZED FREE ENERGY PREDICTED BY IDOCK:   -6.78 KCAL/MOL
REMARK 922        TOTAL FREE ENERGY PREDICTED BY IDOCK:   -9.44 KCAL/MOL
REMARK 923 INTER-LIGAND FREE ENERGY PREDICTED BY IDOCK:   -8.81 KCAL/MOL
REMARK 924 INTRA-LIGAND FREE ENERGY PREDICTED BY IDOCK:   -0.63 KCAL/MOL
REMARK 927      BINDING AFFINITY PREDICTED BY RF-SCORE:    0.00 PKD
ROOT
HETATM    1  N   UNL     1     -12.969  10.731  69.460  1.00  0.00    -0.425 NA 
HETATM    2  C   UNL     1     -11.762  10.848  68.613  1.00  0.00    -0.263 C  
HETATM    3  H1  UNL     1     -13.022   9.774  69.809  1.00  0.00     0.000 HD 
HETATM    4  H2  UNL     1     -13.819  11.021  68.975  1.00  0.00     0.000 HD 
ENDROOT
BRANCH   2   5
HETATM    5  C   UNL     1     -10.512  10.430  69.426  1.00  0.00    -0.261 C  
BRANCH   5   6
HETATM    6  C   UNL     1     -10.499   8.960  69.785  1.00  0.00    -0.217 A  
HETATM    7  F   UNL     1     -10.881   9.457  72.075  1.00  0.00    -0.420 F  
HETATM    8  C   UNL     1     -10.704   8.546  71.107  1.00  0.00    -0.234 A  
HETATM    9  C   UNL     1     -10.731   7.198  71.450  1.00  0.00    -0.245 A  
HETATM   10  C   UNL     1     -10.289   7.982  68.799  1.00  0.00    -0.223 A  
HETATM   11  C   UNL     1     -10.327   6.634  69.139  1.00  0.00    -0.194 A  
HETATM   12  F   UNL     1     -10.589   4.947  70.776  1.00  0.00    -0.289 F  
HETATM   13  C   UNL     1     -10.549   6.246  70.456  1.00  0.00    -0.249 A  
HETATM   14  F   UNL     1     -10.149   5.710  68.184  1.00  0.00    -0.146 F  
ENDBRANCH   5   6
ENDBRANCH   2   5
BRANCH   2  15
HETATM   15  C   UNL     1     -11.682  12.284  68.088  1.00  0.00    -0.408 C  
BRANCH  15  16
HETATM   16  C   UNL     1     -11.499  13.354  69.157  1.00  0.00    -0.300 C  
HETATM   17  N   UNL     1     -10.014  16.923  67.812  1.00  0.00    -0.269 NA 
HETATM   18  C   UNL     1     -10.446  15.499  69.778  1.00  0.00    -0.301 C  
HETATM   19  N   UNL     1     -10.690  14.430  68.805  1.00  0.00    -0.246 N  
HETATM   20  C   UNL     1      -9.646  15.806  67.110  1.00  0.00    -0.218 A  
HETATM   21  O   UNL     1     -12.056  13.289  70.249  1.00  0.00    -0.343 OA 
HETATM   22  C   UNL     1      -9.807  14.428  67.635  1.00  0.00    -0.224 C  
HETATM   23  C   UNL     1     -10.608  16.879  69.133  1.00  0.00    -0.330 C  
HETATM   24  N   UNL     1      -9.172  16.168  65.943  1.00  0.00    -0.411 NA 
HETATM   25  N   UNL     1      -9.267  17.534  65.859  1.00  0.00    -0.513 NA 
HETATM   26  C   UNL     1      -9.799  17.991  66.981  1.00  0.00    -0.318 A  
HETATM   27  C   UNL     1     -10.129  19.404  67.293  1.00  0.00    -0.390 C  
HETATM   28  F   UNL     1     -10.659  19.553  68.537  1.00  0.00    -0.463 F  
HETATM   29  F   UNL     1      -9.036  20.207  67.246  1.00  0.00    -0.378 F  
HETATM   30  F   UNL     1     -11.043  19.919  66.430  1.00  0.00    -0.527 F  
ENDBRANCH  15  16
ENDBRANCH   2  15
TORSDOF 4
ENDMDL
MODEL       41
REMARK 921   NORMALIZED FREE ENERGY PREDICTED BY IDOCK:   -6.75 KCAL/MOL
REMARK 922        TOTAL FREE ENERGY PREDICTED BY IDOCK:   -9.39 KCAL/MOL
REMARK 923 INTER-LIGAND FREE ENERGY PREDICTED BY IDOCK:   -9.07 KCAL/MOL
REMARK 924 INTRA-LIGAND FREE ENERGY PREDICTED BY IDOCK:   -0.33 KCAL/MOL
REMARK 927      BINDING AFFINITY PREDICTED BY RF-SCORE:    0.00 PKD
ROOT
HETATM    1  N   UNL     1     -12.288  16.463  69.086  1.00  0.00    -0.180 NA 
HETATM    2  C   UNL     1     -10.878  16.451  69.533  1.00  0.00    -0.338 C  
HETATM    3  H1  UNL     1     -12.421  17.266  68.472  1.00  0.00     0.000 HD 
HETATM    4  H2  UNL     1     -12.947  16.449  69.865  1.00  0.00     0.000 HD 
ENDROOT
BRANCH   2   5
HETATM    5  C   UNL     1      -9.941  16.433  68.301  1.00  0.00    -0.243 C  
BRANCH   5   6
HETATM    6  C   UNL     1     -10.584  15.830  67.071  1.00  0.00    -0.316 A  
HETATM    7  F   UNL     1     -10.166  17.802  65.816  1.00  0.00    -0.313 F  
HETATM    8  C   UNL     1     -10.647  16.551  65.872  1.00  0.00    -0.270 A  
HETATM    9  C   UNL     1     -11.201  16.001  64.722  1.00  0.00    -0.348 A  
HETATM   10  C   UNL     1     -11.120  14.533  67.104  1.00  0.00    -0.325 A  
HETATM   11  C   UNL     1     -11.665  13.977  65.951  1.00  0.00    -0.366 A  
HETATM   12  F   UNL     1     -12.223  14.164  63.660  1.00  0.00    -0.489 F  
HETATM   13  C   UNL     1     -11.701  14.706  64.767  1.00  0.00    -0.428 A  
HETATM   14  F   UNL     1     -12.152  12.728  65.990  1.00  0.00    -0.430 F  
ENDBRANCH   5   6
ENDBRANCH   2   5
BRANCH   2  15
HETATM   15  C   UNL     1     -10.679  15.245  70.455  1.00  0.00    -0.247 C  
BRANCH  15  16
HETATM   16  C   UNL     1     -11.936  14.755  71.161  1.00  0.00    -0.335 C  
HETATM   17  N   UNL     1     -12.492  10.700  71.120  1.00  0.00    -0.383 NA 
HETATM   18  C   UNL     1     -13.535  12.903  71.494  1.00  0.00    -0.053 C  
HETATM   19  N   UNL     1     -12.327  13.452  70.871  1.00  0.00    -0.375 N  
HETATM   20  C   UNL     1     -11.797  11.232  70.066  1.00  0.00    -0.367 A  
HETATM   21  O   UNL     1     -12.551  15.455  71.962  1.00  0.00    -0.318 OA 
HETATM   22  C   UNL     1     -11.791  12.680  69.745  1.00  0.00    -0.309 C  
HETATM   23  C   UNL     1     -13.283  11.494  72.039  1.00  0.00    -0.337 C  
HETATM   24  N   UNL     1     -11.159  10.271  69.445  1.00  0.00    -0.240 NA 
HETATM   25  N   UNL     1     -11.401   9.102  70.120  1.00  0.00    -0.195 NA 
HETATM   26  C   UNL     1     -12.189   9.365  71.150  1.00  0.00    -0.323 A  
HETATM   27  C   UNL     1     -12.657   8.399  72.175  1.00  0.00    -0.364 C  
HETATM   28  F   UNL     1     -13.467   8.976  73.104  1.00  0.00    -0.406 F  
HETATM   29  F   UNL     1     -13.368   7.379  71.632  1.00  0.00    -0.359 F  
HETATM   30  F   UNL     1     -11.627   7.846  72.866  1.00  0.00    -0.410 F  
ENDBRANCH  15  16
ENDBRANCH   2  15
TORSDOF 4
ENDMDL
MODEL       42
REMARK 921   NORMALIZED FREE ENERGY PREDICTED BY IDOCK:   -6.72 KCAL/MOL
REMARK 922        TOTAL FREE ENERGY PREDICTED BY IDOCK:   -9.36 KCAL/MOL
REMARK 923 INTER-LIGAND FREE ENERGY PREDICTED BY IDOCK:   -8.87 KCAL/MOL
REMARK 924 INTRA-LIGAND FREE ENERGY PREDICTED BY IDOCK:   -0.49 KCAL/MOL
REMARK 927      BINDING AFFINITY PREDICTED BY RF-SCORE:    0.00 PKD
ROOT
HETATM    1  N   UNL     1     -11.883  11.554  67.458  1.00  0.00    -0.631 NA 
HETATM    2  C   UNL     1     -10.945  11.855  68.561  1.00  0.00    -0.235 C  
HETATM    3  H1  UNL     1     -12.397  10.707  67.700  1.00  0.00     0.000 HD 
HETATM    4  H2  UNL     1     -11.416  11.488  66.553  1.00  0.00     0.000 HD 
ENDROOT
BRANCH   2   5
HETATM    5  C   UNL     1     -11.726  11.979  69.891  1.00  0.00    -0.374 C  
BRANCH   5   6
HETATM    6  C   UNL     1     -11.834  10.672  70.644  1.00  0.00    -0.463 A  
HETATM    7  F   UNL     1     -13.363  11.622  72.191  1.00  0.00    -0.592 F  
HETATM    8  C   UNL     1     -12.672  10.557  71.760  1.00  0.00    -0.402 A  
HETATM    9  C   UNL     1     -12.812   9.354  72.443  1.00  0.00    -0.394 A  
HETATM   10  C   UNL     1     -11.102   9.545  70.234  1.00  0.00    -0.317 A  
HETATM   11  C   UNL     1     -11.249   8.338  70.910  1.00  0.00    -0.265 A  
HETATM   12  F   UNL     1     -12.241   7.078  72.649  1.00  0.00    -0.173 F  
HETATM   13  C   UNL     1     -12.101   8.243  72.005  1.00  0.00    -0.348 A  
HETATM   14  F   UNL     1     -10.563   7.264  70.494  1.00  0.00    -0.210 F  
ENDBRANCH   5   6
ENDBRANCH   2   5
BRANCH   2  15
HETATM   15  C   UNL     1     -10.172  13.127  68.199  1.00  0.00    -0.239 C  
BRANCH  15  16
HETATM   16  C   UNL     1     -11.031  14.365  67.979  1.00  0.00    -0.258 C  
HETATM   17  N   UNL     1      -8.976  17.899  67.776  1.00  0.00    -0.251 NA 
HETATM   18  C   UNL     1     -11.176  16.828  68.080  1.00  0.00    -0.154 C  
HETATM   19  N   UNL     1     -10.418  15.584  68.249  1.00  0.00    -0.238 N  
HETATM   20  C   UNL     1      -8.412  16.908  68.535  1.00  0.00    -0.258 A  
HETATM   21  O   UNL     1     -12.183  14.296  67.559  1.00  0.00    -0.354 OA 
HETATM   22  C   UNL     1      -9.158  15.709  68.989  1.00  0.00    -0.241 C  
HETATM   23  C   UNL     1     -10.353  17.877  67.326  1.00  0.00    -0.369 C  
HETATM   24  N   UNL     1      -7.152  17.197  68.752  1.00  0.00    -0.218 NA 
HETATM   25  N   UNL     1      -6.872  18.368  68.095  1.00  0.00    -0.223 NA 
HETATM   26  C   UNL     1      -7.970  18.782  67.483  1.00  0.00    -0.244 A  
HETATM   27  C   UNL     1      -8.101  19.978  66.614  1.00  0.00    -0.315 C  
HETATM   28  F   UNL     1      -9.366  20.141  66.139  1.00  0.00    -0.412 F  
HETATM   29  F   UNL     1      -7.792  21.124  67.272  1.00  0.00    -0.389 F  
HETATM   30  F   UNL     1      -7.295  19.910  65.524  1.00  0.00    -0.306 F  
ENDBRANCH  15  16
ENDBRANCH   2  15
TORSDOF 4
ENDMDL
MODEL       43
REMARK 921   NORMALIZED FREE ENERGY PREDICTED BY IDOCK:   -6.72 KCAL/MOL
REMARK 922        TOTAL FREE ENERGY PREDICTED BY IDOCK:   -9.35 KCAL/MOL
REMARK 923 INTER-LIGAND FREE ENERGY PREDICTED BY IDOCK:   -8.62 KCAL/MOL
REMARK 924 INTRA-LIGAND FREE ENERGY PREDICTED BY IDOCK:   -0.73 KCAL/MOL
REMARK 927      BINDING AFFINITY PREDICTED BY RF-SCORE:    0.00 PKD
ROOT
HETATM    1  N   UNL     1      -8.413  16.924  68.195  1.00  0.00    -0.210 NA 
HETATM    2  C   UNL     1      -9.341  15.928  67.618  1.00  0.00    -0.217 C  
HETATM    3  H1  UNL     1      -7.459  16.615  68.009  1.00  0.00     0.000 HD 
HETATM    4  H2  UNL     1      -8.586  17.094  69.186  1.00  0.00     0.000 HD 
ENDROOT
BRANCH   2   5
HETATM    5  C   UNL     1      -9.045  15.752  66.108  1.00  0.00    -0.377 C  
BRANCH   5   6
HETATM    6  C   UNL     1     -10.030  14.842  65.409  1.00  0.00    -0.369 A  
HETATM    7  F   UNL     1     -11.408  16.686  64.828  1.00  0.00    -0.382 F  
HETATM    8  C   UNL     1     -11.166  15.368  64.781  1.00  0.00    -0.395 A  
HETATM    9  C   UNL     1     -12.064  14.552  64.102  1.00  0.00    -0.377 A  
HETATM   10  C   UNL     1      -9.820  13.454  65.366  1.00  0.00    -0.132 A  
HETATM   11  C   UNL     1     -10.712  12.638  64.677  1.00  0.00    -0.326 A  
HETATM   12  F   UNL     1     -12.676  12.394  63.383  1.00  0.00    -0.559 F  
HETATM   13  C   UNL     1     -11.824  13.184  64.047  1.00  0.00    -0.453 A  
HETATM   14  F   UNL     1     -10.487  11.317  64.624  1.00  0.00    -0.306 F  
ENDBRANCH   5   6
ENDBRANCH   2   5
BRANCH   2  15
HETATM   15  C   UNL     1     -10.774  16.390  67.897  1.00  0.00    -0.332 C  
BRANCH  15  16
HETATM   16  C   UNL     1     -11.351  15.939  69.233  1.00  0.00    -0.355 C  
HETATM   17  N   UNL     1     -11.908  11.902  69.617  1.00  0.00    -0.328 NA 
HETATM   18  C   UNL     1     -12.456  14.136  70.507  1.00  0.00    -0.361 C  
HETATM   19  N   UNL     1     -11.867  14.648  69.265  1.00  0.00    -0.309 N  
HETATM   20  C   UNL     1     -11.989  12.411  68.347  1.00  0.00    -0.216 A  
HETATM   21  O   UNL     1     -11.333  16.658  70.229  1.00  0.00    -0.190 OA 
HETATM   22  C   UNL     1     -12.147  13.858  68.062  1.00  0.00    -0.283 C  
HETATM   23  C   UNL     1     -11.956  12.720  70.812  1.00  0.00     0.008 C  
HETATM   24  N   UNL     1     -11.885  11.431  67.484  1.00  0.00    -0.627 NA 
HETATM   25  N   UNL     1     -11.691  10.271  68.189  1.00  0.00    -0.207 NA 
HETATM   26  C   UNL     1     -11.681  10.558  69.481  1.00  0.00    -0.241 A  
HETATM   27  C   UNL     1     -11.448   9.608  70.598  1.00  0.00    -0.306 C  
HETATM   28  F   UNL     1     -11.510  10.210  71.816  1.00  0.00    -0.371 F  
HETATM   29  F   UNL     1     -12.367   8.610  70.620  1.00  0.00    -0.201 F  
HETATM   30  F   UNL     1     -10.224   9.026  70.527  1.00  0.00    -0.200 F  
ENDBRANCH  15  16
ENDBRANCH   2  15
TORSDOF 4
ENDMDL
MODEL       44
REMARK 921   NORMALIZED FREE ENERGY PREDICTED BY IDOCK:   -6.68 KCAL/MOL
REMARK 922        TOTAL FREE ENERGY PREDICTED BY IDOCK:   -9.31 KCAL/MOL
REMARK 923 INTER-LIGAND FREE ENERGY PREDICTED BY IDOCK:   -8.69 KCAL/MOL
REMARK 924 INTRA-LIGAND FREE ENERGY PREDICTED BY IDOCK:   -0.61 KCAL/MOL
REMARK 927      BINDING AFFINITY PREDICTED BY RF-SCORE:    0.00 PKD
ROOT
HETATM    1  N   UNL     1      -9.814  10.736  67.267  1.00  0.00    -0.176 NA 
HETATM    2  C   UNL     1     -10.194  11.721  68.303  1.00  0.00    -0.205 C  
HETATM    3  H1  UNL     1     -10.331   9.874  67.443  1.00  0.00     0.000 HD 
HETATM    4  H2  UNL     1      -8.806  10.588  67.216  1.00  0.00     0.000 HD 
ENDROOT
BRANCH   2   5
HETATM    5  C   UNL     1     -11.729  11.921  68.294  1.00  0.00    -0.385 C  
BRANCH   5   6
HETATM    6  C   UNL     1     -12.263  12.497  69.588  1.00  0.00    -0.167 A  
HETATM    7  F   UNL     1     -12.301  10.347  70.594  1.00  0.00    -0.331 F  
HETATM    8  C   UNL     1     -12.507  11.668  70.690  1.00  0.00    -0.295 A  
HETATM    9  C   UNL     1     -12.963  12.184  71.899  1.00  0.00    -0.419 A  
HETATM   10  C   UNL     1     -12.514  13.873  69.711  1.00  0.00    -0.240 A  
HETATM   11  C   UNL     1     -12.960  14.390  70.923  1.00  0.00    -0.348 A  
HETATM   12  F   UNL     1     -13.604  14.057  73.174  1.00  0.00    -0.533 F  
HETATM   13  C   UNL     1     -13.180  13.551  72.010  1.00  0.00    -0.439 A  
HETATM   14  F   UNL     1     -13.174  15.709  71.035  1.00  0.00    -0.493 F  
ENDBRANCH   5   6
ENDBRANCH   2   5
BRANCH   2  15
HETATM   15  C   UNL     1      -9.419  13.015  68.039  1.00  0.00    -0.217 C  
BRANCH  15  16
HETATM   16  C   UNL     1      -9.856  13.791  66.803  1.00  0.00    -0.275 C  
HETATM   17  N   UNL     1     -10.041  17.853  67.268  1.00  0.00    -0.329 NA 
HETATM   18  C   UNL     1     -10.708  15.920  65.890  1.00  0.00    -0.296 C  
HETATM   19  N   UNL     1     -10.257  15.104  67.021  1.00  0.00    -0.258 N  
HETATM   20  C   UNL     1     -10.258  17.099  68.392  1.00  0.00    -0.340 A  
HETATM   21  O   UNL     1      -9.825  13.298  65.678  1.00  0.00    -0.248 OA 
HETATM   22  C   UNL     1     -10.557  15.647  68.350  1.00  0.00    -0.252 C  
HETATM   23  C   UNL     1     -10.069  17.312  65.924  1.00  0.00    -0.211 C  
HETATM   24  N   UNL     1     -10.135  17.862  69.450  1.00  0.00    -0.125 NA 
HETATM   25  N   UNL     1      -9.793  19.119  69.023  1.00  0.00    -0.408 NA 
HETATM   26  C   UNL     1      -9.712  19.110  67.703  1.00  0.00    -0.321 A  
HETATM   27  C   UNL     1      -9.318  20.245  66.831  1.00  0.00    -0.373 C  
HETATM   28  F   UNL     1      -9.341  19.921  65.510  1.00  0.00    -0.274 F  
HETATM   29  F   UNL     1     -10.145  21.311  66.975  1.00  0.00    -0.386 F  
HETATM   30  F   UNL     1      -8.057  20.676  67.091  1.00  0.00    -0.352 F  
ENDBRANCH  15  16
ENDBRANCH   2  15
TORSDOF 4
ENDMDL
MODEL       45
REMARK 921   NORMALIZED FREE ENERGY PREDICTED BY IDOCK:   -6.67 KCAL/MOL
REMARK 922        TOTAL FREE ENERGY PREDICTED BY IDOCK:   -9.30 KCAL/MOL
REMARK 923 INTER-LIGAND FREE ENERGY PREDICTED BY IDOCK:   -8.52 KCAL/MOL
REMARK 924 INTRA-LIGAND FREE ENERGY PREDICTED BY IDOCK:   -0.77 KCAL/MOL
REMARK 927      BINDING AFFINITY PREDICTED BY RF-SCORE:    0.00 PKD
ROOT
HETATM    1  N   UNL     1     -10.933   7.801  67.630  1.00  0.00    -0.517 NA 
HETATM    2  C   UNL     1     -10.419   7.547  68.993  1.00  0.00    -0.208 C  
HETATM    3  H1  UNL     1     -11.208   6.907  67.222  1.00  0.00     0.000 HD 
HETATM    4  H2  UNL     1     -10.268   8.312  67.049  1.00  0.00     0.000 HD 
ENDROOT
BRANCH   2   5
HETATM    5  C   UNL     1     -11.493   6.805  69.826  1.00  0.00    -0.319 C  
BRANCH   5   6
HETATM    6  C   UNL     1     -10.907   5.807  70.800  1.00  0.00    -0.330 A  
HETATM    7  F   UNL     1      -9.977   4.533  69.026  1.00  0.00    -0.241 F  
HETATM    8  C   UNL     1     -10.155   4.718  70.342  1.00  0.00    -0.231 A  
HETATM    9  C   UNL     1      -9.578   3.811  71.224  1.00  0.00    -0.243 A  
HETATM   10  C   UNL     1     -11.099   5.957  72.184  1.00  0.00    -0.333 A  
HETATM   11  C   UNL     1     -10.513   5.056  73.067  1.00  0.00    -0.202 A  
HETATM   12  F   UNL     1      -9.192   3.132  73.446  1.00  0.00    -0.087 F  
HETATM   13  C   UNL     1      -9.756   3.993  72.590  1.00  0.00    -0.145 A  
HETATM   14  F   UNL     1     -10.683   5.225  74.387  1.00  0.00    -0.298 F  
ENDBRANCH   5   6
ENDBRANCH   2   5
BRANCH   2  15
HETATM   15  C   UNL     1     -10.006   8.888  69.607  1.00  0.00    -0.193 C  
BRANCH  15  16
HETATM   16  C   UNL     1     -10.326  10.113  68.760  1.00  0.00    -0.194 C  
HETATM   17  N   UNL     1     -12.587  12.974  70.619  1.00  0.00    -0.243 NA 
HETATM   18  C   UNL     1     -11.743  12.113  68.467  1.00  0.00    -0.330 C  
HETATM   19  N   UNL     1     -11.357  10.921  69.228  1.00  0.00    -0.252 N  
HETATM   20  C   UNL     1     -12.770  11.684  71.039  1.00  0.00    -0.298 A  
HETATM   21  O   UNL     1      -9.694  10.389  67.744  1.00  0.00    -0.157 OA 
HETATM   22  C   UNL     1     -12.301  10.505  70.271  1.00  0.00    -0.298 C  
HETATM   23  C   UNL     1     -11.906  13.326  69.389  1.00  0.00    -0.329 C  
HETATM   24  N   UNL     1     -13.386  11.692  72.196  1.00  0.00    -0.394 NA 
HETATM   25  N   UNL     1     -13.573  13.001  72.561  1.00  0.00    -0.594 NA 
HETATM   26  C   UNL     1     -13.068  13.779  71.617  1.00  0.00    -0.375 A  
HETATM   27  C   UNL     1     -13.008  15.262  71.631  1.00  0.00    -0.408 C  
HETATM   28  F   UNL     1     -12.434  15.772  70.507  1.00  0.00    -0.395 F  
HETATM   29  F   UNL     1     -14.240  15.824  71.717  1.00  0.00    -0.514 F  
HETATM   30  F   UNL     1     -12.277  15.735  72.674  1.00  0.00    -0.395 F  
ENDBRANCH  15  16
ENDBRANCH   2  15
TORSDOF 4
ENDMDL
MODEL       46
REMARK 921   NORMALIZED FREE ENERGY PREDICTED BY IDOCK:   -6.66 KCAL/MOL
REMARK 922        TOTAL FREE ENERGY PREDICTED BY IDOCK:   -9.28 KCAL/MOL
REMARK 923 INTER-LIGAND FREE ENERGY PREDICTED BY IDOCK:   -8.98 KCAL/MOL
REMARK 924 INTRA-LIGAND FREE ENERGY PREDICTED BY IDOCK:   -0.30 KCAL/MOL
REMARK 927      BINDING AFFINITY PREDICTED BY RF-SCORE:    0.00 PKD
ROOT
HETATM    1  N   UNL     1     -12.364  10.788  68.693  1.00  0.00    -0.786 NA 
HETATM    2  C   UNL     1     -10.896  10.968  68.654  1.00  0.00    -0.215 C  
HETATM    3  H1  UNL     1     -12.769  11.299  67.908  1.00  0.00     0.000 HD 
HETATM    4  H2  UNL     1     -12.769  11.058  69.590  1.00  0.00     0.000 HD 
ENDROOT
BRANCH   2   5
HETATM    5  C   UNL     1     -10.351  10.503  67.281  1.00  0.00    -0.275 C  
BRANCH   5   6
HETATM    6  C   UNL     1     -10.841  11.348  66.127  1.00  0.00    -0.310 A  
HETATM    7  F   UNL     1      -9.717   9.963  64.560  1.00  0.00    -0.344 F  
HETATM    8  C   UNL     1     -10.507  11.018  64.808  1.00  0.00    -0.316 A  
HETATM    9  C   UNL     1     -10.978  11.761  63.731  1.00  0.00    -0.500 A  
HETATM   10  C   UNL     1     -11.648  12.475  66.354  1.00  0.00    -0.449 A  
HETATM   11  C   UNL     1     -12.128  13.213  65.277  1.00  0.00    -0.429 A  
HETATM   12  F   UNL     1     -12.267  13.568  62.943  1.00  0.00    -0.551 F  
HETATM   13  C   UNL     1     -11.798  12.856  63.975  1.00  0.00    -0.443 A  
HETATM   14  F   UNL     1     -12.917  14.273  65.507  1.00  0.00    -0.514 F  
ENDBRANCH   5   6
ENDBRANCH   2   5
BRANCH   2  15
HETATM   15  C   UNL     1     -10.289  10.201  69.832  1.00  0.00    -0.308 C  
BRANCH  15  16
HETATM   16  C   UNL     1     -11.297   9.613  70.810  1.00  0.00    -0.340 C  
HETATM   17  N   UNL     1     -10.879   5.609  71.548  1.00  0.00    -0.250 NA 
HETATM   18  C   UNL     1     -12.358   7.575  71.713  1.00  0.00    -0.326 C  
HETATM   19  N   UNL     1     -11.401   8.226  70.813  1.00  0.00    -0.269 N  
HETATM   20  C   UNL     1     -10.466   6.049  70.318  1.00  0.00    -0.242 A  
HETATM   21  O   UNL     1     -11.955  10.317  71.573  1.00  0.00    -0.358 OA 
HETATM   22  C   UNL     1     -10.843   7.371  69.761  1.00  0.00    -0.234 C  
HETATM   23  C   UNL     1     -11.714   6.390  72.439  1.00  0.00    -0.245 C  
HETATM   24  N   UNL     1      -9.701   5.137  69.770  1.00  0.00    -0.173 NA 
HETATM   25  N   UNL     1      -9.574   4.105  70.664  1.00  0.00    -0.180 NA 
HETATM   26  C   UNL     1     -10.267   4.400  71.752  1.00  0.00    -0.131 A  
HETATM   27  C   UNL     1     -10.362   3.586  72.989  1.00  0.00    -0.165 C  
HETATM   28  F   UNL     1     -11.164   4.157  73.929  1.00  0.00    -0.302 F  
HETATM   29  F   UNL     1     -10.875   2.352  72.752  1.00  0.00    -0.235 F  
HETATM   30  F   UNL     1      -9.153   3.412  73.581  1.00  0.00    -0.091 F  
ENDBRANCH  15  16
ENDBRANCH   2  15
TORSDOF 4
ENDMDL
MODEL       47
REMARK 921   NORMALIZED FREE ENERGY PREDICTED BY IDOCK:   -6.66 KCAL/MOL
REMARK 922        TOTAL FREE ENERGY PREDICTED BY IDOCK:   -9.28 KCAL/MOL
REMARK 923 INTER-LIGAND FREE ENERGY PREDICTED BY IDOCK:   -8.92 KCAL/MOL
REMARK 924 INTRA-LIGAND FREE ENERGY PREDICTED BY IDOCK:   -0.36 KCAL/MOL
REMARK 927      BINDING AFFINITY PREDICTED BY RF-SCORE:    0.00 PKD
ROOT
HETATM    1  N   UNL     1     -12.415  15.544  69.090  1.00  0.00    -0.595 NA 
HETATM    2  C   UNL     1     -11.363  14.920  68.259  1.00  0.00    -0.310 C  
HETATM    3  H1  UNL     1     -12.044  16.415  69.472  1.00  0.00     0.000 HD 
HETATM    4  H2  UNL     1     -12.770  14.917  69.812  1.00  0.00     0.000 HD 
ENDROOT
BRANCH   2   5
HETATM    5  C   UNL     1     -10.903  15.914  67.166  1.00  0.00    -0.267 C  
BRANCH   5   6
HETATM    6  C   UNL     1     -10.042  17.035  67.703  1.00  0.00    -0.298 A  
HETATM    7  F   UNL     1      -8.336  15.505  68.322  1.00  0.00    -0.139 F  
HETATM    8  C   UNL     1      -8.778  16.768  68.244  1.00  0.00    -0.227 A  
HETATM    9  C   UNL     1      -7.957  17.789  68.710  1.00  0.00    -0.240 A  
HETATM   10  C   UNL     1     -10.488  18.367  67.661  1.00  0.00    -0.445 A  
HETATM   11  C   UNL     1      -9.662  19.389  68.117  1.00  0.00    -0.383 A  
HETATM   12  F   UNL     1      -7.613  20.091  69.068  1.00  0.00    -0.325 F  
HETATM   13  C   UNL     1      -8.404  19.102  68.635  1.00  0.00    -0.368 A  
HETATM   14  F   UNL     1     -10.090  20.658  68.050  1.00  0.00    -0.513 F  
ENDBRANCH   5   6
ENDBRANCH   2   5
BRANCH   2  15
HETATM   15  C   UNL     1     -11.920  13.613  67.686  1.00  0.00    -0.386 C  
BRANCH  15  16
HETATM   16  C   UNL     1     -10.966  12.426  67.737  1.00  0.00    -0.228 C  
HETATM   17  N   UNL     1     -11.856   9.595  70.554  1.00  0.00    -0.247 NA 
HETATM   18  C   UNL     1     -10.142  10.488  69.024  1.00  0.00    -0.217 C  
HETATM   19  N   UNL     1     -11.034  11.643  68.883  1.00  0.00    -0.221 N  
HETATM   20  C   UNL     1     -12.244  10.878  70.835  1.00  0.00    -0.381 A  
HETATM   21  O   UNL     1     -10.206  12.158  66.810  1.00  0.00    -0.202 OA 
HETATM   22  C   UNL     1     -11.722  12.061  70.109  1.00  0.00    -0.233 C  
HETATM   23  C   UNL     1     -10.908   9.255  69.513  1.00  0.00    -0.195 C  
HETATM   24  N   UNL     1     -13.130  10.857  71.800  1.00  0.00    -0.480 NA 
HETATM   25  N   UNL     1     -13.360   9.546  72.130  1.00  0.00    -0.443 NA 
HETATM   26  C   UNL     1     -12.607   8.779  71.359  1.00  0.00    -0.294 A  
HETATM   27  C   UNL     1     -12.581   7.294  71.343  1.00  0.00    -0.388 C  
HETATM   28  F   UNL     1     -11.690   6.798  70.441  1.00  0.00    -0.354 F  
HETATM   29  F   UNL     1     -12.231   6.775  72.547  1.00  0.00    -0.239 F  
HETATM   30  F   UNL     1     -13.786   6.765  71.011  1.00  0.00    -0.304 F  
ENDBRANCH  15  16
ENDBRANCH   2  15
TORSDOF 4
ENDMDL
MODEL       48
REMARK 921   NORMALIZED FREE ENERGY PREDICTED BY IDOCK:   -6.66 KCAL/MOL
REMARK 922        TOTAL FREE ENERGY PREDICTED BY IDOCK:   -9.28 KCAL/MOL
REMARK 923 INTER-LIGAND FREE ENERGY PREDICTED BY IDOCK:   -8.81 KCAL/MOL
REMARK 924 INTRA-LIGAND FREE ENERGY PREDICTED BY IDOCK:   -0.47 KCAL/MOL
REMARK 927      BINDING AFFINITY PREDICTED BY RF-SCORE:    0.00 PKD
ROOT
HETATM    1  N   UNL     1     -12.311  13.421  68.164  1.00  0.00    -0.169 NA 
HETATM    2  C   UNL     1     -11.661  12.115  68.408  1.00  0.00    -0.327 C  
HETATM    3  H1  UNL     1     -13.099  13.509  68.807  1.00  0.00     0.000 HD 
HETATM    4  H2  UNL     1     -12.581  13.550  67.189  1.00  0.00     0.000 HD 
ENDROOT
BRANCH   2   5
HETATM    5  C   UNL     1     -11.246  12.009  69.896  1.00  0.00    -0.020 C  
BRANCH   5   6
HETATM    6  C   UNL     1     -11.536  10.653  70.500  1.00  0.00    -0.444 A  
HETATM    7  F   UNL     1      -9.234  10.074  70.449  1.00  0.00    -0.257 F  
HETATM    8  C   UNL     1     -10.497   9.752  70.765  1.00  0.00    -0.269 A  
HETATM    9  C   UNL     1     -10.740   8.516  71.353  1.00  0.00    -0.317 A  
HETATM   10  C   UNL     1     -12.851  10.275  70.817  1.00  0.00    -0.427 A  
HETATM   11  C   UNL     1     -13.093   9.043  71.416  1.00  0.00    -0.284 A  
HETATM   12  F   UNL     1     -12.284   6.989  72.265  1.00  0.00    -0.309 F  
HETATM   13  C   UNL     1     -12.044   8.171  71.685  1.00  0.00    -0.304 A  
HETATM   14  F   UNL     1     -14.351   8.704  71.735  1.00  0.00    -0.422 F  
ENDBRANCH   5   6
ENDBRANCH   2   5
BRANCH   2  15
HETATM   15  C   UNL     1     -10.478  11.983  67.445  1.00  0.00    -0.239 C  
BRANCH  15  16
HETATM   16  C   UNL     1      -9.278  12.863  67.769  1.00  0.00    -0.200 C  
HETATM   17  N   UNL     1      -9.486  16.692  66.338  1.00  0.00    -0.264 NA 
HETATM   18  C   UNL     1      -8.027  14.928  67.254  1.00  0.00    -0.209 C  
HETATM   19  N   UNL     1      -9.161  14.029  67.019  1.00  0.00    -0.237 N  
HETATM   20  C   UNL     1     -10.157  15.736  65.622  1.00  0.00    -0.371 A  
HETATM   21  O   UNL     1      -8.479  12.578  68.657  1.00  0.00    -0.094 OA 
HETATM   22  C   UNL     1      -9.923  14.281  65.792  1.00  0.00    -0.323 C  
HETATM   23  C   UNL     1      -8.488  16.386  67.343  1.00  0.00    -0.178 C  
HETATM   24  N   UNL     1     -11.012  16.321  64.820  1.00  0.00    -0.663 NA 
HETATM   25  N   UNL     1     -10.934  17.672  65.038  1.00  0.00    -0.733 NA 
HETATM   26  C   UNL     1     -10.027  17.897  65.975  1.00  0.00    -0.210 A  
HETATM   27  C   UNL     1      -9.661  19.214  66.556  1.00  0.00    -0.359 C  
HETATM   28  F   UNL     1      -8.683  19.115  67.497  1.00  0.00    -0.295 F  
HETATM   29  F   UNL     1      -9.199  20.076  65.616  1.00  0.00    -0.357 F  
HETATM   30  F   UNL     1     -10.714  19.813  67.168  1.00  0.00    -0.532 F  
ENDBRANCH  15  16
ENDBRANCH   2  15
TORSDOF 4
ENDMDL
MODEL       49
REMARK 921   NORMALIZED FREE ENERGY PREDICTED BY IDOCK:   -6.64 KCAL/MOL
REMARK 922        TOTAL FREE ENERGY PREDICTED BY IDOCK:   -9.25 KCAL/MOL
REMARK 923 INTER-LIGAND FREE ENERGY PREDICTED BY IDOCK:   -8.72 KCAL/MOL
REMARK 924 INTRA-LIGAND FREE ENERGY PREDICTED BY IDOCK:   -0.54 KCAL/MOL
REMARK 927      BINDING AFFINITY PREDICTED BY RF-SCORE:    0.00 PKD
ROOT
HETATM    1  N   UNL     1     -13.271  10.034  70.568  1.00  0.00    -0.601 NA 
HETATM    2  C   UNL     1     -11.890   9.537  70.389  1.00  0.00    -0.124 C  
HETATM    3  H1  UNL     1     -13.841   9.267  70.926  1.00  0.00     0.000 HD 
HETATM    4  H2  UNL     1     -13.654  10.444  69.716  1.00  0.00     0.000 HD 
ENDROOT
BRANCH   2   5
HETATM    5  C   UNL     1     -11.364   8.965  71.728  1.00  0.00    -0.431 C  
BRANCH   5   6
HETATM    6  C   UNL     1     -10.959   7.510  71.637  1.00  0.00    -0.263 A  
HETATM    7  F   UNL     1     -10.635   7.394  73.986  1.00  0.00    -0.386 F  
HETATM    8  C   UNL     1     -10.629   6.787  72.790  1.00  0.00    -0.235 A  
HETATM    9  C   UNL     1     -10.290   5.440  72.731  1.00  0.00    -0.235 A  
HETATM   10  C   UNL     1     -10.917   6.853  70.396  1.00  0.00    -0.315 A  
HETATM   11  C   UNL     1     -10.589   5.502  70.338  1.00  0.00    -0.280 A  
HETATM   12  F   UNL     1      -9.970   3.500  71.435  1.00  0.00    -0.244 F  
HETATM   13  C   UNL     1     -10.280   4.801  71.498  1.00  0.00    -0.176 A  
HETATM   14  F   UNL     1     -10.575   4.880  69.150  1.00  0.00    -0.248 F  
ENDBRANCH   5   6
ENDBRANCH   2   5
BRANCH   2  15
HETATM   15  C   UNL     1     -11.034  10.687  69.851  1.00  0.00    -0.337 C  
BRANCH  15  16
HETATM   16  C   UNL     1     -11.418  11.185  68.464  1.00  0.00    -0.302 C  
HETATM   17  N   UNL     1     -11.185  15.238  67.941  1.00  0.00    -0.321 NA 
HETATM   18  C   UNL     1     -12.073  13.112  67.065  1.00  0.00    -0.307 C  
HETATM   19  N   UNL     1     -11.681  12.547  68.360  1.00  0.00    -0.313 N  
HETATM   20  C   UNL     1     -11.450  14.801  69.212  1.00  0.00    -0.296 A  
HETATM   21  O   UNL     1     -11.463  10.439  67.490  1.00  0.00    -0.386 OA 
HETATM   22  C   UNL     1     -11.895  13.420  69.519  1.00  0.00    -0.332 C  
HETATM   23  C   UNL     1     -11.297  14.398  66.766  1.00  0.00    -0.352 C  
HETATM   24  N   UNL     1     -11.227  15.777  70.057  1.00  0.00    -0.310 NA 
HETATM   25  N   UNL     1     -10.771  16.854  69.342  1.00  0.00    -0.319 NA 
HETATM   26  C   UNL     1     -10.721  16.522  68.063  1.00  0.00    -0.343 A  
HETATM   27  C   UNL     1     -10.235  17.370  66.945  1.00  0.00    -0.322 C  
HETATM   28  F   UNL     1     -10.320  16.743  65.740  1.00  0.00    -0.326 F  
HETATM   29  F   UNL     1     -10.947  18.519  66.827  1.00  0.00    -0.379 F  
HETATM   30  F   UNL     1      -8.932  17.719  67.097  1.00  0.00    -0.232 F  
ENDBRANCH  15  16
ENDBRANCH   2  15
TORSDOF 4
ENDMDL
MODEL       50
REMARK 921   NORMALIZED FREE ENERGY PREDICTED BY IDOCK:   -6.63 KCAL/MOL
REMARK 922        TOTAL FREE ENERGY PREDICTED BY IDOCK:   -9.24 KCAL/MOL
REMARK 923 INTER-LIGAND FREE ENERGY PREDICTED BY IDOCK:   -8.74 KCAL/MOL
REMARK 924 INTRA-LIGAND FREE ENERGY PREDICTED BY IDOCK:   -0.51 KCAL/MOL
REMARK 927      BINDING AFFINITY PREDICTED BY RF-SCORE:    0.00 PKD
ROOT
HETATM    1  N   UNL     1     -13.338   9.656  70.707  1.00  0.00    -0.603 NA 
HETATM    2  C   UNL     1     -11.907   9.918  70.442  1.00  0.00    -0.234 C  
HETATM    3  H1  UNL     1     -13.455   8.654  70.859  1.00  0.00     0.000 HD 
HETATM    4  H2  UNL     1     -13.946  10.017  69.972  1.00  0.00     0.000 HD 
ENDROOT
BRANCH   2   5
HETATM    5  C   UNL     1     -11.051   9.378  71.614  1.00  0.00    -0.409 C  
BRANCH   5   6
HETATM    6  C   UNL     1     -10.812   7.886  71.540  1.00  0.00    -0.268 A  
HETATM    7  F   UNL     1      -9.300   8.160  69.731  1.00  0.00    -0.155 F  
HETATM    8  C   UNL     1      -9.923   7.351  70.601  1.00  0.00    -0.186 A  
HETATM    9  C   UNL     1      -9.662   5.987  70.541  1.00  0.00    -0.210 A  
HETATM   10  C   UNL     1     -11.470   7.009  72.419  1.00  0.00    -0.300 A  
HETATM   11  C   UNL     1     -11.202   5.645  72.367  1.00  0.00    -0.280 A  
HETATM   12  F   UNL     1     -10.045   3.826  71.396  1.00  0.00    -0.249 F  
HETATM   13  C   UNL     1     -10.302   5.139  71.437  1.00  0.00    -0.203 A  
HETATM   14  F   UNL     1     -11.818   4.822  73.228  1.00  0.00    -0.397 F  
ENDBRANCH   5   6
ENDBRANCH   2   5
BRANCH   2  15
HETATM   15  C   UNL     1     -11.730  11.422  70.214  1.00  0.00    -0.397 C  
BRANCH  15  16
HETATM   16  C   UNL     1     -11.987  11.895  68.789  1.00  0.00    -0.249 C  
HETATM   17  N   UNL     1     -11.050  15.811  68.056  1.00  0.00    -0.332 NA 
HETATM   18  C   UNL     1     -12.267  13.817  67.265  1.00  0.00    -0.278 C  
HETATM   19  N   UNL     1     -12.010  13.273  68.602  1.00  0.00    -0.342 N  
HETATM   20  C   UNL     1     -11.419  15.502  69.338  1.00  0.00    -0.337 A  
HETATM   21  O   UNL     1     -12.134  11.110  67.856  1.00  0.00    -0.627 OA 
HETATM   22  C   UNL     1     -12.102  14.236  69.704  1.00  0.00    -0.346 C  
HETATM   23  C   UNL     1     -11.275  14.934  66.925  1.00  0.00    -0.343 C  
HETATM   24  N   UNL     1     -11.054  16.474  70.137  1.00  0.00    -0.292 NA 
HETATM   25  N   UNL     1     -10.402  17.414  69.381  1.00  0.00    -0.232 NA 
HETATM   26  C   UNL     1     -10.377  17.002  68.124  1.00  0.00    -0.347 A  
HETATM   27  C   UNL     1      -9.725  17.688  66.980  1.00  0.00    -0.292 C  
HETATM   28  F   UNL     1      -9.885  17.014  65.808  1.00  0.00    -0.287 F  
HETATM   29  F   UNL     1     -10.226  18.931  66.775  1.00  0.00    -0.335 F  
HETATM   30  F   UNL     1      -8.385  17.819  67.158  1.00  0.00    -0.209 F  
ENDBRANCH  15  16
ENDBRANCH   2  15
TORSDOF 4
ENDMDL
MODEL       51
REMARK 921   NORMALIZED FREE ENERGY PREDICTED BY IDOCK:   -6.61 KCAL/MOL
REMARK 922        TOTAL FREE ENERGY PREDICTED BY IDOCK:   -9.22 KCAL/MOL
REMARK 923 INTER-LIGAND FREE ENERGY PREDICTED BY IDOCK:   -8.45 KCAL/MOL
REMARK 924 INTRA-LIGAND FREE ENERGY PREDICTED BY IDOCK:   -0.78 KCAL/MOL
REMARK 927      BINDING AFFINITY PREDICTED BY RF-SCORE:    0.00 PKD
ROOT
HETATM    1  N   UNL     1     -13.400   8.712  72.599  1.00  0.00    -0.657 NA 
HETATM    2  C   UNL     1     -12.494   9.797  72.165  1.00  0.00    -0.223 C  
HETATM    3  H1  UNL     1     -14.297   9.128  72.850  1.00  0.00     0.000 HD 
HETATM    4  H2  UNL     1     -13.004   8.146  73.350  1.00  0.00     0.000 HD 
ENDROOT
BRANCH   2   5
HETATM    5  C   UNL     1     -13.144  10.586  71.002  1.00  0.00    -0.419 C  
BRANCH   5   6
HETATM    6  C   UNL     1     -12.906  12.077  71.086  1.00  0.00    -0.331 A  
HETATM    7  F   UNL     1     -11.489  12.016  69.182  1.00  0.00    -0.259 F  
HETATM    8  C   UNL     1     -12.093  12.725  70.147  1.00  0.00    -0.298 A  
HETATM    9  C   UNL     1     -11.892  14.100  70.186  1.00  0.00    -0.382 A  
HETATM   10  C   UNL     1     -13.503  12.843  72.101  1.00  0.00    -0.619 A  
HETATM   11  C   UNL     1     -13.311  14.221  72.134  1.00  0.00    -0.416 A  
HETATM   12  F   UNL     1     -12.336  16.171  71.216  1.00  0.00    -0.451 F  
HETATM   13  C   UNL     1     -12.513  14.845  71.181  1.00  0.00    -0.327 A  
HETATM   14  F   UNL     1     -13.905  14.944  73.094  1.00  0.00    -0.473 F  
ENDBRANCH   5   6
ENDBRANCH   2   5
BRANCH   2  15
HETATM   15  C   UNL     1     -11.147   9.174  71.787  1.00  0.00    -0.437 C  
BRANCH  15  16
HETATM   16  C   UNL     1     -10.928   7.753  72.290  1.00  0.00    -0.290 C  
HETATM   17  N   UNL     1     -10.213   4.965  69.381  1.00  0.00    -0.204 NA 
HETATM   18  C   UNL     1     -10.848   5.349  71.732  1.00  0.00    -0.174 C  
HETATM   19  N   UNL     1     -11.029   6.749  71.333  1.00  0.00    -0.236 N  
HETATM   20  C   UNL     1     -10.980   6.041  69.019  1.00  0.00    -0.339 A  
HETATM   21  O   UNL     1     -10.648   7.510  73.461  1.00  0.00    -0.373 OA 
HETATM   22  C   UNL     1     -11.609   6.956  70.002  1.00  0.00    -0.246 C  
HETATM   23  C   UNL     1      -9.925   4.613  70.757  1.00  0.00    -0.214 C  
HETATM   24  N   UNL     1     -11.029   6.113  67.712  1.00  0.00    -0.331 NA 
HETATM   25  N   UNL     1     -10.254   5.101  67.207  1.00  0.00    -0.198 NA 
HETATM   26  C   UNL     1      -9.739   4.419  68.217  1.00  0.00    -0.107 A  
HETATM   27  C   UNL     1      -8.798   3.274  68.124  1.00  0.00    -0.124 C  
HETATM   28  F   UNL     1      -8.457   2.779  69.345  1.00  0.00    -0.070 F  
HETATM   29  F   UNL     1      -9.323   2.236  67.426  1.00  0.00    -0.178 F  
HETATM   30  F   UNL     1      -7.633   3.618  67.518  1.00  0.00    -0.067 F  
ENDBRANCH  15  16
ENDBRANCH   2  15
TORSDOF 4
ENDMDL
MODEL       52
REMARK 921   NORMALIZED FREE ENERGY PREDICTED BY IDOCK:   -6.60 KCAL/MOL
REMARK 922        TOTAL FREE ENERGY PREDICTED BY IDOCK:   -9.21 KCAL/MOL
REMARK 923 INTER-LIGAND FREE ENERGY PREDICTED BY IDOCK:   -8.49 KCAL/MOL
REMARK 924 INTRA-LIGAND FREE ENERGY PREDICTED BY IDOCK:   -0.72 KCAL/MOL
REMARK 927      BINDING AFFINITY PREDICTED BY RF-SCORE:    0.00 PKD
ROOT
HETATM    1  N   UNL     1     -11.324  11.963  63.230  1.00  0.00    -0.681 NA 
HETATM    2  C   UNL     1     -11.770  11.932  64.640  1.00  0.00    -0.232 C  
HETATM    3  H1  UNL     1     -12.148  12.068  62.637  1.00  0.00     0.000 HD 
HETATM    4  H2  UNL     1     -10.759  11.151  62.978  1.00  0.00     0.000 HD 
ENDROOT
BRANCH   2   5
HETATM    5  C   UNL     1     -12.586  13.209  64.957  1.00  0.00    -0.499 C  
BRANCH   5   6
HETATM    6  C   UNL     1     -11.903  14.121  65.952  1.00  0.00    -0.391 A  
HETATM    7  F   UNL     1     -10.727  15.232  64.215  1.00  0.00    -0.255 F  
HETATM    8  C   UNL     1     -11.011  15.110  65.520  1.00  0.00    -0.365 A  
HETATM    9  C   UNL     1     -10.402  15.981  66.416  1.00  0.00    -0.312 A  
HETATM   10  C   UNL     1     -12.158  14.001  67.328  1.00  0.00    -0.405 A  
HETATM   11  C   UNL     1     -11.558  14.879  68.225  1.00  0.00    -0.334 A  
HETATM   12  F   UNL     1     -10.117  16.708  68.638  1.00  0.00    -0.223 F  
HETATM   13  C   UNL     1     -10.688  15.864  67.771  1.00  0.00    -0.320 A  
HETATM   14  F   UNL     1     -11.828  14.768  69.533  1.00  0.00    -0.286 F  
ENDBRANCH   5   6
ENDBRANCH   2   5
BRANCH   2  15
HETATM   15  C   UNL     1     -10.534  11.774  65.529  1.00  0.00    -0.311 C  
BRANCH  15  16
HETATM   16  C   UNL     1     -10.050  10.342  65.717  1.00  0.00    -0.255 C  
HETATM   17  N   UNL     1     -10.855   8.697  69.377  1.00  0.00    -0.155 NA 
HETATM   18  C   UNL     1      -9.529   8.525  67.306  1.00  0.00    -0.157 C  
HETATM   19  N   UNL     1      -9.997   9.887  67.030  1.00  0.00    -0.190 N  
HETATM   20  C   UNL     1     -10.697  10.057  69.341  1.00  0.00    -0.233 A  
HETATM   21  O   UNL     1      -9.756   9.621  64.767  1.00  0.00    -0.237 OA 
HETATM   22  C   UNL     1     -10.083  10.773  68.196  1.00  0.00    -0.164 C  
HETATM   23  C   UNL     1     -10.453   7.815  68.300  1.00  0.00    -0.168 C  
HETATM   24  N   UNL     1     -11.185  10.575  70.441  1.00  0.00    -0.313 NA 
HETATM   25  N   UNL     1     -11.707   9.552  71.190  1.00  0.00    -0.333 NA 
HETATM   26  C   UNL     1     -11.530   8.416  70.536  1.00  0.00    -0.179 A  
HETATM   27  C   UNL     1     -11.990   7.069  70.959  1.00  0.00    -0.361 C  
HETATM   28  F   UNL     1     -11.644   6.097  70.071  1.00  0.00    -0.446 F  
HETATM   29  F   UNL     1     -11.461   6.699  72.152  1.00  0.00    -0.269 F  
HETATM   30  F   UNL     1     -13.340   7.005  71.081  1.00  0.00    -0.415 F  
ENDBRANCH  15  16
ENDBRANCH   2  15
TORSDOF 4
ENDMDL
MODEL       53
REMARK 921   NORMALIZED FREE ENERGY PREDICTED BY IDOCK:   -6.58 KCAL/MOL
REMARK 922        TOTAL FREE ENERGY PREDICTED BY IDOCK:   -9.18 KCAL/MOL
REMARK 923 INTER-LIGAND FREE ENERGY PREDICTED BY IDOCK:   -8.36 KCAL/MOL
REMARK 924 INTRA-LIGAND FREE ENERGY PREDICTED BY IDOCK:   -0.82 KCAL/MOL
REMARK 927      BINDING AFFINITY PREDICTED BY RF-SCORE:    0.00 PKD
ROOT
HETATM    1  N   UNL     1      -7.165  12.058  68.186  1.00  0.00    -0.083 NA 
HETATM    2  C   UNL     1      -8.281  11.175  68.588  1.00  0.00    -0.152 C  
HETATM    3  H1  UNL     1      -6.313  11.719  68.634  1.00  0.00     0.000 HD 
HETATM    4  H2  UNL     1      -7.350  13.041  68.384  1.00  0.00     0.000 HD 
ENDROOT
BRANCH   2   5
HETATM    5  C   UNL     1      -7.945   9.709  68.222  1.00  0.00    -0.096 C  
BRANCH   5   6
HETATM    6  C   UNL     1      -9.003   8.725  68.671  1.00  0.00    -0.138 A  
HETATM    7  F   UNL     1      -8.632   9.278  70.949  1.00  0.00    -0.204 F  
HETATM    8  C   UNL     1      -9.306   8.573  70.029  1.00  0.00    -0.163 A  
HETATM    9  C   UNL     1     -10.300   7.700  70.458  1.00  0.00    -0.211 A  
HETATM   10  C   UNL     1      -9.707   7.951  67.733  1.00  0.00    -0.189 A  
HETATM   11  C   UNL     1     -10.709   7.086  68.161  1.00  0.00    -0.188 A  
HETATM   12  F   UNL     1     -11.972   6.133  69.919  1.00  0.00    -0.433 F  
HETATM   13  C   UNL     1     -11.005   6.964  69.514  1.00  0.00    -0.250 A  
HETATM   14  F   UNL     1     -11.391   6.371  67.255  1.00  0.00    -0.412 F  
ENDBRANCH   5   6
ENDBRANCH   2   5
BRANCH   2  15
HETATM   15  C   UNL     1      -9.559  11.684  67.915  1.00  0.00    -0.180 C  
BRANCH  15  16
HETATM   16  C   UNL     1      -9.762  13.192  67.968  1.00  0.00    -0.224 C  
HETATM   17  N   UNL     1     -12.131  14.527  71.027  1.00  0.00    -0.327 NA 
HETATM   18  C   UNL     1     -11.094  15.072  68.857  1.00  0.00    -0.266 C  
HETATM   19  N   UNL     1     -10.816  13.635  68.761  1.00  0.00    -0.253 N  
HETATM   20  C   UNL     1     -12.387  13.263  70.563  1.00  0.00    -0.316 A  
HETATM   21  O   UNL     1      -9.023  13.973  67.373  1.00  0.00    -0.186 OA 
HETATM   22  C   UNL     1     -11.870  12.753  69.270  1.00  0.00    -0.303 C  
HETATM   23  C   UNL     1     -11.321  15.492  70.313  1.00  0.00    -0.332 C  
HETATM   24  N   UNL     1     -13.118  12.623  71.443  1.00  0.00    -0.286 NA 
HETATM   25  N   UNL     1     -13.310  13.457  72.514  1.00  0.00    -0.527 NA 
HETATM   26  C   UNL     1     -12.693  14.602  72.274  1.00  0.00    -0.335 A  
HETATM   27  C   UNL     1     -12.599  15.767  73.191  1.00  0.00    -0.494 C  
HETATM   28  F   UNL     1     -11.901  16.802  72.648  1.00  0.00    -0.576 F  
HETATM   29  F   UNL     1     -13.819  16.260  73.518  1.00  0.00    -0.623 F  
HETATM   30  F   UNL     1     -11.967  15.455  74.351  1.00  0.00    -0.612 F  
ENDBRANCH  15  16
ENDBRANCH   2  15
TORSDOF 4
ENDMDL
MODEL       54
REMARK 921   NORMALIZED FREE ENERGY PREDICTED BY IDOCK:   -6.57 KCAL/MOL
REMARK 922        TOTAL FREE ENERGY PREDICTED BY IDOCK:   -9.17 KCAL/MOL
REMARK 923 INTER-LIGAND FREE ENERGY PREDICTED BY IDOCK:   -7.98 KCAL/MOL
REMARK 924 INTRA-LIGAND FREE ENERGY PREDICTED BY IDOCK:   -1.19 KCAL/MOL
REMARK 927      BINDING AFFINITY PREDICTED BY RF-SCORE:    0.00 PKD
ROOT
HETATM    1  N   UNL     1     -12.208  14.496  66.497  1.00  0.00    -0.401 NA 
HETATM    2  C   UNL     1     -11.717  13.419  67.383  1.00  0.00    -0.373 C  
HETATM    3  H1  UNL     1     -13.085  14.849  66.880  1.00  0.00     0.000 HD 
HETATM    4  H2  UNL     1     -12.295  14.197  65.525  1.00  0.00     0.000 HD 
ENDROOT
BRANCH   2   5
HETATM    5  C   UNL     1     -11.575  13.956  68.828  1.00  0.00    -0.370 C  
BRANCH   5   6
HETATM    6  C   UNL     1     -12.117  13.007  69.874  1.00  0.00    -0.347 A  
HETATM    7  F   UNL     1     -12.839  14.819  71.227  1.00  0.00    -0.326 F  
HETATM    8  C   UNL     1     -12.745  13.497  71.026  1.00  0.00    -0.322 A  
HETATM    9  C   UNL     1     -13.281  12.640  71.980  1.00  0.00    -0.531 A  
HETATM   10  C   UNL     1     -12.010  11.617  69.705  1.00  0.00    -0.402 A  
HETATM   11  C   UNL     1     -12.557  10.759  70.655  1.00  0.00    -0.357 A  
HETATM   12  F   UNL     1     -13.718  10.437  72.690  1.00  0.00    -0.305 F  
HETATM   13  C   UNL     1     -13.190  11.268  71.782  1.00  0.00    -0.375 A  
HETATM   14  F   UNL     1     -12.469   9.434  70.470  1.00  0.00    -0.225 F  
ENDBRANCH   5   6
ENDBRANCH   2   5
BRANCH   2  15
HETATM   15  C   UNL     1     -10.400  12.889  66.808  1.00  0.00    -0.250 C  
BRANCH  15  16
HETATM   16  C   UNL     1     -10.491  11.528  66.131  1.00  0.00    -0.251 C  
HETATM   17  N   UNL     1      -9.809   8.316  68.574  1.00  0.00    -0.171 NA 
HETATM   18  C   UNL     1      -9.963   9.119  66.248  1.00  0.00    -0.282 C  
HETATM   19  N   UNL     1      -9.934  10.464  66.832  1.00  0.00    -0.198 N  
HETATM   20  C   UNL     1      -9.181   9.485  68.914  1.00  0.00    -0.145 A  
HETATM   21  O   UNL     1     -11.048  11.373  65.047  1.00  0.00    -0.241 OA 
HETATM   22  C   UNL     1      -9.042  10.632  67.983  1.00  0.00    -0.147 C  
HETATM   23  C   UNL     1     -10.413   8.079  67.278  1.00  0.00    -0.314 C  
HETATM   24  N   UNL     1      -8.769   9.407  70.155  1.00  0.00    -0.202 NA 
HETATM   25  N   UNL     1      -9.166   8.192  70.652  1.00  0.00    -0.152 NA 
HETATM   26  C   UNL     1      -9.817   7.539  69.702  1.00  0.00    -0.180 A  
HETATM   27  C   UNL     1     -10.464   6.209  69.826  1.00  0.00    -0.239 C  
HETATM   28  F   UNL     1     -11.048   5.803  68.665  1.00  0.00    -0.337 F  
HETATM   29  F   UNL     1      -9.579   5.239  70.166  1.00  0.00    -0.178 F  
HETATM   30  F   UNL     1     -11.447   6.203  70.763  1.00  0.00    -0.361 F  
ENDBRANCH  15  16
ENDBRANCH   2  15
TORSDOF 4
ENDMDL
MODEL       55
REMARK 921   NORMALIZED FREE ENERGY PREDICTED BY IDOCK:   -6.53 KCAL/MOL
REMARK 922        TOTAL FREE ENERGY PREDICTED BY IDOCK:   -9.12 KCAL/MOL
REMARK 923 INTER-LIGAND FREE ENERGY PREDICTED BY IDOCK:   -8.60 KCAL/MOL
REMARK 924 INTRA-LIGAND FREE ENERGY PREDICTED BY IDOCK:   -0.52 KCAL/MOL
REMARK 927      BINDING AFFINITY PREDICTED BY RF-SCORE:    0.00 PKD
ROOT
HETATM    1  N   UNL     1     -10.009  14.197  69.030  1.00  0.00    -0.411 NA 
HETATM    2  C   UNL     1     -11.158  14.309  68.106  1.00  0.00    -0.258 C  
HETATM    3  H1  UNL     1      -9.613  15.128  69.160  1.00  0.00     0.000 HD 
HETATM    4  H2  UNL     1      -9.318  13.515  68.717  1.00  0.00     0.000 HD 
ENDROOT
BRANCH   2   5
HETATM    5  C   UNL     1     -12.180  15.329  68.665  1.00  0.00    -0.030 C  
BRANCH   5   6
HETATM    6  C   UNL     1     -12.348  15.244  70.166  1.00  0.00    -0.392 A  
HETATM    7  F   UNL     1     -10.908  17.103  70.491  1.00  0.00    -0.131 F  
HETATM    8  C   UNL     1     -11.708  16.159  71.009  1.00  0.00    -0.367 A  
HETATM    9  C   UNL     1     -11.880  16.119  72.389  1.00  0.00    -0.637 A  
HETATM   10  C   UNL     1     -13.158  14.250  70.741  1.00  0.00    -0.321 A  
HETATM   11  C   UNL     1     -13.339  14.217  72.120  1.00  0.00    -0.436 A  
HETATM   12  F   UNL     1     -12.889  15.111  74.263  1.00  0.00    -0.571 F  
HETATM   13  C   UNL     1     -12.707  15.147  72.937  1.00  0.00    -0.421 A  
HETATM   14  F   UNL     1     -14.133  13.278  72.655  1.00  0.00    -0.619 F  
ENDBRANCH   5   6
ENDBRANCH   2   5
BRANCH   2  15
HETATM   15  C   UNL     1     -11.753  12.911  67.910  1.00  0.00    -0.405 C  
BRANCH  15  16
HETATM   16  C   UNL     1     -10.762  11.762  68.045  1.00  0.00    -0.208 C  
HETATM   17  N   UNL     1     -11.682   8.998  70.920  1.00  0.00    -0.284 NA 
HETATM   18  C   UNL     1      -9.931   9.900  69.436  1.00  0.00    -0.212 C  
HETATM   19  N   UNL     1     -10.855  11.016  69.215  1.00  0.00    -0.230 N  
HETATM   20  C   UNL     1     -12.126  10.275  71.138  1.00  0.00    -0.395 A  
HETATM   21  O   UNL     1      -9.952  11.490  67.163  1.00  0.00    -0.196 OA 
HETATM   22  C   UNL     1     -11.612  11.451  70.393  1.00  0.00    -0.172 C  
HETATM   23  C   UNL     1     -10.676   8.657  69.934  1.00  0.00    -0.225 C  
HETATM   24  N   UNL     1     -13.054  10.256  72.062  1.00  0.00    -0.453 NA 
HETATM   25  N   UNL     1     -13.253   8.949  72.428  1.00  0.00    -0.433 NA 
HETATM   26  C   UNL     1     -12.440   8.183  71.719  1.00  0.00    -0.330 A  
HETATM   27  C   UNL     1     -12.362   6.701  71.757  1.00  0.00    -0.337 C  
HETATM   28  F   UNL     1     -11.414   6.207  70.914  1.00  0.00    -0.354 F  
HETATM   29  F   UNL     1     -12.050   6.236  72.993  1.00  0.00    -0.011 F  
HETATM   30  F   UNL     1     -13.532   6.117  71.391  1.00  0.00     0.233 F  
ENDBRANCH  15  16
ENDBRANCH   2  15
TORSDOF 4
ENDMDL
MODEL       56
REMARK 921   NORMALIZED FREE ENERGY PREDICTED BY IDOCK:   -6.50 KCAL/MOL
REMARK 922        TOTAL FREE ENERGY PREDICTED BY IDOCK:   -9.09 KCAL/MOL
REMARK 923 INTER-LIGAND FREE ENERGY PREDICTED BY IDOCK:   -8.65 KCAL/MOL
REMARK 924 INTRA-LIGAND FREE ENERGY PREDICTED BY IDOCK:   -0.43 KCAL/MOL
REMARK 927      BINDING AFFINITY PREDICTED BY RF-SCORE:    0.00 PKD
ROOT
HETATM    1  N   UNL     1     -12.507  10.806  68.617  1.00  0.00    -0.647 NA 
HETATM    2  C   UNL     1     -11.414  11.456  69.373  1.00  0.00    -0.310 C  
HETATM    3  H1  UNL     1     -12.908  11.496  67.982  1.00  0.00     0.000 HD 
HETATM    4  H2  UNL     1     -13.204  10.377  69.225  1.00  0.00     0.000 HD 
ENDROOT
BRANCH   2   5
HETATM    5  C   UNL     1     -10.378  12.049  68.387  1.00  0.00    -0.220 C  
BRANCH   5   6
HETATM    6  C   UNL     1     -10.936  12.273  66.999  1.00  0.00    -0.314 A  
HETATM    7  F   UNL     1     -12.249  14.099  67.759  1.00  0.00    -0.395 F  
HETATM    8  C   UNL     1     -11.841  13.312  66.752  1.00  0.00    -0.394 A  
HETATM    9  C   UNL     1     -12.337  13.556  65.476  1.00  0.00    -0.524 A  
HETATM   10  C   UNL     1     -10.550  11.449  65.929  1.00  0.00    -0.317 A  
HETATM   11  C   UNL     1     -11.037  11.700  64.650  1.00  0.00    -0.278 A  
HETATM   12  F   UNL     1     -12.383  12.986  63.192  1.00  0.00    -0.589 F  
HETATM   13  C   UNL     1     -11.922  12.748  64.426  1.00  0.00    -0.399 A  
HETATM   14  F   UNL     1     -10.641  10.921  63.633  1.00  0.00    -0.408 F  
ENDBRANCH   5   6
ENDBRANCH   2   5
BRANCH   2  15
HETATM   15  C   UNL     1     -10.810  10.422  70.327  1.00  0.00    -0.308 C  
BRANCH  15  16
HETATM   16  C   UNL     1     -11.822   9.586  71.099  1.00  0.00    -0.358 C  
HETATM   17  N   UNL     1     -10.854   5.632  71.525  1.00  0.00    -0.250 NA 
HETATM   18  C   UNL     1     -12.642   7.325  71.659  1.00  0.00    -0.368 C  
HETATM   19  N   UNL     1     -11.700   8.207  70.963  1.00  0.00    -0.285 N  
HETATM   20  C   UNL     1     -10.370   6.262  70.409  1.00  0.00    -0.208 A  
HETATM   21  O   UNL     1     -12.674  10.094  71.823  1.00  0.00    -0.396 OA 
HETATM   22  C   UNL     1     -10.885   7.566  69.926  1.00  0.00    -0.240 C  
HETATM   23  C   UNL     1     -11.908   6.176  72.358  1.00  0.00    -0.238 C  
HETATM   24  N   UNL     1      -9.406   5.540  69.892  1.00  0.00    -0.143 NA 
HETATM   25  N   UNL     1      -9.224   4.446  70.698  1.00  0.00    -0.120 NA 
HETATM   26  C   UNL     1     -10.084   4.512  71.701  1.00  0.00    -0.179 A  
HETATM   27  C   UNL     1     -10.197   3.561  72.836  1.00  0.00    -0.164 C  
HETATM   28  F   UNL     1     -11.190   3.899  73.703  1.00  0.00    -0.292 F  
HETATM   29  F   UNL     1     -10.470   2.299  72.420  1.00  0.00    -0.220 F  
HETATM   30  F   UNL     1      -9.058   3.505  73.572  1.00  0.00    -0.092 F  
ENDBRANCH  15  16
ENDBRANCH   2  15
TORSDOF 4
ENDMDL
MODEL       57
REMARK 921   NORMALIZED FREE ENERGY PREDICTED BY IDOCK:   -6.49 KCAL/MOL
REMARK 922        TOTAL FREE ENERGY PREDICTED BY IDOCK:   -9.07 KCAL/MOL
REMARK 923 INTER-LIGAND FREE ENERGY PREDICTED BY IDOCK:   -8.29 KCAL/MOL
REMARK 924 INTRA-LIGAND FREE ENERGY PREDICTED BY IDOCK:   -0.79 KCAL/MOL
REMARK 927      BINDING AFFINITY PREDICTED BY RF-SCORE:    0.00 PKD
ROOT
HETATM    1  N   UNL     1      -8.340  11.838  66.261  1.00  0.00    -0.378 NA 
HETATM    2  C   UNL     1      -9.471  11.103  66.869  1.00  0.00    -0.185 C  
HETATM    3  H1  UNL     1      -7.500  11.634  66.803  1.00  0.00     0.000 HD 
HETATM    4  H2  UNL     1      -8.521  12.838  66.176  1.00  0.00     0.000 HD 
ENDROOT
BRANCH   2   5
HETATM    5  C   UNL     1      -9.139   9.592  66.929  1.00  0.00    -0.160 C  
BRANCH   5   6
HETATM    6  C   UNL     1      -9.794   8.884  68.095  1.00  0.00    -0.193 A  
HETATM    7  F   UNL     1     -10.618   7.175  66.667  1.00  0.00    -0.336 F  
HETATM    8  C   UNL     1     -10.494   7.686  67.901  1.00  0.00    -0.207 A  
HETATM    9  C   UNL     1     -11.071   7.002  68.964  1.00  0.00    -0.121 A  
HETATM   10  C   UNL     1      -9.705   9.408  69.395  1.00  0.00    -0.181 A  
HETATM   11  C   UNL     1     -10.273   8.718  70.461  1.00  0.00    -0.202 A  
HETATM   12  F   UNL     1     -11.489   6.861  71.278  1.00  0.00    -0.276 F  
HETATM   13  C   UNL     1     -10.949   7.522  70.247  1.00  0.00    -0.250 A  
HETATM   14  F   UNL     1     -10.160   9.216  71.701  1.00  0.00    -0.348 F  
ENDBRANCH   5   6
ENDBRANCH   2   5
BRANCH   2  15
HETATM   15  C   UNL     1     -10.732  11.409  66.056  1.00  0.00    -0.318 C  
BRANCH  15  16
HETATM   16  C   UNL     1     -10.638  12.630  65.151  1.00  0.00    -0.298 C  
HETATM   17  N   UNL     1     -10.686  16.239  67.081  1.00  0.00    -0.288 NA 
HETATM   18  C   UNL     1     -10.950  15.069  64.927  1.00  0.00    -0.413 C  
HETATM   19  N   UNL     1     -10.996  13.843  65.730  1.00  0.00    -0.282 N  
HETATM   20  C   UNL     1     -11.345  15.208  67.698  1.00  0.00    -0.321 A  
HETATM   21  O   UNL     1     -10.241  12.555  63.991  1.00  0.00    -0.385 OA 
HETATM   22  C   UNL     1     -11.713  13.950  67.004  1.00  0.00    -0.397 C  
HETATM   23  C   UNL     1     -10.268  16.206  65.694  1.00  0.00    -0.364 C  
HETATM   24  N   UNL     1     -11.556  15.523  68.952  1.00  0.00    -0.354 NA 
HETATM   25  N   UNL     1     -10.994  16.754  69.175  1.00  0.00    -0.274 NA 
HETATM   26  C   UNL     1     -10.445  17.178  68.049  1.00  0.00    -0.369 A  
HETATM   27  C   UNL     1      -9.684  18.438  67.854  1.00  0.00    -0.308 C  
HETATM   28  F   UNL     1      -9.253  18.595  66.573  1.00  0.00    -0.286 F  
HETATM   29  F   UNL     1     -10.428  19.535  68.142  1.00  0.00    -0.470 F  
HETATM   30  F   UNL     1      -8.573  18.490  68.633  1.00  0.00    -0.321 F  
ENDBRANCH  15  16
ENDBRANCH   2  15
TORSDOF 4
ENDMDL
MODEL       58
REMARK 921   NORMALIZED FREE ENERGY PREDICTED BY IDOCK:   -6.47 KCAL/MOL
REMARK 922        TOTAL FREE ENERGY PREDICTED BY IDOCK:   -9.06 KCAL/MOL
REMARK 923 INTER-LIGAND FREE ENERGY PREDICTED BY IDOCK:   -7.84 KCAL/MOL
REMARK 924 INTRA-LIGAND FREE ENERGY PREDICTED BY IDOCK:   -1.21 KCAL/MOL
REMARK 927      BINDING AFFINITY PREDICTED BY RF-SCORE:    0.00 PKD
ROOT
HETATM    1  N   UNL     1     -11.227   9.214  71.060  1.00  0.00    -0.286 NA 
HETATM    2  C   UNL     1     -10.947  10.446  70.291  1.00  0.00    -0.284 C  
HETATM    3  H1  UNL     1     -11.753   9.473  71.895  1.00  0.00     0.000 HD 
HETATM    4  H2  UNL     1     -10.383   8.684  71.274  1.00  0.00     0.000 HD 
ENDROOT
BRANCH   2   5
HETATM    5  C   UNL     1     -12.275  11.175  69.971  1.00  0.00    -0.402 C  
BRANCH   5   6
HETATM    6  C   UNL     1     -12.432  12.483  70.714  1.00  0.00    -0.357 A  
HETATM    7  F   UNL     1     -13.580  11.401  72.489  1.00  0.00    -0.426 F  
HETATM    8  C   UNL     1     -13.070  12.523  71.960  1.00  0.00    -0.366 A  
HETATM    9  C   UNL     1     -13.192  13.710  72.675  1.00  0.00    -0.533 A  
HETATM   10  C   UNL     1     -11.932  13.679  70.175  1.00  0.00    -0.407 A  
HETATM   11  C   UNL     1     -12.044  14.864  70.895  1.00  0.00    -0.317 A  
HETATM   12  F   UNL     1     -12.767  16.021  72.827  1.00  0.00    -0.435 F  
HETATM   13  C   UNL     1     -12.667  14.878  72.138  1.00  0.00    -0.323 A  
HETATM   14  F   UNL     1     -11.542  15.996  70.380  1.00  0.00    -0.304 F  
ENDBRANCH   5   6
ENDBRANCH   2   5
BRANCH   2  15
HETATM   15  C   UNL     1     -10.159  10.057  69.037  1.00  0.00    -0.211 C  
BRANCH  15  16
HETATM   16  C   UNL     1      -8.866  10.834  68.818  1.00  0.00    -0.163 C  
HETATM   17  N   UNL     1      -9.346  14.689  67.530  1.00  0.00    -0.192 NA 
HETATM   18  C   UNL     1      -7.782  12.801  67.793  1.00  0.00    -0.152 C  
HETATM   19  N   UNL     1      -8.979  11.998  68.066  1.00  0.00    -0.181 N  
HETATM   20  C   UNL     1     -10.326  13.801  67.174  1.00  0.00    -0.261 A  
HETATM   21  O   UNL     1      -7.797  10.473  69.302  1.00  0.00    -0.126 OA 
HETATM   22  C   UNL     1     -10.158  12.329  67.259  1.00  0.00    -0.204 C  
HETATM   23  C   UNL     1      -8.049  14.289  68.038  1.00  0.00    -0.145 C  
HETATM   24  N   UNL     1     -11.388  14.464  66.787  1.00  0.00    -0.340 NA 
HETATM   25  N   UNL     1     -11.120  15.801  66.928  1.00  0.00    -0.204 NA 
HETATM   26  C   UNL     1      -9.892  15.939  67.401  1.00  0.00    -0.234 A  
HETATM   27  C   UNL     1      -9.216  17.213  67.753  1.00  0.00    -0.241 C  
HETATM   28  F   UNL     1      -7.947  17.022  68.207  1.00  0.00    -0.189 F  
HETATM   29  F   UNL     1      -9.118  18.051  66.690  1.00  0.00    -0.250 F  
HETATM   30  F   UNL     1      -9.870  17.885  68.735  1.00  0.00    -0.307 F  
ENDBRANCH  15  16
ENDBRANCH   2  15
TORSDOF 4
ENDMDL
MODEL       59
REMARK 921   NORMALIZED FREE ENERGY PREDICTED BY IDOCK:   -6.47 KCAL/MOL
REMARK 922        TOTAL FREE ENERGY PREDICTED BY IDOCK:   -9.05 KCAL/MOL
REMARK 923 INTER-LIGAND FREE ENERGY PREDICTED BY IDOCK:   -8.40 KCAL/MOL
REMARK 924 INTRA-LIGAND FREE ENERGY PREDICTED BY IDOCK:   -0.64 KCAL/MOL
REMARK 927      BINDING AFFINITY PREDICTED BY RF-SCORE:    0.00 PKD
ROOT
HETATM    1  N   UNL     1     -10.228  13.816  69.193  1.00  0.00    -0.431 NA 
HETATM    2  C   UNL     1     -11.154  14.027  68.059  1.00  0.00    -0.263 C  
HETATM    3  H1  UNL     1     -10.764  13.441  69.976  1.00  0.00     0.000 HD 
HETATM    4  H2  UNL     1      -9.709  14.659  69.439  1.00  0.00     0.000 HD 
ENDROOT
BRANCH   2   5
HETATM    5  C   UNL     1     -11.874  12.699  67.720  1.00  0.00    -0.381 C  
BRANCH   5   6
HETATM    6  C   UNL     1     -11.460  12.120  66.385  1.00  0.00    -0.430 A  
HETATM    7  F   UNL     1     -13.049  13.465  65.243  1.00  0.00    -0.499 F  
HETATM    8  C   UNL     1     -12.066  12.553  65.199  1.00  0.00    -0.446 A  
HETATM    9  C   UNL     1     -11.674  12.059  63.960  1.00  0.00    -0.498 A  
HETATM   10  C   UNL     1     -10.453  11.144  66.308  1.00  0.00    -0.312 A  
HETATM   11  C   UNL     1     -10.053  10.657  65.068  1.00  0.00    -0.321 A  
HETATM   12  F   UNL     1     -10.264  10.645  62.712  1.00  0.00    -0.312 F  
HETATM   13  C   UNL     1     -10.657  11.114  63.902  1.00  0.00    -0.364 A  
HETATM   14  F   UNL     1      -9.074   9.743  65.006  1.00  0.00    -0.192 F  
ENDBRANCH   5   6
ENDBRANCH   2   5
BRANCH   2  15
HETATM   15  C   UNL     1     -10.350  14.590  66.884  1.00  0.00    -0.264 C  
BRANCH  15  16
HETATM   16  C   UNL     1      -8.842  14.637  67.094  1.00  0.00    -0.221 C  
HETATM   17  N   UNL     1      -7.330  18.320  68.043  1.00  0.00    -0.233 NA 
HETATM   18  C   UNL     1      -6.818  16.042  67.251  1.00  0.00    -0.201 C  
HETATM   19  N   UNL     1      -8.266  15.903  67.072  1.00  0.00    -0.198 N  
HETATM   20  C   UNL     1      -8.469  18.306  67.282  1.00  0.00    -0.250 A  
HETATM   21  O   UNL     1      -8.179  13.625  67.303  1.00  0.00    -0.175 OA 
HETATM   22  C   UNL     1      -8.957  17.097  66.575  1.00  0.00    -0.272 C  
HETATM   23  C   UNL     1      -6.490  17.158  68.248  1.00  0.00    -0.153 C  
HETATM   24  N   UNL     1      -9.022  19.493  67.315  1.00  0.00    -0.297 NA 
HETATM   25  N   UNL     1      -8.264  20.286  68.139  1.00  0.00    -0.115 NA 
HETATM   26  C   UNL     1      -7.252  19.570  68.600  1.00  0.00    -0.339 A  
HETATM   27  C   UNL     1      -6.216  20.019  69.564  1.00  0.00    -0.341 C  
HETATM   28  F   UNL     1      -5.300  19.049  69.835  1.00  0.00    -0.190 F  
HETATM   29  F   UNL     1      -5.516  21.085  69.104  1.00  0.00    -0.339 F  
HETATM   30  F   UNL     1      -6.751  20.375  70.760  1.00  0.00    -0.366 F  
ENDBRANCH  15  16
ENDBRANCH   2  15
TORSDOF 4
ENDMDL
MODEL       60
REMARK 921   NORMALIZED FREE ENERGY PREDICTED BY IDOCK:   -6.45 KCAL/MOL
REMARK 922        TOTAL FREE ENERGY PREDICTED BY IDOCK:   -9.02 KCAL/MOL
REMARK 923 INTER-LIGAND FREE ENERGY PREDICTED BY IDOCK:   -8.15 KCAL/MOL
REMARK 924 INTRA-LIGAND FREE ENERGY PREDICTED BY IDOCK:   -0.87 KCAL/MOL
REMARK 927      BINDING AFFINITY PREDICTED BY RF-SCORE:    0.00 PKD
ROOT
HETATM    1  N   UNL     1     -11.876  11.762  66.782  1.00  0.00    -0.568 NA 
HETATM    2  C   UNL     1     -11.146  12.032  68.039  1.00  0.00    -0.241 C  
HETATM    3  H1  UNL     1     -12.819  12.142  66.873  1.00  0.00     0.000 HD 
HETATM    4  H2  UNL     1     -11.873  10.773  66.530  1.00  0.00     0.000 HD 
ENDROOT
BRANCH   2   5
HETATM    5  C   UNL     1     -11.161  13.552  68.335  1.00  0.00    -0.309 C  
BRANCH   5   6
HETATM    6  C   UNL     1     -11.924  13.908  69.592  1.00  0.00    -0.399 A  
HETATM    7  F   UNL     1     -11.891  16.214  69.028  1.00  0.00    -0.358 F  
HETATM    8  C   UNL     1     -12.268  15.237  69.866  1.00  0.00    -0.323 A  
HETATM    9  C   UNL     1     -13.001  15.579  70.997  1.00  0.00    -0.550 A  
HETATM   10  C   UNL     1     -12.310  12.911  70.503  1.00  0.00    -0.362 A  
HETATM   11  C   UNL     1     -13.052  13.252  71.630  1.00  0.00    -0.363 A  
HETATM   12  F   UNL     1     -14.115  14.896  72.956  1.00  0.00    -0.426 F  
HETATM   13  C   UNL     1     -13.397  14.576  71.873  1.00  0.00    -0.365 A  
HETATM   14  F   UNL     1     -13.435  12.288  72.480  1.00  0.00    -0.602 F  
ENDBRANCH   5   6
ENDBRANCH   2   5
BRANCH   2  15
HETATM   15  C   UNL     1      -9.732  11.462  67.903  1.00  0.00    -0.186 C  
BRANCH  15  16
HETATM   16  C   UNL     1      -9.662   9.987  67.531  1.00  0.00    -0.159 C  
HETATM   17  N   UNL     1      -9.658   7.390  70.695  1.00  0.00    -0.172 NA 
HETATM   18  C   UNL     1      -9.207   7.681  68.288  1.00  0.00    -0.139 C  
HETATM   19  N   UNL     1      -9.313   9.118  68.560  1.00  0.00    -0.136 N  
HETATM   20  C   UNL     1      -9.124   8.631  70.923  1.00  0.00    -0.187 A  
HETATM   21  O   UNL     1      -9.927   9.584  66.401  1.00  0.00    -0.236 OA 
HETATM   22  C   UNL     1      -8.741   9.563  69.835  1.00  0.00    -0.210 C  
HETATM   23  C   UNL     1      -9.916   6.861  69.371  1.00  0.00    -0.160 C  
HETATM   24  N   UNL     1      -9.042   8.832  72.215  1.00  0.00    -0.390 NA 
HETATM   25  N   UNL     1      -9.565   7.731  72.844  1.00  0.00    -0.215 NA 
HETATM   26  C   UNL     1      -9.961   6.867  71.924  1.00  0.00    -0.171 A  
HETATM   27  C   UNL     1     -10.632   5.564  72.163  1.00  0.00    -0.226 C  
HETATM   28  F   UNL     1     -10.906   4.899  71.007  1.00  0.00    -0.206 F  
HETATM   29  F   UNL     1      -9.873   4.727  72.913  1.00  0.00    -0.158 F  
HETATM   30  F   UNL     1     -11.821   5.711  72.803  1.00  0.00    -0.331 F  
ENDBRANCH  15  16
ENDBRANCH   2  15
TORSDOF 4
ENDMDL
MODEL       61
REMARK 921   NORMALIZED FREE ENERGY PREDICTED BY IDOCK:   -6.44 KCAL/MOL
REMARK 922        TOTAL FREE ENERGY PREDICTED BY IDOCK:   -9.02 KCAL/MOL
REMARK 923 INTER-LIGAND FREE ENERGY PREDICTED BY IDOCK:   -7.98 KCAL/MOL
REMARK 924 INTRA-LIGAND FREE ENERGY PREDICTED BY IDOCK:   -1.04 KCAL/MOL
REMARK 927      BINDING AFFINITY PREDICTED BY RF-SCORE:    0.00 PKD
ROOT
HETATM    1  N   UNL     1      -7.509  10.185  66.694  1.00  0.00    -0.103 NA 
HETATM    2  C   UNL     1      -8.661   9.914  67.581  1.00  0.00    -0.122 C  
HETATM    3  H1  UNL     1      -6.660  10.169  67.261  1.00  0.00     0.000 HD 
HETATM    4  H2  UNL     1      -7.614  11.051  66.166  1.00  0.00     0.000 HD 
ENDROOT
BRANCH   2   5
HETATM    5  C   UNL     1      -8.448   8.570  68.318  1.00  0.00    -0.135 C  
BRANCH   5   6
HETATM    6  C   UNL     1      -9.369   8.387  69.505  1.00  0.00    -0.158 A  
HETATM    7  F   UNL     1      -8.084   9.901  70.807  1.00  0.00    -0.178 F  
HETATM    8  C   UNL     1      -9.144   9.086  70.697  1.00  0.00    -0.235 A  
HETATM    9  C   UNL     1     -10.000   8.959  71.786  1.00  0.00    -0.397 A  
HETATM   10  C   UNL     1     -10.472   7.521  69.431  1.00  0.00    -0.222 A  
HETATM   11  C   UNL     1     -11.335   7.402  70.515  1.00  0.00    -0.271 A  
HETATM   12  F   UNL     1     -11.937   8.003  72.722  1.00  0.00    -0.398 F  
HETATM   13  C   UNL     1     -11.101   8.119  71.683  1.00  0.00    -0.255 A  
HETATM   14  F   UNL     1     -12.398   6.590  70.423  1.00  0.00    -0.433 F  
ENDBRANCH   5   6
ENDBRANCH   2   5
BRANCH   2  15
HETATM   15  C   UNL     1      -9.934   9.937  66.731  1.00  0.00    -0.272 C  
BRANCH  15  16
HETATM   16  C   UNL     1     -10.430  11.324  66.345  1.00  0.00    -0.257 C  
HETATM   17  N   UNL     1     -12.119  13.482  69.385  1.00  0.00    -0.313 NA 
HETATM   18  C   UNL     1     -11.840  13.260  66.945  1.00  0.00    -0.392 C  
HETATM   19  N   UNL     1     -11.301  11.930  67.244  1.00  0.00    -0.315 N  
HETATM   20  C   UNL     1     -12.217  12.119  69.477  1.00  0.00    -0.109 A  
HETATM   21  O   UNL     1     -10.059  11.889  65.319  1.00  0.00    -0.246 OA 
HETATM   22  C   UNL     1     -11.969  11.208  68.332  1.00  0.00    -0.141 C  
HETATM   23  C   UNL     1     -11.753  14.178  68.168  1.00  0.00    -0.355 C  
HETATM   24  N   UNL     1     -12.533  11.792  70.706  1.00  0.00    -0.348 NA 
HETATM   25  N   UNL     1     -12.602  12.948  71.441  1.00  0.00    -0.283 NA 
HETATM   26  C   UNL     1     -12.328  13.971  70.648  1.00  0.00    -0.375 A  
HETATM   27  C   UNL     1     -12.241  15.399  71.043  1.00  0.00    -0.376 C  
HETATM   28  F   UNL     1     -11.949  16.214  69.992  1.00  0.00    -0.317 F  
HETATM   29  F   UNL     1     -13.405  15.857  71.567  1.00  0.00    -0.527 F  
HETATM   30  F   UNL     1     -11.270  15.616  71.967  1.00  0.00    -0.442 F  
ENDBRANCH  15  16
ENDBRANCH   2  15
TORSDOF 4
ENDMDL
MODEL       62
REMARK 921   NORMALIZED FREE ENERGY PREDICTED BY IDOCK:   -6.43 KCAL/MOL
REMARK 922        TOTAL FREE ENERGY PREDICTED BY IDOCK:   -9.00 KCAL/MOL
REMARK 923 INTER-LIGAND FREE ENERGY PREDICTED BY IDOCK:   -8.85 KCAL/MOL
REMARK 924 INTRA-LIGAND FREE ENERGY PREDICTED BY IDOCK:   -0.14 KCAL/MOL
REMARK 927      BINDING AFFINITY PREDICTED BY RF-SCORE:    0.00 PKD
ROOT
HETATM    1  N   UNL     1     -12.579  13.902  66.499  1.00  0.00    -0.463 NA 
HETATM    2  C   UNL     1     -11.689  13.752  67.671  1.00  0.00    -0.367 C  
HETATM    3  H1  UNL     1     -13.488  14.228  66.830  1.00  0.00     0.000 HD 
HETATM    4  H2  UNL     1     -12.645  13.049  65.944  1.00  0.00     0.000 HD 
ENDROOT
BRANCH   2   5
HETATM    5  C   UNL     1     -11.609  15.093  68.440  1.00  0.00    -0.356 C  
BRANCH   5   6
HETATM    6  C   UNL     1     -11.927  14.956  69.913  1.00  0.00    -0.376 A  
HETATM    7  F   UNL     1     -12.563  12.687  69.622  1.00  0.00    -0.135 F  
HETATM    8  C   UNL     1     -12.376  13.737  70.436  1.00  0.00    -0.353 A  
HETATM    9  C   UNL     1     -12.639  13.581  71.792  1.00  0.00    -0.266 A  
HETATM   10  C   UNL     1     -11.768  16.044  70.786  1.00  0.00    -0.410 A  
HETATM   11  C   UNL     1     -12.020  15.886  72.145  1.00  0.00    -0.518 A  
HETATM   12  F   UNL     1     -12.686  14.514  73.954  1.00  0.00    -0.565 F  
HETATM   13  C   UNL     1     -12.449  14.661  72.644  1.00  0.00    -0.291 A  
HETATM   14  F   UNL     1     -11.841  16.926  72.972  1.00  0.00    -0.571 F  
ENDBRANCH   5   6
ENDBRANCH   2   5
BRANCH   2  15
HETATM   15  C   UNL     1     -10.325  13.263  67.175  1.00  0.00    -0.248 C  
BRANCH  15  16
HETATM   16  C   UNL     1     -10.350  11.953  66.400  1.00  0.00    -0.219 C  
HETATM   17  N   UNL     1     -10.205   8.566  68.693  1.00  0.00    -0.195 NA 
HETATM   18  C   UNL     1      -9.938   9.519  66.435  1.00  0.00    -0.269 C  
HETATM   19  N   UNL     1      -9.959  10.821  67.107  1.00  0.00    -0.188 N  
HETATM   20  C   UNL     1      -9.601   9.681  69.212  1.00  0.00    -0.185 A  
HETATM   21  O   UNL     1     -10.723  11.892  65.231  1.00  0.00    -0.267 OA 
HETATM   22  C   UNL     1      -9.267  10.875  68.399  1.00  0.00    -0.168 C  
HETATM   23  C   UNL     1     -10.592   8.439  67.303  1.00  0.00    -0.257 C  
HETATM   24  N   UNL     1      -9.407   9.505  70.496  1.00  0.00    -0.260 NA 
HETATM   25  N   UNL     1      -9.925   8.282  70.835  1.00  0.00    -0.187 NA 
HETATM   26  C   UNL     1     -10.431   7.722  69.748  1.00  0.00    -0.233 A  
HETATM   27  C   UNL     1     -11.138   6.418  69.671  1.00  0.00    -0.401 C  
HETATM   28  F   UNL     1     -11.532   6.113  68.405  1.00  0.00    -0.408 F  
HETATM   29  F   UNL     1     -10.358   5.388  70.085  1.00  0.00    -0.269 F  
HETATM   30  F   UNL     1     -12.263   6.401  70.430  1.00  0.00    -0.431 F  
ENDBRANCH  15  16
ENDBRANCH   2  15
TORSDOF 4
ENDMDL
MODEL       63
REMARK 921   NORMALIZED FREE ENERGY PREDICTED BY IDOCK:   -6.42 KCAL/MOL
REMARK 922        TOTAL FREE ENERGY PREDICTED BY IDOCK:   -8.99 KCAL/MOL
REMARK 923 INTER-LIGAND FREE ENERGY PREDICTED BY IDOCK:   -8.26 KCAL/MOL
REMARK 924 INTRA-LIGAND FREE ENERGY PREDICTED BY IDOCK:   -0.73 KCAL/MOL
REMARK 927      BINDING AFFINITY PREDICTED BY RF-SCORE:    0.00 PKD
ROOT
HETATM    1  N   UNL     1      -9.676  14.774  68.036  1.00  0.00    -0.210 NA 
HETATM    2  C   UNL     1     -10.794  15.443  67.336  1.00  0.00    -0.309 C  
HETATM    3  H1  UNL     1      -8.893  15.427  68.081  1.00  0.00     0.000 HD 
HETATM    4  H2  UNL     1      -9.421  13.883  67.609  1.00  0.00     0.000 HD 
ENDROOT
BRANCH   2   5
HETATM    5  C   UNL     1     -11.148  16.764  68.061  1.00  0.00    -0.220 C  
BRANCH   5   6
HETATM    6  C   UNL     1     -10.178  17.886  67.763  1.00  0.00    -0.372 A  
HETATM    7  F   UNL     1     -11.011  18.095  65.549  1.00  0.00    -0.381 F  
HETATM    8  C   UNL     1     -10.174  18.512  66.511  1.00  0.00    -0.410 A  
HETATM    9  C   UNL     1      -9.315  19.569  66.230  1.00  0.00    -0.431 A  
HETATM   10  C   UNL     1      -9.270  18.328  68.739  1.00  0.00    -0.252 A  
HETATM   11  C   UNL     1      -8.418  19.393  68.463  1.00  0.00    -0.362 A  
HETATM   12  F   UNL     1      -7.623  21.037  66.960  1.00  0.00    -0.357 F  
HETATM   13  C   UNL     1      -8.443  20.010  67.218  1.00  0.00    -0.334 A  
HETATM   14  F   UNL     1      -7.572  19.820  69.412  1.00  0.00    -0.381 F  
ENDBRANCH   5   6
ENDBRANCH   2   5
BRANCH   2  15
HETATM   15  C   UNL     1     -11.969  14.463  67.267  1.00  0.00    -0.409 C  
BRANCH  15  16
HETATM   16  C   UNL     1     -11.648  13.036  67.693  1.00  0.00    -0.355 C  
HETATM   17  N   UNL     1      -9.962  10.691  64.794  1.00  0.00    -0.303 NA 
HETATM   18  C   UNL     1     -11.105  10.737  66.978  1.00  0.00    -0.174 C  
HETATM   19  N   UNL     1     -11.407  12.136  66.661  1.00  0.00    -0.331 N  
HETATM   20  C   UNL     1     -10.791  11.692  64.362  1.00  0.00    -0.339 A  
HETATM   21  O   UNL     1     -11.575  12.707  68.874  1.00  0.00    -0.274 OA 
HETATM   22  C   UNL     1     -11.733  12.408  65.257  1.00  0.00    -0.390 C  
HETATM   23  C   UNL     1      -9.906  10.233  66.168  1.00  0.00    -0.225 C  
HETATM   24  N   UNL     1     -10.589  11.897  63.084  1.00  0.00    -0.337 NA 
HETATM   25  N   UNL     1      -9.587  11.053  62.679  1.00  0.00    -0.282 NA 
HETATM   26  C   UNL     1      -9.190  10.338  63.719  1.00  0.00    -0.275 A  
HETATM   27  C   UNL     1      -8.091   9.340  63.739  1.00  0.00    -0.155 C  
HETATM   28  F   UNL     1      -7.931   8.765  64.963  1.00  0.00    -0.106 F  
HETATM   29  F   UNL     1      -8.306   8.323  62.867  1.00  0.00    -0.173 F  
HETATM   30  F   UNL     1      -6.891   9.893  63.424  1.00  0.00    -0.106 F  
ENDBRANCH  15  16
ENDBRANCH   2  15
TORSDOF 4
ENDMDL
MODEL       64
REMARK 921   NORMALIZED FREE ENERGY PREDICTED BY IDOCK:   -6.42 KCAL/MOL
REMARK 922        TOTAL FREE ENERGY PREDICTED BY IDOCK:   -8.99 KCAL/MOL
REMARK 923 INTER-LIGAND FREE ENERGY PREDICTED BY IDOCK:   -7.84 KCAL/MOL
REMARK 924 INTRA-LIGAND FREE ENERGY PREDICTED BY IDOCK:   -1.14 KCAL/MOL
REMARK 927      BINDING AFFINITY PREDICTED BY RF-SCORE:    0.00 PKD
ROOT
HETATM    1  N   UNL     1      -7.222  10.265  66.751  1.00  0.00    -0.102 NA 
HETATM    2  C   UNL     1      -8.360  10.026  67.665  1.00  0.00    -0.114 C  
HETATM    3  H1  UNL     1      -6.371  10.322  67.310  1.00  0.00     0.000 HD 
HETATM    4  H2  UNL     1      -7.360  11.083  66.158  1.00  0.00     0.000 HD 
ENDROOT
BRANCH   2   5
HETATM    5  C   UNL     1      -8.097   8.750  68.502  1.00  0.00    -0.116 C  
BRANCH   5   6
HETATM    6  C   UNL     1      -9.298   8.309  69.310  1.00  0.00    -0.155 A  
HETATM    7  F   UNL     1      -9.648   6.447  67.879  1.00  0.00    -0.124 F  
HETATM    8  C   UNL     1     -10.008   7.154  68.960  1.00  0.00    -0.174 A  
HETATM    9  C   UNL     1     -11.092   6.712  69.711  1.00  0.00    -0.398 A  
HETATM   10  C   UNL     1      -9.718   9.043  70.432  1.00  0.00    -0.245 A  
HETATM   11  C   UNL     1     -10.795   8.595  71.190  1.00  0.00    -0.259 A  
HETATM   12  F   UNL     1     -12.508   7.009  71.569  1.00  0.00    -0.340 F  
HETATM   13  C   UNL     1     -11.475   7.436  70.833  1.00  0.00    -0.286 A  
HETATM   14  F   UNL     1     -11.171   9.292  72.272  1.00  0.00    -0.403 F  
ENDBRANCH   5   6
ENDBRANCH   2   5
BRANCH   2  15
HETATM   15  C   UNL     1      -9.638   9.940  66.826  1.00  0.00    -0.231 C  
BRANCH  15  16
HETATM   16  C   UNL     1     -10.201  11.278  66.366  1.00  0.00    -0.230 C  
HETATM   17  N   UNL     1     -12.055  13.483  69.273  1.00  0.00    -0.316 NA 
HETATM   18  C   UNL     1     -11.723  13.160  66.851  1.00  0.00    -0.387 C  
HETATM   19  N   UNL     1     -11.119  11.877  67.222  1.00  0.00    -0.270 N  
HETATM   20  C   UNL     1     -12.081  12.122  69.430  1.00  0.00    -0.190 A  
HETATM   21  O   UNL     1      -9.844  11.812  65.319  1.00  0.00    -0.239 OA 
HETATM   22  C   UNL     1     -11.765  11.173  68.334  1.00  0.00    -0.279 C  
HETATM   23  C   UNL     1     -11.706  14.139  68.029  1.00  0.00    -0.359 C  
HETATM   24  N   UNL     1     -12.399  11.838  70.668  1.00  0.00    -0.356 NA 
HETATM   25  N   UNL     1     -12.543  13.022  71.345  1.00  0.00    -0.290 NA 
HETATM   26  C   UNL     1     -12.311  14.019  70.507  1.00  0.00    -0.367 A  
HETATM   27  C   UNL     1     -12.308  15.467  70.834  1.00  0.00    -0.422 C  
HETATM   28  F   UNL     1     -12.043  16.246  69.749  1.00  0.00    -0.246 F  
HETATM   29  F   UNL     1     -13.503  15.886  71.319  1.00  0.00    -0.539 F  
HETATM   30  F   UNL     1     -11.366  15.781  71.760  1.00  0.00    -0.407 F  
ENDBRANCH  15  16
ENDBRANCH   2  15
TORSDOF 4
ENDMDL
MODEL       65
REMARK 921   NORMALIZED FREE ENERGY PREDICTED BY IDOCK:   -6.35 KCAL/MOL
REMARK 922        TOTAL FREE ENERGY PREDICTED BY IDOCK:   -8.90 KCAL/MOL
REMARK 923 INTER-LIGAND FREE ENERGY PREDICTED BY IDOCK:   -7.19 KCAL/MOL
REMARK 924 INTRA-LIGAND FREE ENERGY PREDICTED BY IDOCK:   -1.71 KCAL/MOL
REMARK 927      BINDING AFFINITY PREDICTED BY RF-SCORE:    0.00 PKD
ROOT
HETATM    1  N   UNL     1     -13.929   8.847  73.231  1.00  0.00    -1.217 NA 
HETATM    2  C   UNL     1     -12.791   8.644  72.307  1.00  0.00    -0.383 C  
HETATM    3  H1  UNL     1     -13.790   9.733  73.716  1.00  0.00     0.000 HD 
HETATM    4  H2  UNL     1     -14.060   8.063  73.870  1.00  0.00     0.000 HD 
ENDROOT
BRANCH   2   5
HETATM    5  C   UNL     1     -12.678   9.851  71.346  1.00  0.00    -0.503 C  
BRANCH   5   6
HETATM    6  C   UNL     1     -11.361   9.900  70.602  1.00  0.00    -0.413 A  
HETATM    7  F   UNL     1     -12.377  11.003  68.761  1.00  0.00    -0.384 F  
HETATM    8  C   UNL     1     -11.277  10.498  69.338  1.00  0.00    -0.269 A  
HETATM    9  C   UNL     1     -10.069  10.585  68.655  1.00  0.00    -0.190 A  
HETATM   10  C   UNL     1     -10.197   9.356  71.167  1.00  0.00    -0.361 A  
HETATM   11  C   UNL     1      -8.986   9.452  70.489  1.00  0.00    -0.253 A  
HETATM   12  F   UNL     1      -7.754  10.159  68.598  1.00  0.00    -0.081 F  
HETATM   13  C   UNL     1      -8.923  10.066  69.243  1.00  0.00    -0.178 A  
HETATM   14  F   UNL     1      -7.877   8.950  71.051  1.00  0.00    -0.088 F  
ENDBRANCH   5   6
ENDBRANCH   2   5
BRANCH   2  15
HETATM   15  C   UNL     1     -12.999   7.314  71.578  1.00  0.00    -0.434 C  
BRANCH  15  16
HETATM   16  C   UNL     1     -11.861   6.312  71.722  1.00  0.00    -0.286 C  
HETATM   17  N   UNL     1      -9.146   6.305  68.660  1.00  0.00    -0.127 NA 
HETATM   18  C   UNL     1     -10.033   5.081  70.608  1.00  0.00    -0.230 C  
HETATM   19  N   UNL     1     -11.137   6.045  70.565  1.00  0.00    -0.321 N  
HETATM   20  C   UNL     1     -10.423   6.682  68.341  1.00  0.00    -0.211 A  
HETATM   21  O   UNL     1     -11.579   5.794  72.799  1.00  0.00    -0.281 OA 
HETATM   22  C   UNL     1     -11.589   6.427  69.223  1.00  0.00    -0.096 C  
HETATM   23  C   UNL     1      -8.794   5.629  69.892  1.00  0.00    -0.129 C  
HETATM   24  N   UNL     1     -10.414   7.296  67.184  1.00  0.00    -0.293 NA 
HETATM   25  N   UNL     1      -9.113   7.361  66.755  1.00  0.00    -0.145 NA 
HETATM   26  C   UNL     1      -8.341   6.782  67.659  1.00  0.00    -0.123 A  
HETATM   27  C   UNL     1      -6.860   6.675  67.622  1.00  0.00    -0.080 C  
HETATM   28  F   UNL     1      -6.358   6.012  68.699  1.00  0.00    -0.032 F  
HETATM   29  F   UNL     1      -6.422   6.007  66.526  1.00  0.00    -0.039 F  
HETATM   30  F   UNL     1      -6.260   7.893  67.616  1.00  0.00    -0.044 F  
ENDBRANCH  15  16
ENDBRANCH   2  15
TORSDOF 4
ENDMDL
MODEL       66
REMARK 921   NORMALIZED FREE ENERGY PREDICTED BY IDOCK:   -6.32 KCAL/MOL
REMARK 922        TOTAL FREE ENERGY PREDICTED BY IDOCK:   -8.87 KCAL/MOL
REMARK 923 INTER-LIGAND FREE ENERGY PREDICTED BY IDOCK:   -8.01 KCAL/MOL
REMARK 924 INTRA-LIGAND FREE ENERGY PREDICTED BY IDOCK:   -0.85 KCAL/MOL
REMARK 927      BINDING AFFINITY PREDICTED BY RF-SCORE:    0.00 PKD
ROOT
HETATM    1  N   UNL     1     -12.803   8.829  71.311  1.00  0.00    -0.478 NA 
HETATM    2  C   UNL     1     -12.118  10.140  71.334  1.00  0.00    -0.382 C  
HETATM    3  H1  UNL     1     -13.726   8.945  71.730  1.00  0.00     0.000 HD 
HETATM    4  H2  UNL     1     -12.257   8.092  71.757  1.00  0.00     0.000 HD 
ENDROOT
BRANCH   2   5
HETATM    5  C   UNL     1     -12.987  11.195  70.607  1.00  0.00    -0.164 C  
BRANCH   5   6
HETATM    6  C   UNL     1     -12.697  12.613  71.047  1.00  0.00    -0.316 A  
HETATM    7  F   UNL     1     -11.389  13.009  69.106  1.00  0.00    -0.270 F  
HETATM    8  C   UNL     1     -11.916  13.462  70.253  1.00  0.00    -0.308 A  
HETATM    9  C   UNL     1     -11.669  14.779  70.624  1.00  0.00    -0.353 A  
HETATM   10  C   UNL     1     -13.212  13.108  72.257  1.00  0.00    -0.555 A  
HETATM   11  C   UNL     1     -12.974  14.429  72.622  1.00  0.00    -0.445 A  
HETATM   12  F   UNL     1     -11.989  16.530  72.166  1.00  0.00    -0.524 F  
HETATM   13  C   UNL     1     -12.210  15.259  71.810  1.00  0.00    -0.360 A  
HETATM   14  F   UNL     1     -13.492  14.897  73.768  1.00  0.00    -0.294 F  
ENDBRANCH   5   6
ENDBRANCH   2   5
BRANCH   2  15
HETATM   15  C   UNL     1     -10.733   9.967  70.704  1.00  0.00    -0.372 C  
BRANCH  15  16
HETATM   16  C   UNL     1     -10.563   8.721  69.845  1.00  0.00    -0.224 C  
HETATM   17  N   UNL     1      -9.909   9.424  65.866  1.00  0.00    -0.297 NA 
HETATM   18  C   UNL     1     -10.554   7.762  67.570  1.00  0.00    -0.248 C  
HETATM   19  N   UNL     1     -10.687   8.909  68.472  1.00  0.00    -0.135 N  
HETATM   20  C   UNL     1     -10.638  10.367  66.541  1.00  0.00    -0.151 A  
HETATM   21  O   UNL     1     -10.303   7.623  70.329  1.00  0.00    -0.207 OA 
HETATM   22  C   UNL     1     -11.248  10.124  67.871  1.00  0.00    -0.163 C  
HETATM   23  C   UNL     1      -9.645   8.096  66.383  1.00  0.00    -0.216 C  
HETATM   24  N   UNL     1     -10.673  11.469  65.833  1.00  0.00    -0.271 NA 
HETATM   25  N   UNL     1      -9.925  11.265  64.702  1.00  0.00    -0.262 NA 
HETATM   26  C   UNL     1      -9.441  10.034  64.732  1.00  0.00    -0.304 A  
HETATM   27  C   UNL     1      -8.536   9.413  63.733  1.00  0.00    -0.195 C  
HETATM   28  F   UNL     1      -8.222   8.125  64.042  1.00  0.00    -0.155 F  
HETATM   29  F   UNL     1      -9.086   9.383  62.493  1.00  0.00    -0.242 F  
HETATM   30  F   UNL     1      -7.355  10.075  63.632  1.00  0.00    -0.121 F  
ENDBRANCH  15  16
ENDBRANCH   2  15
TORSDOF 4
ENDMDL
MODEL       67
REMARK 921   NORMALIZED FREE ENERGY PREDICTED BY IDOCK:   -6.27 KCAL/MOL
REMARK 922        TOTAL FREE ENERGY PREDICTED BY IDOCK:   -8.80 KCAL/MOL
REMARK 923 INTER-LIGAND FREE ENERGY PREDICTED BY IDOCK:   -8.21 KCAL/MOL
REMARK 924 INTRA-LIGAND FREE ENERGY PREDICTED BY IDOCK:   -0.60 KCAL/MOL
REMARK 927      BINDING AFFINITY PREDICTED BY RF-SCORE:    0.00 PKD
ROOT
HETATM    1  N   UNL     1     -13.009  12.373  64.578  1.00  0.00    -0.810 NA 
HETATM    2  C   UNL     1     -11.760  12.349  65.371  1.00  0.00    -0.402 C  
HETATM    3  H1  UNL     1     -12.853  11.838  63.723  1.00  0.00     0.000 HD 
HETATM    4  H2  UNL     1     -13.341  13.320  64.396  1.00  0.00     0.000 HD 
ENDROOT
BRANCH   2   5
HETATM    5  C   UNL     1     -11.340  10.883  65.639  1.00  0.00     0.356 C  
BRANCH   5   6
HETATM    6  C   UNL     1      -9.917  10.584  65.222  1.00  0.00    -0.364 A  
HETATM    7  F   UNL     1     -10.492  10.763  62.926  1.00  0.00    -0.300 F  
HETATM    8  C   UNL     1      -9.561  10.557  63.868  1.00  0.00    -0.309 A  
HETATM    9  C   UNL     1      -8.251  10.320  63.467  1.00  0.00    -0.159 A  
HETATM   10  C   UNL     1      -8.924  10.337  66.184  1.00  0.00    -0.174 A  
HETATM   11  C   UNL     1      -7.611  10.111  65.784  1.00  0.00    -0.134 A  
HETATM   12  F   UNL     1      -6.011   9.892  64.056  1.00  0.00    -0.091 F  
HETATM   13  C   UNL     1      -7.277  10.106  64.434  1.00  0.00    -0.115 A  
HETATM   14  F   UNL     1      -6.668   9.901  66.714  1.00  0.00    -0.073 F  
ENDBRANCH   5   6
ENDBRANCH   2   5
BRANCH   2  15
HETATM   15  C   UNL     1     -11.993  13.150  66.655  1.00  0.00    -0.451 C  
BRANCH  15  16
HETATM   16  C   UNL     1     -10.729  13.597  67.377  1.00  0.00    -0.267 C  
HETATM   17  N   UNL     1      -9.721  17.530  66.858  1.00  0.00    -0.279 NA 
HETATM   18  C   UNL     1      -8.953  15.301  67.579  1.00  0.00    -0.185 C  
HETATM   19  N   UNL     1     -10.180  14.802  66.950  1.00  0.00    -0.255 N  
HETATM   20  C   UNL     1     -10.413  16.937  65.835  1.00  0.00    -0.285 A  
HETATM   21  O   UNL     1     -10.240  12.951  68.300  1.00  0.00    -0.234 OA 
HETATM   22  C   UNL     1     -10.564  15.467  65.701  1.00  0.00    -0.373 C  
HETATM   23  C   UNL     1      -9.075  16.789  67.922  1.00  0.00    -0.224 C  
HETATM   24  N   UNL     1     -10.905  17.867  65.054  1.00  0.00    -0.646 NA 
HETATM   25  N   UNL     1     -10.571  19.084  65.589  1.00  0.00    -0.549 NA 
HETATM   26  C   UNL     1      -9.874  18.882  66.696  1.00  0.00    -0.358 A  
HETATM   27  C   UNL     1      -9.357  19.922  67.620  1.00  0.00    -0.354 C  
HETATM   28  F   UNL     1      -8.668  19.394  68.668  1.00  0.00    -0.368 F  
HETATM   29  F   UNL     1      -8.507  20.780  67.000  1.00  0.00    -0.353 F  
HETATM   30  F   UNL     1     -10.355  20.666  68.162  1.00  0.00    -0.452 F  
ENDBRANCH  15  16
ENDBRANCH   2  15
TORSDOF 4
ENDMDL
MODEL       68
REMARK 921   NORMALIZED FREE ENERGY PREDICTED BY IDOCK:   -6.26 KCAL/MOL
REMARK 922        TOTAL FREE ENERGY PREDICTED BY IDOCK:   -8.78 KCAL/MOL
REMARK 923 INTER-LIGAND FREE ENERGY PREDICTED BY IDOCK:   -7.83 KCAL/MOL
REMARK 924 INTRA-LIGAND FREE ENERGY PREDICTED BY IDOCK:   -0.96 KCAL/MOL
REMARK 927      BINDING AFFINITY PREDICTED BY RF-SCORE:    0.00 PKD
ROOT
HETATM    1  N   UNL     1      -6.504  11.740  66.224  1.00  0.00    -0.413 NA 
HETATM    2  C   UNL     1      -7.346  11.322  67.365  1.00  0.00    -0.115 C  
HETATM    3  H1  UNL     1      -6.230  10.904  65.708  1.00  0.00     0.000 HD 
HETATM    4  H2  UNL     1      -5.705  12.305  66.511  1.00  0.00     0.000 HD 
ENDROOT
BRANCH   2   5
HETATM    5  C   UNL     1      -8.555  10.503  66.850  1.00  0.00    -0.125 C  
BRANCH   5   6
HETATM    6  C   UNL     1      -9.770  11.354  66.555  1.00  0.00    -0.226 A  
HETATM    7  F   UNL     1     -10.487  11.214  68.814  1.00  0.00    -0.173 F  
HETATM    8  C   UNL     1     -10.675  11.683  67.572  1.00  0.00    -0.215 A  
HETATM    9  C   UNL     1     -11.778  12.495  67.329  1.00  0.00    -0.431 A  
HETATM   10  C   UNL     1     -10.010  11.839  65.259  1.00  0.00    -0.284 A  
HETATM   11  C   UNL     1     -11.107  12.660  65.017  1.00  0.00    -0.291 A  
HETATM   12  F   UNL     1     -13.034  13.780  65.807  1.00  0.00    -0.510 F  
HETATM   13  C   UNL     1     -11.983  12.987  66.046  1.00  0.00    -0.440 A  
HETATM   14  F   UNL     1     -11.311  13.135  63.780  1.00  0.00    -0.397 F  
ENDBRANCH   5   6
ENDBRANCH   2   5
BRANCH   2  15
HETATM   15  C   UNL     1      -7.759  12.576  68.140  1.00  0.00    -0.141 C  
BRANCH  15  16
HETATM   16  C   UNL     1      -6.821  13.767  67.990  1.00  0.00    -0.140 C  
HETATM   17  N   UNL     1      -8.667  17.397  67.583  1.00  0.00    -0.219 NA 
HETATM   18  C   UNL     1      -6.568  16.130  67.319  1.00  0.00    -0.196 C  
HETATM   19  N   UNL     1      -7.400  14.938  67.510  1.00  0.00    -0.192 N  
HETATM   20  C   UNL     1      -9.358  16.307  67.126  1.00  0.00    -0.222 A  
HETATM   21  O   UNL     1      -5.635  13.709  68.302  1.00  0.00    -0.086 OA 
HETATM   22  C   UNL     1      -8.726  14.987  66.886  1.00  0.00    -0.256 C  
HETATM   23  C   UNL     1      -7.251  17.376  67.892  1.00  0.00    -0.188 C  
HETATM   24  N   UNL     1     -10.618  16.631  66.970  1.00  0.00    -0.288 NA 
HETATM   25  N   UNL     1     -10.767  17.935  67.369  1.00  0.00    -0.343 NA 
HETATM   26  C   UNL     1      -9.590  18.394  67.762  1.00  0.00    -0.287 A  
HETATM   27  C   UNL     1      -9.306  19.740  68.320  1.00  0.00    -0.329 C  
HETATM   28  F   UNL     1      -7.990  19.911  68.623  1.00  0.00    -0.352 F  
HETATM   29  F   UNL     1      -9.628  20.732  67.453  1.00  0.00    -0.551 F  
HETATM   30  F   UNL     1      -9.990  19.972  69.470  1.00  0.00    -0.422 F  
ENDBRANCH  15  16
ENDBRANCH   2  15
TORSDOF 4
ENDMDL
MODEL       69
REMARK 921   NORMALIZED FREE ENERGY PREDICTED BY IDOCK:   -6.25 KCAL/MOL
REMARK 922        TOTAL FREE ENERGY PREDICTED BY IDOCK:   -8.78 KCAL/MOL
REMARK 923 INTER-LIGAND FREE ENERGY PREDICTED BY IDOCK:   -8.27 KCAL/MOL
REMARK 924 INTRA-LIGAND FREE ENERGY PREDICTED BY IDOCK:   -0.51 KCAL/MOL
REMARK 927      BINDING AFFINITY PREDICTED BY RF-SCORE:    0.00 PKD
ROOT
HETATM    1  N   UNL     1      -8.259  14.891  69.597  1.00  0.00    -0.428 NA 
HETATM    2  C   UNL     1      -7.906  15.056  68.170  1.00  0.00    -0.120 C  
HETATM    3  H1  UNL     1      -7.393  14.807  70.131  1.00  0.00     0.000 HD 
HETATM    4  H2  UNL     1      -8.897  14.111  69.756  1.00  0.00     0.000 HD 
ENDROOT
BRANCH   2   5
HETATM    5  C   UNL     1      -6.969  16.277  68.003  1.00  0.00    -0.140 C  
BRANCH   5   6
HETATM    6  C   UNL     1      -7.715  17.575  67.783  1.00  0.00    -0.209 A  
HETATM    7  F   UNL     1      -6.950  17.701  65.538  1.00  0.00    -0.289 F  
HETATM    8  C   UNL     1      -7.679  18.217  66.539  1.00  0.00    -0.251 A  
HETATM    9  C   UNL     1      -8.386  19.392  66.307  1.00  0.00    -0.346 A  
HETATM   10  C   UNL     1      -8.465  18.157  68.818  1.00  0.00    -0.224 A  
HETATM   11  C   UNL     1      -9.182  19.326  68.583  1.00  0.00    -0.385 A  
HETATM   12  F   UNL     1      -9.840  21.059  67.115  1.00  0.00    -0.611 F  
HETATM   13  C   UNL     1      -9.145  19.936  67.335  1.00  0.00    -0.342 A  
HETATM   14  F   UNL     1      -9.913  19.857  69.574  1.00  0.00    -0.461 F  
ENDBRANCH   5   6
ENDBRANCH   2   5
BRANCH   2  15
HETATM   15  C   UNL     1      -9.204  15.182  67.368  1.00  0.00    -0.199 C  
BRANCH  15  16
HETATM   16  C   UNL     1     -10.483  15.139  68.195  1.00  0.00    -0.245 C  
HETATM   17  N   UNL     1     -11.531  11.438  69.592  1.00  0.00    -0.291 NA 
HETATM   18  C   UNL     1     -12.281  13.746  69.154  1.00  0.00    -0.250 C  
HETATM   19  N   UNL     1     -11.041  13.879  68.384  1.00  0.00    -0.244 N  
HETATM   20  C   UNL     1     -10.820  11.469  68.422  1.00  0.00    -0.211 A  
HETATM   21  O   UNL     1     -10.974  16.149  68.692  1.00  0.00    -0.297 OA 
HETATM   22  C   UNL     1     -10.650  12.698  67.608  1.00  0.00    -0.218 C  
HETATM   23  C   UNL     1     -12.181  12.599  70.165  1.00  0.00    -0.238 C  
HETATM   24  N   UNL     1     -10.330  10.277  68.185  1.00  0.00    -0.167 NA 
HETATM   25  N   UNL     1     -10.686   9.463  69.229  1.00  0.00    -0.227 NA 
HETATM   26  C   UNL     1     -11.393  10.171  70.095  1.00  0.00    -0.303 A  
HETATM   27  C   UNL     1     -11.934   9.697  71.394  1.00  0.00    -0.399 C  
HETATM   28  F   UNL     1     -12.629  10.664  72.053  1.00  0.00    -0.473 F  
HETATM   29  F   UNL     1     -12.786   8.652  71.243  1.00  0.00    -0.315 F  
HETATM   30  F   UNL     1     -10.952   9.296  72.241  1.00  0.00    -0.388 F  
ENDBRANCH  15  16
ENDBRANCH   2  15
TORSDOF 4
ENDMDL
MODEL       70
REMARK 921   NORMALIZED FREE ENERGY PREDICTED BY IDOCK:   -6.25 KCAL/MOL
REMARK 922        TOTAL FREE ENERGY PREDICTED BY IDOCK:   -8.78 KCAL/MOL
REMARK 923 INTER-LIGAND FREE ENERGY PREDICTED BY IDOCK:   -8.30 KCAL/MOL
REMARK 924 INTRA-LIGAND FREE ENERGY PREDICTED BY IDOCK:   -0.48 KCAL/MOL
REMARK 927      BINDING AFFINITY PREDICTED BY RF-SCORE:    0.00 PKD
ROOT
HETATM    1  N   UNL     1     -10.855  13.356  69.571  1.00  0.00    -0.449 NA 
HETATM    2  C   UNL     1     -11.931  12.981  68.628  1.00  0.00    -0.263 C  
HETATM    3  H1  UNL     1     -10.932  12.759  70.395  1.00  0.00     0.000 HD 
HETATM    4  H2  UNL     1     -10.862  14.350  69.802  1.00  0.00     0.000 HD 
ENDROOT
BRANCH   2   5
HETATM    5  C   UNL     1     -11.832  11.473  68.296  1.00  0.00    -0.327 C  
BRANCH   5   6
HETATM    6  C   UNL     1     -11.292  10.644  69.441  1.00  0.00    -0.348 A  
HETATM    7  F   UNL     1     -13.342  10.836  70.622  1.00  0.00    -0.333 F  
HETATM    8  C   UNL     1     -12.094  10.351  70.551  1.00  0.00    -0.332 A  
HETATM    9  C   UNL     1     -11.628   9.561  71.596  1.00  0.00    -0.451 A  
HETATM   10  C   UNL     1      -9.980  10.144  69.409  1.00  0.00    -0.247 A  
HETATM   11  C   UNL     1      -9.516   9.345  70.448  1.00  0.00    -0.268 A  
HETATM   12  F   UNL     1      -9.885   8.280  72.528  1.00  0.00    -0.267 F  
HETATM   13  C   UNL     1     -10.336   9.053  71.532  1.00  0.00    -0.342 A  
HETATM   14  F   UNL     1      -8.269   8.854  70.394  1.00  0.00    -0.091 F  
ENDBRANCH   5   6
ENDBRANCH   2   5
BRANCH   2  15
HETATM   15  C   UNL     1     -11.815  13.876  67.391  1.00  0.00    -0.437 C  
BRANCH  15  16
HETATM   16  C   UNL     1     -10.396  14.108  66.890  1.00  0.00    -0.269 C  
HETATM   17  N   UNL     1      -8.958  17.903  67.418  1.00  0.00    -0.243 NA 
HETATM   18  C   UNL     1      -8.671  15.752  66.246  1.00  0.00    -0.323 C  
HETATM   19  N   UNL     1     -10.015  15.437  66.738  1.00  0.00    -0.243 N  
HETATM   20  C   UNL     1     -10.314  17.780  67.268  1.00  0.00    -0.363 A  
HETATM   21  O   UNL     1      -9.623  13.180  66.663  1.00  0.00    -0.248 OA 
HETATM   22  C   UNL     1     -10.964  16.555  66.742  1.00  0.00     0.046 C  
HETATM   23  C   UNL     1      -8.017  16.850  67.092  1.00  0.00    -0.182 C  
HETATM   24  N   UNL     1     -10.893  18.882  67.675  1.00  0.00    -0.398 NA 
HETATM   25  N   UNL     1      -9.913  19.723  68.138  1.00  0.00    -0.418 NA 
HETATM   26  C   UNL     1      -8.742  19.122  68.004  1.00  0.00    -0.310 A  
HETATM   27  C   UNL     1      -7.421  19.652  68.427  1.00  0.00    -0.324 C  
HETATM   28  F   UNL     1      -6.402  18.797  68.144  1.00  0.00    -0.199 F  
HETATM   29  F   UNL     1      -7.119  20.822  67.811  1.00  0.00    -0.318 F  
HETATM   30  F   UNL     1      -7.365  19.876  69.765  1.00  0.00    -0.355 F  
ENDBRANCH  15  16
ENDBRANCH   2  15
TORSDOF 4
ENDMDL
MODEL       71
REMARK 921   NORMALIZED FREE ENERGY PREDICTED BY IDOCK:   -6.24 KCAL/MOL
REMARK 922        TOTAL FREE ENERGY PREDICTED BY IDOCK:   -8.77 KCAL/MOL
REMARK 923 INTER-LIGAND FREE ENERGY PREDICTED BY IDOCK:   -7.73 KCAL/MOL
REMARK 924 INTRA-LIGAND FREE ENERGY PREDICTED BY IDOCK:   -1.04 KCAL/MOL
REMARK 927      BINDING AFFINITY PREDICTED BY RF-SCORE:    0.00 PKD
ROOT
HETATM    1  N   UNL     1      -6.783   8.419  69.960  1.00  0.00    -0.042 NA 
HETATM    2  C   UNL     1      -8.262   8.402  69.939  1.00  0.00    -0.122 C  
HETATM    3  H1  UNL     1      -6.483   9.031  70.720  1.00  0.00     0.000 HD 
HETATM    4  H2  UNL     1      -6.381   8.682  69.060  1.00  0.00     0.000 HD 
ENDROOT
BRANCH   2   5
HETATM    5  C   UNL     1      -8.798   7.960  71.322  1.00  0.00    -0.152 C  
BRANCH   5   6
HETATM    6  C   UNL     1     -10.300   8.095  71.451  1.00  0.00    -0.258 A  
HETATM    7  F   UNL     1     -10.555   5.741  71.616  1.00  0.00    -0.255 F  
HETATM    8  C   UNL     1     -11.108   6.963  71.611  1.00  0.00    -0.240 A  
HETATM    9  C   UNL     1     -12.485   7.070  71.768  1.00  0.00    -0.393 A  
HETATM   10  C   UNL     1     -10.911   9.359  71.423  1.00  0.00    -0.443 A  
HETATM   11  C   UNL     1     -12.288   9.468  71.591  1.00  0.00    -0.398 A  
HETATM   12  F   UNL     1     -14.392   8.442  71.930  1.00  0.00    -0.424 F  
HETATM   13  C   UNL     1     -13.068   8.330  71.765  1.00  0.00    -0.344 A  
HETATM   14  F   UNL     1     -12.857  10.682  71.586  1.00  0.00    -0.440 F  
ENDBRANCH   5   6
ENDBRANCH   2   5
BRANCH   2  15
HETATM   15  C   UNL     1      -8.713   7.484  68.800  1.00  0.00    -0.128 C  
BRANCH  15  16
HETATM   16  C   UNL     1      -8.524   8.050  67.399  1.00  0.00    -0.126 C  
HETATM   17  N   UNL     1     -10.649  11.454  66.593  1.00  0.00    -0.247 NA 
HETATM   18  C   UNL     1      -9.378   9.565  65.646  1.00  0.00    -0.241 C  
HETATM   19  N   UNL     1      -9.474   8.979  66.987  1.00  0.00    -0.155 N  
HETATM   20  C   UNL     1     -11.194  10.599  67.515  1.00  0.00    -0.253 A  
HETATM   21  O   UNL     1      -7.575   7.732  66.687  1.00  0.00    -0.093 OA 
HETATM   22  C   UNL     1     -10.748   9.194  67.680  1.00  0.00    -0.189 C  
HETATM   23  C   UNL     1      -9.576  11.084  65.693  1.00  0.00    -0.226 C  
HETATM   24  N   UNL     1     -12.116  11.232  68.197  1.00  0.00    -0.631 NA 
HETATM   25  N   UNL     1     -12.150  12.528  67.750  1.00  0.00    -0.398 NA 
HETATM   26  C   UNL     1     -11.246  12.671  66.795  1.00  0.00    -0.300 A  
HETATM   27  C   UNL     1     -10.911  13.924  66.072  1.00  0.00    -0.290 C  
HETATM   28  F   UNL     1      -9.939  13.742  65.137  1.00  0.00    -0.334 F  
HETATM   29  F   UNL     1     -11.981  14.437  65.415  1.00  0.00    -0.348 F  
HETATM   30  F   UNL     1     -10.452  14.890  66.909  1.00  0.00    -0.264 F  
ENDBRANCH  15  16
ENDBRANCH   2  15
TORSDOF 4
ENDMDL
MODEL       72
REMARK 921   NORMALIZED FREE ENERGY PREDICTED BY IDOCK:   -6.24 KCAL/MOL
REMARK 922        TOTAL FREE ENERGY PREDICTED BY IDOCK:   -8.77 KCAL/MOL
REMARK 923 INTER-LIGAND FREE ENERGY PREDICTED BY IDOCK:   -7.93 KCAL/MOL
REMARK 924 INTRA-LIGAND FREE ENERGY PREDICTED BY IDOCK:   -0.84 KCAL/MOL
REMARK 927      BINDING AFFINITY PREDICTED BY RF-SCORE:    0.00 PKD
ROOT
HETATM    1  N   UNL     1      -8.135  14.398  69.344  1.00  0.00    -0.365 NA 
HETATM    2  C   UNL     1      -8.488  13.358  68.353  1.00  0.00    -0.135 C  
HETATM    3  H1  UNL     1      -8.669  15.240  69.126  1.00  0.00     0.000 HD 
HETATM    4  H2  UNL     1      -7.130  14.570  69.392  1.00  0.00     0.000 HD 
ENDROOT
BRANCH   2   5
HETATM    5  C   UNL     1     -10.018  13.126  68.364  1.00  0.00    -0.223 C  
BRANCH   5   6
HETATM    6  C   UNL     1     -10.664  13.347  67.014  1.00  0.00    -0.271 A  
HETATM    7  F   UNL     1     -11.451  11.108  66.960  1.00  0.00    -0.360 F  
HETATM    8  C   UNL     1     -11.372  12.316  66.384  1.00  0.00    -0.354 A  
HETATM    9  C   UNL     1     -12.003  12.511  65.160  1.00  0.00    -0.484 A  
HETATM   10  C   UNL     1     -10.576  14.593  66.371  1.00  0.00    -0.301 A  
HETATM   11  C   UNL     1     -11.217  14.792  65.153  1.00  0.00    -0.382 A  
HETATM   12  F   UNL     1     -12.546  13.957  63.383  1.00  0.00    -0.452 F  
HETATM   13  C   UNL     1     -11.928  13.758  64.553  1.00  0.00    -0.427 A  
HETATM   14  F   UNL     1     -11.145  15.993  64.561  1.00  0.00    -0.456 F  
ENDBRANCH   5   6
ENDBRANCH   2   5
BRANCH   2  15
HETATM   15  C   UNL     1      -7.687  12.095  68.680  1.00  0.00    -0.089 C  
BRANCH  15  16
HETATM   16  C   UNL     1      -8.172  10.825  67.993  1.00  0.00    -0.115 C  
HETATM   17  N   UNL     1     -10.051   8.131  70.435  1.00  0.00    -0.192 NA 
HETATM   18  C   UNL     1      -8.953   8.498  68.258  1.00  0.00    -0.139 C  
HETATM   19  N   UNL     1      -8.492   9.765  68.834  1.00  0.00    -0.123 N  
HETATM   20  C   UNL     1      -9.108   8.932  71.022  1.00  0.00    -0.243 A  
HETATM   21  O   UNL     1      -8.304  10.751  66.774  1.00  0.00    -0.128 OA 
HETATM   22  C   UNL     1      -8.110   9.712  70.249  1.00  0.00    -0.183 C  
HETATM   23  C   UNL     1     -10.184   7.970  69.001  1.00  0.00    -0.210 C  
HETATM   24  N   UNL     1      -9.261   8.895  72.323  1.00  0.00    -0.357 NA 
HETATM   25  N   UNL     1     -10.342   8.095  72.593  1.00  0.00    -0.318 NA 
HETATM   26  C   UNL     1     -10.837   7.651  71.449  1.00  0.00    -0.225 A  
HETATM   27  C   UNL     1     -12.040   6.798  71.276  1.00  0.00    -0.370 C  
HETATM   28  F   UNL     1     -12.285   6.503  69.970  1.00  0.00    -0.438 F  
HETATM   29  F   UNL     1     -11.921   5.610  71.919  1.00  0.00    -0.243 F  
HETATM   30  F   UNL     1     -13.164   7.398  71.744  1.00  0.00    -0.347 F  
ENDBRANCH  15  16
ENDBRANCH   2  15
TORSDOF 4
ENDMDL
MODEL       73
REMARK 921   NORMALIZED FREE ENERGY PREDICTED BY IDOCK:   -6.24 KCAL/MOL
REMARK 922        TOTAL FREE ENERGY PREDICTED BY IDOCK:   -8.77 KCAL/MOL
REMARK 923 INTER-LIGAND FREE ENERGY PREDICTED BY IDOCK:   -8.30 KCAL/MOL
REMARK 924 INTRA-LIGAND FREE ENERGY PREDICTED BY IDOCK:   -0.47 KCAL/MOL
REMARK 927      BINDING AFFINITY PREDICTED BY RF-SCORE:    0.00 PKD
ROOT
HETATM    1  N   UNL     1     -12.584  16.160  69.595  1.00  0.00    -0.461 NA 
HETATM    2  C   UNL     1     -11.220  15.795  69.153  1.00  0.00    -0.322 C  
HETATM    3  H1  UNL     1     -12.632  17.176  69.671  1.00  0.00     0.000 HD 
HETATM    4  H2  UNL     1     -12.858  15.687  70.456  1.00  0.00     0.000 HD 
ENDROOT
BRANCH   2   5
HETATM    5  C   UNL     1     -10.890  16.519  67.825  1.00  0.00    -0.304 C  
BRANCH   5   6
HETATM    6  C   UNL     1      -9.808  17.566  67.969  1.00  0.00    -0.299 A  
HETATM    7  F   UNL     1     -11.192  19.217  66.972  1.00  0.00    -0.512 F  
HETATM    8  C   UNL     1     -10.026  18.882  67.545  1.00  0.00    -0.345 A  
HETATM    9  C   UNL     1      -9.057  19.867  67.702  1.00  0.00    -0.431 A  
HETATM   10  C   UNL     1      -8.566  17.240  68.540  1.00  0.00    -0.270 A  
HETATM   11  C   UNL     1      -7.600  18.227  68.708  1.00  0.00    -0.279 A  
HETATM   12  F   UNL     1      -6.913  20.477  68.462  1.00  0.00    -0.311 F  
HETATM   13  C   UNL     1      -7.846  19.532  68.294  1.00  0.00    -0.327 A  
HETATM   14  F   UNL     1      -6.428  17.909  69.276  1.00  0.00    -0.220 F  
ENDBRANCH   5   6
ENDBRANCH   2   5
BRANCH   2  15
HETATM   15  C   UNL     1     -11.147  14.270  69.038  1.00  0.00    -0.284 C  
BRANCH  15  16
HETATM   16  C   UNL     1     -11.791  13.503  70.186  1.00  0.00    -0.278 C  
HETATM   17  N   UNL     1     -11.263   9.445  70.084  1.00  0.00    -0.239 NA 
HETATM   18  C   UNL     1     -12.549  11.316  71.045  1.00  0.00    -0.394 C  
HETATM   19  N   UNL     1     -11.926  12.131  69.998  1.00  0.00    -0.338 N  
HETATM   20  C   UNL     1     -11.268  10.090  68.875  1.00  0.00    -0.131 A  
HETATM   21  O   UNL     1     -12.140  14.054  71.226  1.00  0.00    -0.336 OA 
HETATM   22  C   UNL     1     -11.771  11.474  68.696  1.00  0.00    -0.326 C  
HETATM   23  C   UNL     1     -11.735  10.047  71.314  1.00  0.00    -0.369 C  
HETATM   24  N   UNL     1     -10.752   9.301  67.965  1.00  0.00    -0.211 NA 
HETATM   25  N   UNL     1     -10.365   8.142  68.586  1.00  0.00    -0.208 NA 
HETATM   26  C   UNL     1     -10.652   8.237  69.875  1.00  0.00    -0.232 A  
HETATM   27  C   UNL     1     -10.355   7.230  70.925  1.00  0.00    -0.201 C  
HETATM   28  F   UNL     1     -10.784   7.619  72.156  1.00  0.00    -0.230 F  
HETATM   29  F   UNL     1     -10.950   6.037  70.673  1.00  0.00    -0.301 F  
HETATM   30  F   UNL     1      -9.023   6.996  71.047  1.00  0.00    -0.146 F  
ENDBRANCH  15  16
ENDBRANCH   2  15
TORSDOF 4
ENDMDL
MODEL       74
REMARK 921   NORMALIZED FREE ENERGY PREDICTED BY IDOCK:   -6.23 KCAL/MOL
REMARK 922        TOTAL FREE ENERGY PREDICTED BY IDOCK:   -8.75 KCAL/MOL
REMARK 923 INTER-LIGAND FREE ENERGY PREDICTED BY IDOCK:   -7.99 KCAL/MOL
REMARK 924 INTRA-LIGAND FREE ENERGY PREDICTED BY IDOCK:   -0.76 KCAL/MOL
REMARK 927      BINDING AFFINITY PREDICTED BY RF-SCORE:    0.00 PKD
ROOT
HETATM    1  N   UNL     1      -9.929  14.157  65.048  1.00  0.00    -0.587 NA 
HETATM    2  C   UNL     1     -10.375  14.795  66.306  1.00  0.00    -0.297 C  
HETATM    3  H1  UNL     1      -9.527  14.879  64.450  1.00  0.00     0.000 HD 
HETATM    4  H2  UNL     1     -10.673  13.632  64.588  1.00  0.00     0.000 HD 
ENDROOT
BRANCH   2   5
HETATM    5  C   UNL     1      -9.188  15.538  66.965  1.00  0.00    -0.242 C  
BRANCH   5   6
HETATM    6  C   UNL     1      -9.433  17.021  67.137  1.00  0.00    -0.245 A  
HETATM    7  F   UNL     1      -8.288  17.026  69.217  1.00  0.00    -0.204 F  
HETATM    8  C   UNL     1      -8.947  17.698  68.262  1.00  0.00    -0.276 A  
HETATM    9  C   UNL     1      -9.131  19.067  68.421  1.00  0.00    -0.391 A  
HETATM   10  C   UNL     1     -10.144  17.748  66.169  1.00  0.00    -0.308 A  
HETATM   11  C   UNL     1     -10.318  19.120  66.321  1.00  0.00    -0.474 A  
HETATM   12  F   UNL     1      -9.981  21.095  67.577  1.00  0.00    -0.585 F  
HETATM   13  C   UNL     1      -9.813  19.775  67.439  1.00  0.00    -0.391 A  
HETATM   14  F   UNL     1     -10.978  19.807  65.378  1.00  0.00    -0.584 F  
ENDBRANCH   5   6
ENDBRANCH   2   5
BRANCH   2  15
HETATM   15  C   UNL     1     -10.978  13.712  67.204  1.00  0.00    -0.299 C  
BRANCH  15  16
HETATM   16  C   UNL     1     -11.218  12.369  66.527  1.00  0.00    -0.319 C  
HETATM   17  N   UNL     1      -9.854   9.108  68.590  1.00  0.00    -0.160 NA 
HETATM   18  C   UNL     1     -10.631   9.973  66.416  1.00  0.00    -0.068 C  
HETATM   19  N   UNL     1     -10.476  11.300  67.019  1.00  0.00    -0.223 N  
HETATM   20  C   UNL     1      -9.181  10.283  68.794  1.00  0.00    -0.166 A  
HETATM   21  O   UNL     1     -12.038  12.229  65.623  1.00  0.00    -0.557 OA 
HETATM   22  C   UNL     1      -9.315  11.460  67.901  1.00  0.00    -0.164 C  
HETATM   23  C   UNL     1     -10.774   8.892  67.492  1.00  0.00    -0.152 C  
HETATM   24  N   UNL     1      -8.455  10.181  69.880  1.00  0.00    -0.146 NA 
HETATM   25  N   UNL     1      -8.684   8.941  70.420  1.00  0.00    -0.162 NA 
HETATM   26  C   UNL     1      -9.549   8.298  69.653  1.00  0.00    -0.167 A  
HETATM   27  C   UNL     1     -10.115   6.947  69.895  1.00  0.00    -0.188 C  
HETATM   28  F   UNL     1     -10.975   6.559  68.915  1.00  0.00    -0.254 F  
HETATM   29  F   UNL     1      -9.152   5.993  69.956  1.00  0.00    -0.138 F  
HETATM   30  F   UNL     1     -10.815   6.887  71.057  1.00  0.00    -0.242 F  
ENDBRANCH  15  16
ENDBRANCH   2  15
TORSDOF 4
ENDMDL
MODEL       75
REMARK 921   NORMALIZED FREE ENERGY PREDICTED BY IDOCK:   -6.23 KCAL/MOL
REMARK 922        TOTAL FREE ENERGY PREDICTED BY IDOCK:   -8.75 KCAL/MOL
REMARK 923 INTER-LIGAND FREE ENERGY PREDICTED BY IDOCK:   -7.97 KCAL/MOL
REMARK 924 INTRA-LIGAND FREE ENERGY PREDICTED BY IDOCK:   -0.78 KCAL/MOL
REMARK 927      BINDING AFFINITY PREDICTED BY RF-SCORE:    0.00 PKD
ROOT
HETATM    1  N   UNL     1     -10.523  16.010  69.702  1.00  0.00    -0.280 NA 
HETATM    2  C   UNL     1     -10.288  14.695  69.068  1.00  0.00    -0.235 C  
HETATM    3  H1  UNL     1      -9.622  16.478  69.808  1.00  0.00     0.000 HD 
HETATM    4  H2  UNL     1     -11.034  15.936  70.582  1.00  0.00     0.000 HD 
ENDROOT
BRANCH   2   5
HETATM    5  C   UNL     1      -9.544  14.889  67.724  1.00  0.00    -0.208 C  
BRANCH   5   6
HETATM    6  C   UNL     1     -10.260  14.259  66.550  1.00  0.00    -0.277 A  
HETATM    7  F   UNL     1      -9.232  12.162  66.976  1.00  0.00    -0.178 F  
HETATM    8  C   UNL     1     -10.076  12.904  66.245  1.00  0.00    -0.276 A  
HETATM    9  C   UNL     1     -10.752  12.298  65.192  1.00  0.00    -0.330 A  
HETATM   10  C   UNL     1     -11.130  15.016  65.748  1.00  0.00    -0.346 A  
HETATM   11  C   UNL     1     -11.815  14.408  64.702  1.00  0.00    -0.451 A  
HETATM   12  F   UNL     1     -12.295  12.478  63.422  1.00  0.00    -0.530 F  
HETATM   13  C   UNL     1     -11.629  13.057  64.428  1.00  0.00    -0.369 A  
HETATM   14  F   UNL     1     -12.661  15.137  63.959  1.00  0.00    -0.490 F  
ENDBRANCH   5   6
ENDBRANCH   2   5
BRANCH   2  15
HETATM   15  C   UNL     1     -11.639  13.992  68.909  1.00  0.00    -0.351 C  
BRANCH  15  16
HETATM   16  C   UNL     1     -12.093  13.183  70.117  1.00  0.00    -0.321 C  
HETATM   17  N   UNL     1     -11.042   9.228  70.060  1.00  0.00    -0.229 NA 
HETATM   18  C   UNL     1     -12.494  10.943  71.075  1.00  0.00    -0.411 C  
HETATM   19  N   UNL     1     -12.059  11.800  69.968  1.00  0.00    -0.323 N  
HETATM   20  C   UNL     1     -11.218   9.830  68.842  1.00  0.00    -0.030 A  
HETATM   21  O   UNL     1     -12.438  13.715  71.169  1.00  0.00    -0.354 OA 
HETATM   22  C   UNL     1     -11.911  11.130  68.672  1.00  0.00    -0.287 C  
HETATM   23  C   UNL     1     -11.501   9.800  71.309  1.00  0.00    -0.385 C  
HETATM   24  N   UNL     1     -10.669   9.088  67.912  1.00  0.00    -0.186 NA 
HETATM   25  N   UNL     1     -10.089   8.008  68.527  1.00  0.00    -0.194 NA 
HETATM   26  C   UNL     1     -10.294   8.103  69.831  1.00  0.00    -0.214 A  
HETATM   27  C   UNL     1      -9.793   7.176  70.876  1.00  0.00    -0.181 C  
HETATM   28  F   UNL     1     -10.182   7.542  72.128  1.00  0.00    -0.198 F  
HETATM   29  F   UNL     1     -10.242   5.909  70.694  1.00  0.00    -0.214 F  
HETATM   30  F   UNL     1      -8.436   7.122  70.905  1.00  0.00    -0.125 F  
ENDBRANCH  15  16
ENDBRANCH   2  15
TORSDOF 4
ENDMDL
MODEL       76
REMARK 921   NORMALIZED FREE ENERGY PREDICTED BY IDOCK:   -6.22 KCAL/MOL
REMARK 922        TOTAL FREE ENERGY PREDICTED BY IDOCK:   -8.74 KCAL/MOL
REMARK 923 INTER-LIGAND FREE ENERGY PREDICTED BY IDOCK:   -7.99 KCAL/MOL
REMARK 924 INTRA-LIGAND FREE ENERGY PREDICTED BY IDOCK:   -0.75 KCAL/MOL
REMARK 927      BINDING AFFINITY PREDICTED BY RF-SCORE:    0.00 PKD
ROOT
HETATM    1  N   UNL     1     -12.321  14.949  63.598  1.00  0.00    -1.053 NA 
HETATM    2  C   UNL     1     -12.147  14.526  65.004  1.00  0.00    -0.389 C  
HETATM    3  H1  UNL     1     -12.007  15.917  63.516  1.00  0.00     0.000 HD 
HETATM    4  H2  UNL     1     -13.275  14.815  63.263  1.00  0.00     0.000 HD 
ENDROOT
BRANCH   2   5
HETATM    5  C   UNL     1     -10.671  14.722  65.429  1.00  0.00    -0.385 C  
BRANCH   5   6
HETATM    6  C   UNL     1     -10.490  15.799  66.476  1.00  0.00    -0.304 A  
HETATM    7  F   UNL     1     -10.830  17.506  64.861  1.00  0.00    -0.317 F  
HETATM    8  C   UNL     1     -10.598  17.153  66.134  1.00  0.00    -0.201 A  
HETATM    9  C   UNL     1     -10.471  18.156  67.089  1.00  0.00    -0.392 A  
HETATM   10  C   UNL     1     -10.219  15.463  67.813  1.00  0.00    -0.241 A  
HETATM   11  C   UNL     1     -10.103  16.465  68.770  1.00  0.00    -0.247 A  
HETATM   12  F   UNL     1     -10.122  18.761  69.338  1.00  0.00    -0.375 F  
HETATM   13  C   UNL     1     -10.231  17.802  68.410  1.00  0.00    -0.384 A  
HETATM   14  F   UNL     1      -9.868  16.129  70.047  1.00  0.00    -0.207 F  
ENDBRANCH   5   6
ENDBRANCH   2   5
BRANCH   2  15
HETATM   15  C   UNL     1     -12.618  13.074  65.128  1.00  0.00    -0.530 C  
BRANCH  15  16
HETATM   16  C   UNL     1     -11.831  12.220  66.115  1.00  0.00    -0.329 C  
HETATM   17  N   UNL     1      -8.493  10.416  64.581  1.00  0.00    -0.177 NA 
HETATM   18  C   UNL     1     -10.125  10.464  66.429  1.00  0.00    -0.228 C  
HETATM   19  N   UNL     1     -10.915  11.336  65.555  1.00  0.00    -0.186 N  
HETATM   20  C   UNL     1      -9.514  10.659  63.701  1.00  0.00    -0.299 A  
HETATM   21  O   UNL     1     -11.973  12.327  67.330  1.00  0.00    -0.546 OA 
HETATM   22  C   UNL     1     -10.895  10.987  64.130  1.00  0.00    -0.180 C  
HETATM   23  C   UNL     1      -8.649  10.466  66.021  1.00  0.00    -0.151 C  
HETATM   24  N   UNL     1      -9.056  10.570  62.477  1.00  0.00    -0.262 NA 
HETATM   25  N   UNL     1      -7.712  10.309  62.551  1.00  0.00    -0.139 NA 
HETATM   26  C   UNL     1      -7.364  10.239  63.825  1.00  0.00    -0.069 A  
HETATM   27  C   UNL     1      -5.996  10.025  64.360  1.00  0.00    -0.121 C  
HETATM   28  F   UNL     1      -5.966   9.993  65.720  1.00  0.00    -0.058 F  
HETATM   29  F   UNL     1      -5.460   8.852  63.940  1.00  0.00    -0.058 F  
HETATM   30  F   UNL     1      -5.142  11.013  63.989  1.00  0.00    -0.167 F  
ENDBRANCH  15  16
ENDBRANCH   2  15
TORSDOF 4
ENDMDL
MODEL       77
REMARK 921   NORMALIZED FREE ENERGY PREDICTED BY IDOCK:   -6.20 KCAL/MOL
REMARK 922        TOTAL FREE ENERGY PREDICTED BY IDOCK:   -8.72 KCAL/MOL
REMARK 923 INTER-LIGAND FREE ENERGY PREDICTED BY IDOCK:   -7.95 KCAL/MOL
REMARK 924 INTRA-LIGAND FREE ENERGY PREDICTED BY IDOCK:   -0.77 KCAL/MOL
REMARK 927      BINDING AFFINITY PREDICTED BY RF-SCORE:    0.00 PKD
ROOT
HETATM    1  N   UNL     1     -10.793  15.354  71.732  1.00  0.00    -0.291 NA 
HETATM    2  C   UNL     1     -11.178  15.932  70.426  1.00  0.00    -0.378 C  
HETATM    3  H1  UNL     1     -11.627  15.306  72.317  1.00  0.00     0.000 HD 
HETATM    4  H2  UNL     1     -10.028  15.862  72.176  1.00  0.00     0.000 HD 
ENDROOT
BRANCH   2   5
HETATM    5  C   UNL     1     -12.314  15.089  69.797  1.00  0.00    -0.278 C  
BRANCH   5   6
HETATM    6  C   UNL     1     -12.367  13.672  70.323  1.00  0.00    -0.392 A  
HETATM    7  F   UNL     1     -13.557  14.372  72.254  1.00  0.00    -0.386 F  
HETATM    8  C   UNL     1     -13.010  13.383  71.532  1.00  0.00    -0.341 A  
HETATM    9  C   UNL     1     -13.101  12.082  72.014  1.00  0.00    -0.456 A  
HETATM   10  C   UNL     1     -11.780  12.617  69.604  1.00  0.00    -0.373 A  
HETATM   11  C   UNL     1     -11.879  11.314  70.080  1.00  0.00    -0.364 A  
HETATM   12  F   UNL     1     -12.634   9.791  71.726  1.00  0.00    -0.397 F  
HETATM   13  C   UNL     1     -12.538  11.048  71.276  1.00  0.00    -0.412 A  
HETATM   14  F   UNL     1     -11.335  10.313  69.373  1.00  0.00    -0.240 F  
ENDBRANCH   5   6
ENDBRANCH   2   5
BRANCH   2  15
HETATM   15  C   UNL     1      -9.927  16.004  69.547  1.00  0.00    -0.255 C  
BRANCH  15  16
HETATM   16  C   UNL     1     -10.156  15.711  68.070  1.00  0.00    -0.224 C  
HETATM   17  N   UNL     1      -9.262  11.894  66.892  1.00  0.00    -0.187 NA 
HETATM   18  C   UNL     1      -9.702  14.208  66.164  1.00  0.00    -0.290 C  
HETATM   19  N   UNL     1      -9.547  14.560  67.579  1.00  0.00    -0.208 N  
HETATM   20  C   UNL     1      -8.553  12.386  67.956  1.00  0.00    -0.180 A  
HETATM   21  O   UNL     1     -10.860  16.426  67.362  1.00  0.00    -0.302 OA 
HETATM   22  C   UNL     1      -8.502  13.828  68.300  1.00  0.00    -0.173 C  
HETATM   23  C   UNL     1     -10.044  12.725  65.999  1.00  0.00    -0.268 C  
HETATM   24  N   UNL     1      -7.980  11.391  68.587  1.00  0.00    -0.141 NA 
HETATM   25  N   UNL     1      -8.348  10.229  67.959  1.00  0.00    -0.113 NA 
HETATM   26  C   UNL     1      -9.144  10.530  66.946  1.00  0.00    -0.147 A  
HETATM   27  C   UNL     1      -9.814   9.572  66.031  1.00  0.00    -0.283 C  
HETATM   28  F   UNL     1     -10.563  10.195  65.081  1.00  0.00    -0.324 F  
HETATM   29  F   UNL     1      -8.925   8.794  65.364  1.00  0.00    -0.201 F  
HETATM   30  F   UNL     1     -10.660   8.741  66.692  1.00  0.00    -0.342 F  
ENDBRANCH  15  16
ENDBRANCH   2  15
TORSDOF 4
ENDMDL
MODEL       78
REMARK 921   NORMALIZED FREE ENERGY PREDICTED BY IDOCK:   -6.19 KCAL/MOL
REMARK 922        TOTAL FREE ENERGY PREDICTED BY IDOCK:   -8.70 KCAL/MOL
REMARK 923 INTER-LIGAND FREE ENERGY PREDICTED BY IDOCK:   -8.05 KCAL/MOL
REMARK 924 INTRA-LIGAND FREE ENERGY PREDICTED BY IDOCK:   -0.65 KCAL/MOL
REMARK 927      BINDING AFFINITY PREDICTED BY RF-SCORE:    0.00 PKD
ROOT
HETATM    1  N   UNL     1     -12.121  10.651  68.256  1.00  0.00    -0.789 NA 
HETATM    2  C   UNL     1     -10.694  10.274  68.156  1.00  0.00    -0.246 C  
HETATM    3  H1  UNL     1     -12.624   9.880  68.696  1.00  0.00     0.000 HD 
HETATM    4  H2  UNL     1     -12.521  10.920  67.356  1.00  0.00     0.000 HD 
ENDROOT
BRANCH   2   5
HETATM    5  C   UNL     1     -10.149   9.918  69.560  1.00  0.00    -0.240 C  
BRANCH   5   6
HETATM    6  C   UNL     1     -10.308   8.454  69.908  1.00  0.00    -0.210 A  
HETATM    7  F   UNL     1     -11.083   8.996  72.085  1.00  0.00    -0.408 F  
HETATM    8  C   UNL     1     -10.791   8.067  71.164  1.00  0.00    -0.238 A  
HETATM    9  C   UNL     1     -10.977   6.728  71.490  1.00  0.00    -0.274 A  
HETATM   10  C   UNL     1      -9.984   7.455  68.975  1.00  0.00    -0.176 A  
HETATM   11  C   UNL     1     -10.182   6.116  69.296  1.00  0.00    -0.201 A  
HETATM   12  F   UNL     1     -10.869   4.466  70.844  1.00  0.00     0.033 F  
HETATM   13  C   UNL     1     -10.678   5.756  70.543  1.00  0.00    -0.291 A  
HETATM   14  F   UNL     1      -9.891   5.174  68.387  1.00  0.00    -0.158 F  
ENDBRANCH   5   6
ENDBRANCH   2   5
BRANCH   2  15
HETATM   15  C   UNL     1      -9.939  11.431  67.496  1.00  0.00    -0.201 C  
BRANCH  15  16
HETATM   16  C   UNL     1     -10.746  12.238  66.487  1.00  0.00    -0.246 C  
HETATM   17  N   UNL     1     -10.829  16.276  67.152  1.00  0.00    -0.248 NA 
HETATM   18  C   UNL     1     -11.865  14.377  65.968  1.00  0.00    -0.372 C  
HETATM   19  N   UNL     1     -11.077  13.533  66.872  1.00  0.00    -0.292 N  
HETATM   20  C   UNL     1     -10.678  15.479  68.256  1.00  0.00    -0.271 A  
HETATM   21  O   UNL     1     -11.058  11.787  65.388  1.00  0.00    -0.306 OA 
HETATM   22  C   UNL     1     -10.958  14.022  68.249  1.00  0.00    -0.255 C  
HETATM   23  C   UNL     1     -11.264  15.782  65.861  1.00  0.00     0.004 C  
HETATM   24  N   UNL     1     -10.244  16.206  69.255  1.00  0.00    -0.241 NA 
HETATM   25  N   UNL     1     -10.066  17.486  68.795  1.00  0.00    -0.350 NA 
HETATM   26  C   UNL     1     -10.397  17.525  67.515  1.00  0.00    -0.356 A  
HETATM   27  C   UNL     1     -10.306  18.699  66.611  1.00  0.00    -0.415 C  
HETATM   28  F   UNL     1     -10.731  18.421  65.349  1.00  0.00    -0.444 F  
HETATM   29  F   UNL     1     -11.061  19.739  67.046  1.00  0.00    -0.572 F  
HETATM   30  F   UNL     1      -9.032  19.152  66.488  1.00  0.00    -0.292 F  
ENDBRANCH  15  16
ENDBRANCH   2  15
TORSDOF 4
ENDMDL
MODEL       79
REMARK 921   NORMALIZED FREE ENERGY PREDICTED BY IDOCK:   -6.17 KCAL/MOL
REMARK 922        TOTAL FREE ENERGY PREDICTED BY IDOCK:   -8.68 KCAL/MOL
REMARK 923 INTER-LIGAND FREE ENERGY PREDICTED BY IDOCK:   -8.24 KCAL/MOL
REMARK 924 INTRA-LIGAND FREE ENERGY PREDICTED BY IDOCK:   -0.44 KCAL/MOL
REMARK 927      BINDING AFFINITY PREDICTED BY RF-SCORE:    0.00 PKD
ROOT
HETATM    1  N   UNL     1      -9.366  13.040  67.001  1.00  0.00    -0.229 NA 
HETATM    2  C   UNL     1     -10.598  12.468  66.414  1.00  0.00    -0.247 C  
HETATM    3  H1  UNL     1      -9.203  13.952  66.574  1.00  0.00     0.000 HD 
HETATM    4  H2  UNL     1      -8.564  12.415  66.916  1.00  0.00     0.000 HD 
ENDROOT
BRANCH   2   5
HETATM    5  C   UNL     1     -11.776  13.452  66.615  1.00  0.00    -0.428 C  
BRANCH   5   6
HETATM    6  C   UNL     1     -11.375  14.727  67.323  1.00  0.00    -0.366 A  
HETATM    7  F   UNL     1     -12.466  14.032  69.314  1.00  0.00    -0.375 F  
HETATM    8  C   UNL     1     -11.732  14.944  68.660  1.00  0.00    -0.330 A  
HETATM    9  C   UNL     1     -11.341  16.093  69.338  1.00  0.00    -0.323 A  
HETATM   10  C   UNL     1     -10.630  15.714  66.657  1.00  0.00    -0.307 A  
HETATM   11  C   UNL     1     -10.229  16.859  67.339  1.00  0.00    -0.298 A  
HETATM   12  F   UNL     1     -10.189  18.147  69.322  1.00  0.00    -0.367 F  
HETATM   13  C   UNL     1     -10.581  17.045  68.671  1.00  0.00    -0.362 A  
HETATM   14  F   UNL     1      -9.498  17.782  66.699  1.00  0.00    -0.256 F  
ENDBRANCH   5   6
ENDBRANCH   2   5
BRANCH   2  15
HETATM   15  C   UNL     1     -10.843  11.100  67.055  1.00  0.00    -0.338 C  
BRANCH  15  16
HETATM   16  C   UNL     1      -9.659  10.522  67.821  1.00  0.00    -0.156 C  
HETATM   17  N   UNL     1     -10.593   8.733  71.382  1.00  0.00    -0.253 NA 
HETATM   18  C   UNL     1      -8.801   9.683  69.979  1.00  0.00    -0.232 C  
HETATM   19  N   UNL     1      -9.890  10.228  69.161  1.00  0.00    -0.205 N  
HETATM   20  C   UNL     1     -11.421   9.744  70.971  1.00  0.00    -0.383 A  
HETATM   21  O   UNL     1      -8.578  10.300  67.283  1.00  0.00    -0.125 OA 
HETATM   22  C   UNL     1     -11.058  10.709  69.905  1.00  0.00    -0.298 C  
HETATM   23  C   UNL     1      -9.282   8.492  70.813  1.00  0.00    -0.172 C  
HETATM   24  N   UNL     1     -12.541   9.684  71.649  1.00  0.00    -0.373 NA 
HETATM   25  N   UNL     1     -12.467   8.598  72.484  1.00  0.00    -0.366 NA 
HETATM   26  C   UNL     1     -11.297   8.007  72.306  1.00  0.00    -0.353 A  
HETATM   27  C   UNL     1     -10.821   6.766  72.968  1.00  0.00    -0.283 C  
HETATM   28  F   UNL     1      -9.565   6.417  72.580  1.00  0.00    -0.150 F  
HETATM   29  F   UNL     1     -10.782   6.890  74.319  1.00  0.00    -0.353 F  
HETATM   30  F   UNL     1     -11.613   5.700  72.685  1.00  0.00    -0.317 F  
ENDBRANCH  15  16
ENDBRANCH   2  15
TORSDOF 4
ENDMDL
MODEL       80
REMARK 921   NORMALIZED FREE ENERGY PREDICTED BY IDOCK:   -6.17 KCAL/MOL
REMARK 922        TOTAL FREE ENERGY PREDICTED BY IDOCK:   -8.68 KCAL/MOL
REMARK 923 INTER-LIGAND FREE ENERGY PREDICTED BY IDOCK:   -7.95 KCAL/MOL
REMARK 924 INTRA-LIGAND FREE ENERGY PREDICTED BY IDOCK:   -0.73 KCAL/MOL
REMARK 927      BINDING AFFINITY PREDICTED BY RF-SCORE:    0.00 PKD
ROOT
HETATM    1  N   UNL     1     -12.303  11.068  68.417  1.00  0.00    -0.644 NA 
HETATM    2  C   UNL     1     -10.914  11.231  67.936  1.00  0.00    -0.248 C  
HETATM    3  H1  UNL     1     -12.869  11.816  68.013  1.00  0.00     0.000 HD 
HETATM    4  H2  UNL     1     -12.365  11.033  69.435  1.00  0.00     0.000 HD 
ENDROOT
BRANCH   2   5
HETATM    5  C   UNL     1     -10.895  11.238  66.388  1.00  0.00    -0.306 C  
BRANCH   5   6
HETATM    6  C   UNL     1     -11.013  12.625  65.797  1.00  0.00    -0.313 A  
HETATM    7  F   UNL     1     -13.008  12.030  64.655  1.00  0.00    -0.436 F  
HETATM    8  C   UNL     1     -12.089  12.957  64.964  1.00  0.00    -0.435 A  
HETATM    9  C   UNL     1     -12.234  14.236  64.440  1.00  0.00    -0.471 A  
HETATM   10  C   UNL     1     -10.053  13.611  66.079  1.00  0.00    -0.320 A  
HETATM   11  C   UNL     1     -10.204  14.894  65.564  1.00  0.00    -0.374 A  
HETATM   12  F   UNL     1     -11.430  16.443  64.264  1.00  0.00    -0.541 F  
HETATM   13  C   UNL     1     -11.289  15.205  64.753  1.00  0.00    -0.395 A  
HETATM   14  F   UNL     1      -9.292  15.832  65.861  1.00  0.00    -0.311 F  
ENDBRANCH   5   6
ENDBRANCH   2   5
BRANCH   2  15
HETATM   15  C   UNL     1     -10.064  10.110  68.541  1.00  0.00    -0.186 C  
BRANCH  15  16
HETATM   16  C   UNL     1     -10.652   9.450  69.782  1.00  0.00    -0.231 C  
HETATM   17  N   UNL     1     -10.238   5.381  69.953  1.00  0.00    -0.256 NA 
HETATM   18  C   UNL     1     -11.410   7.357  70.850  1.00  0.00    -0.276 C  
HETATM   19  N   UNL     1     -10.835   8.073  69.707  1.00  0.00    -0.229 N  
HETATM   20  C   UNL     1     -10.305   5.936  68.702  1.00  0.00    -0.215 A  
HETATM   21  O   UNL     1     -10.919  10.087  70.797  1.00  0.00    -0.313 OA 
HETATM   22  C   UNL     1     -10.782   7.317  68.451  1.00  0.00    -0.121 C  
HETATM   23  C   UNL     1     -10.613   6.087  71.162  1.00  0.00    -0.246 C  
HETATM   24  N   UNL     1      -9.870   5.066  67.824  1.00  0.00    -0.154 NA 
HETATM   25  N   UNL     1      -9.474   3.944  68.505  1.00  0.00    -0.160 NA 
HETATM   26  C   UNL     1      -9.674   4.143  69.798  1.00  0.00    -0.208 A  
HETATM   27  C   UNL     1      -9.336   3.207  70.900  1.00  0.00    -0.150 C  
HETATM   28  F   UNL     1      -9.675   3.699  72.124  1.00  0.00    -0.180 F  
HETATM   29  F   UNL     1      -9.978   2.018  70.777  1.00  0.00    -0.186 F  
HETATM   30  F   UNL     1      -8.006   2.942  70.956  1.00  0.00    -0.050 F  
ENDBRANCH  15  16
ENDBRANCH   2  15
TORSDOF 4
ENDMDL
MODEL       81
REMARK 921   NORMALIZED FREE ENERGY PREDICTED BY IDOCK:   -6.16 KCAL/MOL
REMARK 922        TOTAL FREE ENERGY PREDICTED BY IDOCK:   -8.67 KCAL/MOL
REMARK 923 INTER-LIGAND FREE ENERGY PREDICTED BY IDOCK:   -7.86 KCAL/MOL
REMARK 924 INTRA-LIGAND FREE ENERGY PREDICTED BY IDOCK:   -0.80 KCAL/MOL
REMARK 927      BINDING AFFINITY PREDICTED BY RF-SCORE:    0.00 PKD
ROOT
HETATM    1  N   UNL     1     -11.935  15.590  68.783  1.00  0.00    -0.552 NA 
HETATM    2  C   UNL     1     -10.845  16.259  68.040  1.00  0.00    -0.339 C  
HETATM    3  H1  UNL     1     -12.112  16.121  69.636  1.00  0.00     0.000 HD 
HETATM    4  H2  UNL     1     -11.740  14.605  68.965  1.00  0.00     0.000 HD 
ENDROOT
BRANCH   2   5
HETATM    5  C   UNL     1     -11.228  17.734  67.769  1.00  0.00     0.267 C  
BRANCH   5   6
HETATM    6  C   UNL     1     -10.029  18.636  67.575  1.00  0.00    -0.371 A  
HETATM    7  F   UNL     1     -10.831  19.344  65.456  1.00  0.00    -0.556 F  
HETATM    8  C   UNL     1      -9.902  19.417  66.420  1.00  0.00    -0.396 A  
HETATM    9  C   UNL     1      -8.826  20.279  66.241  1.00  0.00    -0.223 A  
HETATM   10  C   UNL     1      -9.025  18.715  68.554  1.00  0.00    -0.364 A  
HETATM   11  C   UNL     1      -7.954  19.585  68.381  1.00  0.00    -0.339 A  
HETATM   12  F   UNL     1      -6.826  21.202  67.074  1.00  0.00    -0.348 F  
HETATM   13  C   UNL     1      -7.857  20.364  67.233  1.00  0.00    -0.334 A  
HETATM   14  F   UNL     1      -7.014  19.669  69.334  1.00  0.00    -0.356 F  
ENDBRANCH   5   6
ENDBRANCH   2   5
BRANCH   2  15
HETATM   15  C   UNL     1     -10.580  15.463  66.759  1.00  0.00    -0.309 C  
BRANCH  15  16
HETATM   16  C   UNL     1     -11.425  14.206  66.592  1.00  0.00    -0.366 C  
HETATM   17  N   UNL     1      -9.948  10.858  68.425  1.00  0.00    -0.172 NA 
HETATM   18  C   UNL     1     -11.524  11.744  66.749  1.00  0.00    -0.281 C  
HETATM   19  N   UNL     1     -10.792  13.006  66.896  1.00  0.00    -0.262 N  
HETATM   20  C   UNL     1      -9.027  11.788  68.020  1.00  0.00    -0.176 A  
HETATM   21  O   UNL     1     -12.601  14.251  66.241  1.00  0.00    -0.416 OA 
HETATM   22  C   UNL     1      -9.340  12.877  67.062  1.00  0.00    -0.235 C  
HETATM   23  C   UNL     1     -11.324  10.844  67.972  1.00  0.00    -0.312 C  
HETATM   24  N   UNL     1      -7.888  11.557  68.625  1.00  0.00    -0.139 NA 
HETATM   25  N   UNL     1      -8.071  10.490  69.467  1.00  0.00    -0.134 NA 
HETATM   26  C   UNL     1      -9.325  10.081  69.366  1.00  0.00    -0.223 A  
HETATM   27  C   UNL     1      -9.965   8.987  70.139  1.00  0.00    -0.189 C  
HETATM   28  F   UNL     1     -11.269   8.801  69.797  1.00  0.00    -0.229 F  
HETATM   29  F   UNL     1      -9.347   7.795  69.946  1.00  0.00    -0.155 F  
HETATM   30  F   UNL     1      -9.957   9.232  71.474  1.00  0.00    -0.355 F  
ENDBRANCH  15  16
ENDBRANCH   2  15
TORSDOF 4
ENDMDL
MODEL       82
REMARK 921   NORMALIZED FREE ENERGY PREDICTED BY IDOCK:   -6.13 KCAL/MOL
REMARK 922        TOTAL FREE ENERGY PREDICTED BY IDOCK:   -8.63 KCAL/MOL
REMARK 923 INTER-LIGAND FREE ENERGY PREDICTED BY IDOCK:   -7.49 KCAL/MOL
REMARK 924 INTRA-LIGAND FREE ENERGY PREDICTED BY IDOCK:   -1.14 KCAL/MOL
REMARK 927      BINDING AFFINITY PREDICTED BY RF-SCORE:    0.00 PKD
ROOT
HETATM    1  N   UNL     1      -8.116   8.063  69.746  1.00  0.00    -0.113 NA 
HETATM    2  C   UNL     1      -9.000   9.172  69.324  1.00  0.00    -0.145 C  
HETATM    3  H1  UNL     1      -8.426   7.741  70.663  1.00  0.00     0.000 HD 
HETATM    4  H2  UNL     1      -7.129   8.320  69.732  1.00  0.00     0.000 HD 
ENDROOT
BRANCH   2   5
HETATM    5  C   UNL     1     -10.473   8.697  69.334  1.00  0.00    -0.224 C  
BRANCH   5   6
HETATM    6  C   UNL     1     -11.386   9.603  70.130  1.00  0.00    -0.275 A  
HETATM    7  F   UNL     1     -12.294   7.751  71.305  1.00  0.00    -0.308 F  
HETATM    8  C   UNL     1     -12.248   9.075  71.099  1.00  0.00    -0.275 A  
HETATM    9  C   UNL     1     -13.068   9.895  71.866  1.00  0.00    -0.559 A  
HETATM   10  C   UNL     1     -11.381  10.992  69.919  1.00  0.00    -0.364 A  
HETATM   11  C   UNL     1     -12.194  11.814  70.693  1.00  0.00    -0.349 A  
HETATM   12  F   UNL     1     -13.805  12.066  72.406  1.00  0.00    -0.465 F  
HETATM   13  C   UNL     1     -13.029  11.269  71.662  1.00  0.00    -0.432 A  
HETATM   14  F   UNL     1     -12.162  13.140  70.498  1.00  0.00    -0.390 F  
ENDBRANCH   5   6
ENDBRANCH   2   5
BRANCH   2  15
HETATM   15  C   UNL     1      -8.535   9.656  67.948  1.00  0.00    -0.122 C  
BRANCH  15  16
HETATM   16  C   UNL     1      -7.663  10.905  67.962  1.00  0.00    -0.101 C  
HETATM   17  N   UNL     1      -9.698  14.454  67.862  1.00  0.00    -0.219 NA 
HETATM   18  C   UNL     1      -7.522  13.336  67.554  1.00  0.00    -0.157 C  
HETATM   19  N   UNL     1      -8.290  12.087  67.584  1.00  0.00    -0.150 N  
HETATM   20  C   UNL     1     -10.309  13.384  67.266  1.00  0.00    -0.244 A  
HETATM   21  O   UNL     1      -6.487  10.876  68.314  1.00  0.00    -0.057 OA 
HETATM   22  C   UNL     1      -9.594  12.132  66.915  1.00  0.00    -0.206 C  
HETATM   23  C   UNL     1      -8.295  14.475  68.225  1.00  0.00    -0.152 C  
HETATM   24  N   UNL     1     -11.579  13.655  67.094  1.00  0.00    -0.341 NA 
HETATM   25  N   UNL     1     -11.816  14.899  67.620  1.00  0.00    -0.315 NA 
HETATM   26  C   UNL     1     -10.682  15.375  68.108  1.00  0.00    -0.271 A  
HETATM   27  C   UNL     1     -10.495  16.667  68.815  1.00  0.00    -0.324 C  
HETATM   28  F   UNL     1      -9.203  16.874  69.188  1.00  0.00    -0.260 F  
HETATM   29  F   UNL     1     -10.843  17.727  68.045  1.00  0.00    -0.375 F  
HETATM   30  F   UNL     1     -11.232  16.738  69.954  1.00  0.00    -0.294 F  
ENDBRANCH  15  16
ENDBRANCH   2  15
TORSDOF 4
ENDMDL
MODEL       83
REMARK 921   NORMALIZED FREE ENERGY PREDICTED BY IDOCK:   -6.12 KCAL/MOL
REMARK 922        TOTAL FREE ENERGY PREDICTED BY IDOCK:   -8.61 KCAL/MOL
REMARK 923 INTER-LIGAND FREE ENERGY PREDICTED BY IDOCK:   -8.21 KCAL/MOL
REMARK 924 INTRA-LIGAND FREE ENERGY PREDICTED BY IDOCK:   -0.40 KCAL/MOL
REMARK 927      BINDING AFFINITY PREDICTED BY RF-SCORE:    0.00 PKD
ROOT
HETATM    1  N   UNL     1     -13.427   9.092  72.993  1.00  0.00    -0.936 NA 
HETATM    2  C   UNL     1     -12.917   8.591  71.698  1.00  0.00    -0.343 C  
HETATM    3  H1  UNL     1     -14.314   8.627  73.187  1.00  0.00     0.000 HD 
HETATM    4  H2  UNL     1     -13.500  10.109  73.020  1.00  0.00     0.000 HD 
ENDROOT
BRANCH   2   5
HETATM    5  C   UNL     1     -12.797   7.049  71.745  1.00  0.00    -0.365 C  
BRANCH   5   6
HETATM    6  C   UNL     1     -11.375   6.566  71.928  1.00  0.00    -0.327 A  
HETATM    7  F   UNL     1     -11.301   5.762  69.695  1.00  0.00    -0.447 F  
HETATM    8  C   UNL     1     -10.687   5.956  70.872  1.00  0.00    -0.273 A  
HETATM    9  C   UNL     1      -9.368   5.538  71.010  1.00  0.00    -0.186 A  
HETATM   10  C   UNL     1     -10.714   6.729  73.156  1.00  0.00    -0.326 A  
HETATM   11  C   UNL     1      -9.391   6.322  73.291  1.00  0.00    -0.131 A  
HETATM   12  F   UNL     1      -7.447   5.348  72.359  1.00  0.00    -0.086 F  
HETATM   13  C   UNL     1      -8.722   5.734  72.224  1.00  0.00    -0.132 A  
HETATM   14  F   UNL     1      -8.763   6.505  74.462  1.00  0.00    -0.129 F  
ENDBRANCH   5   6
ENDBRANCH   2   5
BRANCH   2  15
HETATM   15  C   UNL     1     -11.585   9.288  71.407  1.00  0.00    -0.437 C  
BRANCH  15  16
HETATM   16  C   UNL     1     -11.390   9.735  69.964  1.00  0.00    -0.220 C  
HETATM   17  N   UNL     1     -11.489  13.783  69.366  1.00  0.00    -0.277 NA 
HETATM   18  C   UNL     1     -11.620  11.557  68.313  1.00  0.00    -0.308 C  
HETATM   19  N   UNL     1     -11.759  11.046  69.681  1.00  0.00    -0.298 N  
HETATM   20  C   UNL     1     -12.220  13.304  70.421  1.00  0.00    -0.332 A  
HETATM   21  O   UNL     1     -10.909   8.996  69.109  1.00  0.00    -0.193 OA 
HETATM   22  C   UNL     1     -12.568  11.871  70.583  1.00  0.00    -0.181 C  
HETATM   23  C   UNL     1     -10.968  12.943  68.306  1.00  0.00    -0.256 C  
HETATM   24  N   UNL     1     -12.517  14.296  71.223  1.00  0.00    -0.345 NA 
HETATM   25  N   UNL     1     -11.941  15.432  70.715  1.00  0.00    -0.324 NA 
HETATM   26  C   UNL     1     -11.297  15.119  69.602  1.00  0.00    -0.283 A  
HETATM   27  C   UNL     1     -10.491  16.035  68.758  1.00  0.00    -0.248 C  
HETATM   28  F   UNL     1      -9.960  15.411  67.671  1.00  0.00    -0.221 F  
HETATM   29  F   UNL     1     -11.225  17.071  68.280  1.00  0.00    -0.358 F  
HETATM   30  F   UNL     1      -9.441  16.565  69.436  1.00  0.00    -0.244 F  
ENDBRANCH  15  16
ENDBRANCH   2  15
TORSDOF 4
ENDMDL
MODEL       84
REMARK 921   NORMALIZED FREE ENERGY PREDICTED BY IDOCK:   -6.04 KCAL/MOL
REMARK 922        TOTAL FREE ENERGY PREDICTED BY IDOCK:   -8.52 KCAL/MOL
REMARK 923 INTER-LIGAND FREE ENERGY PREDICTED BY IDOCK:   -8.04 KCAL/MOL
REMARK 924 INTRA-LIGAND FREE ENERGY PREDICTED BY IDOCK:   -0.47 KCAL/MOL
REMARK 927      BINDING AFFINITY PREDICTED BY RF-SCORE:    0.00 PKD
ROOT
HETATM    1  N   UNL     1      -7.735  11.125  65.827  1.00  0.00    -0.369 NA 
HETATM    2  C   UNL     1      -8.331   9.857  65.351  1.00  0.00    -0.146 C  
HETATM    3  H1  UNL     1      -8.250  11.897  65.403  1.00  0.00     0.000 HD 
HETATM    4  H2  UNL     1      -6.732  11.177  65.652  1.00  0.00     0.000 HD 
ENDROOT
BRANCH   2   5
HETATM    5  C   UNL     1      -9.843   9.834  65.684  1.00  0.00    -0.371 C  
BRANCH   5   6
HETATM    6  C   UNL     1     -10.562  11.103  65.283  1.00  0.00    -0.303 A  
HETATM    7  F   UNL     1     -10.210  10.643  62.981  1.00  0.00    -0.350 F  
HETATM    8  C   UNL     1     -10.724  11.435  63.932  1.00  0.00    -0.397 A  
HETATM    9  C   UNL     1     -11.414  12.579  63.543  1.00  0.00    -0.570 A  
HETATM   10  C   UNL     1     -11.088  11.968  66.256  1.00  0.00    -0.363 A  
HETATM   11  C   UNL     1     -11.788  13.107  65.868  1.00  0.00    -0.406 A  
HETATM   12  F   UNL     1     -12.629  14.502  64.153  1.00  0.00    -0.464 F  
HETATM   13  C   UNL     1     -11.951  13.407  64.520  1.00  0.00    -0.407 A  
HETATM   14  F   UNL     1     -12.306  13.912  66.807  1.00  0.00    -0.439 F  
ENDBRANCH   5   6
ENDBRANCH   2   5
BRANCH   2  15
HETATM   15  C   UNL     1      -7.559   8.698  65.987  1.00  0.00    -0.093 C  
BRANCH  15  16
HETATM   16  C   UNL     1      -8.418   7.534  66.465  1.00  0.00    -0.131 C  
HETATM   17  N   UNL     1      -9.685   7.783  70.349  1.00  0.00    -0.179 NA 
HETATM   18  C   UNL     1      -9.365   6.316  68.392  1.00  0.00    -0.113 C  
HETATM   19  N   UNL     1      -8.568   7.417  67.843  1.00  0.00    -0.125 N  
HETATM   20  C   UNL     1      -8.498   8.400  70.053  1.00  0.00    -0.125 A  
HETATM   21  O   UNL     1      -8.970   6.764  65.683  1.00  0.00    -0.085 OA 
HETATM   22  C   UNL     1      -7.733   8.136  68.810  1.00  0.00    -0.107 C  
HETATM   23  C   UNL     1     -10.324   6.818  69.477  1.00  0.00    -0.202 C  
HETATM   24  N   UNL     1      -8.198   9.237  71.016  1.00  0.00    -0.304 NA 
HETATM   25  N   UNL     1      -9.216   9.202  71.933  1.00  0.00    -0.316 NA 
HETATM   26  C   UNL     1     -10.130   8.339  71.519  1.00  0.00    -0.208 A  
HETATM   27  C   UNL     1     -11.422   8.030  72.182  1.00  0.00    -0.335 C  
HETATM   28  F   UNL     1     -12.139   7.088  71.511  1.00  0.00    -0.307 F  
HETATM   29  F   UNL     1     -11.250   7.552  73.440  1.00  0.00    -0.408 F  
HETATM   30  F   UNL     1     -12.224   9.121  72.272  1.00  0.00    -0.417 F  
ENDBRANCH  15  16
ENDBRANCH   2  15
TORSDOF 4
ENDMDL
MODEL       85
REMARK 921   NORMALIZED FREE ENERGY PREDICTED BY IDOCK:   -6.01 KCAL/MOL
REMARK 922        TOTAL FREE ENERGY PREDICTED BY IDOCK:   -8.48 KCAL/MOL
REMARK 923 INTER-LIGAND FREE ENERGY PREDICTED BY IDOCK:   -7.15 KCAL/MOL
REMARK 924 INTRA-LIGAND FREE ENERGY PREDICTED BY IDOCK:   -1.33 KCAL/MOL
REMARK 927      BINDING AFFINITY PREDICTED BY RF-SCORE:    0.00 PKD
ROOT
HETATM    1  N   UNL     1     -11.528   7.207  72.710  1.00  0.00    -0.490 NA 
HETATM    2  C   UNL     1     -11.012   8.332  71.900  1.00  0.00    -0.287 C  
HETATM    3  H1  UNL     1     -12.379   7.517  73.180  1.00  0.00     0.000 HD 
HETATM    4  H2  UNL     1     -10.832   6.838  73.359  1.00  0.00     0.000 HD 
ENDROOT
BRANCH   2   5
HETATM    5  C   UNL     1     -12.108   8.811  70.916  1.00  0.00    -0.195 C  
BRANCH   5   6
HETATM    6  C   UNL     1     -12.353  10.303  70.978  1.00  0.00    -0.483 A  
HETATM    7  F   UNL     1     -13.817  10.043  72.829  1.00  0.00    -0.271 F  
HETATM    8  C   UNL     1     -13.193  10.848  71.957  1.00  0.00    -0.351 A  
HETATM    9  C   UNL     1     -13.403  12.220  72.052  1.00  0.00    -0.491 A  
HETATM   10  C   UNL     1     -11.736  11.170  70.062  1.00  0.00    -0.438 A  
HETATM   11  C   UNL     1     -11.936  12.543  70.164  1.00  0.00    -0.301 A  
HETATM   12  F   UNL     1     -12.946  14.386  71.249  1.00  0.00    -0.348 F  
HETATM   13  C   UNL     1     -12.761  13.064  71.154  1.00  0.00    -0.283 A  
HETATM   14  F   UNL     1     -11.322  13.362  69.298  1.00  0.00    -0.273 F  
ENDBRANCH   5   6
ENDBRANCH   2   5
BRANCH   2  15
HETATM   15  C   UNL     1      -9.735   7.867  71.194  1.00  0.00    -0.182 C  
BRANCH  15  16
HETATM   16  C   UNL     1      -8.716   8.963  70.913  1.00  0.00    -0.210 C  
HETATM   17  N   UNL     1      -9.423  11.180  67.546  1.00  0.00    -0.167 NA 
HETATM   18  C   UNL     1      -7.773  10.538  69.262  1.00  0.00    -0.144 C  
HETATM   19  N   UNL     1      -8.731   9.489  69.626  1.00  0.00    -0.165 N  
HETATM   20  C   UNL     1      -9.882   9.889  67.534  1.00  0.00    -0.169 A  
HETATM   21  O   UNL     1      -7.948   9.379  71.777  1.00  0.00    -0.225 OA 
HETATM   22  C   UNL     1      -9.433   8.859  68.503  1.00  0.00    -0.147 C  
HETATM   23  C   UNL     1      -8.464  11.680  68.511  1.00  0.00    -0.135 C  
HETATM   24  N   UNL     1     -10.758   9.753  66.570  1.00  0.00    -0.061 NA 
HETATM   25  N   UNL     1     -10.911  10.976  65.968  1.00  0.00    -0.176 NA 
HETATM   26  C   UNL     1     -10.121  11.847  66.574  1.00  0.00    -0.203 A  
HETATM   27  C   UNL     1     -10.010  13.298  66.278  1.00  0.00    -0.291 C  
HETATM   28  F   UNL     1      -9.099  13.924  67.072  1.00  0.00    -0.208 F  
HETATM   29  F   UNL     1      -9.623  13.531  64.999  1.00  0.00    -0.147 F  
HETATM   30  F   UNL     1     -11.186  13.950  66.468  1.00  0.00    -0.302 F  
ENDBRANCH  15  16
ENDBRANCH   2  15
TORSDOF 4
ENDMDL
MODEL       86
REMARK 921   NORMALIZED FREE ENERGY PREDICTED BY IDOCK:   -5.98 KCAL/MOL
REMARK 922        TOTAL FREE ENERGY PREDICTED BY IDOCK:   -8.44 KCAL/MOL
REMARK 923 INTER-LIGAND FREE ENERGY PREDICTED BY IDOCK:   -7.50 KCAL/MOL
REMARK 924 INTRA-LIGAND FREE ENERGY PREDICTED BY IDOCK:   -0.94 KCAL/MOL
REMARK 927      BINDING AFFINITY PREDICTED BY RF-SCORE:    0.00 PKD
ROOT
HETATM    1  N   UNL     1     -13.923   8.992  73.130  1.00  0.00    -1.215 NA 
HETATM    2  C   UNL     1     -12.712   9.561  72.499  1.00  0.00    -0.136 C  
HETATM    3  H1  UNL     1     -14.635   9.722  73.169  1.00  0.00     0.000 HD 
HETATM    4  H2  UNL     1     -13.732   8.578  74.042  1.00  0.00     0.000 HD 
ENDROOT
BRANCH   2   5
HETATM    5  C   UNL     1     -13.071  10.135  71.106  1.00  0.00    -0.480 C  
BRANCH   5   6
HETATM    6  C   UNL     1     -12.637  11.572  70.923  1.00  0.00    -0.438 A  
HETATM    7  F   UNL     1     -11.568  11.048  68.869  1.00  0.00    -0.265 F  
HETATM    8  C   UNL     1     -11.913  11.961  69.789  1.00  0.00    -0.307 A  
HETATM    9  C   UNL     1     -11.537  13.284  69.585  1.00  0.00    -0.329 A  
HETATM   10  C   UNL     1     -12.959  12.547  71.882  1.00  0.00    -0.406 A  
HETATM   11  C   UNL     1     -12.593  13.873  71.673  1.00  0.00    -0.298 A  
HETATM   12  F   UNL     1     -11.544  15.516  70.335  1.00  0.00    -0.244 F  
HETATM   13  C   UNL     1     -11.889  14.238  70.531  1.00  0.00    -0.294 A  
HETATM   14  F   UNL     1     -12.928  14.798  72.584  1.00  0.00    -0.361 F  
ENDBRANCH   5   6
ENDBRANCH   2   5
BRANCH   2  15
HETATM   15  C   UNL     1     -11.643   8.466  72.440  1.00  0.00    -0.450 C  
BRANCH  15  16
HETATM   16  C   UNL     1     -11.937   7.327  71.472  1.00  0.00    -0.316 C  
HETATM   17  N   UNL     1      -8.747   6.079  69.232  1.00  0.00    -0.117 NA 
HETATM   18  C   UNL     1     -11.199   6.056  69.488  1.00  0.00    -0.346 C  
HETATM   19  N   UNL     1     -10.990   7.121  70.474  1.00  0.00    -0.253 N  
HETATM   20  C   UNL     1      -8.739   7.390  69.627  1.00  0.00    -0.137 A  
HETATM   21  O   UNL     1     -12.930   6.614  71.583  1.00  0.00    -0.300 OA 
HETATM   22  C   UNL     1      -9.941   8.090  70.142  1.00  0.00    -0.191 C  
HETATM   23  C   UNL     1      -9.923   5.233  69.286  1.00  0.00    -0.215 C  
HETATM   24  N   UNL     1      -7.529   7.873  69.489  1.00  0.00    -0.091 NA 
HETATM   25  N   UNL     1      -6.722   6.859  69.039  1.00  0.00    -0.054 NA 
HETATM   26  C   UNL     1      -7.454   5.765  68.906  1.00  0.00    -0.085 A  
HETATM   27  C   UNL     1      -6.972   4.422  68.495  1.00  0.00    -0.052 C  
HETATM   28  F   UNL     1      -7.974   3.502  68.443  1.00  0.00    -0.068 F  
HETATM   29  F   UNL     1      -6.405   4.437  67.263  1.00  0.00    -0.035 F  
HETATM   30  F   UNL     1      -6.048   3.924  69.356  1.00  0.00    -0.023 F  
ENDBRANCH  15  16
ENDBRANCH   2  15
TORSDOF 4
ENDMDL
MODEL       87
REMARK 921   NORMALIZED FREE ENERGY PREDICTED BY IDOCK:   -5.93 KCAL/MOL
REMARK 922        TOTAL FREE ENERGY PREDICTED BY IDOCK:   -8.38 KCAL/MOL
REMARK 923 INTER-LIGAND FREE ENERGY PREDICTED BY IDOCK:   -7.68 KCAL/MOL
REMARK 924 INTRA-LIGAND FREE ENERGY PREDICTED BY IDOCK:   -0.70 KCAL/MOL
REMARK 927      BINDING AFFINITY PREDICTED BY RF-SCORE:    0.00 PKD
ROOT
HETATM    1  N   UNL     1     -12.969  10.731  69.459  1.00  0.00    -0.425 NA 
HETATM    2  C   UNL     1     -11.764  10.854  68.610  1.00  0.00    -0.263 C  
HETATM    3  H1  UNL     1     -13.015   9.774  69.810  1.00  0.00     0.000 HD 
HETATM    4  H2  UNL     1     -13.821  11.016  68.976  1.00  0.00     0.000 HD 
ENDROOT
BRANCH   2   5
HETATM    5  C   UNL     1     -10.511  10.443  69.421  1.00  0.00    -0.261 C  
BRANCH   5   6
HETATM    6  C   UNL     1      -9.466   9.736  68.586  1.00  0.00    -0.151 A  
HETATM    7  F   UNL     1      -9.908   7.674  69.676  1.00  0.00    -0.174 F  
HETATM    8  C   UNL     1      -9.230   8.366  68.748  1.00  0.00    -0.143 A  
HETATM    9  C   UNL     1      -8.300   7.691  67.965  1.00  0.00    -0.124 A  
HETATM   10  C   UNL     1      -8.719  10.438  67.625  1.00  0.00    -0.118 A  
HETATM   11  C   UNL     1      -7.796   9.761  66.834  1.00  0.00    -0.102 A  
HETATM   12  F   UNL     1      -6.704   7.751  66.234  1.00  0.00    -0.050 F  
HETATM   13  C   UNL     1      -7.591   8.397  67.001  1.00  0.00    -0.092 A  
HETATM   14  F   UNL     1      -7.107  10.438  65.904  1.00  0.00    -0.108 F  
ENDBRANCH   5   6
ENDBRANCH   2   5
BRANCH   2  15
HETATM   15  C   UNL     1     -11.694  12.290  68.084  1.00  0.00    -0.408 C  
BRANCH  15  16
HETATM   16  C   UNL     1     -11.514  13.362  69.151  1.00  0.00    -0.300 C  
HETATM   17  N   UNL     1     -10.060  16.941  67.798  1.00  0.00    -0.281 NA 
HETATM   18  C   UNL     1     -10.474  15.515  69.767  1.00  0.00    -0.301 C  
HETATM   19  N   UNL     1     -10.714  14.443  68.796  1.00  0.00    -0.246 N  
HETATM   20  C   UNL     1      -9.687  15.826  67.095  1.00  0.00    -0.223 A  
HETATM   21  O   UNL     1     -12.066  13.294  70.246  1.00  0.00    -0.343 OA 
HETATM   22  C   UNL     1      -9.836  14.447  67.621  1.00  0.00    -0.224 C  
HETATM   23  C   UNL     1     -10.649  16.893  69.121  1.00  0.00    -0.330 C  
HETATM   24  N   UNL     1      -9.221  16.191  65.926  1.00  0.00    -0.411 NA 
HETATM   25  N   UNL     1      -9.326  17.556  65.841  1.00  0.00    -0.524 NA 
HETATM   26  C   UNL     1      -9.857  18.010  66.965  1.00  0.00    -0.318 A  
HETATM   27  C   UNL     1     -10.195  19.421  67.278  1.00  0.00    -0.415 C  
HETATM   28  F   UNL     1     -10.722  19.567  68.525  1.00  0.00    -0.419 F  
HETATM   29  F   UNL     1      -9.109  20.231  67.227  1.00  0.00    -0.401 F  
HETATM   30  F   UNL     1     -11.116  19.928  66.419  1.00  0.00    -0.527 F  
ENDBRANCH  15  16
ENDBRANCH   2  15
TORSDOF 4
ENDMDL
MODEL       88
REMARK 921   NORMALIZED FREE ENERGY PREDICTED BY IDOCK:   -5.93 KCAL/MOL
REMARK 922        TOTAL FREE ENERGY PREDICTED BY IDOCK:   -8.38 KCAL/MOL
REMARK 923 INTER-LIGAND FREE ENERGY PREDICTED BY IDOCK:   -8.52 KCAL/MOL
REMARK 924 INTRA-LIGAND FREE ENERGY PREDICTED BY IDOCK:    0.14 KCAL/MOL
REMARK 927      BINDING AFFINITY PREDICTED BY RF-SCORE:    0.00 PKD
ROOT
HETATM    1  N   UNL     1     -12.055  15.812  68.617  1.00  0.00    -0.504 NA 
HETATM    2  C   UNL     1     -11.211  14.782  67.973  1.00  0.00    -0.299 C  
HETATM    3  H1  UNL     1     -11.467  16.618  68.830  1.00  0.00     0.000 HD 
HETATM    4  H2  UNL     1     -12.551  15.459  69.435  1.00  0.00     0.000 HD 
ENDROOT
BRANCH   2   5
HETATM    5  C   UNL     1     -10.523  15.379  66.721  1.00  0.00    -0.299 C  
BRANCH   5   6
HETATM    6  C   UNL     1     -10.238  16.860  66.846  1.00  0.00    -0.296 A  
HETATM    7  F   UNL     1     -11.256  17.291  64.745  1.00  0.00    -0.396 F  
HETATM    8  C   UNL     1     -10.642  17.751  65.845  1.00  0.00    -0.205 A  
HETATM    9  C   UNL     1     -10.422  19.120  65.958  1.00  0.00    -0.546 A  
HETATM   10  C   UNL     1      -9.573  17.370  67.973  1.00  0.00    -0.276 A  
HETATM   11  C   UNL     1      -9.362  18.740  68.092  1.00  0.00    -0.316 A  
HETATM   12  F   UNL     1      -9.584  20.926  67.216  1.00  0.00    -0.576 F  
HETATM   13  C   UNL     1      -9.787  19.608  67.093  1.00  0.00    -0.369 A  
HETATM   14  F   UNL     1      -8.747  19.217  69.184  1.00  0.00    -0.380 F  
ENDBRANCH   5   6
ENDBRANCH   2   5
BRANCH   2  15
HETATM   15  C   UNL     1     -12.094  13.573  67.652  1.00  0.00    -0.321 C  
BRANCH  15  16
HETATM   16  C   UNL     1     -11.431  12.495  66.804  1.00  0.00    -0.362 C  
HETATM   17  N   UNL     1     -10.437   9.067  68.807  1.00  0.00    -0.218 NA 
HETATM   18  C   UNL     1     -10.101  10.415  66.770  1.00  0.00    -0.214 C  
HETATM   19  N   UNL     1     -10.780  11.486  67.506  1.00  0.00    -0.212 N  
HETATM   20  C   UNL     1     -10.451  10.221  69.544  1.00  0.00    -0.244 A  
HETATM   21  O   UNL     1     -11.493  12.498  65.578  1.00  0.00    -0.320 OA 
HETATM   22  C   UNL     1     -10.456  11.574  68.934  1.00  0.00    -0.187 C  
HETATM   23  C   UNL     1     -10.439   9.041  67.358  1.00  0.00    -0.269 C  
HETATM   24  N   UNL     1     -10.478   9.918  70.818  1.00  0.00    -0.257 NA 
HETATM   25  N   UNL     1     -10.525   8.551  70.922  1.00  0.00    -0.197 NA 
HETATM   26  C   UNL     1     -10.525   8.035  69.704  1.00  0.00    -0.224 A  
HETATM   27  C   UNL     1     -10.620   6.595  69.352  1.00  0.00    -0.240 C  
HETATM   28  F   UNL     1     -10.584   6.383  68.008  1.00  0.00    -0.164 F  
HETATM   29  F   UNL     1      -9.601   5.871  69.879  1.00  0.00    -0.156 F  
HETATM   30  F   UNL     1     -11.778   6.038  69.790  1.00  0.00    -0.473 F  
ENDBRANCH  15  16
ENDBRANCH   2  15
TORSDOF 4
ENDMDL
MODEL       89
REMARK 921   NORMALIZED FREE ENERGY PREDICTED BY IDOCK:   -5.90 KCAL/MOL
REMARK 922        TOTAL FREE ENERGY PREDICTED BY IDOCK:   -8.35 KCAL/MOL
REMARK 923 INTER-LIGAND FREE ENERGY PREDICTED BY IDOCK:   -7.60 KCAL/MOL
REMARK 924 INTRA-LIGAND FREE ENERGY PREDICTED BY IDOCK:   -0.76 KCAL/MOL
REMARK 927      BINDING AFFINITY PREDICTED BY RF-SCORE:    0.00 PKD
ROOT
HETATM    1  N   UNL     1     -11.374   6.527  66.715  1.00  0.00    -0.800 NA 
HETATM    2  C   UNL     1     -10.647   7.016  67.907  1.00  0.00    -0.218 C  
HETATM    3  H1  UNL     1     -11.214   5.522  66.635  1.00  0.00     0.000 HD 
HETATM    4  H2  UNL     1     -11.124   7.035  65.867  1.00  0.00     0.000 HD 
ENDROOT
BRANCH   2   5
HETATM    5  C   UNL     1     -11.105   6.226  69.158  1.00  0.00    -0.457 C  
BRANCH   5   6
HETATM    6  C   UNL     1     -10.546   6.778  70.450  1.00  0.00    -0.262 A  
HETATM    7  F   UNL     1     -12.709   7.436  71.173  1.00  0.00    -0.351 F  
HETATM    8  C   UNL     1     -11.393   7.346  71.410  1.00  0.00    -0.256 A  
HETATM    9  C   UNL     1     -10.902   7.826  72.619  1.00  0.00    -0.413 A  
HETATM   10  C   UNL     1      -9.168   6.724  70.717  1.00  0.00    -0.158 A  
HETATM   11  C   UNL     1      -8.677   7.193  71.931  1.00  0.00    -0.120 A  
HETATM   12  F   UNL     1      -9.061   8.184  74.044  1.00  0.00    -0.320 F  
HETATM   13  C   UNL     1      -9.539   7.738  72.876  1.00  0.00    -0.242 A  
HETATM   14  F   UNL     1      -7.363   7.114  72.183  1.00  0.00    -0.076 F  
ENDBRANCH   5   6
ENDBRANCH   2   5
BRANCH   2  15
HETATM   15  C   UNL     1     -10.888   8.523  68.029  1.00  0.00    -0.022 C  
BRANCH  15  16
HETATM   16  C   UNL     1      -9.666   9.396  67.770  1.00  0.00    -0.151 C  
HETATM   17  N   UNL     1     -10.477  13.163  66.390  1.00  0.00    -0.278 NA 
HETATM   18  C   UNL     1      -8.761  11.416  66.677  1.00  0.00    -0.178 C  
HETATM   19  N   UNL     1      -9.884  10.527  66.990  1.00  0.00    -0.177 N  
HETATM   20  C   UNL     1     -11.386  12.188  66.073  1.00  0.00    -0.358 A  
HETATM   21  O   UNL     1      -8.565   9.136  68.246  1.00  0.00    -0.127 OA 
HETATM   22  C   UNL     1     -11.097  10.738  66.194  1.00  0.00     0.136 C  
HETATM   23  C   UNL     1      -9.145  12.884  66.887  1.00  0.00    -0.224 C  
HETATM   24  N   UNL     1     -12.503  12.752  65.685  1.00  0.00    -0.608 NA 
HETATM   25  N   UNL     1     -12.344  14.110  65.788  1.00  0.00    -0.458 NA 
HETATM   26  C   UNL     1     -11.125  14.360  66.237  1.00  0.00    -0.331 A  
HETATM   27  C   UNL     1     -10.551  15.694  66.545  1.00  0.00    -0.307 C  
HETATM   28  F   UNL     1      -9.265  15.620  66.984  1.00  0.00    -0.202 F  
HETATM   29  F   UNL     1     -10.536  16.508  65.460  1.00  0.00    -0.343 F  
HETATM   30  F   UNL     1     -11.244  16.337  67.520  1.00  0.00    -0.295 F  
ENDBRANCH  15  16
ENDBRANCH   2  15
TORSDOF 4
ENDMDL
MODEL       90
REMARK 921   NORMALIZED FREE ENERGY PREDICTED BY IDOCK:   -5.90 KCAL/MOL
REMARK 922        TOTAL FREE ENERGY PREDICTED BY IDOCK:   -8.35 KCAL/MOL
REMARK 923 INTER-LIGAND FREE ENERGY PREDICTED BY IDOCK:   -7.34 KCAL/MOL
REMARK 924 INTRA-LIGAND FREE ENERGY PREDICTED BY IDOCK:   -1.00 KCAL/MOL
REMARK 927      BINDING AFFINITY PREDICTED BY RF-SCORE:    0.00 PKD
ROOT
HETATM    1  N   UNL     1      -9.224   9.196  63.976  1.00  0.00    -0.370 NA 
HETATM    2  C   UNL     1      -9.255   9.928  65.261  1.00  0.00    -0.226 C  
HETATM    3  H1  UNL     1      -9.488   8.226  64.155  1.00  0.00     0.000 HD 
HETATM    4  H2  UNL     1      -8.326   9.278  63.498  1.00  0.00     0.000 HD 
ENDROOT
BRANCH   2   5
HETATM    5  C   UNL     1     -10.655   9.790  65.906  1.00  0.00     0.127 C  
BRANCH   5   6
HETATM    6  C   UNL     1     -10.605   9.339  67.349  1.00  0.00    -0.324 A  
HETATM    7  F   UNL     1     -10.266   7.083  66.693  1.00  0.00    -0.268 F  
HETATM    8  C   UNL     1     -10.392   7.993  67.670  1.00  0.00    -0.246 A  
HETATM    9  C   UNL     1     -10.307   7.565  68.990  1.00  0.00    -0.217 A  
HETATM   10  C   UNL     1     -10.761  10.263  68.396  1.00  0.00    -0.263 A  
HETATM   11  C   UNL     1     -10.665   9.838  69.717  1.00  0.00    -0.256 A  
HETATM   12  F   UNL     1     -10.341   8.097  71.284  1.00  0.00    -0.207 F  
HETATM   13  C   UNL     1     -10.436   8.498  70.011  1.00  0.00    -0.223 A  
HETATM   14  F   UNL     1     -10.792  10.734  70.706  1.00  0.00    -0.214 F  
ENDBRANCH   5   6
ENDBRANCH   2   5
BRANCH   2  15
HETATM   15  C   UNL     1      -8.859  11.382  64.992  1.00  0.00     0.149 C  
BRANCH  15  16
HETATM   16  C   UNL     1      -9.949  12.245  64.371  1.00  0.00    -0.205 C  
HETATM   17  N   UNL     1     -10.426  15.939  66.067  1.00  0.00    -0.331 NA 
HETATM   18  C   UNL     1     -11.420  14.214  64.613  1.00  0.00    -0.387 C  
HETATM   19  N   UNL     1     -10.363  13.337  65.127  1.00  0.00    -0.320 N  
HETATM   20  C   UNL     1      -9.956  14.948  66.887  1.00  0.00    -0.242 A  
HETATM   21  O   UNL     1     -10.413  12.012  63.258  1.00  0.00    -0.431 OA 
HETATM   22  C   UNL     1     -10.038  13.507  66.547  1.00  0.00    -0.282 C  
HETATM   23  C   UNL     1     -11.042  15.689  64.779  1.00  0.00    -0.412 C  
HETATM   24  N   UNL     1      -9.430  15.490  67.958  1.00  0.00    -0.194 NA 
HETATM   25  N   UNL     1      -9.516  16.852  67.824  1.00  0.00    -0.234 NA 
HETATM   26  C   UNL     1     -10.098  17.126  66.668  1.00  0.00    -0.306 A  
HETATM   27  C   UNL     1     -10.344  18.475  66.098  1.00  0.00    -0.426 C  
HETATM   28  F   UNL     1     -10.972  18.426  64.892  1.00  0.00    -0.209 F  
HETATM   29  F   UNL     1     -11.127  19.236  66.904  1.00  0.00    -0.515 F  
HETATM   30  F   UNL     1      -9.191  19.162  65.894  1.00  0.00    -0.313 F  
ENDBRANCH  15  16
ENDBRANCH   2  15
TORSDOF 4
ENDMDL
MODEL       91
REMARK 921   NORMALIZED FREE ENERGY PREDICTED BY IDOCK:   -5.90 KCAL/MOL
REMARK 922        TOTAL FREE ENERGY PREDICTED BY IDOCK:   -8.34 KCAL/MOL
REMARK 923 INTER-LIGAND FREE ENERGY PREDICTED BY IDOCK:   -7.80 KCAL/MOL
REMARK 924 INTRA-LIGAND FREE ENERGY PREDICTED BY IDOCK:   -0.55 KCAL/MOL
REMARK 927      BINDING AFFINITY PREDICTED BY RF-SCORE:    0.00 PKD
ROOT
HETATM    1  N   UNL     1      -8.308  14.903  69.594  1.00  0.00    -0.441 NA 
HETATM    2  C   UNL     1      -8.093  15.072  68.140  1.00  0.00    -0.131 C  
HETATM    3  H1  UNL     1      -7.396  14.801  70.040  1.00  0.00     0.000 HD 
HETATM    4  H2  UNL     1      -8.941  14.134  69.811  1.00  0.00     0.000 HD 
ENDROOT
BRANCH   2   5
HETATM    5  C   UNL     1      -7.155  16.277  67.887  1.00  0.00    -0.147 C  
BRANCH   5   6
HETATM    6  C   UNL     1      -7.898  17.580  67.692  1.00  0.00    -0.207 A  
HETATM    7  F   UNL     1      -7.100  17.767  65.464  1.00  0.00    -0.305 F  
HETATM    8  C   UNL     1      -7.844  18.256  66.467  1.00  0.00    -0.252 A  
HETATM    9  C   UNL     1      -8.549  19.436  66.257  1.00  0.00    -0.360 A  
HETATM   10  C   UNL     1      -8.664  18.133  68.732  1.00  0.00    -0.227 A  
HETATM   11  C   UNL     1      -9.378  19.308  68.519  1.00  0.00    -0.388 A  
HETATM   12  F   UNL     1     -10.016  21.080  67.088  1.00  0.00    -0.601 F  
HETATM   13  C   UNL     1      -9.323  19.953  67.288  1.00  0.00    -0.356 A  
HETATM   14  F   UNL     1     -10.124  19.812  69.512  1.00  0.00    -0.489 F  
ENDBRANCH   5   6
ENDBRANCH   2   5
BRANCH   2  15
HETATM   15  C   UNL     1      -9.461  15.226  67.469  1.00  0.00    -0.202 C  
BRANCH  15  16
HETATM   16  C   UNL     1     -10.580  14.394  68.083  1.00  0.00    -0.236 C  
HETATM   17  N   UNL     1     -10.582  10.436  67.041  1.00  0.00    -0.251 NA 
HETATM   18  C   UNL     1     -11.881  12.297  68.006  1.00  0.00    -0.305 C  
HETATM   19  N   UNL     1     -10.812  13.158  67.489  1.00  0.00    -0.251 N  
HETATM   20  C   UNL     1     -10.053  11.307  66.126  1.00  0.00    -0.236 A  
HETATM   21  O   UNL     1     -11.217  14.776  69.061  1.00  0.00    -0.244 OA 
HETATM   22  C   UNL     1     -10.269  12.774  66.182  1.00  0.00    -0.275 C  
HETATM   23  C   UNL     1     -11.397  10.852  68.165  1.00  0.00    -0.315 C  
HETATM   24  N   UNL     1      -9.342  10.636  65.254  1.00  0.00    -0.200 NA 
HETATM   25  N   UNL     1      -9.369   9.315  65.621  1.00  0.00    -0.234 NA 
HETATM   26  C   UNL     1     -10.100   9.195  66.717  1.00  0.00    -0.271 A  
HETATM   27  C   UNL     1     -10.349   7.949  67.485  1.00  0.00    -0.259 C  
HETATM   28  F   UNL     1     -11.152   8.152  68.564  1.00  0.00    -0.074 F  
HETATM   29  F   UNL     1     -10.957   6.998  66.732  1.00  0.00    -0.405 F  
HETATM   30  F   UNL     1      -9.201   7.407  67.967  1.00  0.00    -0.133 F  
ENDBRANCH  15  16
ENDBRANCH   2  15
TORSDOF 4
ENDMDL
MODEL       92
REMARK 921   NORMALIZED FREE ENERGY PREDICTED BY IDOCK:   -5.89 KCAL/MOL
REMARK 922        TOTAL FREE ENERGY PREDICTED BY IDOCK:   -8.34 KCAL/MOL
REMARK 923 INTER-LIGAND FREE ENERGY PREDICTED BY IDOCK:   -7.37 KCAL/MOL
REMARK 924 INTRA-LIGAND FREE ENERGY PREDICTED BY IDOCK:   -0.97 KCAL/MOL
REMARK 927      BINDING AFFINITY PREDICTED BY RF-SCORE:    0.00 PKD
ROOT
HETATM    1  N   UNL     1      -7.113  11.566  66.401  1.00  0.00    -0.363 NA 
HETATM    2  C   UNL     1      -7.793  11.304  67.688  1.00  0.00    -0.116 C  
HETATM    3  H1  UNL     1      -7.147  10.712  65.844  1.00  0.00     0.000 HD 
HETATM    4  H2  UNL     1      -6.163  11.919  66.523  1.00  0.00     0.000 HD 
ENDROOT
BRANCH   2   5
HETATM    5  C   UNL     1      -9.236  10.809  67.424  1.00  0.00    -0.156 C  
BRANCH   5   6
HETATM    6  C   UNL     1     -10.057  10.663  68.686  1.00  0.00    -0.194 A  
HETATM    7  F   UNL     1     -11.700  12.164  67.861  1.00  0.00    -0.341 F  
HETATM    8  C   UNL     1     -11.271  11.344  68.831  1.00  0.00    -0.248 A  
HETATM    9  C   UNL     1     -12.057  11.194  69.969  1.00  0.00    -0.437 A  
HETATM   10  C   UNL     1      -9.622   9.833  69.733  1.00  0.00    -0.256 A  
HETATM   11  C   UNL     1     -10.413   9.673  70.866  1.00  0.00    -0.289 A  
HETATM   12  F   UNL     1     -12.382  10.186  72.072  1.00  0.00    -0.453 F  
HETATM   13  C   UNL     1     -11.624  10.347  70.981  1.00  0.00    -0.295 A  
HETATM   14  F   UNL     1      -9.998   8.860  71.848  1.00  0.00    -0.334 F  
ENDBRANCH   5   6
ENDBRANCH   2   5
BRANCH   2  15
HETATM   15  C   UNL     1      -7.742  12.585  68.526  1.00  0.00    -0.113 C  
BRANCH  15  16
HETATM   16  C   UNL     1      -7.016  13.755  67.875  1.00  0.00    -0.155 C  
HETATM   17  N   UNL     1      -9.088  17.284  67.829  1.00  0.00    -0.232 NA 
HETATM   18  C   UNL     1      -7.194  16.013  66.892  1.00  0.00    -0.177 C  
HETATM   19  N   UNL     1      -7.807  14.848  67.537  1.00  0.00    -0.170 N  
HETATM   20  C   UNL     1      -9.836  16.138  67.818  1.00  0.00    -0.232 A  
HETATM   21  O   UNL     1      -5.802  13.749  67.688  1.00  0.00    -0.271 OA 
HETATM   22  C   UNL     1      -9.273  14.803  67.498  1.00  0.00    -0.198 C  
HETATM   23  C   UNL     1      -7.668  17.316  67.543  1.00  0.00    -0.176 C  
HETATM   24  N   UNL     1     -11.071  16.427  68.146  1.00  0.00    -0.346 NA 
HETATM   25  N   UNL     1     -11.128  17.770  68.418  1.00  0.00     0.075 NA 
HETATM   26  C   UNL     1      -9.922  18.287  68.249  1.00  0.00    -0.364 A  
HETATM   27  C   UNL     1      -9.521  19.697  68.487  1.00  0.00    -0.358 C  
HETATM   28  F   UNL     1      -8.206  19.918  68.213  1.00  0.00    -0.346 F  
HETATM   29  F   UNL     1     -10.222  20.565  67.715  1.00  0.00    -0.524 F  
HETATM   30  F   UNL     1      -9.705  20.070  69.779  1.00  0.00    -0.296 F  
ENDBRANCH  15  16
ENDBRANCH   2  15
TORSDOF 4
ENDMDL
MODEL       93
REMARK 921   NORMALIZED FREE ENERGY PREDICTED BY IDOCK:   -5.89 KCAL/MOL
REMARK 922        TOTAL FREE ENERGY PREDICTED BY IDOCK:   -8.34 KCAL/MOL
REMARK 923 INTER-LIGAND FREE ENERGY PREDICTED BY IDOCK:   -7.58 KCAL/MOL
REMARK 924 INTRA-LIGAND FREE ENERGY PREDICTED BY IDOCK:   -0.75 KCAL/MOL
REMARK 927      BINDING AFFINITY PREDICTED BY RF-SCORE:    0.00 PKD
ROOT
HETATM    1  N   UNL     1     -12.187  15.195  63.712  1.00  0.00    -0.980 NA 
HETATM    2  C   UNL     1     -11.556  15.018  65.038  1.00  0.00    -0.332 C  
HETATM    3  H1  UNL     1     -12.307  16.195  63.548  1.00  0.00     0.000 HD 
HETATM    4  H2  UNL     1     -13.058  14.673  63.618  1.00  0.00     0.000 HD 
ENDROOT
BRANCH   2   5
HETATM    5  C   UNL     1     -10.225  15.806  65.093  1.00  0.00    -0.252 C  
BRANCH   5   6
HETATM    6  C   UNL     1     -10.208  16.875  66.164  1.00  0.00    -0.352 A  
HETATM    7  F   UNL     1      -9.587  15.288  67.817  1.00  0.00    -0.202 F  
HETATM    8  C   UNL     1      -9.867  16.556  67.484  1.00  0.00    -0.248 A  
HETATM    9  C   UNL     1      -9.810  17.531  68.474  1.00  0.00    -0.330 A  
HETATM   10  C   UNL     1     -10.523  18.208  65.853  1.00  0.00    -0.292 A  
HETATM   11  C   UNL     1     -10.456  19.185  66.841  1.00  0.00    -0.437 A  
HETATM   12  F   UNL     1     -10.032  19.794  69.086  1.00  0.00    -0.474 F  
HETATM   13  C   UNL     1     -10.099  18.848  68.142  1.00  0.00    -0.388 A  
HETATM   14  F   UNL     1     -10.736  20.458  66.526  1.00  0.00    -0.441 F  
ENDBRANCH   5   6
ENDBRANCH   2   5
BRANCH   2  15
HETATM   15  C   UNL     1     -11.376  13.518  65.285  1.00  0.00    -0.304 C  
BRANCH  15  16
HETATM   16  C   UNL     1     -11.867  13.021  66.639  1.00  0.00    -0.393 C  
HETATM   17  N   UNL     1      -9.745   9.902  68.226  1.00  0.00    -0.143 NA 
HETATM   18  C   UNL     1     -11.835  11.207  68.314  1.00  0.00    -0.190 C  
HETATM   19  N   UNL     1     -11.401  11.771  67.031  1.00  0.00    -0.323 N  
HETATM   20  C   UNL     1      -9.773   9.987  66.859  1.00  0.00    -0.189 A  
HETATM   21  O   UNL     1     -12.603  13.694  67.354  1.00  0.00    -0.061 OA 
HETATM   22  C   UNL     1     -10.744  10.829  66.118  1.00  0.00    -0.118 C  
HETATM   23  C   UNL     1     -10.648  10.631  69.093  1.00  0.00    -0.226 C  
HETATM   24  N   UNL     1      -8.818   9.241  66.362  1.00  0.00    -0.141 NA 
HETATM   25  N   UNL     1      -8.127   8.691  67.411  1.00  0.00    -0.102 NA 
HETATM   26  C   UNL     1      -8.672   9.110  68.541  1.00  0.00    -0.129 A  
HETATM   27  C   UNL     1      -8.206   8.801  69.917  1.00  0.00    -0.118 C  
HETATM   28  F   UNL     1      -8.986   9.375  70.873  1.00  0.00    -0.256 F  
HETATM   29  F   UNL     1      -8.211   7.469  70.172  1.00  0.00    -0.121 F  
HETATM   30  F   UNL     1      -6.944   9.249  70.142  1.00  0.00    -0.043 F  
ENDBRANCH  15  16
ENDBRANCH   2  15
TORSDOF 4
ENDMDL
MODEL       94
REMARK 921   NORMALIZED FREE ENERGY PREDICTED BY IDOCK:   -5.88 KCAL/MOL
REMARK 922        TOTAL FREE ENERGY PREDICTED BY IDOCK:   -8.33 KCAL/MOL
REMARK 923 INTER-LIGAND FREE ENERGY PREDICTED BY IDOCK:   -8.09 KCAL/MOL
REMARK 924 INTRA-LIGAND FREE ENERGY PREDICTED BY IDOCK:   -0.24 KCAL/MOL
REMARK 927      BINDING AFFINITY PREDICTED BY RF-SCORE:    0.00 PKD
ROOT
HETATM    1  N   UNL     1      -9.275  15.010  69.762  1.00  0.00    -0.457 NA 
HETATM    2  C   UNL     1      -8.288  15.381  68.724  1.00  0.00    -0.182 C  
HETATM    3  H1  UNL     1      -8.846  15.159  70.676  1.00  0.00     0.000 HD 
HETATM    4  H2  UNL     1      -9.631  14.061  69.644  1.00  0.00     0.000 HD 
ENDROOT
BRANCH   2   5
HETATM    5  C   UNL     1      -7.824  16.842  68.945  1.00  0.00    -0.244 C  
BRANCH   5   6
HETATM    6  C   UNL     1      -8.475  17.825  67.997  1.00  0.00    -0.253 A  
HETATM    7  F   UNL     1     -10.562  17.599  69.107  1.00  0.00    -0.343 F  
HETATM    8  C   UNL     1      -9.825  18.169  68.143  1.00  0.00    -0.343 A  
HETATM    9  C   UNL     1     -10.432  19.098  67.304  1.00  0.00    -0.549 A  
HETATM   10  C   UNL     1      -7.737  18.419  66.960  1.00  0.00    -0.234 A  
HETATM   11  C   UNL     1      -8.341  19.356  66.129  1.00  0.00    -0.300 A  
HETATM   12  F   UNL     1     -10.252  20.601  65.500  1.00  0.00    -0.365 F  
HETATM   13  C   UNL     1      -9.678  19.695  66.302  1.00  0.00    -0.423 A  
HETATM   14  F   UNL     1      -7.619  19.934  65.157  1.00  0.00    -0.237 F  
ENDBRANCH   5   6
ENDBRANCH   2   5
BRANCH   2  15
HETATM   15  C   UNL     1      -8.930  15.157  67.352  1.00  0.00    -0.193 C  
BRANCH  15  16
HETATM   16  C   UNL     1     -10.338  14.576  67.383  1.00  0.00    -0.252 C  
HETATM   17  N   UNL     1     -10.649  10.856  69.061  1.00  0.00    -0.205 NA 
HETATM   18  C   UNL     1     -11.738  12.560  67.651  1.00  0.00    -0.361 C  
HETATM   19  N   UNL     1     -10.423  13.208  67.619  1.00  0.00    -0.220 N  
HETATM   20  C   UNL     1      -9.452  11.158  68.467  1.00  0.00    -0.193 A  
HETATM   21  O   UNL     1     -11.337  15.275  67.240  1.00  0.00    -0.332 OA 
HETATM   22  C   UNL     1      -9.274  12.300  67.536  1.00  0.00    -0.181 C  
HETATM   23  C   UNL     1     -11.862  11.621  68.855  1.00  0.00    -0.329 C  
HETATM   24  N   UNL     1      -8.543  10.307  68.873  1.00  0.00    -0.141 NA 
HETATM   25  N   UNL     1      -9.135   9.461  69.775  1.00  0.00    -0.177 NA 
HETATM   26  C   UNL     1     -10.405   9.807  69.909  1.00  0.00    -0.254 A  
HETATM   27  C   UNL     1     -11.400   9.192  70.824  1.00  0.00    -0.280 C  
HETATM   28  F   UNL     1     -12.629   9.767  70.721  1.00  0.00    -0.340 F  
HETATM   29  F   UNL     1     -11.576   7.870  70.573  1.00  0.00    -0.276 F  
HETATM   30  F   UNL     1     -11.037   9.309  72.127  1.00  0.00    -0.422 F  
ENDBRANCH  15  16
ENDBRANCH   2  15
TORSDOF 4
ENDMDL
MODEL       95
REMARK 921   NORMALIZED FREE ENERGY PREDICTED BY IDOCK:   -5.87 KCAL/MOL
REMARK 922        TOTAL FREE ENERGY PREDICTED BY IDOCK:   -8.31 KCAL/MOL
REMARK 923 INTER-LIGAND FREE ENERGY PREDICTED BY IDOCK:   -7.63 KCAL/MOL
REMARK 924 INTRA-LIGAND FREE ENERGY PREDICTED BY IDOCK:   -0.68 KCAL/MOL
REMARK 927      BINDING AFFINITY PREDICTED BY RF-SCORE:    0.00 PKD
ROOT
HETATM    1  N   UNL     1      -8.294  12.421  66.621  1.00  0.00    -0.395 NA 
HETATM    2  C   UNL     1      -9.214  11.970  67.687  1.00  0.00    -0.182 C  
HETATM    3  H1  UNL     1      -7.381  11.997  66.788  1.00  0.00     0.000 HD 
HETATM    4  H2  UNL     1      -8.248  13.437  66.544  1.00  0.00     0.000 HD 
ENDROOT
BRANCH   2   5
HETATM    5  C   UNL     1      -9.260  10.423  67.717  1.00  0.00    -0.148 C  
BRANCH   5   6
HETATM    6  C   UNL     1      -9.361   9.856  69.116  1.00  0.00    -0.197 A  
HETATM    7  F   UNL     1      -7.001   9.640  69.260  1.00  0.00    -0.050 F  
HETATM    8  C   UNL     1      -8.208   9.506  69.829  1.00  0.00    -0.151 A  
HETATM    9  C   UNL     1      -8.279   9.018  71.129  1.00  0.00    -0.198 A  
HETATM   10  C   UNL     1     -10.612   9.678  69.729  1.00  0.00    -0.267 A  
HETATM   11  C   UNL     1     -10.682   9.200  71.034  1.00  0.00    -0.293 A  
HETATM   12  F   UNL     1      -9.598   8.419  72.985  1.00  0.00    -0.322 F  
HETATM   13  C   UNL     1      -9.523   8.875  71.729  1.00  0.00    -0.264 A  
HETATM   14  F   UNL     1     -11.882   9.057  71.617  1.00  0.00    -0.332 F  
ENDBRANCH   5   6
ENDBRANCH   2   5
BRANCH   2  15
HETATM   15  C   UNL     1     -10.584  12.606  67.436  1.00  0.00    -0.240 C  
BRANCH  15  16
HETATM   16  C   UNL     1     -10.654  13.540  66.235  1.00  0.00    -0.288 C  
HETATM   17  N   UNL     1     -10.335  17.526  67.107  1.00  0.00    -0.329 NA 
HETATM   18  C   UNL     1     -10.994  15.847  65.425  1.00  0.00    -0.285 C  
HETATM   19  N   UNL     1     -10.896  14.879  66.522  1.00  0.00    -0.317 N  
HETATM   20  C   UNL     1     -10.873  16.730  68.082  1.00  0.00    -0.353 A  
HETATM   21  O   UNL     1     -10.477  13.143  65.087  1.00  0.00    -0.302 OA 
HETATM   22  C   UNL     1     -11.367  15.355  67.827  1.00  0.00    -0.306 C  
HETATM   23  C   UNL     1     -10.179  17.109  65.728  1.00  0.00    -0.219 C  
HETATM   24  N   UNL     1     -10.850  17.373  69.224  1.00  0.00     0.014 NA 
HETATM   25  N   UNL     1     -10.252  18.588  69.007  1.00  0.00    -0.277 NA 
HETATM   26  C   UNL     1      -9.918  18.673  67.729  1.00  0.00    -0.346 A  
HETATM   27  C   UNL     1      -9.201  19.796  67.074  1.00  0.00    -0.352 C  
HETATM   28  F   UNL     1      -9.013  19.588  65.742  1.00  0.00    -0.309 F  
HETATM   29  F   UNL     1      -9.877  20.968  67.184  1.00  0.00    -0.611 F  
HETATM   30  F   UNL     1      -7.966  19.993  67.603  1.00  0.00    -0.307 F  
ENDBRANCH  15  16
ENDBRANCH   2  15
TORSDOF 4
ENDMDL
MODEL       96
REMARK 921   NORMALIZED FREE ENERGY PREDICTED BY IDOCK:   -5.86 KCAL/MOL
REMARK 922        TOTAL FREE ENERGY PREDICTED BY IDOCK:   -8.30 KCAL/MOL
REMARK 923 INTER-LIGAND FREE ENERGY PREDICTED BY IDOCK:   -7.82 KCAL/MOL
REMARK 924 INTRA-LIGAND FREE ENERGY PREDICTED BY IDOCK:   -0.48 KCAL/MOL
REMARK 927      BINDING AFFINITY PREDICTED BY RF-SCORE:    0.00 PKD
ROOT
HETATM    1  N   UNL     1      -8.242  11.012  66.530  1.00  0.00    -0.156 NA 
HETATM    2  C   UNL     1      -9.602  11.211  67.075  1.00  0.00    -0.181 C  
HETATM    3  H1  UNL     1      -7.858  10.158  66.937  1.00  0.00     0.000 HD 
HETATM    4  H2  UNL     1      -7.638  11.822  66.673  1.00  0.00     0.000 HD 
ENDROOT
BRANCH   2   5
HETATM    5  C   UNL     1     -10.468   9.960  66.789  1.00  0.00    -0.261 C  
BRANCH   5   6
HETATM    6  C   UNL     1     -10.091   8.766  67.638  1.00  0.00    -0.273 A  
HETATM    7  F   UNL     1     -11.221   9.675  69.518  1.00  0.00    -0.236 F  
HETATM    8  C   UNL     1     -10.509   8.678  68.971  1.00  0.00    -0.199 A  
HETATM    9  C   UNL     1     -10.203   7.572  69.757  1.00  0.00    -0.211 A  
HETATM   10  C   UNL     1      -9.323   7.719  67.103  1.00  0.00    -0.185 A  
HETATM   11  C   UNL     1      -9.027   6.607  67.885  1.00  0.00    -0.112 A  
HETATM   12  F   UNL     1      -9.181   5.459  69.947  1.00  0.00    -0.134 F  
HETATM   13  C   UNL     1      -9.467   6.534  69.202  1.00  0.00    -0.135 A  
HETATM   14  F   UNL     1      -8.313   5.603  67.355  1.00  0.00    -0.102 F  
ENDBRANCH   5   6
ENDBRANCH   2   5
BRANCH   2  15
HETATM   15  C   UNL     1     -10.179  12.492  66.466  1.00  0.00    -0.255 C  
BRANCH  15  16
HETATM   16  C   UNL     1     -10.838  13.441  67.458  1.00  0.00    -0.263 C  
HETATM   17  N   UNL     1      -9.749  17.370  67.099  1.00  0.00    -0.259 NA 
HETATM   18  C   UNL     1     -10.801  15.663  68.534  1.00  0.00    -0.282 C  
HETATM   19  N   UNL     1     -10.242  14.691  67.589  1.00  0.00    -0.232 N  
HETATM   20  C   UNL     1      -8.819  16.442  66.712  1.00  0.00    -0.225 A  
HETATM   21  O   UNL     1     -11.851  13.135  68.081  1.00  0.00    -0.336 OA 
HETATM   22  C   UNL     1      -8.904  15.006  67.077  1.00  0.00    -0.234 C  
HETATM   23  C   UNL     1     -10.917  17.050  67.893  1.00  0.00    -0.226 C  
HETATM   24  N   UNL     1      -7.904  17.029  65.980  1.00  0.00    -0.440 NA 
HETATM   25  N   UNL     1      -8.256  18.348  65.849  1.00  0.00    -0.502 NA 
HETATM   26  C   UNL     1      -9.386  18.551  66.506  1.00  0.00    -0.313 A  
HETATM   27  C   UNL     1     -10.150  19.822  66.583  1.00  0.00    -0.461 C  
HETATM   28  F   UNL     1     -11.271  19.711  67.347  1.00  0.00    -0.554 F  
HETATM   29  F   UNL     1      -9.418  20.827  67.126  1.00  0.00    -0.535 F  
HETATM   30  F   UNL     1     -10.567  20.243  65.361  1.00  0.00    -0.516 F  
ENDBRANCH  15  16
ENDBRANCH   2  15
TORSDOF 4
ENDMDL
MODEL       97
REMARK 921   NORMALIZED FREE ENERGY PREDICTED BY IDOCK:   -5.86 KCAL/MOL
REMARK 922        TOTAL FREE ENERGY PREDICTED BY IDOCK:   -8.29 KCAL/MOL
REMARK 923 INTER-LIGAND FREE ENERGY PREDICTED BY IDOCK:   -7.85 KCAL/MOL
REMARK 924 INTRA-LIGAND FREE ENERGY PREDICTED BY IDOCK:   -0.44 KCAL/MOL
REMARK 927      BINDING AFFINITY PREDICTED BY RF-SCORE:    0.00 PKD
ROOT
HETATM    1  N   UNL     1      -8.725   6.286  66.517  1.00  0.00    -0.126 NA 
HETATM    2  C   UNL     1      -9.612   6.697  67.627  1.00  0.00    -0.124 C  
HETATM    3  H1  UNL     1      -8.128   5.528  66.850  1.00  0.00     0.000 HD 
HETATM    4  H2  UNL     1      -8.193   7.065  66.130  1.00  0.00     0.000 HD 
ENDROOT
BRANCH   2   5
HETATM    5  C   UNL     1     -10.412   5.473  68.136  1.00  0.00    -0.231 C  
BRANCH   5   6
HETATM    6  C   UNL     1     -10.648   5.493  69.630  1.00  0.00    -0.375 A  
HETATM    7  F   UNL     1      -9.072   3.748  69.959  1.00  0.00    -0.128 F  
HETATM    8  C   UNL     1      -9.941   4.629  70.475  1.00  0.00    -0.225 A  
HETATM    9  C   UNL     1     -10.118   4.657  71.855  1.00  0.00    -0.266 A  
HETATM   10  C   UNL     1     -11.572   6.385  70.199  1.00  0.00    -0.449 A  
HETATM   11  C   UNL     1     -11.740   6.422  71.579  1.00  0.00    -0.313 A  
HETATM   12  F   UNL     1     -11.179   5.610  73.729  1.00  0.00    -0.266 F  
HETATM   13  C   UNL     1     -11.015   5.566  72.401  1.00  0.00    -0.255 A  
HETATM   14  F   UNL     1     -12.607   7.295  72.112  1.00  0.00    -0.314 F  
ENDBRANCH   5   6
ENDBRANCH   2   5
BRANCH   2  15
HETATM   15  C   UNL     1     -10.508   7.833  67.127  1.00  0.00    -0.413 C  
BRANCH  15  16
HETATM   16  C   UNL     1     -10.404   9.133  67.915  1.00  0.00    -0.232 C  
HETATM   17  N   UNL     1     -10.514  12.549  65.662  1.00  0.00    -0.267 NA 
HETATM   18  C   UNL     1      -9.956  11.560  67.851  1.00  0.00    -0.183 C  
HETATM   19  N   UNL     1     -10.092  10.268  67.173  1.00  0.00    -0.200 N  
HETATM   20  C   UNL     1     -10.006  11.432  65.052  1.00  0.00    -0.266 A  
HETATM   21  O   UNL     1     -10.612   9.184  69.124  1.00  0.00    -0.223 OA 
HETATM   22  C   UNL     1      -9.585  10.221  65.798  1.00  0.00    -0.224 C  
HETATM   23  C   UNL     1     -10.704  12.662  67.094  1.00  0.00    -0.241 C  
HETATM   24  N   UNL     1      -9.986  11.622  63.756  1.00  0.00    -0.322 NA 
HETATM   25  N   UNL     1     -10.524  12.858  63.506  1.00  0.00    -0.225 NA 
HETATM   26  C   UNL     1     -10.866  13.411  64.658  1.00  0.00    -0.392 A  
HETATM   27  C   UNL     1     -11.533  14.725  64.846  1.00  0.00    -0.412 C  
HETATM   28  F   UNL     1     -11.745  15.018  66.158  1.00  0.00    -0.331 F  
HETATM   29  F   UNL     1     -10.799  15.748  64.342  1.00  0.00    -0.391 F  
HETATM   30  F   UNL     1     -12.751  14.771  64.249  1.00  0.00    -0.460 F  
ENDBRANCH  15  16
ENDBRANCH   2  15
TORSDOF 4
ENDMDL
MODEL       98
REMARK 921   NORMALIZED FREE ENERGY PREDICTED BY IDOCK:   -5.84 KCAL/MOL
REMARK 922        TOTAL FREE ENERGY PREDICTED BY IDOCK:   -8.27 KCAL/MOL
REMARK 923 INTER-LIGAND FREE ENERGY PREDICTED BY IDOCK:   -7.38 KCAL/MOL
REMARK 924 INTRA-LIGAND FREE ENERGY PREDICTED BY IDOCK:   -0.89 KCAL/MOL
REMARK 927      BINDING AFFINITY PREDICTED BY RF-SCORE:    0.00 PKD
ROOT
HETATM    1  N   UNL     1     -11.235   7.304  73.263  1.00  0.00    -0.587 NA 
HETATM    2  C   UNL     1     -11.174   6.570  71.981  1.00  0.00    -0.273 C  
HETATM    3  H1  UNL     1     -10.621   6.834  73.929  1.00  0.00     0.000 HD 
HETATM    4  H2  UNL     1     -12.188   7.408  73.612  1.00  0.00     0.000 HD 
ENDROOT
BRANCH   2   5
HETATM    5  C   UNL     1      -9.706   6.486  71.497  1.00  0.00    -0.179 C  
BRANCH   5   6
HETATM    6  C   UNL     1      -9.495   5.461  70.404  1.00  0.00    -0.215 A  
HETATM    7  F   UNL     1      -9.769   3.677  71.947  1.00  0.00    -0.186 F  
HETATM    8  C   UNL     1      -9.557   4.091  70.689  1.00  0.00    -0.190 A  
HETATM    9  C   UNL     1      -9.402   3.134  69.692  1.00  0.00    -0.222 A  
HETATM   10  C   UNL     1      -9.244   5.862  69.082  1.00  0.00    -0.131 A  
HETATM   11  C   UNL     1      -9.100   4.906  68.082  1.00  0.00    -0.114 A  
HETATM   12  F   UNL     1      -9.047   2.637  67.418  1.00  0.00    -0.141 F  
HETATM   13  C   UNL     1      -9.182   3.551  68.386  1.00  0.00    -0.168 A  
HETATM   14  F   UNL     1      -8.885   5.303  66.820  1.00  0.00    -0.114 F  
ENDBRANCH   5   6
ENDBRANCH   2   5
BRANCH   2  15
HETATM   15  C   UNL     1     -12.095   7.275  70.982  1.00  0.00    -0.361 C  
BRANCH  15  16
HETATM   16  C   UNL     1     -12.269   8.772  71.206  1.00  0.00    -0.287 C  
HETATM   17  N   UNL     1     -11.339  11.135  67.997  1.00  0.00    -0.326 NA 
HETATM   18  C   UNL     1     -11.746  11.055  70.428  1.00  0.00    -0.343 C  
HETATM   19  N   UNL     1     -11.644   9.600  70.280  1.00  0.00    -0.233 N  
HETATM   20  C   UNL     1     -10.670   9.944  68.091  1.00  0.00    -0.233 A  
HETATM   21  O   UNL     1     -12.944   9.220  72.129  1.00  0.00    -0.380 OA 
HETATM   22  C   UNL     1     -10.629   9.132  69.332  1.00  0.00    -0.223 C  
HETATM   23  C   UNL     1     -12.085  11.723  69.092  1.00  0.00    -0.228 C  
HETATM   24  N   UNL     1     -10.124   9.665  66.933  1.00  0.00    -0.212 NA 
HETATM   25  N   UNL     1     -10.470  10.661  66.057  1.00  0.00    -0.217 NA 
HETATM   26  C   UNL     1     -11.227  11.540  66.693  1.00  0.00    -0.271 A  
HETATM   27  C   UNL     1     -11.864  12.748  66.109  1.00  0.00    -0.425 C  
HETATM   28  F   UNL     1     -12.575  13.458  67.028  1.00  0.00    -0.312 F  
HETATM   29  F   UNL     1     -10.952  13.606  65.588  1.00  0.00    -0.286 F  
HETATM   30  F   UNL     1     -12.736  12.436  65.117  1.00  0.00    -0.522 F  
ENDBRANCH  15  16
ENDBRANCH   2  15
TORSDOF 4
ENDMDL
MODEL       99
REMARK 921   NORMALIZED FREE ENERGY PREDICTED BY IDOCK:   -5.83 KCAL/MOL
REMARK 922        TOTAL FREE ENERGY PREDICTED BY IDOCK:   -8.26 KCAL/MOL
REMARK 923 INTER-LIGAND FREE ENERGY PREDICTED BY IDOCK:   -7.38 KCAL/MOL
REMARK 924 INTRA-LIGAND FREE ENERGY PREDICTED BY IDOCK:   -0.88 KCAL/MOL
REMARK 927      BINDING AFFINITY PREDICTED BY RF-SCORE:    0.00 PKD
ROOT
HETATM    1  N   UNL     1      -7.850   7.213  69.376  1.00  0.00    -0.111 NA 
HETATM    2  C   UNL     1      -8.511   8.479  68.988  1.00  0.00    -0.126 C  
HETATM    3  H1  UNL     1      -8.320   6.851  70.206  1.00  0.00     0.000 HD 
HETATM    4  H2  UNL     1      -6.844   7.320  69.508  1.00  0.00     0.000 HD 
ENDROOT
BRANCH   2   5
HETATM    5  C   UNL     1     -10.023   8.232  68.769  1.00  0.00    -0.193 C  
BRANCH   5   6
HETATM    6  C   UNL     1     -10.898   8.975  69.755  1.00  0.00    -0.215 A  
HETATM    7  F   UNL     1     -11.453   6.956  70.873  1.00  0.00    -0.286 F  
HETATM    8  C   UNL     1     -11.561   8.289  70.779  1.00  0.00    -0.236 A  
HETATM    9  C   UNL     1     -12.340   8.960  71.716  1.00  0.00    -0.424 A  
HETATM   10  C   UNL     1     -11.053  10.369  69.667  1.00  0.00    -0.328 A  
HETATM   11  C   UNL     1     -11.823  11.041  70.611  1.00  0.00    -0.333 A  
HETATM   12  F   UNL     1     -13.195  10.995  72.537  1.00  0.00    -0.457 F  
HETATM   13  C   UNL     1     -12.459  10.341  71.630  1.00  0.00    -0.392 A  
HETATM   14  F   UNL     1     -11.944  12.374  70.531  1.00  0.00    -0.408 F  
ENDBRANCH   5   6
ENDBRANCH   2   5
BRANCH   2  15
HETATM   15  C   UNL     1      -7.806   9.023  67.742  1.00  0.00    -0.101 C  
BRANCH  15  16
HETATM   16  C   UNL     1      -7.584  10.530  67.731  1.00  0.00    -0.088 C  
HETATM   17  N   UNL     1     -10.207  12.661  65.423  1.00  0.00    -0.284 NA 
HETATM   18  C   UNL     1      -8.048  12.682  66.613  1.00  0.00     0.193 C  
HETATM   19  N   UNL     1      -8.219  11.229  66.710  1.00  0.00    -0.153 N  
HETATM   20  C   UNL     1      -9.953  11.375  65.028  1.00  0.00    -0.266 A  
HETATM   21  O   UNL     1      -6.912  11.098  68.588  1.00  0.00    -0.070 OA 
HETATM   22  C   UNL     1      -8.804  10.583  65.531  1.00  0.00    -0.184 C  
HETATM   23  C   UNL     1      -9.391  13.381  66.380  1.00  0.00    -0.172 C  
HETATM   24  N   UNL     1     -10.881  10.993  64.185  1.00  0.00    -0.297 NA 
HETATM   25  N   UNL     1     -11.778  12.023  64.055  1.00  0.00    -0.400 NA 
HETATM   26  C   UNL     1     -11.384  13.025  64.823  1.00  0.00    -0.317 A  
HETATM   27  C   UNL     1     -12.089  14.316  65.026  1.00  0.00    -0.425 C  
HETATM   28  F   UNL     1     -11.422  15.148  65.872  1.00  0.00    -0.340 F  
HETATM   29  F   UNL     1     -12.246  15.001  63.865  1.00  0.00    -0.433 F  
HETATM   30  F   UNL     1     -13.325  14.145  65.562  1.00  0.00    -0.531 F  
ENDBRANCH  15  16
ENDBRANCH   2  15
TORSDOF 4
ENDMDL
MODEL      100
REMARK 921   NORMALIZED FREE ENERGY PREDICTED BY IDOCK:   -5.83 KCAL/MOL
REMARK 922        TOTAL FREE ENERGY PREDICTED BY IDOCK:   -8.25 KCAL/MOL
REMARK 923 INTER-LIGAND FREE ENERGY PREDICTED BY IDOCK:   -7.73 KCAL/MOL
REMARK 924 INTRA-LIGAND FREE ENERGY PREDICTED BY IDOCK:   -0.52 KCAL/MOL
REMARK 927      BINDING AFFINITY PREDICTED BY RF-SCORE:    0.00 PKD
ROOT
HETATM    1  N   UNL     1     -12.417  14.977  69.020  1.00  0.00    -0.578 NA 
HETATM    2  C   UNL     1     -11.071  15.435  68.613  1.00  0.00    -0.289 C  
HETATM    3  H1  UNL     1     -12.470  15.009  70.039  1.00  0.00     0.000 HD 
HETATM    4  H2  UNL     1     -12.650  14.058  68.643  1.00  0.00     0.000 HD 
ENDROOT
BRANCH   2   5
HETATM    5  C   UNL     1     -10.805  16.847  69.190  1.00  0.00    -0.237 C  
BRANCH   5   6
HETATM    6  C   UNL     1     -10.054  17.750  68.236  1.00  0.00    -0.371 A  
HETATM    7  F   UNL     1      -7.966  17.024  69.102  1.00  0.00    -0.238 F  
HETATM    8  C   UNL     1      -8.654  17.777  68.231  1.00  0.00    -0.277 A  
HETATM    9  C   UNL     1      -7.946  18.572  67.337  1.00  0.00    -0.246 A  
HETATM   10  C   UNL     1     -10.746  18.570  67.330  1.00  0.00    -0.417 A  
HETATM   11  C   UNL     1     -10.038  19.358  66.428  1.00  0.00    -0.444 A  
HETATM   12  F   UNL     1      -7.974  20.113  65.556  1.00  0.00    -0.325 F  
HETATM   13  C   UNL     1      -8.648  19.356  66.430  1.00  0.00    -0.354 A  
HETATM   14  F   UNL     1     -10.711  20.119  65.552  1.00  0.00    -0.545 F  
ENDBRANCH   5   6
ENDBRANCH   2   5
BRANCH   2  15
HETATM   15  C   UNL     1     -10.991  15.387  67.085  1.00  0.00    -0.317 C  
BRANCH  15  16
HETATM   16  C   UNL     1     -11.539  14.116  66.448  1.00  0.00    -0.369 C  
HETATM   17  N   UNL     1      -9.512  10.686  67.384  1.00  0.00    -0.153 NA 
HETATM   18  C   UNL     1     -11.127  11.755  65.858  1.00  0.00    -0.302 C  
HETATM   19  N   UNL     1     -10.688  13.016  66.463  1.00  0.00    -0.276 N  
HETATM   20  C   UNL     1      -8.784  11.846  67.393  1.00  0.00    -0.166 A  
HETATM   21  O   UNL     1     -12.672  14.056  65.979  1.00  0.00    -0.475 OA 
HETATM   22  C   UNL     1      -9.256  13.105  66.767  1.00  0.00    -0.230 C  
HETATM   23  C   UNL     1     -10.822  10.567  66.776  1.00  0.00    -0.142 C  
HETATM   24  N   UNL     1      -7.664  11.645  68.042  1.00  0.00    -0.113 NA 
HETATM   25  N   UNL     1      -7.672  10.354  68.502  1.00  0.00    -0.096 NA 
HETATM   26  C   UNL     1      -8.802   9.778  68.125  1.00  0.00    -0.119 A  
HETATM   27  C   UNL     1      -9.246   8.400  68.452  1.00  0.00    -0.135 C  
HETATM   28  F   UNL     1     -10.456   8.098  67.907  1.00  0.00    -0.244 F  
HETATM   29  F   UNL     1      -8.380   7.461  67.996  1.00  0.00    -0.119 F  
HETATM   30  F   UNL     1      -9.378   8.209  69.790  1.00  0.00    -0.155 F  
ENDBRANCH  15  16
ENDBRANCH   2  15
TORSDOF 4
ENDMDL
MODEL      101
REMARK 921   NORMALIZED FREE ENERGY PREDICTED BY IDOCK:   -5.82 KCAL/MOL
REMARK 922        TOTAL FREE ENERGY PREDICTED BY IDOCK:   -8.25 KCAL/MOL
REMARK 923 INTER-LIGAND FREE ENERGY PREDICTED BY IDOCK:   -7.44 KCAL/MOL
REMARK 924 INTRA-LIGAND FREE ENERGY PREDICTED BY IDOCK:   -0.81 KCAL/MOL
REMARK 927      BINDING AFFINITY PREDICTED BY RF-SCORE:    0.00 PKD
ROOT
HETATM    1  N   UNL     1     -11.919  13.531  69.211  1.00  0.00    -0.331 NA 
HETATM    2  C   UNL     1     -10.824  14.176  68.455  1.00  0.00    -0.254 C  
HETATM    3  H1  UNL     1     -12.437  14.259  69.705  1.00  0.00     0.000 HD 
HETATM    4  H2  UNL     1     -11.587  12.793  69.831  1.00  0.00     0.000 HD 
ENDROOT
BRANCH   2   5
HETATM    5  C   UNL     1     -11.406  15.255  67.510  1.00  0.00    -0.300 C  
BRANCH   5   6
HETATM    6  C   UNL     1     -10.530  16.482  67.393  1.00  0.00    -0.310 A  
HETATM    7  F   UNL     1      -9.634  15.717  65.332  1.00  0.00    -0.338 F  
HETATM    8  C   UNL     1      -9.691  16.658  66.286  1.00  0.00    -0.304 A  
HETATM    9  C   UNL     1      -8.906  17.797  66.143  1.00  0.00    -0.122 A  
HETATM   10  C   UNL     1     -10.547  17.473  68.388  1.00  0.00    -0.339 A  
HETATM   11  C   UNL     1      -9.769  18.618  68.241  1.00  0.00    -0.357 A  
HETATM   12  F   UNL     1      -8.215  19.884  66.987  1.00  0.00    -0.295 F  
HETATM   13  C   UNL     1      -8.957  18.779  67.124  1.00  0.00    -0.281 A  
HETATM   14  F   UNL     1      -9.813  19.568  69.187  1.00  0.00    -0.449 F  
ENDBRANCH   5   6
ENDBRANCH   2   5
BRANCH   2  15
HETATM   15  C   UNL     1     -10.047  13.085  67.713  1.00  0.00    -0.229 C  
BRANCH  15  16
HETATM   16  C   UNL     1     -10.763  11.745  67.599  1.00  0.00    -0.214 C  
HETATM   17  N   UNL     1      -9.602   8.912  70.316  1.00  0.00    -0.176 NA 
HETATM   18  C   UNL     1     -10.774   9.348  68.191  1.00  0.00    -0.178 C  
HETATM   19  N   UNL     1     -10.162  10.678  68.259  1.00  0.00    -0.160 N  
HETATM   20  C   UNL     1      -8.659   9.841  69.962  1.00  0.00    -0.204 A  
HETATM   21  O   UNL     1     -11.821  11.619  66.989  1.00  0.00    -0.591 OA 
HETATM   22  C   UNL     1      -8.788  10.715  68.771  1.00  0.00    -0.161 C  
HETATM   23  C   UNL     1     -10.828   8.694  69.575  1.00  0.00    -0.129 C  
HETATM   24  N   UNL     1      -7.688   9.823  70.841  1.00  0.00    -0.266 NA 
HETATM   25  N   UNL     1      -8.013   8.905  71.806  1.00  0.00    -0.340 NA 
HETATM   26  C   UNL     1      -9.184   8.369  71.502  1.00  0.00    -0.196 A  
HETATM   27  C   UNL     1      -9.935   7.369  72.303  1.00  0.00    -0.169 C  
HETATM   28  F   UNL     1     -11.109   7.007  71.716  1.00  0.00    -0.241 F  
HETATM   29  F   UNL     1      -9.231   6.224  72.482  1.00  0.00    -0.141 F  
HETATM   30  F   UNL     1     -10.260   7.839  73.534  1.00  0.00    -0.365 F  
ENDBRANCH  15  16
ENDBRANCH   2  15
TORSDOF 4
ENDMDL
MODEL      102
REMARK 921   NORMALIZED FREE ENERGY PREDICTED BY IDOCK:   -5.82 KCAL/MOL
REMARK 922        TOTAL FREE ENERGY PREDICTED BY IDOCK:   -8.25 KCAL/MOL
REMARK 923 INTER-LIGAND FREE ENERGY PREDICTED BY IDOCK:   -7.37 KCAL/MOL
REMARK 924 INTRA-LIGAND FREE ENERGY PREDICTED BY IDOCK:   -0.88 KCAL/MOL
REMARK 927      BINDING AFFINITY PREDICTED BY RF-SCORE:    0.00 PKD
ROOT
HETATM    1  N   UNL     1      -7.608   9.006  67.020  1.00  0.00    -0.090 NA 
HETATM    2  C   UNL     1      -8.101   7.730  66.457  1.00  0.00    -0.111 C  
HETATM    3  H1  UNL     1      -7.896   9.761  66.397  1.00  0.00     0.000 HD 
HETATM    4  H2  UNL     1      -6.602   8.997  67.192  1.00  0.00     0.000 HD 
ENDROOT
BRANCH   2   5
HETATM    5  C   UNL     1      -9.635   7.804  66.262  1.00  0.00    -0.179 C  
BRANCH   5   6
HETATM    6  C   UNL     1     -10.192   9.199  66.440  1.00  0.00    -0.300 A  
HETATM    7  F   UNL     1      -9.554   9.799  64.234  1.00  0.00    -0.332 F  
HETATM    8  C   UNL     1     -10.137  10.129  65.395  1.00  0.00    -0.272 A  
HETATM    9  C   UNL     1     -10.677  11.404  65.528  1.00  0.00    -0.313 A  
HETATM   10  C   UNL     1     -10.785   9.585  67.654  1.00  0.00    -0.314 A  
HETATM   11  C   UNL     1     -11.335  10.856  67.784  1.00  0.00    -0.292 A  
HETATM   12  F   UNL     1     -11.818  12.978  66.857  1.00  0.00    -0.361 F  
HETATM   13  C   UNL     1     -11.283  11.758  66.727  1.00  0.00    -0.328 A  
HETATM   14  F   UNL     1     -11.919  11.204  68.940  1.00  0.00    -0.346 F  
ENDBRANCH   5   6
ENDBRANCH   2   5
BRANCH   2  15
HETATM   15  C   UNL     1      -7.670   6.596  67.392  1.00  0.00    -0.109 C  
BRANCH  15  16
HETATM   16  C   UNL     1      -8.807   5.755  67.956  1.00  0.00    -0.109 C  
HETATM   17  N   UNL     1     -11.165   7.638  70.721  1.00  0.00    -0.266 NA 
HETATM   18  C   UNL     1     -10.488   5.478  69.743  1.00  0.00    -0.319 C  
HETATM   19  N   UNL     1      -9.395   6.233  69.122  1.00  0.00    -0.131 N  
HETATM   20  C   UNL     1      -9.864   8.058  70.641  1.00  0.00    -0.184 A  
HETATM   21  O   UNL     1      -9.203   4.733  67.400  1.00  0.00    -0.120 OA 
HETATM   22  C   UNL     1      -8.801   7.284  69.955  1.00  0.00    -0.142 C  
HETATM   23  C   UNL     1     -11.645   6.403  70.134  1.00  0.00    -0.381 C  
HETATM   24  N   UNL     1      -9.750   9.220  71.236  1.00  0.00    -0.268 NA 
HETATM   25  N   UNL     1     -10.996   9.589  71.675  1.00  0.00    -0.318 NA 
HETATM   26  C   UNL     1     -11.859   8.643  71.342  1.00  0.00    -0.297 A  
HETATM   27  C   UNL     1     -13.325   8.659  71.577  1.00  0.00    -0.305 C  
HETATM   28  F   UNL     1     -13.937   7.531  71.125  1.00  0.00    -0.417 F  
HETATM   29  F   UNL     1     -13.631   8.757  72.894  1.00  0.00    -0.400 F  
HETATM   30  F   UNL     1     -13.932   9.696  70.945  1.00  0.00    -0.371 F  
ENDBRANCH  15  16
ENDBRANCH   2  15
TORSDOF 4
ENDMDL
MODEL      103
REMARK 921   NORMALIZED FREE ENERGY PREDICTED BY IDOCK:   -5.81 KCAL/MOL
REMARK 922        TOTAL FREE ENERGY PREDICTED BY IDOCK:   -8.23 KCAL/MOL
REMARK 923 INTER-LIGAND FREE ENERGY PREDICTED BY IDOCK:   -7.81 KCAL/MOL
REMARK 924 INTRA-LIGAND FREE ENERGY PREDICTED BY IDOCK:   -0.42 KCAL/MOL
REMARK 927      BINDING AFFINITY PREDICTED BY RF-SCORE:    0.00 PKD
ROOT
HETATM    1  N   UNL     1      -8.733  14.850  69.467  1.00  0.00    -0.433 NA 
HETATM    2  C   UNL     1      -9.271  14.233  68.235  1.00  0.00    -0.197 C  
HETATM    3  H1  UNL     1      -7.717  14.761  69.450  1.00  0.00     0.000 HD 
HETATM    4  H2  UNL     1      -9.149  14.462  70.314  1.00  0.00     0.000 HD 
ENDROOT
BRANCH   2   5
HETATM    5  C   UNL     1      -8.624  14.897  66.995  1.00  0.00    -0.265 C  
BRANCH   5   6
HETATM    6  C   UNL     1      -9.089  16.319  66.769  1.00  0.00    -0.257 A  
HETATM    7  F   UNL     1     -10.775  15.589  65.265  1.00  0.00    -0.320 F  
HETATM    8  C   UNL     1     -10.167  16.590  65.917  1.00  0.00    -0.349 A  
HETATM    9  C   UNL     1     -10.632  17.887  65.725  1.00  0.00    -0.175 A  
HETATM   10  C   UNL     1      -8.456  17.392  67.415  1.00  0.00    -0.215 A  
HETATM   11  C   UNL     1      -8.927  18.688  67.232  1.00  0.00    -0.274 A  
HETATM   12  F   UNL     1     -10.461  20.181  66.226  1.00  0.00    -0.524 F  
HETATM   13  C   UNL     1     -10.010  18.933  66.395  1.00  0.00    -0.393 A  
HETATM   14  F   UNL     1      -8.328  19.702  67.874  1.00  0.00    -0.320 F  
ENDBRANCH   5   6
ENDBRANCH   2   5
BRANCH   2  15
HETATM   15  C   UNL     1     -10.796  14.366  68.259  1.00  0.00    -0.250 C  
BRANCH  15  16
HETATM   16  C   UNL     1     -11.484  13.709  69.450  1.00  0.00    -0.286 C  
HETATM   17  N   UNL     1     -11.179   9.631  69.607  1.00  0.00    -0.189 NA 
HETATM   18  C   UNL     1     -12.363  11.626  70.441  1.00  0.00    -0.288 C  
HETATM   19  N   UNL     1     -11.694  12.338  69.348  1.00  0.00    -0.316 N  
HETATM   20  C   UNL     1     -11.145  10.197  68.360  1.00  0.00    -0.218 A  
HETATM   21  O   UNL     1     -11.805  14.344  70.451  1.00  0.00    -0.286 OA 
HETATM   22  C   UNL     1     -11.571  11.593  68.091  1.00  0.00    -0.319 C  
HETATM   23  C   UNL     1     -11.620  10.334  70.794  1.00  0.00    -0.355 C  
HETATM   24  N   UNL     1     -10.672   9.326  67.505  1.00  0.00    -0.257 NA 
HETATM   25  N   UNL     1     -10.351   8.188  68.200  1.00  0.00    -0.208 NA 
HETATM   26  C   UNL     1     -10.635   8.380  69.478  1.00  0.00    -0.213 A  
HETATM   27  C   UNL     1     -10.396   7.427  70.591  1.00  0.00    -0.212 C  
HETATM   28  F   UNL     1     -10.806   7.916  71.793  1.00  0.00    -0.241 F  
HETATM   29  F   UNL     1     -11.055   6.255  70.412  1.00  0.00    -0.300 F  
HETATM   30  F   UNL     1      -9.079   7.130  70.736  1.00  0.00    -0.149 F  
ENDBRANCH  15  16
ENDBRANCH   2  15
TORSDOF 4
ENDMDL
MODEL      104
REMARK 921   NORMALIZED FREE ENERGY PREDICTED BY IDOCK:   -5.81 KCAL/MOL
REMARK 922        TOTAL FREE ENERGY PREDICTED BY IDOCK:   -8.23 KCAL/MOL
REMARK 923 INTER-LIGAND FREE ENERGY PREDICTED BY IDOCK:   -7.39 KCAL/MOL
REMARK 924 INTRA-LIGAND FREE ENERGY PREDICTED BY IDOCK:   -0.85 KCAL/MOL
REMARK 927      BINDING AFFINITY PREDICTED BY RF-SCORE:    0.00 PKD
ROOT
HETATM    1  N   UNL     1      -6.858   6.168  66.911  1.00  0.00    -0.061 NA 
HETATM    2  C   UNL     1      -7.755   6.652  67.983  1.00  0.00    -0.108 C  
HETATM    3  H1  UNL     1      -6.773   5.155  67.000  1.00  0.00     0.000 HD 
HETATM    4  H2  UNL     1      -5.954   6.641  66.913  1.00  0.00     0.000 HD 
ENDROOT
BRANCH   2   5
HETATM    5  C   UNL     1      -9.116   5.919  67.894  1.00  0.00    -0.109 C  
BRANCH   5   6
HETATM    6  C   UNL     1      -9.813   5.791  69.231  1.00  0.00    -0.220 A  
HETATM    7  F   UNL     1      -8.091   4.381  70.058  1.00  0.00    -0.058 F  
HETATM    8  C   UNL     1      -9.246   5.032  70.262  1.00  0.00    -0.139 A  
HETATM    9  C   UNL     1      -9.853   4.932  71.509  1.00  0.00    -0.247 A  
HETATM   10  C   UNL     1     -11.037   6.438  69.467  1.00  0.00    -0.460 A  
HETATM   11  C   UNL     1     -11.639   6.348  70.718  1.00  0.00    -0.338 A  
HETATM   12  F   UNL     1     -11.633   5.523  72.934  1.00  0.00    -0.321 F  
HETATM   13  C   UNL     1     -11.050   5.603  71.732  1.00  0.00    -0.199 A  
HETATM   14  F   UNL     1     -12.796   6.990  70.937  1.00  0.00    -0.406 F  
ENDBRANCH   5   6
ENDBRANCH   2   5
BRANCH   2  15
HETATM   15  C   UNL     1      -7.882   8.172  67.851  1.00  0.00    -0.122 C  
BRANCH  15  16
HETATM   16  C   UNL     1      -8.165   8.677  66.443  1.00  0.00    -0.111 C  
HETATM   17  N   UNL     1     -10.936  11.679  66.193  1.00  0.00    -0.293 NA 
HETATM   18  C   UNL     1      -9.684   9.946  64.965  1.00  0.00    -0.288 C  
HETATM   19  N   UNL     1      -9.324   9.431  66.291  1.00  0.00    -0.181 N  
HETATM   20  C   UNL     1     -11.073  10.809  67.241  1.00  0.00    -0.270 A  
HETATM   21  O   UNL     1      -7.403   8.461  65.505  1.00  0.00    -0.080 OA 
HETATM   22  C   UNL     1     -10.385   9.496  67.301  1.00  0.00    -0.255 C  
HETATM   23  C   UNL     1     -10.098  11.419  65.040  1.00  0.00    -0.274 C  
HETATM   24  N   UNL     1     -11.867  11.338  68.139  1.00  0.00    -0.607 NA 
HETATM   25  N   UNL     1     -12.223  12.587  67.698  1.00  0.00    -0.333 NA 
HETATM   26  C   UNL     1     -11.641  12.805  66.530  1.00  0.00    -0.376 A  
HETATM   27  C   UNL     1     -11.712  14.049  65.723  1.00  0.00    -0.363 C  
HETATM   28  F   UNL     1     -11.010  13.958  64.561  1.00  0.00    -0.354 F  
HETATM   29  F   UNL     1     -12.986  14.361  65.374  1.00  0.00    -0.473 F  
HETATM   30  F   UNL     1     -11.204  15.119  66.386  1.00  0.00    -0.338 F  
ENDBRANCH  15  16
ENDBRANCH   2  15
TORSDOF 4
ENDMDL
MODEL      105
REMARK 921   NORMALIZED FREE ENERGY PREDICTED BY IDOCK:   -5.80 KCAL/MOL
REMARK 922        TOTAL FREE ENERGY PREDICTED BY IDOCK:   -8.22 KCAL/MOL
REMARK 923 INTER-LIGAND FREE ENERGY PREDICTED BY IDOCK:   -7.52 KCAL/MOL
REMARK 924 INTRA-LIGAND FREE ENERGY PREDICTED BY IDOCK:   -0.70 KCAL/MOL
REMARK 927      BINDING AFFINITY PREDICTED BY RF-SCORE:    0.00 PKD
ROOT
HETATM    1  N   UNL     1     -10.035  16.011  65.243  1.00  0.00    -0.456 NA 
HETATM    2  C   UNL     1      -9.399  16.393  66.523  1.00  0.00    -0.273 C  
HETATM    3  H1  UNL     1      -9.990  16.813  64.614  1.00  0.00     0.000 HD 
HETATM    4  H2  UNL     1     -10.984  15.659  65.366  1.00  0.00     0.000 HD 
ENDROOT
BRANCH   2   5
HETATM    5  C   UNL     1      -7.953  16.880  66.262  1.00  0.00    -0.350 C  
BRANCH   5   6
HETATM    6  C   UNL     1      -7.444  17.834  67.320  1.00  0.00    -0.214 A  
HETATM    7  F   UNL     1      -8.441  19.683  66.215  1.00  0.00    -0.305 F  
HETATM    8  C   UNL     1      -7.735  19.202  67.248  1.00  0.00    -0.234 A  
HETATM    9  C   UNL     1      -7.307  20.088  68.230  1.00  0.00    -0.295 A  
HETATM   10  C   UNL     1      -6.678  17.365  68.401  1.00  0.00    -0.187 A  
HETATM   11  C   UNL     1      -6.260  18.250  69.389  1.00  0.00    -0.257 A  
HETATM   12  F   UNL     1      -6.172  20.446  70.262  1.00  0.00    -0.383 F  
HETATM   13  C   UNL     1      -6.575  19.601  69.305  1.00  0.00    -0.344 A  
HETATM   14  F   UNL     1      -5.550  17.786  70.428  1.00  0.00    -0.227 F  
ENDBRANCH   5   6
ENDBRANCH   2   5
BRANCH   2  15
HETATM   15  C   UNL     1      -9.465  15.190  67.468  1.00  0.00    -0.206 C  
BRANCH  15  16
HETATM   16  C   UNL     1     -10.797  14.453  67.484  1.00  0.00    -0.282 C  
HETATM   17  N   UNL     1     -10.710  10.734  69.192  1.00  0.00    -0.213 NA 
HETATM   18  C   UNL     1     -11.964  12.293  67.750  1.00  0.00    -0.159 C  
HETATM   19  N   UNL     1     -10.731  13.086  67.732  1.00  0.00    -0.225 N  
HETATM   20  C   UNL     1      -9.547  11.167  68.612  1.00  0.00    -0.196 A  
HETATM   21  O   UNL     1     -11.868  15.032  67.320  1.00  0.00    -0.307 OA 
HETATM   22  C   UNL     1      -9.485  12.313  67.674  1.00  0.00    -0.188 C  
HETATM   23  C   UNL     1     -11.999  11.356  68.961  1.00  0.00    -0.320 C  
HETATM   24  N   UNL     1      -8.553  10.427  69.040  1.00  0.00    -0.148 NA 
HETATM   25  N   UNL     1      -9.059   9.526  69.941  1.00  0.00    -0.200 NA 
HETATM   26  C   UNL     1     -10.362   9.727  70.053  1.00  0.00    -0.263 A  
HETATM   27  C   UNL     1     -11.295   9.009  70.959  1.00  0.00    -0.297 C  
HETATM   28  F   UNL     1     -12.579   9.440  70.833  1.00  0.00    -0.324 F  
HETATM   29  F   UNL     1     -11.316   7.674  70.718  1.00  0.00    -0.265 F  
HETATM   30  F   UNL     1     -10.968   9.177  72.266  1.00  0.00    -0.404 F  
ENDBRANCH  15  16
ENDBRANCH   2  15
TORSDOF 4
ENDMDL
MODEL      106
REMARK 921   NORMALIZED FREE ENERGY PREDICTED BY IDOCK:   -5.79 KCAL/MOL
REMARK 922        TOTAL FREE ENERGY PREDICTED BY IDOCK:   -8.21 KCAL/MOL
REMARK 923 INTER-LIGAND FREE ENERGY PREDICTED BY IDOCK:   -7.73 KCAL/MOL
REMARK 924 INTRA-LIGAND FREE ENERGY PREDICTED BY IDOCK:   -0.47 KCAL/MOL
REMARK 927      BINDING AFFINITY PREDICTED BY RF-SCORE:    0.00 PKD
ROOT
HETATM    1  N   UNL     1     -13.909   9.875  72.598  1.00  0.00    -0.561 NA 
HETATM    2  C   UNL     1     -12.907   9.391  71.623  1.00  0.00    -0.378 C  
HETATM    3  H1  UNL     1     -14.572   9.120  72.774  1.00  0.00     0.000 HD 
HETATM    4  H2  UNL     1     -14.364  10.737  72.299  1.00  0.00     0.000 HD 
ENDROOT
BRANCH   2   5
HETATM    5  C   UNL     1     -12.234   8.106  72.162  1.00  0.00    -0.398 C  
BRANCH   5   6
HETATM    6  C   UNL     1     -10.896   7.817  71.516  1.00  0.00    -0.260 A  
HETATM    7  F   UNL     1     -11.924   6.461  69.860  1.00  0.00    -0.486 F  
HETATM    8  C   UNL     1     -10.814   7.013  70.373  1.00  0.00    -0.254 A  
HETATM    9  C   UNL     1      -9.599   6.766  69.745  1.00  0.00    -0.153 A  
HETATM   10  C   UNL     1      -9.713   8.358  72.045  1.00  0.00    -0.353 A  
HETATM   11  C   UNL     1      -8.498   8.120  71.410  1.00  0.00    -0.126 A  
HETATM   12  F   UNL     1      -7.271   7.112  69.658  1.00  0.00    -0.067 F  
HETATM   13  C   UNL     1      -8.442   7.333  70.266  1.00  0.00    -0.137 A  
HETATM   14  F   UNL     1      -7.378   8.662  71.912  1.00  0.00    -0.097 F  
ENDBRANCH   5   6
ENDBRANCH   2   5
BRANCH   2  15
HETATM   15  C   UNL     1     -11.911  10.524  71.359  1.00  0.00    -0.325 C  
BRANCH  15  16
HETATM   16  C   UNL     1     -11.765  10.929  69.898  1.00  0.00    -0.339 C  
HETATM   17  N   UNL     1     -11.203  14.931  69.247  1.00  0.00    -0.269 NA 
HETATM   18  C   UNL     1     -11.812  12.762  68.244  1.00  0.00    -0.312 C  
HETATM   19  N   UNL     1     -11.921  12.284  69.626  1.00  0.00    -0.301 N  
HETATM   20  C   UNL     1     -11.914  14.589  70.367  1.00  0.00    -0.318 A  
HETATM   21  O   UNL     1     -11.495  10.116  69.018  1.00  0.00    -0.183 OA 
HETATM   22  C   UNL     1     -12.493  13.240  70.580  1.00  0.00    -0.298 C  
HETATM   23  C   UNL     1     -10.930  14.012  68.160  1.00  0.00    -0.252 C  
HETATM   24  N   UNL     1     -11.963  15.619  71.175  1.00  0.00    -0.370 NA 
HETATM   25  N   UNL     1     -11.242  16.635  70.603  1.00  0.00    -0.102 NA 
HETATM   26  C   UNL     1     -10.761  16.212  69.445  1.00  0.00    -0.307 A  
HETATM   27  C   UNL     1      -9.881  16.971  68.522  1.00  0.00    -0.290 C  
HETATM   28  F   UNL     1      -9.563  16.263  67.404  1.00  0.00    -0.223 F  
HETATM   29  F   UNL     1     -10.460  18.120  68.091  1.00  0.00    -0.345 F  
HETATM   30  F   UNL     1      -8.701  17.309  69.102  1.00  0.00    -0.231 F  
ENDBRANCH  15  16
ENDBRANCH   2  15
TORSDOF 4
ENDMDL
MODEL      107
REMARK 921   NORMALIZED FREE ENERGY PREDICTED BY IDOCK:   -5.78 KCAL/MOL
REMARK 922        TOTAL FREE ENERGY PREDICTED BY IDOCK:   -8.20 KCAL/MOL
REMARK 923 INTER-LIGAND FREE ENERGY PREDICTED BY IDOCK:   -6.99 KCAL/MOL
REMARK 924 INTRA-LIGAND FREE ENERGY PREDICTED BY IDOCK:   -1.22 KCAL/MOL
REMARK 927      BINDING AFFINITY PREDICTED BY RF-SCORE:    0.00 PKD
ROOT
HETATM    1  N   UNL     1      -9.450   5.695  73.248  1.00  0.00    -0.142 NA 
HETATM    2  C   UNL     1     -10.088   6.536  72.212  1.00  0.00    -0.175 C  
HETATM    3  H1  UNL     1      -8.913   6.304  73.866  1.00  0.00     0.000 HD 
HETATM    4  H2  UNL     1      -8.889   4.941  72.852  1.00  0.00     0.000 HD 
ENDROOT
BRANCH   2   5
HETATM    5  C   UNL     1     -10.951   7.630  72.886  1.00  0.00    -0.456 C  
BRANCH   5   6
HETATM    6  C   UNL     1     -11.303   8.770  71.956  1.00  0.00    -0.441 A  
HETATM    7  F   UNL     1     -13.450   8.990  72.946  1.00  0.00    -0.489 F  
HETATM    8  C   UNL     1     -12.545   9.410  72.049  1.00  0.00    -0.384 A  
HETATM    9  C   UNL     1     -12.873  10.482  71.227  1.00  0.00    -0.532 A  
HETATM   10  C   UNL     1     -10.388   9.215  70.988  1.00  0.00    -0.363 A  
HETATM   11  C   UNL     1     -10.711  10.295  70.173  1.00  0.00    -0.278 A  
HETATM   12  F   UNL     1     -12.246  11.968  69.510  1.00  0.00    -0.317 F  
HETATM   13  C   UNL     1     -11.944  10.926  70.295  1.00  0.00    -0.361 A  
HETATM   14  F   UNL     1      -9.819  10.726  69.269  1.00  0.00    -0.210 F  
ENDBRANCH   5   6
ENDBRANCH   2   5
BRANCH   2  15
HETATM   15  C   UNL     1     -10.895   5.623  71.284  1.00  0.00    -0.289 C  
BRANCH  15  16
HETATM   16  C   UNL     1     -10.075   4.871  70.244  1.00  0.00    -0.252 C  
HETATM   17  N   UNL     1      -9.219   6.979  66.842  1.00  0.00    -0.144 NA 
HETATM   18  C   UNL     1      -9.316   4.753  67.898  1.00  0.00    -0.133 C  
HETATM   19  N   UNL     1     -10.067   5.420  68.966  1.00  0.00    -0.197 N  
HETATM   20  C   UNL     1     -10.377   7.315  67.493  1.00  0.00    -0.242 A  
HETATM   21  O   UNL     1      -9.435   3.860  70.522  1.00  0.00    -0.149 OA 
HETATM   22  C   UNL     1     -11.006   6.455  68.525  1.00  0.00    -0.319 C  
HETATM   23  C   UNL     1      -8.481   5.759  67.100  1.00  0.00    -0.107 C  
HETATM   24  N   UNL     1     -10.786   8.484  67.067  1.00  0.00    -0.218 NA 
HETATM   25  N   UNL     1      -9.867   8.943  66.158  1.00  0.00    -0.277 NA 
HETATM   26  C   UNL     1      -8.905   8.043  66.038  1.00  0.00    -0.162 A  
HETATM   27  C   UNL     1      -7.684   8.157  65.201  1.00  0.00    -0.107 C  
HETATM   28  F   UNL     1      -6.889   7.056  65.286  1.00  0.00    -0.047 F  
HETATM   29  F   UNL     1      -7.979   8.313  63.886  1.00  0.00    -0.125 F  
HETATM   30  F   UNL     1      -6.909   9.210  65.567  1.00  0.00    -0.070 F  
ENDBRANCH  15  16
ENDBRANCH   2  15
TORSDOF 4
ENDMDL
MODEL      108
REMARK 921   NORMALIZED FREE ENERGY PREDICTED BY IDOCK:   -5.78 KCAL/MOL
REMARK 922        TOTAL FREE ENERGY PREDICTED BY IDOCK:   -8.20 KCAL/MOL
REMARK 923 INTER-LIGAND FREE ENERGY PREDICTED BY IDOCK:   -7.48 KCAL/MOL
REMARK 924 INTRA-LIGAND FREE ENERGY PREDICTED BY IDOCK:   -0.72 KCAL/MOL
REMARK 927      BINDING AFFINITY PREDICTED BY RF-SCORE:    0.00 PKD
ROOT
HETATM    1  N   UNL     1     -12.606   5.809  72.623  1.00  0.00    -0.412 NA 
HETATM    2  C   UNL     1     -11.389   6.605  72.355  1.00  0.00    -0.272 C  
HETATM    3  H1  UNL     1     -12.344   4.823  72.639  1.00  0.00     0.000 HD 
HETATM    4  H2  UNL     1     -13.358   6.006  71.962  1.00  0.00     0.000 HD 
ENDROOT
BRANCH   2   5
HETATM    5  C   UNL     1     -10.310   6.282  73.417  1.00  0.00    -0.257 C  
BRANCH   5   6
HETATM    6  C   UNL     1      -8.952   6.861  73.084  1.00  0.00    -0.151 A  
HETATM    7  F   UNL     1      -8.852   5.613  71.067  1.00  0.00    -0.129 F  
HETATM    8  C   UNL     1      -8.295   6.503  71.901  1.00  0.00    -0.115 A  
HETATM    9  C   UNL     1      -7.063   7.052  71.560  1.00  0.00    -0.073 A  
HETATM   10  C   UNL     1      -8.330   7.775  73.950  1.00  0.00    -0.277 A  
HETATM   11  C   UNL     1      -7.103   8.333  73.604  1.00  0.00    -0.122 A  
HETATM   12  F   UNL     1      -5.298   8.520  72.087  1.00  0.00    -0.034 F  
HETATM   13  C   UNL     1      -6.476   7.976  72.416  1.00  0.00    -0.068 A  
HETATM   14  F   UNL     1      -6.531   9.223  74.428  1.00  0.00    -0.108 F  
ENDBRANCH   5   6
ENDBRANCH   2   5
BRANCH   2  15
HETATM   15  C   UNL     1     -11.781   8.085  72.331  1.00  0.00    -0.444 C  
BRANCH  15  16
HETATM   16  C   UNL     1     -11.527   8.800  71.010  1.00  0.00    -0.285 C  
HETATM   17  N   UNL     1     -12.434  12.791  70.986  1.00  0.00    -0.347 NA 
HETATM   18  C   UNL     1     -11.959  10.794  69.620  1.00  0.00    -0.313 C  
HETATM   19  N   UNL     1     -12.137  10.042  70.865  1.00  0.00    -0.329 N  
HETATM   20  C   UNL     1     -13.158  12.006  71.844  1.00  0.00    -0.370 A  
HETATM   21  O   UNL     1     -10.802   8.326  70.139  1.00  0.00    -0.240 OA 
HETATM   22  C   UNL     1     -13.203  10.526  71.748  1.00  0.00    -0.417 C  
HETATM   23  C   UNL     1     -11.627  12.262  69.905  1.00  0.00    -0.203 C  
HETATM   24  N   UNL     1     -13.753  12.769  72.727  1.00  0.00    -0.365 NA 
HETATM   25  N   UNL     1     -13.384  14.066  72.475  1.00  0.00    -0.503 NA 
HETATM   26  C   UNL     1     -12.566  14.078  71.436  1.00  0.00    -0.372 A  
HETATM   27  C   UNL     1     -11.887  15.265  70.857  1.00  0.00    -0.341 C  
HETATM   28  F   UNL     1     -11.114  14.951  69.781  1.00  0.00    -0.245 F  
HETATM   29  F   UNL     1     -12.771  16.202  70.429  1.00  0.00    -0.319 F  
HETATM   30  F   UNL     1     -11.062  15.869  71.750  1.00  0.00    -0.369 F  
ENDBRANCH  15  16
ENDBRANCH   2  15
TORSDOF 4
ENDMDL
MODEL      109
REMARK 921   NORMALIZED FREE ENERGY PREDICTED BY IDOCK:   -5.77 KCAL/MOL
REMARK 922        TOTAL FREE ENERGY PREDICTED BY IDOCK:   -8.18 KCAL/MOL
REMARK 923 INTER-LIGAND FREE ENERGY PREDICTED BY IDOCK:   -7.33 KCAL/MOL
REMARK 924 INTRA-LIGAND FREE ENERGY PREDICTED BY IDOCK:   -0.85 KCAL/MOL
REMARK 927      BINDING AFFINITY PREDICTED BY RF-SCORE:    0.00 PKD
ROOT
HETATM    1  N   UNL     1     -12.814   7.223  70.963  1.00  0.00    -0.581 NA 
HETATM    2  C   UNL     1     -11.621   7.393  70.106  1.00  0.00    -0.066 C  
HETATM    3  H1  UNL     1     -13.409   6.509  70.542  1.00  0.00     0.000 HD 
HETATM    4  H2  UNL     1     -13.308   8.100  71.128  1.00  0.00     0.000 HD 
ENDROOT
BRANCH   2   5
HETATM    5  C   UNL     1     -10.904   6.032  69.932  1.00  0.00    -0.434 C  
BRANCH   5   6
HETATM    6  C   UNL     1      -9.951   6.005  68.758  1.00  0.00    -0.186 A  
HETATM    7  F   UNL     1      -8.184   6.849  70.101  1.00  0.00    -0.122 F  
HETATM    8  C   UNL     1      -8.617   6.404  68.912  1.00  0.00    -0.123 A  
HETATM    9  C   UNL     1      -7.717   6.352  67.854  1.00  0.00    -0.104 A  
HETATM   10  C   UNL     1     -10.381   5.569  67.494  1.00  0.00    -0.268 A  
HETATM   11  C   UNL     1      -9.477   5.506  66.438  1.00  0.00    -0.155 A  
HETATM   12  F   UNL     1      -7.289   5.825  65.599  1.00  0.00    -0.069 F  
HETATM   13  C   UNL     1      -8.154   5.892  66.619  1.00  0.00    -0.102 A  
HETATM   14  F   UNL     1      -9.895   5.066  65.242  1.00  0.00    -0.157 F  
ENDBRANCH   5   6
ENDBRANCH   2   5
BRANCH   2  15
HETATM   15  C   UNL     1     -10.727   8.465  70.737  1.00  0.00    -0.244 C  
BRANCH  15  16
HETATM   16  C   UNL     1     -11.294   9.878  70.710  1.00  0.00    -0.353 C  
HETATM   17  N   UNL     1     -11.163  11.739  67.067  1.00  0.00    -0.307 NA 
HETATM   18  C   UNL     1     -11.443  12.025  69.500  1.00  0.00    -0.282 C  
HETATM   19  N   UNL     1     -10.954  10.647  69.602  1.00  0.00    -0.261 N  
HETATM   20  C   UNL     1     -10.191  10.805  67.310  1.00  0.00    -0.205 A  
HETATM   21  O   UNL     1     -12.032  10.304  71.595  1.00  0.00    -0.332 OA 
HETATM   22  C   UNL     1      -9.884  10.286  68.665  1.00  0.00    -0.173 C  
HETATM   23  C   UNL     1     -12.001  12.311  68.102  1.00  0.00    -0.195 C  
HETATM   24  N   UNL     1      -9.632  10.462  66.176  1.00  0.00    -0.187 NA 
HETATM   25  N   UNL     1     -10.269  11.145  65.172  1.00  0.00    -0.273 NA 
HETATM   26  C   UNL     1     -11.213  11.901  65.707  1.00  0.00    -0.312 A  
HETATM   27  C   UNL     1     -12.176  12.764  64.979  1.00  0.00    -0.473 C  
HETATM   28  F   UNL     1     -13.020  13.427  65.816  1.00  0.00    -0.463 F  
HETATM   29  F   UNL     1     -11.553  13.714  64.237  1.00  0.00    -0.363 F  
HETATM   30  F   UNL     1     -12.966  12.051  64.136  1.00  0.00    -0.538 F  
ENDBRANCH  15  16
ENDBRANCH   2  15
TORSDOF 4
ENDMDL
MODEL      110
REMARK 921   NORMALIZED FREE ENERGY PREDICTED BY IDOCK:   -5.75 KCAL/MOL
REMARK 922        TOTAL FREE ENERGY PREDICTED BY IDOCK:   -8.17 KCAL/MOL
REMARK 923 INTER-LIGAND FREE ENERGY PREDICTED BY IDOCK:   -7.31 KCAL/MOL
REMARK 924 INTRA-LIGAND FREE ENERGY PREDICTED BY IDOCK:   -0.86 KCAL/MOL
REMARK 927      BINDING AFFINITY PREDICTED BY RF-SCORE:    0.00 PKD
ROOT
HETATM    1  N   UNL     1     -14.128   8.856  70.862  1.00  0.00    -0.521 NA 
HETATM    2  C   UNL     1     -13.234   8.317  71.909  1.00  0.00    -0.344 C  
HETATM    3  H1  UNL     1     -14.313   9.836  71.075  1.00  0.00     0.000 HD 
HETATM    4  H2  UNL     1     -14.982   8.308  70.754  1.00  0.00     0.000 HD 
ENDROOT
BRANCH   2   5
HETATM    5  C   UNL     1     -11.947   9.173  71.989  1.00  0.00    -0.421 C  
BRANCH   5   6
HETATM    6  C   UNL     1     -11.892  10.266  70.944  1.00  0.00    -0.473 A  
HETATM    7  F   UNL     1     -13.269  11.678  72.266  1.00  0.00    -0.609 F  
HETATM    8  C   UNL     1     -12.552  11.484  71.150  1.00  0.00    -0.359 A  
HETATM    9  C   UNL     1     -12.483  12.514  70.217  1.00  0.00    -0.157 A  
HETATM   10  C   UNL     1     -11.172  10.084  69.752  1.00  0.00    -0.307 A  
HETATM   11  C   UNL     1     -11.094  11.118  68.824  1.00  0.00    -0.236 A  
HETATM   12  F   UNL     1     -11.660  13.316  68.162  1.00  0.00    -0.290 F  
HETATM   13  C   UNL     1     -11.742  12.325  69.057  1.00  0.00    -0.324 A  
HETATM   14  F   UNL     1     -10.383  10.940  67.701  1.00  0.00    -0.195 F  
ENDBRANCH   5   6
ENDBRANCH   2   5
BRANCH   2  15
HETATM   15  C   UNL     1     -12.956   6.845  71.590  1.00  0.00    -0.359 C  
BRANCH  15  16
HETATM   16  C   UNL     1     -11.501   6.416  71.729  1.00  0.00    -0.300 C  
HETATM   17  N   UNL     1      -9.131   7.215  68.490  1.00  0.00    -0.133 NA 
HETATM   18  C   UNL     1      -9.366   5.937  70.585  1.00  0.00    -0.160 C  
HETATM   19  N   UNL     1     -10.771   6.356  70.547  1.00  0.00    -0.240 N  
HETATM   20  C   UNL     1     -10.460   7.003  68.235  1.00  0.00    -0.202 A  
HETATM   21  O   UNL     1     -10.994   6.170  72.820  1.00  0.00    -0.237 OA 
HETATM   22  C   UNL     1     -11.385   6.383  69.215  1.00  0.00    -0.338 C  
HETATM   23  C   UNL     1      -8.490   6.869  69.742  1.00  0.00    -0.133 C  
HETATM   24  N   UNL     1     -10.745   7.448  67.036  1.00  0.00    -0.356 NA 
HETATM   25  N   UNL     1      -9.603   7.996  66.511  1.00  0.00    -0.222 NA 
HETATM   26  C   UNL     1      -8.630   7.878  67.400  1.00  0.00    -0.125 A  
HETATM   27  C   UNL     1      -7.240   8.383  67.265  1.00  0.00    -0.084 C  
HETATM   28  F   UNL     1      -6.473   8.095  68.351  1.00  0.00    -0.051 F  
HETATM   29  F   UNL     1      -6.602   7.846  66.195  1.00  0.00    -0.046 F  
HETATM   30  F   UNL     1      -7.199   9.733  67.122  1.00  0.00    -0.083 F  
ENDBRANCH  15  16
ENDBRANCH   2  15
TORSDOF 4
ENDMDL
MODEL      111
REMARK 921   NORMALIZED FREE ENERGY PREDICTED BY IDOCK:   -5.75 KCAL/MOL
REMARK 922        TOTAL FREE ENERGY PREDICTED BY IDOCK:   -8.16 KCAL/MOL
REMARK 923 INTER-LIGAND FREE ENERGY PREDICTED BY IDOCK:   -7.83 KCAL/MOL
REMARK 924 INTRA-LIGAND FREE ENERGY PREDICTED BY IDOCK:   -0.33 KCAL/MOL
REMARK 927      BINDING AFFINITY PREDICTED BY RF-SCORE:    0.00 PKD
ROOT
HETATM    1  N   UNL     1      -8.271  14.955  69.604  1.00  0.00    -0.428 NA 
HETATM    2  C   UNL     1      -7.101  14.521  68.811  1.00  0.00    -0.112 C  
HETATM    3  H1  UNL     1      -8.322  15.974  69.565  1.00  0.00     0.000 HD 
HETATM    4  H2  UNL     1      -8.253  14.598  70.559  1.00  0.00     0.000 HD 
ENDROOT
BRANCH   2   5
HETATM    5  C   UNL     1      -7.216  15.068  67.367  1.00  0.00    -0.224 C  
BRANCH   5   6
HETATM    6  C   UNL     1      -8.252  16.162  67.225  1.00  0.00    -0.203 A  
HETATM    7  F   UNL     1      -9.596  14.786  65.832  1.00  0.00    -0.297 F  
HETATM    8  C   UNL     1      -9.412  15.952  66.468  1.00  0.00    -0.273 A  
HETATM    9  C   UNL     1     -10.392  16.932  66.355  1.00  0.00    -0.302 A  
HETATM   10  C   UNL     1      -8.076  17.404  67.856  1.00  0.00    -0.220 A  
HETATM   11  C   UNL     1      -9.062  18.380  67.752  1.00  0.00    -0.277 A  
HETATM   12  F   UNL     1     -11.159  19.086  66.918  1.00  0.00    -0.464 F  
HETATM   13  C   UNL     1     -10.213  18.144  67.010  1.00  0.00    -0.365 A  
HETATM   14  F   UNL     1      -8.893  19.553  68.379  1.00  0.00    -0.349 F  
ENDBRANCH   5   6
ENDBRANCH   2   5
BRANCH   2  15
HETATM   15  C   UNL     1      -7.024  12.993  68.868  1.00  0.00    -0.088 C  
BRANCH  15  16
HETATM   16  C   UNL     1      -6.992  12.295  67.515  1.00  0.00    -0.142 C  
HETATM   17  N   UNL     1     -10.581  12.122  65.556  1.00  0.00    -0.268 NA 
HETATM   18  C   UNL     1      -8.288  11.227  65.705  1.00  0.00     0.023 C  
HETATM   19  N   UNL     1      -8.226  11.919  66.996  1.00  0.00    -0.167 N  
HETATM   20  C   UNL     1     -10.634  12.157  66.924  1.00  0.00    -0.229 A  
HETATM   21  O   UNL     1      -5.944  12.104  66.903  1.00  0.00    -0.211 OA 
HETATM   22  C   UNL     1      -9.460  11.886  67.789  1.00  0.00    -0.184 C  
HETATM   23  C   UNL     1      -9.375  11.830  64.809  1.00  0.00     0.090 C  
HETATM   24  N   UNL     1     -11.848  12.478  67.299  1.00  0.00    -0.475 NA 
HETATM   25  N   UNL     1     -12.591  12.698  66.168  1.00  0.00    -0.287 NA 
HETATM   26  C   UNL     1     -11.819  12.506  65.111  1.00  0.00    -0.405 A  
HETATM   27  C   UNL     1     -12.203  12.688  63.689  1.00  0.00    -0.536 C  
HETATM   28  F   UNL     1     -11.185  12.401  62.832  1.00  0.00    -0.391 F  
HETATM   29  F   UNL     1     -13.237  11.886  63.331  1.00  0.00    -0.600 F  
HETATM   30  F   UNL     1     -12.574  13.966  63.418  1.00  0.00    -0.452 F  
ENDBRANCH  15  16
ENDBRANCH   2  15
TORSDOF 4
ENDMDL
MODEL      112
REMARK 921   NORMALIZED FREE ENERGY PREDICTED BY IDOCK:   -5.73 KCAL/MOL
REMARK 922        TOTAL FREE ENERGY PREDICTED BY IDOCK:   -8.13 KCAL/MOL
REMARK 923 INTER-LIGAND FREE ENERGY PREDICTED BY IDOCK:   -7.57 KCAL/MOL
REMARK 924 INTRA-LIGAND FREE ENERGY PREDICTED BY IDOCK:   -0.56 KCAL/MOL
REMARK 927      BINDING AFFINITY PREDICTED BY RF-SCORE:    0.00 PKD
ROOT
HETATM    1  N   UNL     1     -11.462  14.154  66.140  1.00  0.00    -0.337 NA 
HETATM    2  C   UNL     1     -10.628  14.843  67.149  1.00  0.00    -0.285 C  
HETATM    3  H1  UNL     1     -11.716  14.832  65.420  1.00  0.00     0.000 HD 
HETATM    4  H2  UNL     1     -12.273  13.692  66.550  1.00  0.00     0.000 HD 
ENDROOT
BRANCH   2   5
HETATM    5  C   UNL     1      -9.400  15.486  66.460  1.00  0.00    -0.311 C  
BRANCH   5   6
HETATM    6  C   UNL     1      -8.863  16.691  67.201  1.00  0.00    -0.209 A  
HETATM    7  F   UNL     1      -6.624  16.017  66.790  1.00  0.00    -0.210 F  
HETATM    8  C   UNL     1      -7.483  16.904  67.312  1.00  0.00    -0.166 A  
HETATM    9  C   UNL     1      -6.971  18.024  67.958  1.00  0.00    -0.211 A  
HETATM   10  C   UNL     1      -9.737  17.624  67.783  1.00  0.00    -0.280 A  
HETATM   11  C   UNL     1      -9.225  18.750  68.419  1.00  0.00    -0.339 A  
HETATM   12  F   UNL     1      -7.366  20.037  69.113  1.00  0.00    -0.342 F  
HETATM   13  C   UNL     1      -7.852  18.950  68.503  1.00  0.00    -0.337 A  
HETATM   14  F   UNL     1     -10.070  19.646  68.950  1.00  0.00    -0.467 F  
ENDBRANCH   5   6
ENDBRANCH   2   5
BRANCH   2  15
HETATM   15  C   UNL     1     -10.246  13.827  68.228  1.00  0.00    -0.245 C  
BRANCH  15  16
HETATM   16  C   UNL     1     -11.378  13.419  69.162  1.00  0.00    -0.280 C  
HETATM   17  N   UNL     1     -11.211   9.562  70.523  1.00  0.00    -0.268 NA 
HETATM   18  C   UNL     1     -12.615  11.567  70.229  1.00  0.00    -0.115 C  
HETATM   19  N   UNL     1     -11.540  12.051  69.357  1.00  0.00    -0.310 N  
HETATM   20  C   UNL     1     -10.649   9.801  69.297  1.00  0.00    -0.221 A  
HETATM   21  O   UNL     1     -12.085  14.245  69.733  1.00  0.00    -0.311 OA 
HETATM   22  C   UNL     1     -10.907  11.034  68.512  1.00  0.00    -0.213 C  
HETATM   23  C   UNL     1     -12.104  10.489  71.189  1.00  0.00    -0.370 C  
HETATM   24  N   UNL     1      -9.868   8.798  68.979  1.00  0.00    -0.176 NA 
HETATM   25  N   UNL     1      -9.882   7.910  70.023  1.00  0.00    -0.180 NA 
HETATM   26  C   UNL     1     -10.676   8.383  70.970  1.00  0.00    -0.223 A  
HETATM   27  C   UNL     1     -10.939   7.767  72.295  1.00  0.00    -0.290 C  
HETATM   28  F   UNL     1     -11.812   8.494  73.044  1.00  0.00    -0.385 F  
HETATM   29  F   UNL     1     -11.473   6.525  72.185  1.00  0.00    -0.272 F  
HETATM   30  F   UNL     1      -9.809   7.654  73.039  1.00  0.00    -0.216 F  
ENDBRANCH  15  16
ENDBRANCH   2  15
TORSDOF 4
ENDMDL
MODEL      113
REMARK 921   NORMALIZED FREE ENERGY PREDICTED BY IDOCK:   -5.69 KCAL/MOL
REMARK 922        TOTAL FREE ENERGY PREDICTED BY IDOCK:   -8.09 KCAL/MOL
REMARK 923 INTER-LIGAND FREE ENERGY PREDICTED BY IDOCK:   -7.46 KCAL/MOL
REMARK 924 INTRA-LIGAND FREE ENERGY PREDICTED BY IDOCK:   -0.62 KCAL/MOL
REMARK 927      BINDING AFFINITY PREDICTED BY RF-SCORE:    0.00 PKD
ROOT
HETATM    1  N   UNL     1     -12.642  14.482  69.821  1.00  0.00    -0.548 NA 
HETATM    2  C   UNL     1     -11.632  13.813  68.973  1.00  0.00    -0.313 C  
HETATM    3  H1  UNL     1     -12.405  15.473  69.877  1.00  0.00     0.000 HD 
HETATM    4  H2  UNL     1     -12.734  14.047  70.739  1.00  0.00     0.000 HD 
ENDROOT
BRANCH   2   5
HETATM    5  C   UNL     1     -11.575  14.502  67.587  1.00  0.00    -0.402 C  
BRANCH   5   6
HETATM    6  C   UNL     1     -11.358  13.532  66.447  1.00  0.00    -0.335 A  
HETATM    7  F   UNL     1     -13.533  13.957  65.595  1.00  0.00    -0.422 F  
HETATM    8  C   UNL     1     -12.356  13.322  65.488  1.00  0.00    -0.480 A  
HETATM    9  C   UNL     1     -12.161  12.462  64.413  1.00  0.00    -0.519 A  
HETATM   10  C   UNL     1     -10.147  12.831  66.322  1.00  0.00    -0.267 A  
HETATM   11  C   UNL     1      -9.947  11.980  65.241  1.00  0.00    -0.247 A  
HETATM   12  F   UNL     1     -10.746  10.981  63.251  1.00  0.00    -0.407 F  
HETATM   13  C   UNL     1     -10.947  11.799  64.291  1.00  0.00    -0.359 A  
HETATM   14  F   UNL     1      -8.778  11.334  65.120  1.00  0.00    -0.162 F  
ENDBRANCH   5   6
ENDBRANCH   2   5
BRANCH   2  15
HETATM   15  C   UNL     1     -11.987  12.326  68.888  1.00  0.00    -0.300 C  
BRANCH  15  16
HETATM   16  C   UNL     1     -11.942  11.574  70.212  1.00  0.00    -0.368 C  
HETATM   17  N   UNL     1      -9.140   8.600  70.433  1.00  0.00    -0.150 NA 
HETATM   18  C   UNL     1     -11.181   9.563  71.425  1.00  0.00    -0.382 C  
HETATM   19  N   UNL     1     -11.262  10.361  70.198  1.00  0.00    -0.301 N  
HETATM   20  C   UNL     1      -9.640   8.876  69.188  1.00  0.00    -0.162 A  
HETATM   21  O   UNL     1     -12.447  12.024  71.237  1.00  0.00    -0.307 OA 
HETATM   22  C   UNL     1     -10.875   9.666  68.966  1.00  0.00    -0.183 C  
HETATM   23  C   UNL     1      -9.754   9.058  71.662  1.00  0.00    -0.276 C  
HETATM   24  N   UNL     1      -8.849   8.355  68.282  1.00  0.00    -0.139 NA 
HETATM   25  N   UNL     1      -7.796   7.766  68.934  1.00  0.00    -0.120 NA 
HETATM   26  C   UNL     1      -7.958   7.934  70.236  1.00  0.00    -0.102 A  
HETATM   27  C   UNL     1      -7.026   7.502  71.308  1.00  0.00    -0.050 C  
HETATM   28  F   UNL     1      -7.481   7.814  72.552  1.00  0.00    -0.070 F  
HETATM   29  F   UNL     1      -6.826   6.160  71.302  1.00  0.00    -0.058 F  
HETATM   30  F   UNL     1      -5.808   8.090  71.194  1.00  0.00    -0.033 F  
ENDBRANCH  15  16
ENDBRANCH   2  15
TORSDOF 4
ENDMDL
MODEL      114
REMARK 921   NORMALIZED FREE ENERGY PREDICTED BY IDOCK:   -5.66 KCAL/MOL
REMARK 922        TOTAL FREE ENERGY PREDICTED BY IDOCK:   -8.05 KCAL/MOL
REMARK 923 INTER-LIGAND FREE ENERGY PREDICTED BY IDOCK:   -7.45 KCAL/MOL
REMARK 924 INTRA-LIGAND FREE ENERGY PREDICTED BY IDOCK:   -0.59 KCAL/MOL
REMARK 927      BINDING AFFINITY PREDICTED BY RF-SCORE:    0.00 PKD
ROOT
HETATM    1  N   UNL     1      -8.911  11.853  66.152  1.00  0.00    -0.373 NA 
HETATM    2  C   UNL     1     -10.110  11.085  66.551  1.00  0.00    -0.226 C  
HETATM    3  H1  UNL     1      -8.094  11.410  66.574  1.00  0.00     0.000 HD 
HETATM    4  H2  UNL     1      -8.984  12.844  66.382  1.00  0.00     0.000 HD 
ENDROOT
BRANCH   2   5
HETATM    5  C   UNL     1      -9.941   9.603  66.137  1.00  0.00    -0.346 C  
BRANCH   5   6
HETATM    6  C   UNL     1      -8.664   9.339  65.371  1.00  0.00    -0.208 A  
HETATM    7  F   UNL     1      -9.709   9.916  63.318  1.00  0.00    -0.312 F  
HETATM    8  C   UNL     1      -8.611   9.529  63.984  1.00  0.00    -0.207 A  
HETATM    9  C   UNL     1      -7.437   9.327  63.268  1.00  0.00    -0.103 A  
HETATM   10  C   UNL     1      -7.504   8.907  66.035  1.00  0.00    -0.090 A  
HETATM   11  C   UNL     1      -6.326   8.715  65.320  1.00  0.00    -0.056 A  
HETATM   12  F   UNL     1      -5.155   8.744  63.266  1.00  0.00    -0.058 F  
HETATM   13  C   UNL     1      -6.293   8.927  63.947  1.00  0.00    -0.086 A  
HETATM   14  F   UNL     1      -5.220   8.326  65.970  1.00  0.00    -0.024 F  
ENDBRANCH   5   6
ENDBRANCH   2   5
BRANCH   2  15
HETATM   15  C   UNL     1     -11.336  11.749  65.918  1.00  0.00    -0.324 C  
BRANCH  15  16
HETATM   16  C   UNL     1     -11.039  12.971  65.060  1.00  0.00    -0.294 C  
HETATM   17  N   UNL     1     -10.456  16.454  67.128  1.00  0.00    -0.302 NA 
HETATM   18  C   UNL     1     -10.929  15.434  64.934  1.00  0.00    -0.437 C  
HETATM   19  N   UNL     1     -11.180  14.203  65.689  1.00  0.00    -0.303 N  
HETATM   20  C   UNL     1     -11.279  15.528  67.713  1.00  0.00    -0.302 A  
HETATM   21  O   UNL     1     -10.667  12.876  63.893  1.00  0.00    -0.406 OA 
HETATM   22  C   UNL     1     -11.861  14.380  66.976  1.00  0.00    -0.412 C  
HETATM   23  C   UNL     1     -10.057  16.406  65.736  1.00  0.00    -0.327 C  
HETATM   24  N   UNL     1     -11.426  15.823  68.981  1.00  0.00    -0.367 NA 
HETATM   25  N   UNL     1     -10.660  16.930  69.245  1.00  0.00    -0.345 NA 
HETATM   26  C   UNL     1     -10.052  17.299  68.129  1.00  0.00    -0.325 A  
HETATM   27  C   UNL     1      -9.087  18.416  67.974  1.00  0.00    -0.294 C  
HETATM   28  F   UNL     1      -8.643  18.548  66.694  1.00  0.00    -0.252 F  
HETATM   29  F   UNL     1      -9.630  19.612  68.313  1.00  0.00    -0.380 F  
HETATM   30  F   UNL     1      -7.980  18.246  68.741  1.00  0.00    -0.298 F  
ENDBRANCH  15  16
ENDBRANCH   2  15
TORSDOF 4
ENDMDL
MODEL      115
REMARK 921   NORMALIZED FREE ENERGY PREDICTED BY IDOCK:   -5.63 KCAL/MOL
REMARK 922        TOTAL FREE ENERGY PREDICTED BY IDOCK:   -8.01 KCAL/MOL
REMARK 923 INTER-LIGAND FREE ENERGY PREDICTED BY IDOCK:   -6.70 KCAL/MOL
REMARK 924 INTRA-LIGAND FREE ENERGY PREDICTED BY IDOCK:   -1.31 KCAL/MOL
REMARK 927      BINDING AFFINITY PREDICTED BY RF-SCORE:    0.00 PKD
ROOT
HETATM    1  N   UNL     1     -10.149   9.443  67.167  1.00  0.00    -0.213 NA 
HETATM    2  C   UNL     1     -10.061  10.915  67.053  1.00  0.00    -0.205 C  
HETATM    3  H1  UNL     1      -9.247   9.095  67.493  1.00  0.00     0.000 HD 
HETATM    4  H2  UNL     1     -10.453   8.999  66.301  1.00  0.00     0.000 HD 
ENDROOT
BRANCH   2   5
HETATM    5  C   UNL     1      -9.631  11.519  68.412  1.00  0.00    -0.195 C  
BRANCH   5   6
HETATM    6  C   UNL     1      -8.437  12.442  68.304  1.00  0.00    -0.170 A  
HETATM    7  F   UNL     1      -6.991  10.762  69.156  1.00  0.00    -0.059 F  
HETATM    8  C   UNL     1      -7.159  12.001  68.671  1.00  0.00    -0.103 A  
HETATM    9  C   UNL     1      -6.044  12.822  68.545  1.00  0.00    -0.067 A  
HETATM   10  C   UNL     1      -8.584  13.754  67.826  1.00  0.00    -0.184 A  
HETATM   11  C   UNL     1      -7.467  14.572  67.689  1.00  0.00    -0.177 A  
HETATM   12  F   UNL     1      -5.135  14.898  67.906  1.00  0.00    -0.106 F  
HETATM   13  C   UNL     1      -6.206  14.107  68.044  1.00  0.00    -0.145 A  
HETATM   14  F   UNL     1      -7.618  15.815  67.209  1.00  0.00    -0.158 F  
ENDBRANCH   5   6
ENDBRANCH   2   5
BRANCH   2  15
HETATM   15  C   UNL     1     -11.414  11.439  66.564  1.00  0.00    -0.093 C  
BRANCH  15  16
HETATM   16  C   UNL     1     -11.341  12.537  65.512  1.00  0.00    -0.331 C  
HETATM   17  N   UNL     1     -10.857  16.328  66.978  1.00  0.00    -0.236 NA 
HETATM   18  C   UNL     1     -11.486  14.954  65.029  1.00  0.00    -0.379 C  
HETATM   19  N   UNL     1     -11.525  13.836  65.976  1.00  0.00    -0.318 N  
HETATM   20  C   UNL     1     -11.511  15.439  67.790  1.00  0.00    -0.278 A  
HETATM   21  O   UNL     1     -11.103  12.297  64.331  1.00  0.00    -0.298 OA 
HETATM   22  C   UNL     1     -12.063  14.151  67.303  1.00  0.00    -0.372 C  
HETATM   23  C   UNL     1     -10.624  16.101  65.566  1.00  0.00    -0.377 C  
HETATM   24  N   UNL     1     -11.534  15.910  69.012  1.00  0.00    -0.365 NA 
HETATM   25  N   UNL     1     -10.853  17.100  69.015  1.00  0.00    -0.218 NA 
HETATM   26  C   UNL     1     -10.421  17.343  67.788  1.00  0.00    -0.376 A  
HETATM   27  C   UNL     1      -9.594  18.497  67.353  1.00  0.00    -0.293 C  
HETATM   28  F   UNL     1      -9.320  18.468  66.020  1.00  0.00    -0.292 F  
HETATM   29  F   UNL     1     -10.207  19.684  67.590  1.00  0.00    -0.430 F  
HETATM   30  F   UNL     1      -8.392  18.531  67.983  1.00  0.00    -0.256 F  
ENDBRANCH  15  16
ENDBRANCH   2  15
TORSDOF 4
ENDMDL
MODEL      116
REMARK 921   NORMALIZED FREE ENERGY PREDICTED BY IDOCK:   -5.62 KCAL/MOL
REMARK 922        TOTAL FREE ENERGY PREDICTED BY IDOCK:   -8.01 KCAL/MOL
REMARK 923 INTER-LIGAND FREE ENERGY PREDICTED BY IDOCK:   -7.51 KCAL/MOL
REMARK 924 INTRA-LIGAND FREE ENERGY PREDICTED BY IDOCK:   -0.49 KCAL/MOL
REMARK 927      BINDING AFFINITY PREDICTED BY RF-SCORE:    0.00 PKD
ROOT
HETATM    1  N   UNL     1     -12.471   8.192  72.888  1.00  0.00    -0.653 NA 
HETATM    2  C   UNL     1     -11.672   7.935  71.671  1.00  0.00    -0.281 C  
HETATM    3  H1  UNL     1     -13.248   7.530  72.905  1.00  0.00     0.000 HD 
HETATM    4  H2  UNL     1     -12.778   9.162  72.959  1.00  0.00     0.000 HD 
ENDROOT
BRANCH   2   5
HETATM    5  C   UNL     1     -11.210   6.457  71.652  1.00  0.00    -0.327 C  
BRANCH   5   6
HETATM    6  C   UNL     1     -10.594   6.041  70.334  1.00  0.00    -0.332 A  
HETATM    7  F   UNL     1      -8.677   5.180  71.437  1.00  0.00    -0.120 F  
HETATM    8  C   UNL     1      -9.350   5.399  70.298  1.00  0.00    -0.154 A  
HETATM    9  C   UNL     1      -8.785   4.977  69.100  1.00  0.00    -0.106 A  
HETATM   10  C   UNL     1     -11.262   6.282  69.122  1.00  0.00    -0.439 A  
HETATM   11  C   UNL     1     -10.702   5.850  67.924  1.00  0.00    -0.255 A  
HETATM   12  F   UNL     1      -8.943   4.783  66.759  1.00  0.00    -0.112 F  
HETATM   13  C   UNL     1      -9.474   5.199  67.914  1.00  0.00    -0.129 A  
HETATM   14  F   UNL     1     -11.361   6.064  66.776  1.00  0.00    -0.326 F  
ENDBRANCH   5   6
ENDBRANCH   2   5
BRANCH   2  15
HETATM   15  C   UNL     1     -10.506   8.928  71.645  1.00  0.00    -0.408 C  
BRANCH  15  16
HETATM   16  C   UNL     1     -10.202   9.534  70.282  1.00  0.00    -0.260 C  
HETATM   17  N   UNL     1     -11.647  13.318  69.694  1.00  0.00    -0.281 NA 
HETATM   18  C   UNL     1     -10.742  11.286  68.629  1.00  0.00    -0.205 C  
HETATM   19  N   UNL     1     -10.957  10.647  69.931  1.00  0.00    -0.281 N  
HETATM   20  C   UNL     1     -12.349  12.524  70.562  1.00  0.00    -0.262 A  
HETATM   21  O   UNL     1      -9.322   9.088  69.549  1.00  0.00    -0.154 OA 
HETATM   22  C   UNL     1     -12.176  11.053  70.639  1.00  0.00    -0.385 C  
HETATM   23  C   UNL     1     -10.654  12.809  68.770  1.00  0.00    -0.189 C  
HETATM   24  N   UNL     1     -13.143  13.276  71.285  1.00  0.00    -0.267 NA 
HETATM   25  N   UNL     1     -12.931  14.580  70.919  1.00  0.00    -0.355 NA 
HETATM   26  C   UNL     1     -12.007  14.610  69.973  1.00  0.00    -0.320 A  
HETATM   27  C   UNL     1     -11.438  15.820  69.328  1.00  0.00    -0.365 C  
HETATM   28  F   UNL     1     -10.509  15.517  68.380  1.00  0.00    -0.225 F  
HETATM   29  F   UNL     1     -12.387  16.563  68.706  1.00  0.00     0.010 F  
HETATM   30  F   UNL     1     -10.814  16.630  70.221  1.00  0.00    -0.329 F  
ENDBRANCH  15  16
ENDBRANCH   2  15
TORSDOF 4
ENDMDL
MODEL      117
REMARK 921   NORMALIZED FREE ENERGY PREDICTED BY IDOCK:   -5.60 KCAL/MOL
REMARK 922        TOTAL FREE ENERGY PREDICTED BY IDOCK:   -7.97 KCAL/MOL
REMARK 923 INTER-LIGAND FREE ENERGY PREDICTED BY IDOCK:   -7.02 KCAL/MOL
REMARK 924 INTRA-LIGAND FREE ENERGY PREDICTED BY IDOCK:   -0.95 KCAL/MOL
REMARK 927      BINDING AFFINITY PREDICTED BY RF-SCORE:    0.00 PKD
ROOT
HETATM    1  N   UNL     1      -9.322  18.697  68.286  1.00  0.00    -0.316 NA 
HETATM    2  C   UNL     1      -8.972  17.293  68.594  1.00  0.00    -0.265 C  
HETATM    3  H1  UNL     1      -8.510  19.280  68.491  1.00  0.00     0.000 HD 
HETATM    4  H2  UNL     1     -10.163  19.008  68.772  1.00  0.00     0.000 HD 
ENDROOT
BRANCH   2   5
HETATM    5  C   UNL     1      -7.713  16.882  67.793  1.00  0.00    -0.184 C  
BRANCH   5   6
HETATM    6  C   UNL     1      -7.179  15.520  68.179  1.00  0.00    -0.123 A  
HETATM    7  F   UNL     1      -6.285  16.380  70.203  1.00  0.00    -0.206 F  
HETATM    8  C   UNL     1      -6.499  15.336  69.389  1.00  0.00    -0.141 A  
HETATM    9  C   UNL     1      -6.033  14.085  69.777  1.00  0.00    -0.122 A  
HETATM   10  C   UNL     1      -7.363  14.412  67.335  1.00  0.00    -0.167 A  
HETATM   11  C   UNL     1      -6.907  13.158  67.728  1.00  0.00    -0.149 A  
HETATM   12  F   UNL     1      -5.817  11.785  69.316  1.00  0.00    -0.056 F  
HETATM   13  C   UNL     1      -6.249  12.995  68.943  1.00  0.00    -0.088 A  
HETATM   14  F   UNL     1      -7.111  12.103  66.925  1.00  0.00    -0.136 F  
ENDBRANCH   5   6
ENDBRANCH   2   5
BRANCH   2  15
HETATM   15  C   UNL     1     -10.190  16.418  68.286  1.00  0.00    -0.255 C  
BRANCH  15  16
HETATM   16  C   UNL     1     -11.118  16.162  69.467  1.00  0.00    -0.344 C  
HETATM   17  N   UNL     1     -12.260  12.264  69.972  1.00  0.00    -0.241 NA 
HETATM   18  C   UNL     1     -12.713  14.619  70.549  1.00  0.00    -0.337 C  
HETATM   19  N   UNL     1     -11.787  14.943  69.459  1.00  0.00    -0.308 N  
HETATM   20  C   UNL     1     -11.974  12.655  68.691  1.00  0.00    -0.223 A  
HETATM   21  O   UNL     1     -11.244  16.967  70.386  1.00  0.00    -0.020 OA 
HETATM   22  C   UNL     1     -11.874  14.076  68.279  1.00  0.00    -0.371 C  
HETATM   23  C   UNL     1     -12.483  13.194  71.062  1.00  0.00    -0.318 C  
HETATM   24  N   UNL     1     -11.795  11.591  67.948  1.00  0.00    -0.614 NA 
HETATM   25  N   UNL     1     -11.923  10.490  68.755  1.00  0.00    -0.281 NA 
HETATM   26  C   UNL     1     -12.181  10.897  69.987  1.00  0.00    -0.347 A  
HETATM   27  C   UNL     1     -12.340  10.038  71.188  1.00  0.00    -0.377 C  
HETATM   28  F   UNL     1     -12.610  10.758  72.311  1.00  0.00    -0.365 F  
HETATM   29  F   UNL     1     -13.358   9.151  71.051  1.00  0.00    -0.313 F  
HETATM   30  F   UNL     1     -11.218   9.324  71.459  1.00  0.00    -0.354 F  
ENDBRANCH  15  16
ENDBRANCH   2  15
TORSDOF 4
ENDMDL
MODEL      118
REMARK 921   NORMALIZED FREE ENERGY PREDICTED BY IDOCK:   -5.60 KCAL/MOL
REMARK 922        TOTAL FREE ENERGY PREDICTED BY IDOCK:   -7.97 KCAL/MOL
REMARK 923 INTER-LIGAND FREE ENERGY PREDICTED BY IDOCK:   -7.70 KCAL/MOL
REMARK 924 INTRA-LIGAND FREE ENERGY PREDICTED BY IDOCK:   -0.27 KCAL/MOL
REMARK 927      BINDING AFFINITY PREDICTED BY RF-SCORE:    0.00 PKD
ROOT
HETATM    1  N   UNL     1      -9.609  12.322  68.896  1.00  0.00    -0.406 NA 
HETATM    2  C   UNL     1     -10.769  11.726  68.199  1.00  0.00    -0.214 C  
HETATM    3  H1  UNL     1      -9.298  13.133  68.360  1.00  0.00     0.000 HD 
HETATM    4  H2  UNL     1      -8.861  11.649  69.063  1.00  0.00     0.000 HD 
ENDROOT
BRANCH   2   5
HETATM    5  C   UNL     1     -11.874  12.794  68.016  1.00  0.00    -0.386 C  
BRANCH   5   6
HETATM    6  C   UNL     1     -11.842  13.873  69.077  1.00  0.00    -0.397 A  
HETATM    7  F   UNL     1     -12.833  12.417  70.669  1.00  0.00    -0.277 F  
HETATM    8  C   UNL     1     -12.314  13.617  70.370  1.00  0.00    -0.345 A  
HETATM    9  C   UNL     1     -12.259  14.584  71.367  1.00  0.00    -0.425 A  
HETATM   10  C   UNL     1     -11.330  15.148  68.787  1.00  0.00    -0.313 A  
HETATM   11  C   UNL     1     -11.265  16.112  69.788  1.00  0.00    -0.343 A  
HETATM   12  F   UNL     1     -11.654  16.762  72.028  1.00  0.00    -0.502 F  
HETATM   13  C   UNL     1     -11.723  15.831  71.070  1.00  0.00    -0.422 A  
HETATM   14  F   UNL     1     -10.751  17.319  69.505  1.00  0.00    -0.322 F  
ENDBRANCH   5   6
ENDBRANCH   2   5
BRANCH   2  15
HETATM   15  C   UNL     1     -11.237  10.509  69.003  1.00  0.00    -0.316 C  
BRANCH  15  16
HETATM   16  C   UNL     1     -10.540   9.199  68.659  1.00  0.00    -0.174 C  
HETATM   17  N   UNL     1      -9.957   6.656  71.812  1.00  0.00    -0.176 NA 
HETATM   18  C   UNL     1      -9.325   7.220  69.496  1.00  0.00    -0.152 C  
HETATM   19  N   UNL     1     -10.025   8.485  69.736  1.00  0.00    -0.187 N  
HETATM   20  C   UNL     1      -9.993   7.993  72.106  1.00  0.00    -0.225 A  
HETATM   21  O   UNL     1     -10.464   8.782  67.506  1.00  0.00    -0.257 OA 
HETATM   22  C   UNL     1      -9.859   9.054  71.078  1.00  0.00    -0.282 C  
HETATM   23  C   UNL     1      -9.797   6.135  70.469  1.00  0.00    -0.178 C  
HETATM   24  N   UNL     1     -10.179   8.145  73.394  1.00  0.00    -0.005 NA 
HETATM   25  N   UNL     1     -10.308   6.897  73.948  1.00  0.00    -0.370 NA 
HETATM   26  C   UNL     1     -10.198   5.994  72.987  1.00  0.00    -0.194 A  
HETATM   27  C   UNL     1     -10.329   4.523  73.135  1.00  0.00    -0.180 C  
HETATM   28  F   UNL     1     -10.153   3.863  71.958  1.00  0.00    -0.227 F  
HETATM   29  F   UNL     1      -9.414   4.012  73.998  1.00  0.00    -0.099 F  
HETATM   30  F   UNL     1     -11.556   4.161  73.590  1.00  0.00    -0.327 F  
ENDBRANCH  15  16
ENDBRANCH   2  15
TORSDOF 4
ENDMDL
MODEL      119
REMARK 921   NORMALIZED FREE ENERGY PREDICTED BY IDOCK:   -5.59 KCAL/MOL
REMARK 922        TOTAL FREE ENERGY PREDICTED BY IDOCK:   -7.97 KCAL/MOL
REMARK 923 INTER-LIGAND FREE ENERGY PREDICTED BY IDOCK:   -7.46 KCAL/MOL
REMARK 924 INTRA-LIGAND FREE ENERGY PREDICTED BY IDOCK:   -0.50 KCAL/MOL
REMARK 927      BINDING AFFINITY PREDICTED BY RF-SCORE:    0.00 PKD
ROOT
HETATM    1  N   UNL     1     -10.374  13.156  68.071  1.00  0.00    -0.231 NA 
HETATM    2  C   UNL     1      -8.980  13.599  68.293  1.00  0.00    -0.187 C  
HETATM    3  H1  UNL     1     -10.962  13.985  67.989  1.00  0.00     0.000 HD 
HETATM    4  H2  UNL     1     -10.700  12.510  68.791  1.00  0.00     0.000 HD 
ENDROOT
BRANCH   2   5
HETATM    5  C   UNL     1      -8.544  14.542  67.145  1.00  0.00    -0.242 C  
BRANCH   5   6
HETATM    6  C   UNL     1      -9.232  15.889  67.185  1.00  0.00    -0.222 A  
HETATM    7  F   UNL     1      -8.688  16.163  69.480  1.00  0.00    -0.240 F  
HETATM    8  C   UNL     1      -9.252  16.646  68.363  1.00  0.00    -0.225 A  
HETATM    9  C   UNL     1      -9.848  17.901  68.410  1.00  0.00    -0.355 A  
HETATM   10  C   UNL     1      -9.856  16.411  66.040  1.00  0.00    -0.362 A  
HETATM   11  C   UNL     1     -10.442  17.671  66.083  1.00  0.00    -0.295 A  
HETATM   12  F   UNL     1     -10.998  19.626  67.293  1.00  0.00    -0.563 F  
HETATM   13  C   UNL     1     -10.435  18.412  67.259  1.00  0.00    -0.405 A  
HETATM   14  F   UNL     1     -11.014  18.168  64.976  1.00  0.00    -0.381 F  
ENDBRANCH   5   6
ENDBRANCH   2   5
BRANCH   2  15
HETATM   15  C   UNL     1      -8.096  12.355  68.415  1.00  0.00    -0.143 C  
BRANCH  15  16
HETATM   16  C   UNL     1      -8.631  11.110  67.721  1.00  0.00    -0.131 C  
HETATM   17  N   UNL     1     -10.010   8.177  70.221  1.00  0.00    -0.188 NA 
HETATM   18  C   UNL     1      -9.272   8.735  67.935  1.00  0.00    -0.139 C  
HETATM   19  N   UNL     1      -8.778   9.983  68.524  1.00  0.00    -0.120 N  
HETATM   20  C   UNL     1      -9.019   8.984  70.715  1.00  0.00    -0.236 A  
HETATM   21  O   UNL     1      -8.945  11.107  66.534  1.00  0.00    -0.167 OA 
HETATM   22  C   UNL     1      -8.182   9.859  69.859  1.00  0.00    -0.184 C  
HETATM   23  C   UNL     1     -10.354   8.101  68.816  1.00  0.00    -0.202 C  
HETATM   24  N   UNL     1      -8.971   8.856  72.018  1.00  0.00    -0.386 NA 
HETATM   25  N   UNL     1      -9.966   7.989  72.391  1.00  0.00    -0.225 NA 
HETATM   26  C   UNL     1     -10.612   7.596  71.306  1.00  0.00    -0.219 A  
HETATM   27  C   UNL     1     -11.793   6.698  71.255  1.00  0.00    -0.350 C  
HETATM   28  F   UNL     1     -12.224   6.474  69.983  1.00  0.00    -0.438 F  
HETATM   29  F   UNL     1     -11.532   5.478  71.788  1.00  0.00    -0.287 F  
HETATM   30  F   UNL     1     -12.855   7.211  71.927  1.00  0.00    -0.339 F  
ENDBRANCH  15  16
ENDBRANCH   2  15
TORSDOF 4
ENDMDL
MODEL      120
REMARK 921   NORMALIZED FREE ENERGY PREDICTED BY IDOCK:   -5.57 KCAL/MOL
REMARK 922        TOTAL FREE ENERGY PREDICTED BY IDOCK:   -7.94 KCAL/MOL
REMARK 923 INTER-LIGAND FREE ENERGY PREDICTED BY IDOCK:   -7.27 KCAL/MOL
REMARK 924 INTRA-LIGAND FREE ENERGY PREDICTED BY IDOCK:   -0.66 KCAL/MOL
REMARK 927      BINDING AFFINITY PREDICTED BY RF-SCORE:    0.00 PKD
ROOT
HETATM    1  N   UNL     1      -6.868  11.823  69.996  1.00  0.00    -0.406 NA 
HETATM    2  C   UNL     1      -7.897  11.675  68.944  1.00  0.00    -0.040 C  
HETATM    3  H1  UNL     1      -6.758  10.922  70.462  1.00  0.00     0.000 HD 
HETATM    4  H2  UNL     1      -7.078  12.580  70.647  1.00  0.00     0.000 HD 
ENDROOT
BRANCH   2   5
HETATM    5  C   UNL     1      -7.493  10.537  67.976  1.00  0.00    -0.090 C  
BRANCH   5   6
HETATM    6  C   UNL     1      -8.540   9.452  67.859  1.00  0.00    -0.120 A  
HETATM    7  F   UNL     1      -9.681  10.657  66.160  1.00  0.00    -0.205 F  
HETATM    8  C   UNL     1      -9.584   9.564  66.932  1.00  0.00    -0.165 A  
HETATM    9  C   UNL     1     -10.535   8.561  66.785  1.00  0.00    -0.308 A  
HETATM   10  C   UNL     1      -8.482   8.308  68.672  1.00  0.00    -0.125 A  
HETATM   11  C   UNL     1      -9.428   7.299  68.518  1.00  0.00    -0.140 A  
HETATM   12  F   UNL     1     -11.349   6.448  67.433  1.00  0.00    -0.407 F  
HETATM   13  C   UNL     1     -10.445   7.424  67.578  1.00  0.00    -0.268 A  
HETATM   14  F   UNL     1      -9.347   6.201  69.283  1.00  0.00    -0.132 F  
ENDBRANCH   5   6
ENDBRANCH   2   5
BRANCH   2  15
HETATM   15  C   UNL     1      -8.063  13.027  68.244  1.00  0.00    -0.151 C  
BRANCH  15  16
HETATM   16  C   UNL     1      -9.413  13.702  68.452  1.00  0.00    -0.190 C  
HETATM   17  N   UNL     1      -9.400  17.778  68.082  1.00  0.00    -0.273 NA 
HETATM   18  C   UNL     1     -10.629  15.803  68.900  1.00  0.00    -0.233 C  
HETATM   19  N   UNL     1      -9.377  15.074  68.675  1.00  0.00    -0.195 N  
HETATM   20  C   UNL     1      -8.232  17.200  68.504  1.00  0.00    -0.261 A  
HETATM   21  O   UNL     1     -10.470  13.079  68.395  1.00  0.00    -0.242 OA 
HETATM   22  C   UNL     1      -8.151  15.807  69.008  1.00  0.00    -0.224 C  
HETATM   23  C   UNL     1     -10.675  17.090  68.070  1.00  0.00    -0.365 C  
HETATM   24  N   UNL     1      -7.253  18.059  68.365  1.00  0.00    -0.245 NA 
HETATM   25  N   UNL     1      -7.772  19.198  67.806  1.00  0.00    -0.257 NA 
HETATM   26  C   UNL     1      -9.069  19.021  67.612  1.00  0.00    -0.291 A  
HETATM   27  C   UNL     1     -10.009  19.981  66.981  1.00  0.00    -0.445 C  
HETATM   28  F   UNL     1     -11.284  19.508  66.934  1.00  0.00    -0.530 F  
HETATM   29  F   UNL     1     -10.065  21.159  67.652  1.00  0.00    -0.497 F  
HETATM   30  F   UNL     1      -9.666  20.266  65.699  1.00  0.00    -0.466 F  
ENDBRANCH  15  16
ENDBRANCH   2  15
TORSDOF 4
ENDMDL
MODEL      121
REMARK 921   NORMALIZED FREE ENERGY PREDICTED BY IDOCK:   -5.55 KCAL/MOL
REMARK 922        TOTAL FREE ENERGY PREDICTED BY IDOCK:   -7.92 KCAL/MOL
REMARK 923 INTER-LIGAND FREE ENERGY PREDICTED BY IDOCK:   -7.03 KCAL/MOL
REMARK 924 INTRA-LIGAND FREE ENERGY PREDICTED BY IDOCK:   -0.89 KCAL/MOL
REMARK 927      BINDING AFFINITY PREDICTED BY RF-SCORE:    0.00 PKD
ROOT
HETATM    1  N   UNL     1      -7.345  11.449  66.580  1.00  0.00    -0.301 NA 
HETATM    2  C   UNL     1      -8.139  11.242  67.810  1.00  0.00    -0.119 C  
HETATM    3  H1  UNL     1      -7.541  10.678  65.941  1.00  0.00     0.000 HD 
HETATM    4  H2  UNL     1      -6.349  11.562  66.769  1.00  0.00     0.000 HD 
ENDROOT
BRANCH   2   5
HETATM    5  C   UNL     1      -9.639  11.119  67.448  1.00  0.00    -0.183 C  
BRANCH   5   6
HETATM    6  C   UNL     1     -10.544  11.080  68.660  1.00  0.00    -0.225 A  
HETATM    7  F   UNL     1      -9.814   8.887  69.205  1.00  0.00    -0.164 F  
HETATM    8  C   UNL     1     -10.570   9.956  69.496  1.00  0.00    -0.242 A  
HETATM    9  C   UNL     1     -11.367   9.916  70.634  1.00  0.00    -0.413 A  
HETATM   10  C   UNL     1     -11.368  12.172  68.977  1.00  0.00    -0.329 A  
HETATM   11  C   UNL     1     -12.157  12.137  70.122  1.00  0.00    -0.290 A  
HETATM   12  F   UNL     1     -12.913  10.992  72.048  1.00  0.00    -0.531 F  
HETATM   13  C   UNL     1     -12.154  11.018  70.946  1.00  0.00    -0.339 A  
HETATM   14  F   UNL     1     -12.921  13.197  70.425  1.00  0.00    -0.176 F  
ENDBRANCH   5   6
ENDBRANCH   2   5
BRANCH   2  15
HETATM   15  C   UNL     1      -7.846  12.399  68.769  1.00  0.00     0.020 C  
BRANCH  15  16
HETATM   16  C   UNL     1      -7.057  13.554  68.168  1.00  0.00    -0.117 C  
HETATM   17  N   UNL     1      -9.069  17.111  67.947  1.00  0.00    -0.227 NA 
HETATM   18  C   UNL     1      -7.129  15.807  67.161  1.00  0.00    -0.190 C  
HETATM   19  N   UNL     1      -7.805  14.655  67.766  1.00  0.00    -0.139 N  
HETATM   20  C   UNL     1      -9.831  15.975  67.886  1.00  0.00    -0.226 A  
HETATM   21  O   UNL     1      -5.832  13.530  68.072  1.00  0.00    -0.105 OA 
HETATM   22  C   UNL     1      -9.264  14.631  67.617  1.00  0.00    -0.193 C  
HETATM   23  C   UNL     1      -7.631  17.122  67.767  1.00  0.00    -0.176 C  
HETATM   24  N   UNL     1     -11.082  16.284  68.119  1.00  0.00    -0.347 NA 
HETATM   25  N   UNL     1     -11.140  17.629  68.378  1.00  0.00     0.009 NA 
HETATM   26  C   UNL     1      -9.917  18.128  68.297  1.00  0.00    -0.369 A  
HETATM   27  C   UNL     1      -9.515  19.534  68.555  1.00  0.00    -0.386 C  
HETATM   28  F   UNL     1      -8.181  19.735  68.380  1.00  0.00    -0.352 F  
HETATM   29  F   UNL     1     -10.144  20.406  67.728  1.00  0.00    -0.522 F  
HETATM   30  F   UNL     1      -9.790  19.918  69.828  1.00  0.00    -0.396 F  
ENDBRANCH  15  16
ENDBRANCH   2  15
TORSDOF 4
ENDMDL
MODEL      122
REMARK 921   NORMALIZED FREE ENERGY PREDICTED BY IDOCK:   -5.55 KCAL/MOL
REMARK 922        TOTAL FREE ENERGY PREDICTED BY IDOCK:   -7.91 KCAL/MOL
REMARK 923 INTER-LIGAND FREE ENERGY PREDICTED BY IDOCK:   -7.13 KCAL/MOL
REMARK 924 INTRA-LIGAND FREE ENERGY PREDICTED BY IDOCK:   -0.78 KCAL/MOL
REMARK 927      BINDING AFFINITY PREDICTED BY RF-SCORE:    0.00 PKD
ROOT
HETATM    1  N   UNL     1     -11.737   8.868  72.292  1.00  0.00    -0.333 NA 
HETATM    2  C   UNL     1     -11.065   9.590  71.190  1.00  0.00    -0.379 C  
HETATM    3  H1  UNL     1     -12.391   9.509  72.740  1.00  0.00     0.000 HD 
HETATM    4  H2  UNL     1     -11.077   8.453  72.950  1.00  0.00     0.000 HD 
ENDROOT
BRANCH   2   5
HETATM    5  C   UNL     1     -12.125  10.156  70.214  1.00  0.00    -0.282 C  
BRANCH   5   6
HETATM    6  C   UNL     1     -12.311  11.652  70.337  1.00  0.00    -0.373 A  
HETATM    7  F   UNL     1     -13.369  11.404  72.447  1.00  0.00    -0.573 F  
HETATM    8  C   UNL     1     -12.916  12.205  71.472  1.00  0.00    -0.295 A  
HETATM    9  C   UNL     1     -13.063  13.580  71.619  1.00  0.00    -0.459 A  
HETATM   10  C   UNL     1     -11.871  12.516  69.320  1.00  0.00    -0.360 A  
HETATM   11  C   UNL     1     -12.008  13.892  69.472  1.00  0.00    -0.343 A  
HETATM   12  F   UNL     1     -12.721  15.745  70.757  1.00  0.00    -0.444 F  
HETATM   13  C   UNL     1     -12.597  14.420  70.616  1.00  0.00    -0.357 A  
HETATM   14  F   UNL     1     -11.563  14.707  68.505  1.00  0.00    -0.276 F  
ENDBRANCH   5   6
ENDBRANCH   2   5
BRANCH   2  15
HETATM   15  C   UNL     1     -10.083   8.627  70.516  1.00  0.00    -0.228 C  
BRANCH  15  16
HETATM   16  C   UNL     1     -10.725   7.474  69.756  1.00  0.00    -0.242 C  
HETATM   17  N   UNL     1      -9.091   6.678  66.089  1.00  0.00    -0.146 NA 
HETATM   18  C   UNL     1     -11.022   6.337  67.585  1.00  0.00    -0.342 C  
HETATM   19  N   UNL     1     -10.434   7.406  68.398  1.00  0.00    -0.197 N  
HETATM   20  C   UNL     1      -9.009   7.974  66.525  1.00  0.00    -0.157 A  
HETATM   21  O   UNL     1     -11.432   6.638  70.312  1.00  0.00    -0.343 OA 
HETATM   22  C   UNL     1      -9.822   8.506  67.646  1.00  0.00    -0.174 C  
HETATM   23  C   UNL     1      -9.968   5.688  66.681  1.00  0.00    -0.181 C  
HETATM   24  N   UNL     1      -8.110   8.610  65.815  1.00  0.00    -0.109 NA 
HETATM   25  N   UNL     1      -7.565   7.715  64.931  1.00  0.00    -0.092 NA 
HETATM   26  C   UNL     1      -8.141   6.538  65.112  1.00  0.00    -0.133 A  
HETATM   27  C   UNL     1      -7.816   5.274  64.404  1.00  0.00    -0.100 C  
HETATM   28  F   UNL     1      -8.594   4.234  64.809  1.00  0.00    -0.112 F  
HETATM   29  F   UNL     1      -7.989   5.379  63.062  1.00  0.00    -0.070 F  
HETATM   30  F   UNL     1      -6.531   4.886  64.613  1.00  0.00    -0.034 F  
ENDBRANCH  15  16
ENDBRANCH   2  15
TORSDOF 4
ENDMDL
MODEL      123
REMARK 921   NORMALIZED FREE ENERGY PREDICTED BY IDOCK:   -5.52 KCAL/MOL
REMARK 922        TOTAL FREE ENERGY PREDICTED BY IDOCK:   -7.88 KCAL/MOL
REMARK 923 INTER-LIGAND FREE ENERGY PREDICTED BY IDOCK:   -6.80 KCAL/MOL
REMARK 924 INTRA-LIGAND FREE ENERGY PREDICTED BY IDOCK:   -1.08 KCAL/MOL
REMARK 927      BINDING AFFINITY PREDICTED BY RF-SCORE:    0.00 PKD
ROOT
HETATM    1  N   UNL     1     -12.311  12.980  66.322  1.00  0.00    -0.452 NA 
HETATM    2  C   UNL     1     -11.421  12.378  67.338  1.00  0.00    -0.352 C  
HETATM    3  H1  UNL     1     -13.275  12.868  66.637  1.00  0.00     0.000 HD 
HETATM    4  H2  UNL     1     -12.155  12.601  65.388  1.00  0.00     0.000 HD 
ENDROOT
BRANCH   2   5
HETATM    5  C   UNL     1     -11.688  13.029  68.717  1.00  0.00    -0.363 C  
BRANCH   5   6
HETATM    6  C   UNL     1     -12.032  12.024  69.794  1.00  0.00    -0.370 A  
HETATM    7  F   UNL     1     -13.125  13.692  71.081  1.00  0.00    -0.386 F  
HETATM    8  C   UNL     1     -12.758  12.412  70.926  1.00  0.00    -0.185 A  
HETATM    9  C   UNL     1     -13.115  11.495  71.910  1.00  0.00    -0.492 A  
HETATM   10  C   UNL     1     -11.638  10.681  69.675  1.00  0.00    -0.368 A  
HETATM   11  C   UNL     1     -12.005   9.761  70.652  1.00  0.00    -0.259 A  
HETATM   12  F   UNL     1     -13.093   9.275  72.695  1.00  0.00    -0.465 F  
HETATM   13  C   UNL     1     -12.741  10.166  71.760  1.00  0.00    -0.434 A  
HETATM   14  F   UNL     1     -11.643   8.477  70.515  1.00  0.00    -0.274 F  
ENDBRANCH   5   6
ENDBRANCH   2   5
BRANCH   2  15
HETATM   15  C   UNL     1      -9.974  12.546  66.866  1.00  0.00    -0.229 C  
BRANCH  15  16
HETATM   16  C   UNL     1      -9.504  11.521  65.842  1.00  0.00    -0.230 C  
HETATM   17  N   UNL     1      -8.786   7.776  67.328  1.00  0.00    -0.127 NA 
HETATM   18  C   UNL     1      -8.435   9.331  65.446  1.00  0.00    -0.145 C  
HETATM   19  N   UNL     1      -8.930  10.365  66.360  1.00  0.00    -0.147 N  
HETATM   20  C   UNL     1      -8.611   8.821  68.196  1.00  0.00    -0.134 A  
HETATM   21  O   UNL     1      -9.651  11.689  64.634  1.00  0.00    -0.216 OA 
HETATM   22  C   UNL     1      -8.499  10.232  67.756  1.00  0.00    -0.114 C  
HETATM   23  C   UNL     1      -8.891   7.938  65.892  1.00  0.00    -0.148 C  
HETATM   24  N   UNL     1      -8.585   8.360  69.423  1.00  0.00    -0.128 NA 
HETATM   25  N   UNL     1      -8.787   7.005  69.365  1.00  0.00    -0.136 NA 
HETATM   26  C   UNL     1      -8.932   6.653  68.098  1.00  0.00    -0.121 A  
HETATM   27  C   UNL     1      -9.222   5.290  67.586  1.00  0.00    -0.115 C  
HETATM   28  F   UNL     1      -9.305   5.250  66.228  1.00  0.00    -0.134 F  
HETATM   29  F   UNL     1      -8.262   4.397  67.934  1.00  0.00    -0.092 F  
HETATM   30  F   UNL     1     -10.404   4.809  68.049  1.00  0.00    -0.184 F  
ENDBRANCH  15  16
ENDBRANCH   2  15
TORSDOF 4
ENDMDL
MODEL      124
REMARK 921   NORMALIZED FREE ENERGY PREDICTED BY IDOCK:   -5.52 KCAL/MOL
REMARK 922        TOTAL FREE ENERGY PREDICTED BY IDOCK:   -7.87 KCAL/MOL
REMARK 923 INTER-LIGAND FREE ENERGY PREDICTED BY IDOCK:   -7.17 KCAL/MOL
REMARK 924 INTRA-LIGAND FREE ENERGY PREDICTED BY IDOCK:   -0.70 KCAL/MOL
REMARK 927      BINDING AFFINITY PREDICTED BY RF-SCORE:    0.00 PKD
ROOT
HETATM    1  N   UNL     1     -12.679  13.740  64.766  1.00  0.00    -0.684 NA 
HETATM    2  C   UNL     1     -11.920  14.420  65.838  1.00  0.00    -0.359 C  
HETATM    3  H1  UNL     1     -12.648  14.327  63.932  1.00  0.00     0.000 HD 
HETATM    4  H2  UNL     1     -13.631  13.505  65.047  1.00  0.00     0.000 HD 
ENDROOT
BRANCH   2   5
HETATM    5  C   UNL     1     -10.478  14.710  65.353  1.00  0.00    -0.400 C  
BRANCH   5   6
HETATM    6  C   UNL     1      -9.940  16.036  65.841  1.00  0.00    -0.380 A  
HETATM    7  F   UNL     1      -7.933  15.011  66.588  1.00  0.00    -0.228 F  
HETATM    8  C   UNL     1      -8.670  16.120  66.425  1.00  0.00    -0.325 A  
HETATM    9  C   UNL     1      -8.143  17.336  66.847  1.00  0.00    -0.258 A  
HETATM   10  C   UNL     1     -10.698  17.211  65.709  1.00  0.00    -0.140 A  
HETATM   11  C   UNL     1     -10.167  18.429  66.121  1.00  0.00    -0.389 A  
HETATM   12  F   UNL     1      -8.390  19.667  67.073  1.00  0.00    -0.280 F  
HETATM   13  C   UNL     1      -8.897  18.491  66.683  1.00  0.00    -0.294 A  
HETATM   14  F   UNL     1     -10.892  19.547  65.968  1.00  0.00    -0.509 F  
ENDBRANCH   5   6
ENDBRANCH   2   5
BRANCH   2  15
HETATM   15  C   UNL     1     -11.966  13.540  67.090  1.00  0.00    -0.426 C  
BRANCH  15  16
HETATM   16  C   UNL     1     -10.615  13.261  67.735  1.00  0.00    -0.241 C  
HETATM   17  N   UNL     1      -8.158  10.759  65.624  1.00  0.00    -0.145 NA 
HETATM   18  C   UNL     1      -8.613  11.818  67.804  1.00  0.00    -0.151 C  
HETATM   19  N   UNL     1      -9.916  12.169  67.231  1.00  0.00    -0.202 N  
HETATM   20  C   UNL     1      -9.505  10.577  65.455  1.00  0.00    -0.216 A  
HETATM   21  O   UNL     1     -10.155  13.974  68.623  1.00  0.00    -0.230 OA 
HETATM   22  C   UNL     1     -10.523  11.148  66.371  1.00  0.00    -0.260 C  
HETATM   23  C   UNL     1      -7.584  11.537  66.704  1.00  0.00    -0.088 C  
HETATM   24  N   UNL     1      -9.710   9.859  64.379  1.00  0.00    -0.211 NA 
HETATM   25  N   UNL     1      -8.489   9.601  63.809  1.00  0.00    -0.172 NA 
HETATM   26  C   UNL     1      -7.550  10.166  64.549  1.00  0.00    -0.130 A  
HETATM   27  C   UNL     1      -6.091  10.181  64.270  1.00  0.00    -0.137 C  
HETATM   28  F   UNL     1      -5.384  10.839  65.228  1.00  0.00    -0.102 F  
HETATM   29  F   UNL     1      -5.570   8.930  64.203  1.00  0.00    -0.063 F  
HETATM   30  F   UNL     1      -5.802  10.800  63.097  1.00  0.00    -0.148 F  
ENDBRANCH  15  16
ENDBRANCH   2  15
TORSDOF 4
ENDMDL
MODEL      125
REMARK 921   NORMALIZED FREE ENERGY PREDICTED BY IDOCK:   -5.51 KCAL/MOL
REMARK 922        TOTAL FREE ENERGY PREDICTED BY IDOCK:   -7.87 KCAL/MOL
REMARK 923 INTER-LIGAND FREE ENERGY PREDICTED BY IDOCK:   -7.34 KCAL/MOL
REMARK 924 INTRA-LIGAND FREE ENERGY PREDICTED BY IDOCK:   -0.53 KCAL/MOL
REMARK 927      BINDING AFFINITY PREDICTED BY RF-SCORE:    0.00 PKD
ROOT
HETATM    1  N   UNL     1      -7.848  10.706  66.558  1.00  0.00    -0.133 NA 
HETATM    2  C   UNL     1      -8.910  11.009  67.542  1.00  0.00    -0.131 C  
HETATM    3  H1  UNL     1      -7.841   9.698  66.397  1.00  0.00     0.000 HD 
HETATM    4  H2  UNL     1      -6.936  11.066  66.840  1.00  0.00     0.000 HD 
ENDROOT
BRANCH   2   5
HETATM    5  C   UNL     1     -10.266  10.467  67.029  1.00  0.00    -0.275 C  
BRANCH   5   6
HETATM    6  C   UNL     1     -10.864  11.307  65.922  1.00  0.00    -0.264 A  
HETATM    7  F   UNL     1      -9.676  10.082  64.273  1.00  0.00    -0.337 F  
HETATM    8  C   UNL     1     -10.546  11.054  64.583  1.00  0.00    -0.299 A  
HETATM    9  C   UNL     1     -11.113  11.792  63.549  1.00  0.00    -0.503 A  
HETATM   10  C   UNL     1     -11.758  12.351  66.216  1.00  0.00    -0.457 A  
HETATM   11  C   UNL     1     -12.334  13.082  65.182  1.00  0.00    -0.484 A  
HETATM   12  F   UNL     1     -12.577  13.506  62.868  1.00  0.00    -0.434 F  
HETATM   13  C   UNL     1     -12.016  12.802  63.858  1.00  0.00    -0.480 A  
HETATM   14  F   UNL     1     -13.204  14.060  65.475  1.00  0.00    -0.547 F  
ENDBRANCH   5   6
ENDBRANCH   2   5
BRANCH   2  15
HETATM   15  C   UNL     1      -8.920  12.521  67.783  1.00  0.00    -0.184 C  
BRANCH  15  16
HETATM   16  C   UNL     1      -7.612  13.103  68.303  1.00  0.00    -0.139 C  
HETATM   17  N   UNL     1      -7.376  17.188  68.246  1.00  0.00    -0.205 NA 
HETATM   18  C   UNL     1      -6.126  15.071  68.424  1.00  0.00    -0.105 C  
HETATM   19  N   UNL     1      -7.369  14.433  67.979  1.00  0.00    -0.127 N  
HETATM   20  C   UNL     1      -8.179  16.610  67.299  1.00  0.00    -0.174 A  
HETATM   21  O   UNL     1      -6.833  12.448  68.991  1.00  0.00    -0.100 OA 
HETATM   22  C   UNL     1      -8.124  15.168  66.958  1.00  0.00    -0.205 C  
HETATM   23  C   UNL     1      -6.399  16.453  69.024  1.00  0.00    -0.164 C  
HETATM   24  N   UNL     1      -8.974  17.522  66.795  1.00  0.00    -0.248 NA 
HETATM   25  N   UNL     1      -8.722  18.703  67.446  1.00  0.00    -0.268 NA 
HETATM   26  C   UNL     1      -7.771  18.497  68.343  1.00  0.00    -0.298 A  
HETATM   27  C   UNL     1      -7.229  19.490  69.303  1.00  0.00    -0.310 C  
HETATM   28  F   UNL     1      -6.248  18.973  70.091  1.00  0.00    -0.270 F  
HETATM   29  F   UNL     1      -6.686  20.564  68.677  1.00  0.00    -0.332 F  
HETATM   30  F   UNL     1      -8.184  19.958  70.148  1.00  0.00     0.132 F  
ENDBRANCH  15  16
ENDBRANCH   2  15
TORSDOF 4
ENDMDL
MODEL      126
REMARK 921   NORMALIZED FREE ENERGY PREDICTED BY IDOCK:   -5.50 KCAL/MOL
REMARK 922        TOTAL FREE ENERGY PREDICTED BY IDOCK:   -7.85 KCAL/MOL
REMARK 923 INTER-LIGAND FREE ENERGY PREDICTED BY IDOCK:   -7.27 KCAL/MOL
REMARK 924 INTRA-LIGAND FREE ENERGY PREDICTED BY IDOCK:   -0.58 KCAL/MOL
REMARK 927      BINDING AFFINITY PREDICTED BY RF-SCORE:    0.00 PKD
ROOT
HETATM    1  N   UNL     1     -11.133  14.620  65.629  1.00  0.00    -0.328 NA 
HETATM    2  C   UNL     1     -10.076  14.922  66.620  1.00  0.00    -0.258 C  
HETATM    3  H1  UNL     1     -11.598  15.494  65.384  1.00  0.00     0.000 HD 
HETATM    4  H2  UNL     1     -11.784  13.905  65.955  1.00  0.00     0.000 HD 
ENDROOT
BRANCH   2   5
HETATM    5  C   UNL     1      -9.108  15.983  66.042  1.00  0.00    -0.361 C  
BRANCH   5   6
HETATM    6  C   UNL     1      -9.312  17.361  66.633  1.00  0.00    -0.279 A  
HETATM    7  F   UNL     1     -11.027  17.842  65.064  1.00  0.00    -0.400 F  
HETATM    8  C   UNL     1     -10.287  18.222  66.115  1.00  0.00    -0.398 A  
HETATM    9  C   UNL     1     -10.513  19.478  66.668  1.00  0.00    -0.593 A  
HETATM   10  C   UNL     1      -8.534  17.799  67.718  1.00  0.00    -0.236 A  
HETATM   11  C   UNL     1      -8.768  19.051  68.278  1.00  0.00    -0.331 A  
HETATM   12  F   UNL     1      -9.976  21.084  68.304  1.00  0.00    -0.249 F  
HETATM   13  C   UNL     1      -9.753  19.883  67.758  1.00  0.00    -0.392 A  
HETATM   14  F   UNL     1      -8.035  19.448  69.328  1.00  0.00    -0.376 F  
ENDBRANCH   5   6
ENDBRANCH   2   5
BRANCH   2  15
HETATM   15  C   UNL     1      -9.378  13.610  66.989  1.00  0.00    -0.249 C  
BRANCH  15  16
HETATM   16  C   UNL     1     -10.273  12.559  67.633  1.00  0.00    -0.219 C  
HETATM   17  N   UNL     1      -9.587   8.709  66.425  1.00  0.00    -0.229 NA 
HETATM   18  C   UNL     1     -11.150  10.253  67.545  1.00  0.00    -0.232 C  
HETATM   19  N   UNL     1     -10.303  11.320  67.002  1.00  0.00    -0.218 N  
HETATM   20  C   UNL     1      -9.297   9.694  65.518  1.00  0.00    -0.248 A  
HETATM   21  O   UNL     1     -10.904  12.781  68.663  1.00  0.00    -0.242 OA 
HETATM   22  C   UNL     1      -9.786  11.088  65.650  1.00  0.00    -0.232 C  
HETATM   23  C   UNL     1     -10.389   8.926  67.613  1.00  0.00    -0.251 C  
HETATM   24  N   UNL     1      -8.531   9.199  64.577  1.00  0.00    -0.173 NA 
HETATM   25  N   UNL     1      -8.279   7.888  64.889  1.00  0.00    -0.145 NA 
HETATM   26  C   UNL     1      -8.899   7.596  66.021  1.00  0.00    -0.155 A  
HETATM   27  C   UNL     1      -8.852   6.302  66.748  1.00  0.00    -0.126 C  
HETATM   28  F   UNL     1      -9.605   6.314  67.882  1.00  0.00    -0.121 F  
HETATM   29  F   UNL     1      -9.316   5.274  65.994  1.00  0.00    -0.143 F  
HETATM   30  F   UNL     1      -7.592   5.979  67.137  1.00  0.00    -0.086 F  
ENDBRANCH  15  16
ENDBRANCH   2  15
TORSDOF 4
ENDMDL
MODEL      127
REMARK 921   NORMALIZED FREE ENERGY PREDICTED BY IDOCK:   -5.50 KCAL/MOL
REMARK 922        TOTAL FREE ENERGY PREDICTED BY IDOCK:   -7.85 KCAL/MOL
REMARK 923 INTER-LIGAND FREE ENERGY PREDICTED BY IDOCK:   -6.74 KCAL/MOL
REMARK 924 INTRA-LIGAND FREE ENERGY PREDICTED BY IDOCK:   -1.11 KCAL/MOL
REMARK 927      BINDING AFFINITY PREDICTED BY RF-SCORE:    0.00 PKD
ROOT
HETATM    1  N   UNL     1      -8.242   5.042  71.897  1.00  0.00    -0.114 NA 
HETATM    2  C   UNL     1      -9.133   6.108  71.388  1.00  0.00    -0.143 C  
HETATM    3  H1  UNL     1      -7.453   5.484  72.368  1.00  0.00     0.000 HD 
HETATM    4  H2  UNL     1      -7.951   4.392  71.166  1.00  0.00     0.000 HD 
ENDROOT
BRANCH   2   5
HETATM    5  C   UNL     1      -9.563   7.029  72.556  1.00  0.00    -0.166 C  
BRANCH   5   6
HETATM    6  C   UNL     1     -10.566   8.084  72.145  1.00  0.00    -0.335 A  
HETATM    7  F   UNL     1      -8.909   9.260  70.915  1.00  0.00    -0.223 F  
HETATM    8  C   UNL     1     -10.183   9.149  71.320  1.00  0.00    -0.329 A  
HETATM    9  C   UNL     1     -11.099  10.109  70.902  1.00  0.00    -0.326 A  
HETATM   10  C   UNL     1     -11.901   8.012  72.574  1.00  0.00    -0.419 A  
HETATM   11  C   UNL     1     -12.819   8.966  72.147  1.00  0.00    -0.409 A  
HETATM   12  F   UNL     1     -13.311  10.917  70.904  1.00  0.00    -0.345 F  
HETATM   13  C   UNL     1     -12.421  10.005  71.315  1.00  0.00    -0.392 A  
HETATM   14  F   UNL     1     -14.097   8.871  72.545  1.00  0.00    -0.450 F  
ENDBRANCH   5   6
ENDBRANCH   2   5
BRANCH   2  15
HETATM   15  C   UNL     1     -10.318   5.444  70.681  1.00  0.00    -0.333 C  
BRANCH  15  16
HETATM   16  C   UNL     1     -10.024   4.920  69.281  1.00  0.00    -0.199 C  
HETATM   17  N   UNL     1      -9.690   7.789  66.381  1.00  0.00    -0.186 NA 
HETATM   18  C   UNL     1     -10.006   5.390  66.857  1.00  0.00    -0.184 C  
HETATM   19  N   UNL     1     -10.247   5.815  68.239  1.00  0.00    -0.170 N  
HETATM   20  C   UNL     1     -10.505   8.085  67.441  1.00  0.00    -0.287 A  
HETATM   21  O   UNL     1      -9.588   3.789  69.084  1.00  0.00    -0.176 OA 
HETATM   22  C   UNL     1     -11.002   7.062  68.393  1.00  0.00    -0.076 C  
HETATM   23  C   UNL     1      -9.217   6.451  66.084  1.00  0.00    -0.106 C  
HETATM   24  N   UNL     1     -10.731   9.375  67.462  1.00  0.00    -0.268 NA 
HETATM   25  N   UNL     1     -10.024   9.941  66.431  1.00  0.00    -0.230 NA 
HETATM   26  C   UNL     1      -9.374   8.983  65.790  1.00  0.00    -0.236 A  
HETATM   27  C   UNL     1      -8.447   9.157  64.643  1.00  0.00    -0.181 C  
HETATM   28  F   UNL     1      -7.941   7.975  64.197  1.00  0.00    -0.125 F  
HETATM   29  F   UNL     1      -9.054   9.737  63.578  1.00  0.00    -0.224 F  
HETATM   30  F   UNL     1      -7.376   9.928  64.963  1.00  0.00    -0.109 F  
ENDBRANCH  15  16
ENDBRANCH   2  15
TORSDOF 4
ENDMDL
MODEL      128
REMARK 921   NORMALIZED FREE ENERGY PREDICTED BY IDOCK:   -5.47 KCAL/MOL
REMARK 922        TOTAL FREE ENERGY PREDICTED BY IDOCK:   -7.81 KCAL/MOL
REMARK 923 INTER-LIGAND FREE ENERGY PREDICTED BY IDOCK:   -7.26 KCAL/MOL
REMARK 924 INTRA-LIGAND FREE ENERGY PREDICTED BY IDOCK:   -0.55 KCAL/MOL
REMARK 927      BINDING AFFINITY PREDICTED BY RF-SCORE:    0.00 PKD
ROOT
HETATM    1  N   UNL     1      -7.133  11.929  68.847  1.00  0.00    -0.111 NA 
HETATM    2  C   UNL     1      -8.268  10.990  68.983  1.00  0.00    -0.098 C  
HETATM    3  H1  UNL     1      -6.353  11.568  69.397  1.00  0.00     0.000 HD 
HETATM    4  H2  UNL     1      -7.383  12.886  69.098  1.00  0.00     0.000 HD 
ENDROOT
BRANCH   2   5
HETATM    5  C   UNL     1      -7.826   9.571  68.550  1.00  0.00    -0.085 C  
BRANCH   5   6
HETATM    6  C   UNL     1      -7.695   9.419  67.051  1.00  0.00    -0.091 A  
HETATM    7  F   UNL     1      -9.732   8.205  66.938  1.00  0.00    -0.201 F  
HETATM    8  C   UNL     1      -8.678   8.749  66.312  1.00  0.00    -0.147 A  
HETATM    9  C   UNL     1      -8.593   8.631  64.929  1.00  0.00    -0.163 A  
HETATM   10  C   UNL     1      -6.589   9.954  66.369  1.00  0.00    -0.073 A  
HETATM   11  C   UNL     1      -6.509   9.846  64.984  1.00  0.00    -0.106 A  
HETATM   12  F   UNL     1      -7.425   9.094  62.937  1.00  0.00    -0.102 F  
HETATM   13  C   UNL     1      -7.506   9.191  64.270  1.00  0.00    -0.106 A  
HETATM   14  F   UNL     1      -5.461  10.382  64.343  1.00  0.00    -0.090 F  
ENDBRANCH   5   6
ENDBRANCH   2   5
BRANCH   2  15
HETATM   15  C   UNL     1      -9.439  11.531  68.158  1.00  0.00    -0.184 C  
BRANCH  15  16
HETATM   16  C   UNL     1      -9.617  13.044  68.203  1.00  0.00    -0.227 C  
HETATM   17  N   UNL     1     -12.106  14.420  71.146  1.00  0.00    -0.336 NA 
HETATM   18  C   UNL     1     -10.956  14.946  69.029  1.00  0.00    -0.245 C  
HETATM   19  N   UNL     1     -10.699  13.505  68.944  1.00  0.00    -0.231 N  
HETATM   20  C   UNL     1     -12.362  13.162  70.670  1.00  0.00    -0.326 A  
HETATM   21  O   UNL     1      -8.837  13.810  67.645  1.00  0.00    -0.169 OA 
HETATM   22  C   UNL     1     -11.793  12.642  69.402  1.00  0.00    -0.296 C  
HETATM   23  C   UNL     1     -11.245  15.371  70.472  1.00  0.00    -0.333 C  
HETATM   24  N   UNL     1     -13.145  12.535  71.512  1.00  0.00    -0.348 NA 
HETATM   25  N   UNL     1     -13.373  13.372  72.574  1.00  0.00    -0.527 NA 
HETATM   26  C   UNL     1     -12.724  14.506  72.365  1.00  0.00    -0.333 A  
HETATM   27  C   UNL     1     -12.654  15.669  73.286  1.00  0.00    -0.503 C  
HETATM   28  F   UNL     1     -11.913  16.691  72.778  1.00  0.00    -0.567 F  
HETATM   29  F   UNL     1     -13.880  16.184  73.554  1.00  0.00    -0.607 F  
HETATM   30  F   UNL     1     -12.084  15.345  74.475  1.00  0.00    -0.652 F  
ENDBRANCH  15  16
ENDBRANCH   2  15
TORSDOF 4
ENDMDL
MODEL      129
REMARK 921   NORMALIZED FREE ENERGY PREDICTED BY IDOCK:   -5.45 KCAL/MOL
REMARK 922        TOTAL FREE ENERGY PREDICTED BY IDOCK:   -7.80 KCAL/MOL
REMARK 923 INTER-LIGAND FREE ENERGY PREDICTED BY IDOCK:   -7.27 KCAL/MOL
REMARK 924 INTRA-LIGAND FREE ENERGY PREDICTED BY IDOCK:   -0.53 KCAL/MOL
REMARK 927      BINDING AFFINITY PREDICTED BY RF-SCORE:    0.00 PKD
ROOT
HETATM    1  N   UNL     1     -13.662   9.422  72.567  1.00  0.00    -0.691 NA 
HETATM    2  C   UNL     1     -12.534   9.828  71.702  1.00  0.00    -0.410 C  
HETATM    3  H1  UNL     1     -14.098  10.266  72.940  1.00  0.00     0.000 HD 
HETATM    4  H2  UNL     1     -13.382   8.767  73.298  1.00  0.00     0.000 HD 
ENDROOT
BRANCH   2   5
HETATM    5  C   UNL     1     -13.042  10.787  70.598  1.00  0.00    -0.204 C  
BRANCH   5   6
HETATM    6  C   UNL     1     -12.709  12.238  70.868  1.00  0.00    -0.277 A  
HETATM    7  F   UNL     1     -11.480  12.392  68.843  1.00  0.00    -0.258 F  
HETATM    8  C   UNL     1     -11.950  12.978  69.954  1.00  0.00    -0.311 A  
HETATM    9  C   UNL     1     -11.664  14.322  70.167  1.00  0.00    -0.357 A  
HETATM   10  C   UNL     1     -13.163  12.873  72.035  1.00  0.00    -0.549 A  
HETATM   11  C   UNL     1     -12.888  14.221  72.244  1.00  0.00    -0.340 A  
HETATM   12  F   UNL     1     -11.887  16.237  71.519  1.00  0.00    -0.442 F  
HETATM   13  C   UNL     1     -12.146  14.940  71.314  1.00  0.00    -0.330 A  
HETATM   14  F   UNL     1     -13.347  14.821  73.351  1.00  0.00    -0.549 F  
ENDBRANCH   5   6
ENDBRANCH   2   5
BRANCH   2  15
HETATM   15  C   UNL     1     -11.880   8.562  71.142  1.00  0.00    -0.322 C  
BRANCH  15  16
HETATM   16  C   UNL     1     -10.368   8.635  70.971  1.00  0.00    -0.217 C  
HETATM   17  N   UNL     1      -8.894   6.737  67.659  1.00  0.00    -0.118 NA 
HETATM   18  C   UNL     1      -8.364   7.718  69.858  1.00  0.00    -0.130 C  
HETATM   19  N   UNL     1      -9.815   7.729  70.073  1.00  0.00    -0.180 N  
HETATM   20  C   UNL     1     -10.052   6.231  68.187  1.00  0.00    -0.152 A  
HETATM   21  O   UNL     1      -9.683   9.463  71.565  1.00  0.00    -0.226 OA 
HETATM   22  C   UNL     1     -10.539   6.567  69.547  1.00  0.00    -0.246 C  
HETATM   23  C   UNL     1      -8.029   7.661  68.364  1.00  0.00    -0.123 C  
HETATM   24  N   UNL     1     -10.625   5.454  67.301  1.00  0.00    -0.214 NA 
HETATM   25  N   UNL     1      -9.859   5.481  66.164  1.00  0.00    -0.138 NA 
HETATM   26  C   UNL     1      -8.823   6.277  66.370  1.00  0.00    -0.143 A  
HETATM   27  C   UNL     1      -7.770   6.634  65.386  1.00  0.00    -0.100 C  
HETATM   28  F   UNL     1      -6.831   7.470  65.908  1.00  0.00    -0.052 F  
HETATM   29  F   UNL     1      -7.100   5.543  64.936  1.00  0.00    -0.054 F  
HETATM   30  F   UNL     1      -8.279   7.270  64.300  1.00  0.00    -0.137 F  
ENDBRANCH  15  16
ENDBRANCH   2  15
TORSDOF 4
ENDMDL
MODEL      130
REMARK 921   NORMALIZED FREE ENERGY PREDICTED BY IDOCK:   -5.44 KCAL/MOL
REMARK 922        TOTAL FREE ENERGY PREDICTED BY IDOCK:   -7.78 KCAL/MOL
REMARK 923 INTER-LIGAND FREE ENERGY PREDICTED BY IDOCK:   -7.28 KCAL/MOL
REMARK 924 INTRA-LIGAND FREE ENERGY PREDICTED BY IDOCK:   -0.50 KCAL/MOL
REMARK 927      BINDING AFFINITY PREDICTED BY RF-SCORE:    0.00 PKD
ROOT
HETATM    1  N   UNL     1     -12.564  15.929  69.366  1.00  0.00    -0.434 NA 
HETATM    2  C   UNL     1     -11.427  15.401  68.581  1.00  0.00    -0.346 C  
HETATM    3  H1  UNL     1     -12.333  16.877  69.664  1.00  0.00     0.000 HD 
HETATM    4  H2  UNL     1     -12.820  15.322  70.145  1.00  0.00     0.000 HD 
ENDROOT
BRANCH   2   5
HETATM    5  C   UNL     1     -11.124  16.352  67.398  1.00  0.00    -0.062 C  
BRANCH   5   6
HETATM    6  C   UNL     1      -9.949  17.270  67.657  1.00  0.00    -0.297 A  
HETATM    7  F   UNL     1     -10.806  18.887  66.144  1.00  0.00    -0.428 F  
HETATM    8  C   UNL     1      -9.861  18.514  67.020  1.00  0.00    -0.325 A  
HETATM    9  C   UNL     1      -8.808  19.387  67.273  1.00  0.00    -0.342 A  
HETATM   10  C   UNL     1      -8.930  16.897  68.548  1.00  0.00    -0.254 A  
HETATM   11  C   UNL     1      -7.882  17.774  68.810  1.00  0.00    -0.250 A  
HETATM   12  F   UNL     1      -6.815  19.852  68.438  1.00  0.00    -0.295 F  
HETATM   13  C   UNL     1      -7.824  19.012  68.178  1.00  0.00    -0.300 A  
HETATM   14  F   UNL     1      -6.927  17.416  69.681  1.00  0.00    -0.218 F  
ENDBRANCH   5   6
ENDBRANCH   2   5
BRANCH   2  15
HETATM   15  C   UNL     1     -11.775  13.979  68.133  1.00  0.00    -0.387 C  
BRANCH  15  16
HETATM   16  C   UNL     1     -11.768  13.756  66.626  1.00  0.00    -0.394 C  
HETATM   17  N   UNL     1      -9.001  11.059  65.276  1.00  0.00    -0.190 NA 
HETATM   18  C   UNL     1     -10.540  12.887  64.668  1.00  0.00    -0.363 C  
HETATM   19  N   UNL     1     -10.639  13.128  66.111  1.00  0.00    -0.275 N  
HETATM   20  C   UNL     1      -8.684  11.736  66.423  1.00  0.00    -0.147 A  
HETATM   21  O   UNL     1     -12.714  14.080  65.913  1.00  0.00    -0.495 OA 
HETATM   22  C   UNL     1      -9.392  12.962  66.865  1.00  0.00    -0.240 C  
HETATM   23  C   UNL     1     -10.066  11.459  64.379  1.00  0.00    -0.291 C  
HETATM   24  N   UNL     1      -7.704  11.114  67.032  1.00  0.00    -0.132 NA 
HETATM   25  N   UNL     1      -7.401   9.994  66.301  1.00  0.00    -0.102 NA 
HETATM   26  C   UNL     1      -8.202   9.946  65.249  1.00  0.00    -0.145 A  
HETATM   27  C   UNL     1      -8.253   8.875  64.222  1.00  0.00    -0.169 C  
HETATM   28  F   UNL     1      -9.181   9.121  63.258  1.00  0.00    -0.195 F  
HETATM   29  F   UNL     1      -7.068   8.726  63.580  1.00  0.00    -0.088 F  
HETATM   30  F   UNL     1      -8.575   7.669  64.756  1.00  0.00    -0.118 F  
ENDBRANCH  15  16
ENDBRANCH   2  15
TORSDOF 4
ENDMDL
MODEL      131
REMARK 921   NORMALIZED FREE ENERGY PREDICTED BY IDOCK:   -5.43 KCAL/MOL
REMARK 922        TOTAL FREE ENERGY PREDICTED BY IDOCK:   -7.76 KCAL/MOL
REMARK 923 INTER-LIGAND FREE ENERGY PREDICTED BY IDOCK:   -7.08 KCAL/MOL
REMARK 924 INTRA-LIGAND FREE ENERGY PREDICTED BY IDOCK:   -0.68 KCAL/MOL
REMARK 927      BINDING AFFINITY PREDICTED BY RF-SCORE:    0.00 PKD
ROOT
HETATM    1  N   UNL     1     -12.647  14.711  63.642  1.00  0.00    -0.980 NA 
HETATM    2  C   UNL     1     -11.755  14.461  64.795  1.00  0.00    -0.416 C  
HETATM    3  H1  UNL     1     -12.977  15.675  63.697  1.00  0.00     0.000 HD 
HETATM    4  H2  UNL     1     -13.410  14.036  63.581  1.00  0.00     0.000 HD 
ENDROOT
BRANCH   2   5
HETATM    5  C   UNL     1     -10.605  15.497  64.799  1.00  0.00    -0.246 C  
BRANCH   5   6
HETATM    6  C   UNL     1     -10.509  16.277  66.091  1.00  0.00    -0.330 A  
HETATM    7  F   UNL     1     -11.000  18.310  64.967  1.00  0.00    -0.364 F  
HETATM    8  C   UNL     1     -10.733  17.660  66.109  1.00  0.00    -0.105 A  
HETATM    9  C   UNL     1     -10.685  18.388  67.292  1.00  0.00    -0.389 A  
HETATM   10  C   UNL     1     -10.204  15.630  67.300  1.00  0.00    -0.266 A  
HETATM   11  C   UNL     1     -10.167  16.356  68.486  1.00  0.00    -0.257 A  
HETATM   12  F   UNL     1     -10.376  18.418  69.627  1.00  0.00    -0.204 F  
HETATM   13  C   UNL     1     -10.409  17.725  68.482  1.00  0.00    -0.364 A  
HETATM   14  F   UNL     1      -9.898  15.722  69.636  1.00  0.00    -0.240 F  
ENDBRANCH   5   6
ENDBRANCH   2   5
BRANCH   2  15
HETATM   15  C   UNL     1     -11.260  13.015  64.712  1.00  0.00    -0.344 C  
BRANCH  15  16
HETATM   16  C   UNL     1     -11.439  12.195  65.983  1.00  0.00    -0.370 C  
HETATM   17  N   UNL     1      -8.289   9.767  66.948  1.00  0.00    -0.120 NA 
HETATM   18  C   UNL     1     -10.671  10.276  67.333  1.00  0.00    -0.281 C  
HETATM   19  N   UNL     1     -10.561  11.129  66.145  1.00  0.00    -0.260 N  
HETATM   20  C   UNL     1      -8.469  10.032  65.617  1.00  0.00    -0.148 A  
HETATM   21  O   UNL     1     -12.284  12.476  66.828  1.00  0.00    -0.532 OA 
HETATM   22  C   UNL     1      -9.723  10.599  65.064  1.00  0.00    -0.279 C  
HETATM   23  C   UNL     1      -9.296  10.022  67.959  1.00  0.00    -0.130 C  
HETATM   24  N   UNL     1      -7.374   9.724  64.966  1.00  0.00    -0.121 NA 
HETATM   25  N   UNL     1      -6.450   9.292  65.882  1.00  0.00    -0.070 NA 
HETATM   26  C   UNL     1      -6.994   9.340  67.087  1.00  0.00    -0.085 A  
HETATM   27  C   UNL     1      -6.330   9.011  68.373  1.00  0.00    -0.054 C  
HETATM   28  F   UNL     1      -7.162   9.151  69.441  1.00  0.00    -0.061 F  
HETATM   29  F   UNL     1      -5.882   7.731  68.405  1.00  0.00    -0.027 F  
HETATM   30  F   UNL     1      -5.264   9.816  68.619  1.00  0.00    -0.037 F  
ENDBRANCH  15  16
ENDBRANCH   2  15
TORSDOF 4
ENDMDL
MODEL      132
REMARK 921   NORMALIZED FREE ENERGY PREDICTED BY IDOCK:   -5.42 KCAL/MOL
REMARK 922        TOTAL FREE ENERGY PREDICTED BY IDOCK:   -7.76 KCAL/MOL
REMARK 923 INTER-LIGAND FREE ENERGY PREDICTED BY IDOCK:   -7.80 KCAL/MOL
REMARK 924 INTRA-LIGAND FREE ENERGY PREDICTED BY IDOCK:    0.04 KCAL/MOL
REMARK 927      BINDING AFFINITY PREDICTED BY RF-SCORE:    0.00 PKD
ROOT
HETATM    1  N   UNL     1     -10.304  13.970  69.912  1.00  0.00    -0.098 NA 
HETATM    2  C   UNL     1     -11.597  14.645  70.152  1.00  0.00    -0.282 C  
HETATM    3  H1  UNL     1     -10.238  13.173  70.546  1.00  0.00     0.000 HD 
HETATM    4  H2  UNL     1      -9.509  14.604  69.992  1.00  0.00     0.000 HD 
ENDROOT
BRANCH   2   5
HETATM    5  C   UNL     1     -12.755  13.633  69.977  1.00  0.00    -0.044 C  
BRANCH   5   6
HETATM    6  C   UNL     1     -12.373  12.218  70.354  1.00  0.00    -0.309 A  
HETATM    7  F   UNL     1     -13.635  12.352  72.361  1.00  0.00    -0.615 F  
HETATM    8  C   UNL     1     -12.855  11.639  71.535  1.00  0.00    -0.364 A  
HETATM    9  C   UNL     1     -12.544  10.329  71.880  1.00  0.00    -0.414 A  
HETATM   10  C   UNL     1     -11.536  11.455  69.524  1.00  0.00    -0.381 A  
HETATM   11  C   UNL     1     -11.234  10.141  69.863  1.00  0.00    -0.287 A  
HETATM   12  F   UNL     1     -11.446   8.314  71.350  1.00  0.00    -0.263 F  
HETATM   13  C   UNL     1     -11.737   9.581  71.032  1.00  0.00    -0.343 A  
HETATM   14  F   UNL     1     -10.453   9.415  69.050  1.00  0.00    -0.197 F  
ENDBRANCH   5   6
ENDBRANCH   2   5
BRANCH   2  15
HETATM   15  C   UNL     1     -11.697  15.841  69.201  1.00  0.00    -0.398 C  
BRANCH  15  16
HETATM   16  C   UNL     1     -11.114  15.613  67.812  1.00  0.00    -0.311 C  
HETATM   17  N   UNL     1      -8.752  18.640  66.395  1.00  0.00    -0.372 NA 
HETATM   18  C   UNL     1     -10.042  16.616  65.827  1.00  0.00    -0.277 C  
HETATM   19  N   UNL     1     -10.609  16.740  67.174  1.00  0.00    -0.294 N  
HETATM   20  C   UNL     1      -9.739  18.997  67.274  1.00  0.00    -0.314 A  
HETATM   21  O   UNL     1     -11.064  14.498  67.299  1.00  0.00    -0.294 OA 
HETATM   22  C   UNL     1     -10.877  18.111  67.622  1.00  0.00    -0.238 C  
HETATM   23  C   UNL     1      -8.706  17.357  65.721  1.00  0.00     0.268 C  
HETATM   24  N   UNL     1      -9.487  20.196  67.739  1.00  0.00    -0.363 NA 
HETATM   25  N   UNL     1      -8.301  20.616  67.193  1.00  0.00    -0.278 NA 
HETATM   26  C   UNL     1      -7.842  19.664  66.397  1.00  0.00    -0.309 A  
HETATM   27  C   UNL     1      -6.561  19.679  65.646  1.00  0.00    -0.254 C  
HETATM   28  F   UNL     1      -6.378  18.552  64.905  1.00  0.00    -0.310 F  
HETATM   29  F   UNL     1      -6.489  20.719  64.778  1.00  0.00    -0.293 F  
HETATM   30  F   UNL     1      -5.486  19.767  66.470  1.00  0.00    -0.165 F  
ENDBRANCH  15  16
ENDBRANCH   2  15
TORSDOF 4
ENDMDL
MODEL      133
REMARK 921   NORMALIZED FREE ENERGY PREDICTED BY IDOCK:   -5.41 KCAL/MOL
REMARK 922        TOTAL FREE ENERGY PREDICTED BY IDOCK:   -7.74 KCAL/MOL
REMARK 923 INTER-LIGAND FREE ENERGY PREDICTED BY IDOCK:   -6.98 KCAL/MOL
REMARK 924 INTRA-LIGAND FREE ENERGY PREDICTED BY IDOCK:   -0.76 KCAL/MOL
REMARK 927      BINDING AFFINITY PREDICTED BY RF-SCORE:    0.00 PKD
ROOT
HETATM    1  N   UNL     1     -11.457  14.453  70.069  1.00  0.00    -0.351 NA 
HETATM    2  C   UNL     1     -11.066  13.788  68.807  1.00  0.00    -0.266 C  
HETATM    3  H1  UNL     1     -11.407  15.462  69.926  1.00  0.00     0.000 HD 
HETATM    4  H2  UNL     1     -10.902  14.140  70.866  1.00  0.00     0.000 HD 
ENDROOT
BRANCH   2   5
HETATM    5  C   UNL     1     -11.973  14.283  67.654  1.00  0.00    -0.400 C  
BRANCH   5   6
HETATM    6  C   UNL     1     -11.572  13.734  66.302  1.00  0.00    -0.369 A  
HETATM    7  F   UNL     1      -9.461  14.812  66.427  1.00  0.00    -0.252 F  
HETATM    8  C   UNL     1     -10.312  14.018  65.762  1.00  0.00    -0.319 A  
HETATM    9  C   UNL     1      -9.912  13.493  64.538  1.00  0.00    -0.018 A  
HETATM   10  C   UNL     1     -12.452  12.922  65.568  1.00  0.00    -0.462 A  
HETATM   11  C   UNL     1     -12.048  12.388  64.349  1.00  0.00    -0.426 A  
HETATM   12  F   UNL     1     -10.402  12.149  62.667  1.00  0.00    -0.168 F  
HETATM   13  C   UNL     1     -10.786  12.670  63.839  1.00  0.00    -0.431 A  
HETATM   14  F   UNL     1     -12.889  11.595  63.668  1.00  0.00    -0.566 F  
ENDBRANCH   5   6
ENDBRANCH   2   5
BRANCH   2  15
HETATM   15  C   UNL     1     -11.139  12.274  69.021  1.00  0.00    -0.289 C  
BRANCH  15  16
HETATM   16  C   UNL     1      -9.815  11.534  68.877  1.00  0.00    -0.075 C  
HETATM   17  N   UNL     1     -10.009   7.486  69.443  1.00  0.00    -0.174 NA 
HETATM   18  C   UNL     1      -8.543   9.464  69.313  1.00  0.00    -0.143 C  
HETATM   19  N   UNL     1      -9.782  10.244  69.394  1.00  0.00    -0.223 N  
HETATM   20  C   UNL     1     -10.933   8.241  70.116  1.00  0.00    -0.222 A  
HETATM   21  O   UNL     1      -8.846  12.033  68.311  1.00  0.00    -0.179 OA 
HETATM   22  C   UNL     1     -10.807   9.708  70.296  1.00  0.00    -0.285 C  
HETATM   23  C   UNL     1      -8.820   8.038  68.827  1.00  0.00    -0.138 C  
HETATM   24  N   UNL     1     -11.905   7.464  70.528  1.00  0.00    -0.211 NA 
HETATM   25  N   UNL     1     -11.640   6.193  70.087  1.00  0.00    -0.312 NA 
HETATM   26  C   UNL     1     -10.504   6.209  69.409  1.00  0.00    -0.256 A  
HETATM   27  C   UNL     1      -9.873   5.060  68.712  1.00  0.00    -0.168 C  
HETATM   28  F   UNL     1      -8.699   5.396  68.111  1.00  0.00    -0.107 F  
HETATM   29  F   UNL     1      -9.587   4.041  69.561  1.00  0.00    -0.216 F  
HETATM   30  F   UNL     1     -10.666   4.556  67.733  1.00  0.00     0.045 F  
ENDBRANCH  15  16
ENDBRANCH   2  15
TORSDOF 4
ENDMDL
MODEL      134
REMARK 921   NORMALIZED FREE ENERGY PREDICTED BY IDOCK:   -5.40 KCAL/MOL
REMARK 922        TOTAL FREE ENERGY PREDICTED BY IDOCK:   -7.73 KCAL/MOL
REMARK 923 INTER-LIGAND FREE ENERGY PREDICTED BY IDOCK:   -7.39 KCAL/MOL
REMARK 924 INTRA-LIGAND FREE ENERGY PREDICTED BY IDOCK:   -0.34 KCAL/MOL
REMARK 927      BINDING AFFINITY PREDICTED BY RF-SCORE:    0.00 PKD
ROOT
HETATM    1  N   UNL     1      -9.068  14.344  69.220  1.00  0.00    -0.392 NA 
HETATM    2  C   UNL     1      -8.375  13.779  68.042  1.00  0.00    -0.171 C  
HETATM    3  H1  UNL     1      -8.371  14.798  69.811  1.00  0.00     0.000 HD 
HETATM    4  H2  UNL     1      -9.618  13.648  69.723  1.00  0.00     0.000 HD 
ENDROOT
BRANCH   2   5
HETATM    5  C   UNL     1      -7.594  14.897  67.310  1.00  0.00    -0.213 C  
BRANCH   5   6
HETATM    6  C   UNL     1      -8.473  16.045  66.864  1.00  0.00    -0.275 A  
HETATM    7  F   UNL     1      -7.265  17.572  68.222  1.00  0.00    -0.187 F  
HETATM    8  C   UNL     1      -8.247  17.343  67.338  1.00  0.00    -0.201 A  
HETATM    9  C   UNL     1      -9.021  18.417  66.912  1.00  0.00    -0.280 A  
HETATM   10  C   UNL     1      -9.527  15.833  65.960  1.00  0.00    -0.392 A  
HETATM   11  C   UNL     1     -10.294  16.909  65.525  1.00  0.00    -0.177 A  
HETATM   12  F   UNL     1     -10.780  19.223  65.570  1.00  0.00    -0.542 F  
HETATM   13  C   UNL     1     -10.041  18.192  65.996  1.00  0.00    -0.268 A  
HETATM   14  F   UNL     1     -11.282  16.697  64.643  1.00  0.00    -0.464 F  
ENDBRANCH   5   6
ENDBRANCH   2   5
BRANCH   2  15
HETATM   15  C   UNL     1      -9.420  13.097  67.154  1.00  0.00    -0.239 C  
BRANCH  15  16
HETATM   16  C   UNL     1     -10.724  12.734  67.852  1.00  0.00    -0.219 C  
HETATM   17  N   UNL     1     -10.589   9.347  70.146  1.00  0.00    -0.223 NA 
HETATM   18  C   UNL     1     -12.034  10.994  69.014  1.00  0.00    -0.293 C  
HETATM   19  N   UNL     1     -10.808  11.435  68.342  1.00  0.00    -0.193 N  
HETATM   20  C   UNL     1      -9.734   9.394  69.077  1.00  0.00    -0.166 A  
HETATM   21  O   UNL     1     -11.633  13.546  68.001  1.00  0.00    -0.296 OA 
HETATM   22  C   UNL     1      -9.876  10.367  67.966  1.00  0.00    -0.150 C  
HETATM   23  C   UNL     1     -11.713  10.247  70.313  1.00  0.00    -0.306 C  
HETATM   24  N   UNL     1      -8.808   8.480  69.227  1.00  0.00    -0.141 NA 
HETATM   25  N   UNL     1      -9.029   7.853  70.427  1.00  0.00    -0.146 NA 
HETATM   26  C   UNL     1     -10.094   8.394  70.996  1.00  0.00    -0.196 A  
HETATM   27  C   UNL     1     -10.657   8.052  72.327  1.00  0.00    -0.291 C  
HETATM   28  F   UNL     1     -11.766   8.781  72.627  1.00  0.00    -0.414 F  
HETATM   29  F   UNL     1     -11.024   6.749  72.408  1.00  0.00    -0.227 F  
HETATM   30  F   UNL     1      -9.772   8.283  73.330  1.00  0.00    -0.331 F  
ENDBRANCH  15  16
ENDBRANCH   2  15
TORSDOF 4
ENDMDL
MODEL      135
REMARK 921   NORMALIZED FREE ENERGY PREDICTED BY IDOCK:   -5.40 KCAL/MOL
REMARK 922        TOTAL FREE ENERGY PREDICTED BY IDOCK:   -7.73 KCAL/MOL
REMARK 923 INTER-LIGAND FREE ENERGY PREDICTED BY IDOCK:   -6.91 KCAL/MOL
REMARK 924 INTRA-LIGAND FREE ENERGY PREDICTED BY IDOCK:   -0.82 KCAL/MOL
REMARK 927      BINDING AFFINITY PREDICTED BY RF-SCORE:    0.00 PKD
ROOT
HETATM    1  N   UNL     1      -7.960  10.261  67.307  1.00  0.00    -0.107 NA 
HETATM    2  C   UNL     1      -8.480   9.314  66.296  1.00  0.00    -0.127 C  
HETATM    3  H1  UNL     1      -8.499  11.124  67.241  1.00  0.00     0.000 HD 
HETATM    4  H2  UNL     1      -6.955  10.416  67.219  1.00  0.00     0.000 HD 
ENDROOT
BRANCH   2   5
HETATM    5  C   UNL     1      -9.998   9.099  66.515  1.00  0.00    -0.359 C  
BRANCH   5   6
HETATM    6  C   UNL     1     -10.610  10.099  67.472  1.00  0.00    -0.327 A  
HETATM    7  F   UNL     1     -11.057  11.610  65.696  1.00  0.00    -0.336 F  
HETATM    8  C   UNL     1     -11.130  11.311  67.001  1.00  0.00    -0.293 A  
HETATM    9  C   UNL     1     -11.729  12.226  67.860  1.00  0.00    -0.410 A  
HETATM   10  C   UNL     1     -10.677   9.827  68.848  1.00  0.00    -0.241 A  
HETATM   11  C   UNL     1     -11.286  10.737  69.706  1.00  0.00    -0.300 A  
HETATM   12  F   UNL     1     -12.400  12.796  70.044  1.00  0.00    -0.335 F  
HETATM   13  C   UNL     1     -11.811  11.927  69.214  1.00  0.00    -0.318 A  
HETATM   14  F   UNL     1     -11.365  10.455  71.014  1.00  0.00    -0.385 F  
ENDBRANCH   5   6
ENDBRANCH   2   5
BRANCH   2  15
HETATM   15  C   UNL     1      -7.671   8.018  66.394  1.00  0.00    -0.092 C  
BRANCH  15  16
HETATM   16  C   UNL     1      -8.423   6.828  66.977  1.00  0.00    -0.114 C  
HETATM   17  N   UNL     1      -9.431   7.170  70.929  1.00  0.00    -0.160 NA 
HETATM   18  C   UNL     1      -9.159   5.642  69.013  1.00  0.00    -0.111 C  
HETATM   19  N   UNL     1      -8.470   6.762  68.365  1.00  0.00    -0.122 N  
HETATM   20  C   UNL     1      -8.307   7.841  70.526  1.00  0.00    -0.125 A  
HETATM   21  O   UNL     1      -8.980   5.995  66.267  1.00  0.00    -0.142 OA 
HETATM   22  C   UNL     1      -7.615   7.568  69.243  1.00  0.00    -0.100 C  
HETATM   23  C   UNL     1     -10.069   6.133  70.143  1.00  0.00    -0.184 C  
HETATM   24  N   UNL     1      -7.992   8.734  71.431  1.00  0.00    -0.188 NA 
HETATM   25  N   UNL     1      -8.940   8.680  72.420  1.00  0.00    -0.373 NA 
HETATM   26  C   UNL     1      -9.826   7.749  72.106  1.00  0.00    -0.187 A  
HETATM   27  C   UNL     1     -11.049   7.395  72.871  1.00  0.00    -0.349 C  
HETATM   28  F   UNL     1     -11.753   6.386  72.290  1.00  0.00    -0.305 F  
HETATM   29  F   UNL     1     -10.762   6.983  74.131  1.00  0.00    -0.390 F  
HETATM   30  F   UNL     1     -11.907   8.441  72.976  1.00  0.00    -0.429 F  
ENDBRANCH  15  16
ENDBRANCH   2  15
TORSDOF 4
ENDMDL
MODEL      136
REMARK 921   NORMALIZED FREE ENERGY PREDICTED BY IDOCK:   -5.40 KCAL/MOL
REMARK 922        TOTAL FREE ENERGY PREDICTED BY IDOCK:   -7.73 KCAL/MOL
REMARK 923 INTER-LIGAND FREE ENERGY PREDICTED BY IDOCK:   -7.53 KCAL/MOL
REMARK 924 INTRA-LIGAND FREE ENERGY PREDICTED BY IDOCK:   -0.20 KCAL/MOL
REMARK 927      BINDING AFFINITY PREDICTED BY RF-SCORE:    0.00 PKD
ROOT
HETATM    1  N   UNL     1      -9.703   9.986  70.028  1.00  0.00    -0.367 NA 
HETATM    2  C   UNL     1     -10.794  10.037  69.031  1.00  0.00    -0.222 C  
HETATM    3  H1  UNL     1      -9.756   9.090  70.513  1.00  0.00     0.000 HD 
HETATM    4  H2  UNL     1      -9.717  10.782  70.667  1.00  0.00     0.000 HD 
ENDROOT
BRANCH   2   5
HETATM    5  C   UNL     1     -10.686   8.823  68.077  1.00  0.00    -0.151 C  
BRANCH   5   6
HETATM    6  C   UNL     1     -10.551   7.503  68.804  1.00  0.00    -0.179 A  
HETATM    7  F   UNL     1      -9.096   6.662  67.127  1.00  0.00    -0.123 F  
HETATM    8  C   UNL     1      -9.738   6.485  68.291  1.00  0.00    -0.131 A  
HETATM    9  C   UNL     1      -9.573   5.279  68.963  1.00  0.00    -0.199 A  
HETATM   10  C   UNL     1     -11.232   7.275  70.012  1.00  0.00    -0.234 A  
HETATM   11  C   UNL     1     -11.058   6.073  70.690  1.00  0.00    -0.301 A  
HETATM   12  F   UNL     1     -10.066   3.931  70.830  1.00  0.00    -0.260 F  
HETATM   13  C   UNL     1     -10.232   5.084  70.170  1.00  0.00    -0.259 A  
HETATM   14  F   UNL     1     -11.695   5.878  71.854  1.00  0.00    -0.333 F  
ENDBRANCH   5   6
ENDBRANCH   2   5
BRANCH   2  15
HETATM   15  C   UNL     1     -10.715  11.381  68.303  1.00  0.00    -0.240 C  
BRANCH  15  16
HETATM   16  C   UNL     1     -11.161  12.587  69.119  1.00  0.00    -0.239 C  
HETATM   17  N   UNL     1     -10.019  16.222  67.626  1.00  0.00    -0.243 NA 
HETATM   18  C   UNL     1     -10.865  14.993  69.588  1.00  0.00    -0.271 C  
HETATM   19  N   UNL     1     -10.510  13.784  68.839  1.00  0.00    -0.210 N  
HETATM   20  C   UNL     1      -9.202  15.161  67.339  1.00  0.00    -0.193 A  
HETATM   21  O   UNL     1     -12.062  12.516  69.951  1.00  0.00    -0.304 OA 
HETATM   22  C   UNL     1      -9.271  13.866  68.059  1.00  0.00    -0.193 C  
HETATM   23  C   UNL     1     -11.043  16.190  68.650  1.00  0.00    -0.356 C  
HETATM   24  N   UNL     1      -8.407  15.486  66.349  1.00  0.00    -0.208 NA 
HETATM   25  N   UNL     1      -8.732  16.757  65.951  1.00  0.00    -0.512 NA 
HETATM   26  C   UNL     1      -9.725  17.196  66.708  1.00  0.00    -0.271 A  
HETATM   27  C   UNL     1     -10.420  18.502  66.586  1.00  0.00    -0.398 C  
HETATM   28  F   UNL     1     -11.396  18.662  67.521  1.00  0.00    -0.332 F  
HETATM   29  F   UNL     1      -9.572  19.550  66.739  1.00  0.00    -0.334 F  
HETATM   30  F   UNL     1     -11.027  18.648  65.381  1.00  0.00    -0.464 F  
ENDBRANCH  15  16
ENDBRANCH   2  15
TORSDOF 4
ENDMDL
MODEL      137
REMARK 921   NORMALIZED FREE ENERGY PREDICTED BY IDOCK:   -5.39 KCAL/MOL
REMARK 922        TOTAL FREE ENERGY PREDICTED BY IDOCK:   -7.72 KCAL/MOL
REMARK 923 INTER-LIGAND FREE ENERGY PREDICTED BY IDOCK:   -7.10 KCAL/MOL
REMARK 924 INTRA-LIGAND FREE ENERGY PREDICTED BY IDOCK:   -0.62 KCAL/MOL
REMARK 927      BINDING AFFINITY PREDICTED BY RF-SCORE:    0.00 PKD
ROOT
HETATM    1  N   UNL     1     -11.290  12.861  69.723  1.00  0.00    -0.497 NA 
HETATM    2  C   UNL     1     -11.036  13.002  68.272  1.00  0.00    -0.260 C  
HETATM    3  H1  UNL     1     -11.114  13.764  70.166  1.00  0.00     0.000 HD 
HETATM    4  H2  UNL     1     -10.752  12.104  70.144  1.00  0.00     0.000 HD 
ENDROOT
BRANCH   2   5
HETATM    5  C   UNL     1     -11.913  14.141  67.697  1.00  0.00    -0.405 C  
BRANCH   5   6
HETATM    6  C   UNL     1     -11.136  15.409  67.418  1.00  0.00    -0.311 A  
HETATM    7  F   UNL     1     -10.505  14.616  65.271  1.00  0.00    -0.306 F  
HETATM    8  C   UNL     1     -10.479  15.588  66.194  1.00  0.00    -0.313 A  
HETATM    9  C   UNL     1      -9.791  16.761  65.905  1.00  0.00    -0.276 A  
HETATM   10  C   UNL     1     -11.067  16.434  68.375  1.00  0.00    -0.351 A  
HETATM   11  C   UNL     1     -10.388  17.613  68.082  1.00  0.00    -0.386 A  
HETATM   12  F   UNL     1      -9.109  18.913  66.576  1.00  0.00    -0.287 F  
HETATM   13  C   UNL     1      -9.757  17.775  66.854  1.00  0.00    -0.300 A  
HETATM   14  F   UNL     1     -10.350  18.594  68.995  1.00  0.00    -0.389 F  
ENDBRANCH   5   6
ENDBRANCH   2   5
BRANCH   2  15
HETATM   15  C   UNL     1     -11.299  11.649  67.607  1.00  0.00    -0.362 C  
BRANCH  15  16
HETATM   16  C   UNL     1     -10.124  11.071  66.828  1.00  0.00    -0.220 C  
HETATM   17  N   UNL     1      -9.861   6.987  66.845  1.00  0.00    -0.186 NA 
HETATM   18  C   UNL     1      -8.686   9.109  66.405  1.00  0.00    -0.130 C  
HETATM   19  N   UNL     1      -9.812   9.743  67.098  1.00  0.00    -0.178 N  
HETATM   20  C   UNL     1     -10.452   7.564  67.938  1.00  0.00    -0.204 A  
HETATM   21  O   UNL     1      -9.509  11.726  65.991  1.00  0.00    -0.225 OA 
HETATM   22  C   UNL     1     -10.335   9.009  68.255  1.00  0.00    -0.209 C  
HETATM   23  C   UNL     1      -9.071   7.723  65.879  1.00  0.00    -0.072 C  
HETATM   24  N   UNL     1     -11.120   6.651  68.598  1.00  0.00    -0.243 NA 
HETATM   25  N   UNL     1     -11.004   5.469  67.912  1.00  0.00     0.022 NA 
HETATM   26  C   UNL     1     -10.261   5.676  66.837  1.00  0.00    -0.227 A  
HETATM   27  C   UNL     1      -9.926   4.681  65.788  1.00  0.00    -0.230 C  
HETATM   28  F   UNL     1      -9.133   5.200  64.811  1.00  0.00    -0.156 F  
HETATM   29  F   UNL     1      -9.259   3.612  66.290  1.00  0.00    -0.134 F  
HETATM   30  F   UNL     1     -11.032   4.206  65.161  1.00  0.00    -0.265 F  
ENDBRANCH  15  16
ENDBRANCH   2  15
TORSDOF 4
ENDMDL
MODEL      138
REMARK 921   NORMALIZED FREE ENERGY PREDICTED BY IDOCK:   -5.39 KCAL/MOL
REMARK 922        TOTAL FREE ENERGY PREDICTED BY IDOCK:   -7.72 KCAL/MOL
REMARK 923 INTER-LIGAND FREE ENERGY PREDICTED BY IDOCK:   -7.58 KCAL/MOL
REMARK 924 INTRA-LIGAND FREE ENERGY PREDICTED BY IDOCK:   -0.14 KCAL/MOL
REMARK 927      BINDING AFFINITY PREDICTED BY RF-SCORE:    0.00 PKD
ROOT
HETATM    1  N   UNL     1     -11.704  12.843  65.673  1.00  0.00    -0.365 NA 
HETATM    2  C   UNL     1     -11.888  14.055  66.501  1.00  0.00    -0.417 C  
HETATM    3  H1  UNL     1     -11.949  13.075  64.710  1.00  0.00     0.000 HD 
HETATM    4  H2  UNL     1     -12.224  12.041  66.029  1.00  0.00     0.000 HD 
ENDROOT
BRANCH   2   5
HETATM    5  C   UNL     1     -11.042  15.215  65.922  1.00  0.00    -0.319 C  
BRANCH   5   6
HETATM    6  C   UNL     1      -9.976  15.709  66.875  1.00  0.00    -0.252 A  
HETATM    7  F   UNL     1     -11.592  16.870  68.170  1.00  0.00    -0.217 F  
HETATM    8  C   UNL     1     -10.316  16.507  67.974  1.00  0.00    -0.294 A  
HETATM    9  C   UNL     1      -9.355  16.941  68.881  1.00  0.00    -0.229 A  
HETATM   10  C   UNL     1      -8.627  15.369  66.682  1.00  0.00    -0.318 A  
HETATM   11  C   UNL     1      -7.667  15.793  67.596  1.00  0.00    -0.154 A  
HETATM   12  F   UNL     1      -7.102  16.973  69.566  1.00  0.00    -0.238 F  
HETATM   13  C   UNL     1      -8.030  16.571  68.689  1.00  0.00    -0.232 A  
HETATM   14  F   UNL     1      -6.386  15.442  67.413  1.00  0.00    -0.165 F  
ENDBRANCH   5   6
ENDBRANCH   2   5
BRANCH   2  15
HETATM   15  C   UNL     1     -11.520  13.707  67.946  1.00  0.00    -0.348 C  
BRANCH  15  16
HETATM   16  C   UNL     1     -10.567  12.529  68.105  1.00  0.00    -0.226 C  
HETATM   17  N   UNL     1     -11.830   9.603  70.673  1.00  0.00    -0.270 NA 
HETATM   18  C   UNL     1      -9.918  10.560  69.446  1.00  0.00    -0.196 C  
HETATM   19  N   UNL     1     -10.796  11.710  69.206  1.00  0.00    -0.194 N  
HETATM   20  C   UNL     1     -12.275  10.873  70.930  1.00  0.00    -0.381 A  
HETATM   21  O   UNL     1      -9.673  12.297  67.297  1.00  0.00    -0.192 OA 
HETATM   22  C   UNL     1     -11.667  12.083  70.325  1.00  0.00    -0.179 C  
HETATM   23  C   UNL     1     -10.730   9.305  69.778  1.00  0.00    -0.231 C  
HETATM   24  N   UNL     1     -13.295  10.814  71.749  1.00  0.00    -0.371 NA 
HETATM   25  N   UNL     1     -13.553   9.491  72.002  1.00  0.00    -0.420 NA 
HETATM   26  C   UNL     1     -12.681   8.755  71.332  1.00  0.00    -0.283 A  
HETATM   27  C   UNL     1     -12.631   7.272  71.277  1.00  0.00    -0.366 C  
HETATM   28  F   UNL     1     -11.607   6.813  70.506  1.00  0.00    -0.324 F  
HETATM   29  F   UNL     1     -12.459   6.720  72.504  1.00  0.00    -0.173 F  
HETATM   30  F   UNL     1     -13.764   6.741  70.752  1.00  0.00    -0.220 F  
ENDBRANCH  15  16
ENDBRANCH   2  15
TORSDOF 4
ENDMDL
MODEL      139
REMARK 921   NORMALIZED FREE ENERGY PREDICTED BY IDOCK:   -5.38 KCAL/MOL
REMARK 922        TOTAL FREE ENERGY PREDICTED BY IDOCK:   -7.70 KCAL/MOL
REMARK 923 INTER-LIGAND FREE ENERGY PREDICTED BY IDOCK:   -7.11 KCAL/MOL
REMARK 924 INTRA-LIGAND FREE ENERGY PREDICTED BY IDOCK:   -0.59 KCAL/MOL
REMARK 927      BINDING AFFINITY PREDICTED BY RF-SCORE:    0.00 PKD
ROOT
HETATM    1  N   UNL     1     -11.118  11.585  70.018  1.00  0.00    -0.469 NA 
HETATM    2  C   UNL     1     -10.354  11.302  68.784  1.00  0.00    -0.205 C  
HETATM    3  H1  UNL     1     -11.624  12.461  69.885  1.00  0.00     0.000 HD 
HETATM    4  H2  UNL     1     -10.530  11.591  70.851  1.00  0.00     0.000 HD 
ENDROOT
BRANCH   2   5
HETATM    5  C   UNL     1     -11.315  11.271  67.570  1.00  0.00    -0.360 C  
BRANCH   5   6
HETATM    6  C   UNL     1     -11.204  12.496  66.689  1.00  0.00    -0.357 A  
HETATM    7  F   UNL     1     -11.101  11.152  64.735  1.00  0.00    -0.351 F  
HETATM    8  C   UNL     1     -11.119  12.369  65.297  1.00  0.00    -0.303 A  
HETATM    9  C   UNL     1     -11.053  13.484  64.469  1.00  0.00    -0.394 A  
HETATM   10  C   UNL     1     -11.192  13.784  67.249  1.00  0.00    -0.329 A  
HETATM   11  C   UNL     1     -11.138  14.900  66.421  1.00  0.00    -0.342 A  
HETATM   12  F   UNL     1     -11.023  15.829  64.249  1.00  0.00    -0.352 F  
HETATM   13  C   UNL     1     -11.071  14.751  65.040  1.00  0.00    -0.405 A  
HETATM   14  F   UNL     1     -11.152  16.125  66.967  1.00  0.00    -0.292 F  
ENDBRANCH   5   6
ENDBRANCH   2   5
BRANCH   2  15
HETATM   15  C   UNL     1      -9.595   9.987  68.981  1.00  0.00    -0.200 C  
BRANCH  15  16
HETATM   16  C   UNL     1     -10.383   8.883  69.674  1.00  0.00    -0.212 C  
HETATM   17  N   UNL     1      -9.858   5.132  68.124  1.00  0.00    -0.147 NA 
HETATM   18  C   UNL     1     -11.253   6.575  69.557  1.00  0.00    -0.372 C  
HETATM   19  N   UNL     1     -10.497   7.688  68.972  1.00  0.00    -0.214 N  
HETATM   20  C   UNL     1      -9.706   6.178  67.254  1.00  0.00    -0.128 A  
HETATM   21  O   UNL     1     -10.862   9.027  70.796  1.00  0.00    -0.220 OA 
HETATM   22  C   UNL     1     -10.178   7.554  67.547  1.00  0.00    -0.223 C  
HETATM   23  C   UNL     1     -10.483   5.257  69.426  1.00  0.00    -0.214 C  
HETATM   24  N   UNL     1      -9.080   5.758  66.182  1.00  0.00    -0.152 NA 
HETATM   25  N   UNL     1      -8.780   4.432  66.365  1.00  0.00    -0.112 NA 
HETATM   26  C   UNL     1      -9.229   4.058  67.552  1.00  0.00    -0.164 A  
HETATM   27  C   UNL     1      -9.073   2.720  68.176  1.00  0.00    -0.180 C  
HETATM   28  F   UNL     1      -9.656   2.645  69.404  1.00  0.00    -0.216 F  
HETATM   29  F   UNL     1      -9.634   1.737  67.428  1.00  0.00    -0.148 F  
HETATM   30  F   UNL     1      -7.768   2.390  68.359  1.00  0.00    -0.053 F  
ENDBRANCH  15  16
ENDBRANCH   2  15
TORSDOF 4
ENDMDL
MODEL      140
REMARK 921   NORMALIZED FREE ENERGY PREDICTED BY IDOCK:   -5.37 KCAL/MOL
REMARK 922        TOTAL FREE ENERGY PREDICTED BY IDOCK:   -7.69 KCAL/MOL
REMARK 923 INTER-LIGAND FREE ENERGY PREDICTED BY IDOCK:   -7.82 KCAL/MOL
REMARK 924 INTRA-LIGAND FREE ENERGY PREDICTED BY IDOCK:    0.13 KCAL/MOL
REMARK 927      BINDING AFFINITY PREDICTED BY RF-SCORE:    0.00 PKD
ROOT
HETATM    1  N   UNL     1     -11.050  11.207  65.510  1.00  0.00    -0.081 NA 
HETATM    2  C   UNL     1     -10.474  11.744  66.762  1.00  0.00    -0.225 C  
HETATM    3  H1  UNL     1     -11.626  10.399  65.746  1.00  0.00     0.000 HD 
HETATM    4  H2  UNL     1     -10.338  10.993  64.811  1.00  0.00     0.000 HD 
ENDROOT
BRANCH   2   5
HETATM    5  C   UNL     1     -11.612  12.080  67.757  1.00  0.00    -0.400 C  
BRANCH   5   6
HETATM    6  C   UNL     1     -11.637  11.169  68.965  1.00  0.00    -0.392 A  
HETATM    7  F   UNL     1     -10.035   9.722  67.977  1.00  0.00    -0.158 F  
HETATM    8  C   UNL     1     -10.822  10.032  69.018  1.00  0.00    -0.222 A  
HETATM    9  C   UNL     1     -10.804   9.203  70.134  1.00  0.00    -0.269 A  
HETATM   10  C   UNL     1     -12.471  11.451  70.060  1.00  0.00    -0.224 A  
HETATM   11  C   UNL     1     -12.445  10.628  71.181  1.00  0.00    -0.418 A  
HETATM   12  F   UNL     1     -11.592   8.729  72.302  1.00  0.00    -0.401 F  
HETATM   13  C   UNL     1     -11.615   9.514  71.218  1.00  0.00    -0.374 A  
HETATM   14  F   UNL     1     -13.228  10.922  72.229  1.00  0.00    -0.573 F  
ENDBRANCH   5   6
ENDBRANCH   2   5
BRANCH   2  15
HETATM   15  C   UNL     1      -9.609  12.957  66.410  1.00  0.00    -0.252 C  
BRANCH  15  16
HETATM   16  C   UNL     1     -10.333  14.297  66.430  1.00  0.00    -0.286 C  
HETATM   17  N   UNL     1      -8.333  17.331  68.313  1.00  0.00    -0.234 NA 
HETATM   18  C   UNL     1     -10.501  16.543  67.440  1.00  0.00    -0.310 C  
HETATM   19  N   UNL     1      -9.853  15.232  67.341  1.00  0.00    -0.216 N  
HETATM   20  C   UNL     1      -8.075  16.062  68.758  1.00  0.00    -0.212 A  
HETATM   21  O   UNL     1     -11.263  14.549  65.668  1.00  0.00    -0.320 OA 
HETATM   22  C   UNL     1      -8.935  14.897  68.435  1.00  0.00    -0.183 C  
HETATM   23  C   UNL     1      -9.463  17.670  67.470  1.00  0.00    -0.256 C  
HETATM   24  N   UNL     1      -6.973  16.071  69.467  1.00  0.00    -0.209 NA 
HETATM   25  N   UNL     1      -6.478  17.349  69.454  1.00  0.00    -0.244 NA 
HETATM   26  C   UNL     1      -7.288  18.109  68.734  1.00  0.00    -0.276 A  
HETATM   27  C   UNL     1      -7.102  19.547  68.416  1.00  0.00    -0.314 C  
HETATM   28  F   UNL     1      -8.117  20.049  67.660  1.00  0.00    -0.313 F  
HETATM   29  F   UNL     1      -7.043  20.315  69.532  1.00  0.00    -0.256 F  
HETATM   30  F   UNL     1      -5.963  19.773  67.713  1.00  0.00    -0.199 F  
ENDBRANCH  15  16
ENDBRANCH   2  15
TORSDOF 4
ENDMDL
MODEL      141
REMARK 921   NORMALIZED FREE ENERGY PREDICTED BY IDOCK:   -5.36 KCAL/MOL
REMARK 922        TOTAL FREE ENERGY PREDICTED BY IDOCK:   -7.68 KCAL/MOL
REMARK 923 INTER-LIGAND FREE ENERGY PREDICTED BY IDOCK:   -6.92 KCAL/MOL
REMARK 924 INTRA-LIGAND FREE ENERGY PREDICTED BY IDOCK:   -0.76 KCAL/MOL
REMARK 927      BINDING AFFINITY PREDICTED BY RF-SCORE:    0.00 PKD
ROOT
HETATM    1  N   UNL     1      -6.994  11.014  67.069  1.00  0.00    -0.109 NA 
HETATM    2  C   UNL     1      -8.266  11.367  67.736  1.00  0.00    -0.125 C  
HETATM    3  H1  UNL     1      -6.615  10.183  67.524  1.00  0.00     0.000 HD 
HETATM    4  H2  UNL     1      -6.332  11.790  67.051  1.00  0.00     0.000 HD 
ENDROOT
BRANCH   2   5
HETATM    5  C   UNL     1      -9.232  10.157  67.690  1.00  0.00    -0.151 C  
BRANCH   5   6
HETATM    6  C   UNL     1     -10.033   9.985  68.962  1.00  0.00    -0.203 A  
HETATM    7  F   UNL     1     -11.985  10.839  67.914  1.00  0.00    -0.304 F  
HETATM    8  C   UNL     1     -11.391  10.324  69.000  1.00  0.00    -0.180 A  
HETATM    9  C   UNL     1     -12.153  10.139  70.149  1.00  0.00    -0.224 A  
HETATM   10  C   UNL     1      -9.434   9.474  70.124  1.00  0.00    -0.287 A  
HETATM   11  C   UNL     1     -10.198   9.278  71.270  1.00  0.00    -0.313 A  
HETATM   12  F   UNL     1     -12.280   9.412  72.385  1.00  0.00    -0.398 F  
HETATM   13  C   UNL     1     -11.549   9.606  71.280  1.00  0.00    -0.393 A  
HETATM   14  F   UNL     1      -9.620   8.767  72.366  1.00  0.00    -0.344 F  
ENDBRANCH   5   6
ENDBRANCH   2   5
BRANCH   2  15
HETATM   15  C   UNL     1      -8.835  12.614  67.053  1.00  0.00    -0.212 C  
BRANCH  15  16
HETATM   16  C   UNL     1      -9.396  13.669  67.997  1.00  0.00    -0.208 C  
HETATM   17  N   UNL     1      -7.887  17.440  67.492  1.00  0.00    -0.194 NA 
HETATM   18  C   UNL     1      -9.129  15.917  68.982  1.00  0.00    -0.240 C  
HETATM   19  N   UNL     1      -8.670  14.852  68.085  1.00  0.00    -0.159 N  
HETATM   20  C   UNL     1      -7.060  16.401  67.155  1.00  0.00    -0.200 A  
HETATM   21  O   UNL     1     -10.442  13.500  68.618  1.00  0.00    -0.243 OA 
HETATM   22  C   UNL     1      -7.302  15.000  67.578  1.00  0.00    -0.202 C  
HETATM   23  C   UNL     1      -9.090  17.280  68.284  1.00  0.00    -0.262 C  
HETATM   24  N   UNL     1      -6.081  16.856  66.412  1.00  0.00    -0.289 NA 
HETATM   25  N   UNL     1      -6.287  18.198  66.222  1.00  0.00    -0.193 NA 
HETATM   26  C   UNL     1      -7.395  18.549  66.856  1.00  0.00    -0.212 A  
HETATM   27  C   UNL     1      -8.017  19.897  66.871  1.00  0.00    -0.306 C  
HETATM   28  F   UNL     1      -9.150  19.939  67.624  1.00  0.00    -0.358 F  
HETATM   29  F   UNL     1      -7.186  20.839  67.382  1.00  0.00    -0.323 F  
HETATM   30  F   UNL     1      -8.376  20.308  65.628  1.00  0.00    -0.287 F  
ENDBRANCH  15  16
ENDBRANCH   2  15
TORSDOF 4
ENDMDL
MODEL      142
REMARK 921   NORMALIZED FREE ENERGY PREDICTED BY IDOCK:   -5.36 KCAL/MOL
REMARK 922        TOTAL FREE ENERGY PREDICTED BY IDOCK:   -7.68 KCAL/MOL
REMARK 923 INTER-LIGAND FREE ENERGY PREDICTED BY IDOCK:   -7.07 KCAL/MOL
REMARK 924 INTRA-LIGAND FREE ENERGY PREDICTED BY IDOCK:   -0.61 KCAL/MOL
REMARK 927      BINDING AFFINITY PREDICTED BY RF-SCORE:    0.00 PKD
ROOT
HETATM    1  N   UNL     1     -12.029   7.230  69.871  1.00  0.00    -0.419 NA 
HETATM    2  C   UNL     1     -10.841   7.800  70.543  1.00  0.00    -0.241 C  
HETATM    3  H1  UNL     1     -12.206   6.306  70.266  1.00  0.00     0.000 HD 
HETATM    4  H2  UNL     1     -11.937   7.214  68.855  1.00  0.00     0.000 HD 
ENDROOT
BRANCH   2   5
HETATM    5  C   UNL     1     -11.070   7.827  72.074  1.00  0.00    -0.318 C  
BRANCH   5   6
HETATM    6  C   UNL     1     -10.646   6.549  72.763  1.00  0.00    -0.257 A  
HETATM    7  F   UNL     1     -12.763   5.556  72.349  1.00  0.00    -0.166 F  
HETATM    8  C   UNL     1     -11.522   5.460  72.849  1.00  0.00    -0.275 A  
HETATM    9  C   UNL     1     -11.138   4.265  73.447  1.00  0.00    -0.371 A  
HETATM   10  C   UNL     1      -9.364   6.426  73.322  1.00  0.00    -0.140 A  
HETATM   11  C   UNL     1      -8.975   5.227  73.910  1.00  0.00    -0.120 A  
HETATM   12  F   UNL     1      -9.474   3.001  74.533  1.00  0.00    -0.100 F  
HETATM   13  C   UNL     1      -9.856   4.153  73.969  1.00  0.00    -0.123 A  
HETATM   14  F   UNL     1      -7.739   5.115  74.419  1.00  0.00    -0.087 F  
ENDBRANCH   5   6
ENDBRANCH   2   5
BRANCH   2  15
HETATM   15  C   UNL     1     -10.576   9.187  69.951  1.00  0.00    -0.246 C  
BRANCH  15  16
HETATM   16  C   UNL     1     -10.497   9.238  68.431  1.00  0.00    -0.206 C  
HETATM   17  N   UNL     1     -11.085  12.936  66.779  1.00  0.00    -0.273 NA 
HETATM   18  C   UNL     1     -11.006  10.505  66.374  1.00  0.00     0.051 C  
HETATM   19  N   UNL     1     -11.025  10.378  67.835  1.00  0.00    -0.280 N  
HETATM   20  C   UNL     1     -11.709  12.696  67.974  1.00  0.00    -0.350 A  
HETATM   21  O   UNL     1      -9.973   8.343  67.773  1.00  0.00    -0.166 OA 
HETATM   22  C   UNL     1     -11.883  11.336  68.540  1.00  0.00    -0.285 C  
HETATM   23  C   UNL     1     -10.518  11.893  65.947  1.00  0.00    -0.258 C  
HETATM   24  N   UNL     1     -12.082  13.836  68.500  1.00  0.00    -0.354 NA 
HETATM   25  N   UNL     1     -11.663  14.840  67.665  1.00  0.00    -0.358 NA 
HETATM   26  C   UNL     1     -11.037  14.297  66.633  1.00  0.00    -0.321 A  
HETATM   27  C   UNL     1     -10.378  15.021  65.517  1.00  0.00    -0.373 C  
HETATM   28  F   UNL     1      -9.828  14.178  64.601  1.00  0.00    -0.351 F  
HETATM   29  F   UNL     1     -11.247  15.809  64.834  1.00  0.00    -0.370 F  
HETATM   30  F   UNL     1      -9.368  15.818  65.950  1.00  0.00    -0.311 F  
ENDBRANCH  15  16
ENDBRANCH   2  15
TORSDOF 4
ENDMDL
MODEL      143
REMARK 921   NORMALIZED FREE ENERGY PREDICTED BY IDOCK:   -5.35 KCAL/MOL
REMARK 922        TOTAL FREE ENERGY PREDICTED BY IDOCK:   -7.67 KCAL/MOL
REMARK 923 INTER-LIGAND FREE ENERGY PREDICTED BY IDOCK:   -7.42 KCAL/MOL
REMARK 924 INTRA-LIGAND FREE ENERGY PREDICTED BY IDOCK:   -0.26 KCAL/MOL
REMARK 927      BINDING AFFINITY PREDICTED BY RF-SCORE:    0.00 PKD
ROOT
HETATM    1  N   UNL     1     -11.952  11.586  70.825  1.00  0.00    -0.419 NA 
HETATM    2  C   UNL     1     -12.477  10.206  70.734  1.00  0.00    -0.326 C  
HETATM    3  H1  UNL     1     -12.559  12.117  71.450  1.00  0.00     0.000 HD 
HETATM    4  H2  UNL     1     -11.844  12.027  69.911  1.00  0.00     0.000 HD 
ENDROOT
BRANCH   2   5
HETATM    5  C   UNL     1     -12.577   9.592  72.151  1.00  0.00    -0.411 C  
BRANCH   5   6
HETATM    6  C   UNL     1     -11.785   8.311  72.303  1.00  0.00    -0.453 A  
HETATM    7  F   UNL     1     -13.402   7.098  71.057  1.00  0.00    -0.416 F  
HETATM    8  C   UNL     1     -12.238   7.119  71.724  1.00  0.00    -0.344 A  
HETATM    9  C   UNL     1     -11.507   5.941  71.822  1.00  0.00    -0.262 A  
HETATM   10  C   UNL     1     -10.577   8.295  73.019  1.00  0.00    -0.072 A  
HETATM   11  C   UNL     1      -9.839   7.118  73.107  1.00  0.00    -0.211 A  
HETATM   12  F   UNL     1      -9.584   4.824  72.596  1.00  0.00    -0.144 F  
HETATM   13  C   UNL     1     -10.300   5.951  72.510  1.00  0.00    -0.196 A  
HETATM   14  F   UNL     1      -8.675   7.122  73.773  1.00  0.00    -0.146 F  
ENDBRANCH   5   6
ENDBRANCH   2   5
BRANCH   2  15
HETATM   15  C   UNL     1     -11.567   9.409  69.797  1.00  0.00     0.094 C  
BRANCH  15  16
HETATM   16  C   UNL     1     -10.215  10.048  69.509  1.00  0.00    -0.234 C  
HETATM   17  N   UNL     1     -10.319  13.298  67.022  1.00  0.00    -0.245 NA 
HETATM   18  C   UNL     1      -8.908  11.562  68.060  1.00  0.00    -0.158 C  
HETATM   19  N   UNL     1     -10.173  10.913  68.420  1.00  0.00    -0.171 N  
HETATM   20  C   UNL     1     -11.304  12.362  66.844  1.00  0.00    -0.333 A  
HETATM   21  O   UNL     1      -9.229   9.840  70.211  1.00  0.00    -0.246 OA 
HETATM   22  C   UNL     1     -11.233  10.992  67.409  1.00  0.00    -0.285 C  
HETATM   23  C   UNL     1      -9.113  13.055  67.788  1.00  0.00    -0.200 C  
HETATM   24  N   UNL     1     -12.274  12.887  66.138  1.00  0.00    -0.508 NA 
HETATM   25  N   UNL     1     -11.945  14.194  65.883  1.00  0.00    -0.392 NA 
HETATM   26  C   UNL     1     -10.772  14.451  66.439  1.00  0.00    -0.306 A  
HETATM   27  C   UNL     1     -10.066  15.757  66.453  1.00  0.00    -0.291 C  
HETATM   28  F   UNL     1      -8.870  15.696  67.099  1.00  0.00    -0.183 F  
HETATM   29  F   UNL     1      -9.800  16.209  65.201  1.00  0.00    -0.241 F  
HETATM   30  F   UNL     1     -10.786  16.721  67.083  1.00  0.00    -0.317 F  
ENDBRANCH  15  16
ENDBRANCH   2  15
TORSDOF 4
ENDMDL
MODEL      144
REMARK 921   NORMALIZED FREE ENERGY PREDICTED BY IDOCK:   -5.35 KCAL/MOL
REMARK 922        TOTAL FREE ENERGY PREDICTED BY IDOCK:   -7.67 KCAL/MOL
REMARK 923 INTER-LIGAND FREE ENERGY PREDICTED BY IDOCK:   -7.19 KCAL/MOL
REMARK 924 INTRA-LIGAND FREE ENERGY PREDICTED BY IDOCK:   -0.48 KCAL/MOL
REMARK 927      BINDING AFFINITY PREDICTED BY RF-SCORE:    0.00 PKD
ROOT
HETATM    1  N   UNL     1     -12.617   6.918  70.316  1.00  0.00    -0.463 NA 
HETATM    2  C   UNL     1     -11.144   6.852  70.434  1.00  0.00    -0.296 C  
HETATM    3  H1  UNL     1     -12.959   5.986  70.082  1.00  0.00     0.000 HD 
HETATM    4  H2  UNL     1     -12.926   7.630  69.654  1.00  0.00     0.000 HD 
ENDROOT
BRANCH   2   5
HETATM    5  C   UNL     1     -10.752   5.781  71.481  1.00  0.00    -0.319 C  
BRANCH   5   6
HETATM    6  C   UNL     1      -9.675   4.837  70.994  1.00  0.00    -0.257 A  
HETATM    7  F   UNL     1      -8.299   5.353  72.859  1.00  0.00    -0.110 F  
HETATM    8  C   UNL     1      -8.497   4.658  71.730  1.00  0.00    -0.113 A  
HETATM    9  C   UNL     1      -7.511   3.767  71.317  1.00  0.00    -0.044 A  
HETATM   10  C   UNL     1      -9.839   4.114  69.801  1.00  0.00    -0.220 A  
HETATM   11  C   UNL     1      -8.859   3.215  69.394  1.00  0.00    -0.096 A  
HETATM   12  F   UNL     1      -6.767   2.171  69.754  1.00  0.00    -0.031 F  
HETATM   13  C   UNL     1      -7.705   3.041  70.149  1.00  0.00    -0.043 A  
HETATM   14  F   UNL     1      -9.039   2.514  68.265  1.00  0.00    -0.135 F  
ENDBRANCH   5   6
ENDBRANCH   2   5
BRANCH   2  15
HETATM   15  C   UNL     1     -10.629   8.250  70.785  1.00  0.00    -0.236 C  
BRANCH  15  16
HETATM   16  C   UNL     1     -10.766   9.287  69.678  1.00  0.00    -0.230 C  
HETATM   17  N   UNL     1     -12.577  12.787  70.783  1.00  0.00    -0.276 NA 
HETATM   18  C   UNL     1     -11.873  11.354  68.904  1.00  0.00    -0.347 C  
HETATM   19  N   UNL     1     -11.665  10.320  69.922  1.00  0.00    -0.245 N  
HETATM   20  C   UNL     1     -12.948  11.664  71.473  1.00  0.00    -0.358 A  
HETATM   21  O   UNL     1     -10.101   9.235  68.647  1.00  0.00    -0.176 OA 
HETATM   22  C   UNL     1     -12.659  10.288  71.001  1.00  0.00    -0.390 C  
HETATM   23  C   UNL     1     -11.854  12.753  69.528  1.00  0.00    -0.316 C  
HETATM   24  N   UNL     1     -13.555  12.020  72.579  1.00  0.00    -0.054 NA 
HETATM   25  N   UNL     1     -13.546  13.390  72.638  1.00  0.00    -0.685 NA 
HETATM   26  C   UNL     1     -12.933  13.856  71.563  1.00  0.00    -0.358 A  
HETATM   27  C   UNL     1     -12.655  15.280  71.249  1.00  0.00    -0.383 C  
HETATM   28  F   UNL     1     -12.014  15.437  70.059  1.00  0.00    -0.280 F  
HETATM   29  F   UNL     1     -13.790  16.018  71.169  1.00  0.00    -0.312 F  
HETATM   30  F   UNL     1     -11.861  15.864  72.183  1.00  0.00    -0.414 F  
ENDBRANCH  15  16
ENDBRANCH   2  15
TORSDOF 4
ENDMDL
MODEL      145
REMARK 921   NORMALIZED FREE ENERGY PREDICTED BY IDOCK:   -5.34 KCAL/MOL
REMARK 922        TOTAL FREE ENERGY PREDICTED BY IDOCK:   -7.66 KCAL/MOL
REMARK 923 INTER-LIGAND FREE ENERGY PREDICTED BY IDOCK:   -7.10 KCAL/MOL
REMARK 924 INTRA-LIGAND FREE ENERGY PREDICTED BY IDOCK:   -0.56 KCAL/MOL
REMARK 927      BINDING AFFINITY PREDICTED BY RF-SCORE:    0.00 PKD
ROOT
HETATM    1  N   UNL     1     -10.075  13.483  68.975  1.00  0.00    -0.427 NA 
HETATM    2  C   UNL     1     -11.077  13.849  67.951  1.00  0.00    -0.258 C  
HETATM    3  H1  UNL     1     -10.557  13.003  69.735  1.00  0.00     0.000 HD 
HETATM    4  H2  UNL     1      -9.531  14.284  69.297  1.00  0.00     0.000 HD 
ENDROOT
BRANCH   2   5
HETATM    5  C   UNL     1     -11.834  12.582  67.485  1.00  0.00    -0.389 C  
BRANCH   5   6
HETATM    6  C   UNL     1     -11.070  11.302  67.743  1.00  0.00    -0.328 A  
HETATM    7  F   UNL     1     -10.023  11.430  65.616  1.00  0.00    -0.231 F  
HETATM    8  C   UNL     1     -10.179  10.797  66.788  1.00  0.00    -0.230 A  
HETATM    9  C   UNL     1      -9.441   9.642  67.022  1.00  0.00    -0.195 A  
HETATM   10  C   UNL     1     -11.232  10.600  68.949  1.00  0.00    -0.333 A  
HETATM   11  C   UNL     1     -10.485   9.451  69.189  1.00  0.00    -0.217 A  
HETATM   12  F   UNL     1      -8.876   7.873  68.472  1.00  0.00    -0.132 F  
HETATM   13  C   UNL     1      -9.594   8.978  68.233  1.00  0.00    -0.145 A  
HETATM   14  F   UNL     1     -10.631   8.804  70.354  1.00  0.00    -0.203 F  
ENDBRANCH   5   6
ENDBRANCH   2   5
BRANCH   2  15
HETATM   15  C   UNL     1     -10.354  14.570  66.810  1.00  0.00    -0.269 C  
BRANCH  15  16
HETATM   16  C   UNL     1      -8.841  14.656  66.955  1.00  0.00    -0.242 C  
HETATM   17  N   UNL     1      -7.394  18.349  67.965  1.00  0.00    -0.241 NA 
HETATM   18  C   UNL     1      -6.853  16.115  67.071  1.00  0.00    -0.181 C  
HETATM   19  N   UNL     1      -8.303  15.939  66.952  1.00  0.00    -0.221 N  
HETATM   20  C   UNL     1      -8.565  18.326  67.256  1.00  0.00    -0.254 A  
HETATM   21  O   UNL     1      -8.140  13.658  67.097  1.00  0.00    -0.160 OA 
HETATM   22  C   UNL     1      -9.051  17.127  66.529  1.00  0.00    -0.269 C  
HETATM   23  C   UNL     1      -6.512  17.206  68.092  1.00  0.00    -0.147 C  
HETATM   24  N   UNL     1      -9.151  19.494  67.355  1.00  0.00    -0.301 NA 
HETATM   25  N   UNL     1      -8.380  20.280  68.172  1.00  0.00    -0.102 NA 
HETATM   26  C   UNL     1      -7.327  19.580  68.562  1.00  0.00    -0.333 A  
HETATM   27  C   UNL     1      -6.262  20.027  69.495  1.00  0.00    -0.341 C  
HETATM   28  F   UNL     1      -5.307  19.077  69.690  1.00  0.00    -0.185 F  
HETATM   29  F   UNL     1      -5.615  21.130  69.042  1.00  0.00    -0.370 F  
HETATM   30  F   UNL     1      -6.753  20.326  70.725  1.00  0.00    -0.392 F  
ENDBRANCH  15  16
ENDBRANCH   2  15
TORSDOF 4
ENDMDL
MODEL      146
REMARK 921   NORMALIZED FREE ENERGY PREDICTED BY IDOCK:   -5.32 KCAL/MOL
REMARK 922        TOTAL FREE ENERGY PREDICTED BY IDOCK:   -7.63 KCAL/MOL
REMARK 923 INTER-LIGAND FREE ENERGY PREDICTED BY IDOCK:   -7.17 KCAL/MOL
REMARK 924 INTRA-LIGAND FREE ENERGY PREDICTED BY IDOCK:   -0.46 KCAL/MOL
REMARK 927      BINDING AFFINITY PREDICTED BY RF-SCORE:    0.00 PKD
ROOT
HETATM    1  N   UNL     1      -7.307  10.718  64.845  1.00  0.00    -0.352 NA 
HETATM    2  C   UNL     1      -8.208  10.831  66.013  1.00  0.00    -0.164 C  
HETATM    3  H1  UNL     1      -6.346  10.815  65.174  1.00  0.00     0.000 HD 
HETATM    4  H2  UNL     1      -7.539  11.381  64.105  1.00  0.00     0.000 HD 
ENDROOT
BRANCH   2   5
HETATM    5  C   UNL     1      -7.821   9.773  67.075  1.00  0.00    -0.102 C  
BRANCH   5   6
HETATM    6  C   UNL     1      -8.456   8.422  66.830  1.00  0.00    -0.117 A  
HETATM    7  F   UNL     1      -6.621   7.737  65.490  1.00  0.00    -0.043 F  
HETATM    8  C   UNL     1      -7.804   7.456  66.054  1.00  0.00    -0.102 A  
HETATM    9  C   UNL     1      -8.356   6.197  65.848  1.00  0.00    -0.140 A  
HETATM   10  C   UNL     1      -9.708   8.107  67.385  1.00  0.00    -0.221 A  
HETATM   11  C   UNL     1     -10.255   6.843  67.188  1.00  0.00    -0.240 A  
HETATM   12  F   UNL     1     -10.112   4.679  66.246  1.00  0.00    -0.175 F  
HETATM   13  C   UNL     1      -9.582   5.894  66.428  1.00  0.00    -0.146 A  
HETATM   14  F   UNL     1     -11.440   6.547  67.743  1.00  0.00    -0.369 F  
ENDBRANCH   5   6
ENDBRANCH   2   5
BRANCH   2  15
HETATM   15  C   UNL     1      -9.650  10.686  65.520  1.00  0.00    -0.271 C  
BRANCH  15  16
HETATM   16  C   UNL     1     -10.150  11.823  64.639  1.00  0.00    -0.272 C  
HETATM   17  N   UNL     1     -10.752  15.385  66.562  1.00  0.00    -0.307 NA 
HETATM   18  C   UNL     1     -11.205  14.053  64.537  1.00  0.00    -0.350 C  
HETATM   19  N   UNL     1     -10.685  12.919  65.308  1.00  0.00    -0.289 N  
HETATM   20  C   UNL     1     -10.903  14.252  67.316  1.00  0.00    -0.284 A  
HETATM   21  O   UNL     1     -10.058  11.790  63.414  1.00  0.00    -0.388 OA 
HETATM   22  C   UNL     1     -11.053  12.899  66.727  1.00  0.00    -0.281 C  
HETATM   23  C   UNL     1     -10.711  15.384  65.114  1.00  0.00    -0.440 C  
HETATM   24  N   UNL     1     -10.869  14.573  68.586  1.00  0.00    -0.243 NA 
HETATM   25  N   UNL     1     -10.652  15.924  68.671  1.00  0.00    -0.239 NA 
HETATM   26  C   UNL     1     -10.557  16.415  67.445  1.00  0.00    -0.306 A  
HETATM   27  C   UNL     1     -10.271  17.824  67.075  1.00  0.00    -0.346 C  
HETATM   28  F   UNL     1     -10.246  18.014  65.728  1.00  0.00    -0.319 F  
HETATM   29  F   UNL     1     -11.203  18.680  67.563  1.00  0.00    -0.410 F  
HETATM   30  F   UNL     1      -9.063  18.239  67.536  1.00  0.00    -0.249 F  
ENDBRANCH  15  16
ENDBRANCH   2  15
TORSDOF 4
ENDMDL
MODEL      147
REMARK 921   NORMALIZED FREE ENERGY PREDICTED BY IDOCK:   -5.32 KCAL/MOL
REMARK 922        TOTAL FREE ENERGY PREDICTED BY IDOCK:   -7.63 KCAL/MOL
REMARK 923 INTER-LIGAND FREE ENERGY PREDICTED BY IDOCK:   -6.96 KCAL/MOL
REMARK 924 INTRA-LIGAND FREE ENERGY PREDICTED BY IDOCK:   -0.67 KCAL/MOL
REMARK 927      BINDING AFFINITY PREDICTED BY RF-SCORE:    0.00 PKD
ROOT
HETATM    1  N   UNL     1      -8.858   6.517  67.872  1.00  0.00    -0.115 NA 
HETATM    2  C   UNL     1      -8.909   7.547  68.933  1.00  0.00    -0.135 C  
HETATM    3  H1  UNL     1      -9.168   5.631  68.274  1.00  0.00     0.000 HD 
HETATM    4  H2  UNL     1      -7.940   6.451  67.433  1.00  0.00     0.000 HD 
ENDROOT
BRANCH   2   5
HETATM    5  C   UNL     1     -10.338   7.616  69.525  1.00  0.00    -0.217 C  
BRANCH   5   6
HETATM    6  C   UNL     1     -10.482   6.857  70.825  1.00  0.00    -0.238 A  
HETATM    7  F   UNL     1     -10.673   8.881  72.051  1.00  0.00    -0.360 F  
HETATM    8  C   UNL     1     -10.662   7.540  72.034  1.00  0.00    -0.225 A  
HETATM    9  C   UNL     1     -10.833   6.860  73.235  1.00  0.00    -0.321 A  
HETATM   10  C   UNL     1     -10.447   5.453  70.845  1.00  0.00    -0.307 A  
HETATM   11  C   UNL     1     -10.629   4.771  72.044  1.00  0.00    -0.106 A  
HETATM   12  F   UNL     1     -11.001   4.808  74.379  1.00  0.00    -0.324 F  
HETATM   13  C   UNL     1     -10.823   5.471  73.230  1.00  0.00    -0.293 A  
HETATM   14  F   UNL     1     -10.618   3.430  72.045  1.00  0.00    -0.163 F  
ENDBRANCH   5   6
ENDBRANCH   2   5
BRANCH   2  15
HETATM   15  C   UNL     1      -8.445   8.876  68.331  1.00  0.00    -0.129 C  
BRANCH  15  16
HETATM   16  C   UNL     1      -8.751   9.059  66.850  1.00  0.00    -0.123 C  
HETATM   17  N   UNL     1     -11.029  12.333  65.932  1.00  0.00    -0.290 NA 
HETATM   18  C   UNL     1     -10.160  10.162  65.149  1.00  0.00    -0.259 C  
HETATM   19  N   UNL     1      -9.786   9.938  66.549  1.00  0.00    -0.202 N  
HETATM   20  C   UNL     1     -11.220  11.785  67.173  1.00  0.00    -0.316 A  
HETATM   21  O   UNL     1      -8.106   8.490  65.974  1.00  0.00    -0.102 OA 
HETATM   22  C   UNL     1     -10.744  10.431  67.545  1.00  0.00    -0.287 C  
HETATM   23  C   UNL     1     -10.332  11.656  64.857  1.00  0.00    -0.283 C  
HETATM   24  N   UNL     1     -11.851  12.648  67.931  1.00  0.00    -0.353 NA 
HETATM   25  N   UNL     1     -12.040  13.791  67.197  1.00  0.00    -0.398 NA 
HETATM   26  C   UNL     1     -11.521  13.610  65.993  1.00  0.00    -0.324 A  
HETATM   27  C   UNL     1     -11.457  14.610  64.897  1.00  0.00    -0.401 C  
HETATM   28  F   UNL     1     -10.868  14.116  63.774  1.00  0.00     0.048 F  
HETATM   29  F   UNL     1     -12.689  15.038  64.523  1.00  0.00    -0.408 F  
HETATM   30  F   UNL     1     -10.739  15.708  65.247  1.00  0.00    -0.327 F  
ENDBRANCH  15  16
ENDBRANCH   2  15
TORSDOF 4
ENDMDL
MODEL      148
REMARK 921   NORMALIZED FREE ENERGY PREDICTED BY IDOCK:   -5.31 KCAL/MOL
REMARK 922        TOTAL FREE ENERGY PREDICTED BY IDOCK:   -7.62 KCAL/MOL
REMARK 923 INTER-LIGAND FREE ENERGY PREDICTED BY IDOCK:   -7.00 KCAL/MOL
REMARK 924 INTRA-LIGAND FREE ENERGY PREDICTED BY IDOCK:   -0.62 KCAL/MOL
REMARK 927      BINDING AFFINITY PREDICTED BY RF-SCORE:    0.00 PKD
ROOT
HETATM    1  N   UNL     1      -8.773  15.160  69.980  1.00  0.00    -0.308 NA 
HETATM    2  C   UNL     1      -9.095  16.116  68.898  1.00  0.00    -0.246 C  
HETATM    3  H1  UNL     1      -9.051  15.579  70.868  1.00  0.00     0.000 HD 
HETATM    4  H2  UNL     1      -7.794  14.871  69.971  1.00  0.00     0.000 HD 
ENDROOT
BRANCH   2   5
HETATM    5  C   UNL     1     -10.599  16.477  68.953  1.00  0.00    -0.326 C  
BRANCH   5   6
HETATM    6  C   UNL     1     -11.369  15.675  69.979  1.00  0.00    -0.341 A  
HETATM    7  F   UNL     1     -11.946  14.044  68.353  1.00  0.00    -0.345 F  
HETATM    8  C   UNL     1     -11.996  14.474  69.622  1.00  0.00    -0.328 A  
HETATM    9  C   UNL     1     -12.677  13.704  70.559  1.00  0.00    -0.260 A  
HETATM   10  C   UNL     1     -11.462  16.113  71.310  1.00  0.00    -0.433 A  
HETATM   11  C   UNL     1     -12.134  15.337  72.250  1.00  0.00    -0.401 A  
HETATM   12  F   UNL     1     -13.376  13.397  72.787  1.00  0.00    -0.592 F  
HETATM   13  C   UNL     1     -12.734  14.140  71.877  1.00  0.00    -0.320 A  
HETATM   14  F   UNL     1     -12.195  15.755  73.523  1.00  0.00    -0.463 F  
ENDBRANCH   5   6
ENDBRANCH   2   5
BRANCH   2  15
HETATM   15  C   UNL     1      -8.677  15.488  67.565  1.00  0.00    -0.183 C  
BRANCH  15  16
HETATM   16  C   UNL     1      -7.588  14.428  67.663  1.00  0.00    -0.179 C  
HETATM   17  N   UNL     1      -8.363  10.944  65.660  1.00  0.00    -0.142 NA 
HETATM   18  C   UNL     1      -6.981  12.052  67.375  1.00  0.00    -0.139 C  
HETATM   19  N   UNL     1      -7.962  13.139  67.298  1.00  0.00    -0.162 N  
HETATM   20  C   UNL     1      -9.451  11.640  66.117  1.00  0.00    -0.224 A  
HETATM   21  O   UNL     1      -6.442  14.699  68.011  1.00  0.00    -0.122 OA 
HETATM   22  C   UNL     1      -9.357  12.719  67.130  1.00  0.00    -0.216 C  
HETATM   23  C   UNL     1      -7.008  11.194  66.107  1.00  0.00    -0.000 C  
HETATM   24  N   UNL     1     -10.526  11.207  65.506  1.00  0.00    -0.266 NA 
HETATM   25  N   UNL     1     -10.138  10.246  64.607  1.00  0.00    -0.321 NA 
HETATM   26  C   UNL     1      -8.825  10.103  64.683  1.00  0.00    -0.196 A  
HETATM   27  C   UNL     1      -7.983   9.207  63.850  1.00  0.00    -0.142 C  
HETATM   28  F   UNL     1      -6.664   9.279  64.177  1.00  0.00    -0.085 F  
HETATM   29  F   UNL     1      -8.336   7.904  63.982  1.00  0.00    -0.139 F  
HETATM   30  F   UNL     1      -8.061   9.513  62.530  1.00  0.00    -0.120 F  
ENDBRANCH  15  16
ENDBRANCH   2  15
TORSDOF 4
ENDMDL
MODEL      149
REMARK 921   NORMALIZED FREE ENERGY PREDICTED BY IDOCK:   -5.28 KCAL/MOL
REMARK 922        TOTAL FREE ENERGY PREDICTED BY IDOCK:   -7.58 KCAL/MOL
REMARK 923 INTER-LIGAND FREE ENERGY PREDICTED BY IDOCK:   -7.07 KCAL/MOL
REMARK 924 INTRA-LIGAND FREE ENERGY PREDICTED BY IDOCK:   -0.52 KCAL/MOL
REMARK 927      BINDING AFFINITY PREDICTED BY RF-SCORE:    0.00 PKD
ROOT
HETATM    1  N   UNL     1      -9.579  15.686  70.342  1.00  0.00     0.140 NA 
HETATM    2  C   UNL     1     -10.522  16.448  69.495  1.00  0.00    -0.301 C  
HETATM    3  H1  UNL     1     -10.121  15.162  71.029  1.00  0.00     0.000 HD 
HETATM    4  H2  UNL     1      -8.867  16.278  70.769  1.00  0.00     0.000 HD 
ENDROOT
BRANCH   2   5
HETATM    5  C   UNL     1     -11.545  15.481  68.852  1.00  0.00    -0.384 C  
BRANCH   5   6
HETATM    6  C   UNL     1     -12.109  14.473  69.829  1.00  0.00    -0.380 A  
HETATM    7  F   UNL     1     -11.462  12.669  68.428  1.00  0.00    -0.260 F  
HETATM    8  C   UNL     1     -12.019  13.100  69.569  1.00  0.00    -0.294 A  
HETATM    9  C   UNL     1     -12.499  12.157  70.471  1.00  0.00    -0.282 A  
HETATM   10  C   UNL     1     -12.723  14.893  71.020  1.00  0.00    -0.412 A  
HETATM   11  C   UNL     1     -13.193  13.950  71.929  1.00  0.00    -0.397 A  
HETATM   12  F   UNL     1     -13.529  11.689  72.537  1.00  0.00    -0.511 F  
HETATM   13  C   UNL     1     -13.078  12.591  71.657  1.00  0.00    -0.315 A  
HETATM   14  F   UNL     1     -13.756  14.364  73.073  1.00  0.00    -0.525 F  
ENDBRANCH   5   6
ENDBRANCH   2   5
BRANCH   2  15
HETATM   15  C   UNL     1      -9.710  17.235  68.463  1.00  0.00    -0.296 C  
BRANCH  15  16
HETATM   16  C   UNL     1     -10.150  17.051  67.016  1.00  0.00    -0.295 C  
HETATM   17  N   UNL     1      -9.714  13.264  65.529  1.00  0.00    -0.116 NA 
HETATM   18  C   UNL     1     -10.065  15.644  64.990  1.00  0.00    -0.067 C  
HETATM   19  N   UNL     1      -9.701  15.895  66.388  1.00  0.00    -0.266 N  
HETATM   20  C   UNL     1      -8.838  13.637  66.513  1.00  0.00     0.023 A  
HETATM   21  O   UNL     1     -10.883  17.857  66.449  1.00  0.00    -0.180 OA 
HETATM   22  C   UNL     1      -8.631  15.047  66.923  1.00  0.00    -0.249 C  
HETATM   23  C   UNL     1     -10.539  14.201  64.794  1.00  0.00    -0.418 C  
HETATM   24  N   UNL     1      -8.266  12.567  67.008  1.00  0.00    -0.159 NA 
HETATM   25  N   UNL     1      -8.801  11.475  66.374  1.00  0.00    -0.192 NA 
HETATM   26  C   UNL     1      -9.696  11.894  65.494  1.00  0.00    -0.215 A  
HETATM   27  C   UNL     1     -10.551  11.044  64.628  1.00  0.00    -0.299 C  
HETATM   28  F   UNL     1     -11.367  11.776  63.821  1.00  0.00    -0.402 F  
HETATM   29  F   UNL     1      -9.819  10.249  63.808  1.00  0.00    -0.341 F  
HETATM   30  F   UNL     1     -11.366  10.234  65.351  1.00  0.00     0.328 F  
ENDBRANCH  15  16
ENDBRANCH   2  15
TORSDOF 4
ENDMDL
MODEL      150
REMARK 921   NORMALIZED FREE ENERGY PREDICTED BY IDOCK:   -5.28 KCAL/MOL
REMARK 922        TOTAL FREE ENERGY PREDICTED BY IDOCK:   -7.58 KCAL/MOL
REMARK 923 INTER-LIGAND FREE ENERGY PREDICTED BY IDOCK:   -7.61 KCAL/MOL
REMARK 924 INTRA-LIGAND FREE ENERGY PREDICTED BY IDOCK:    0.03 KCAL/MOL
REMARK 927      BINDING AFFINITY PREDICTED BY RF-SCORE:    0.00 PKD
ROOT
HETATM    1  N   UNL     1     -13.527  10.092  70.530  1.00  0.00    -0.499 NA 
HETATM    2  C   UNL     1     -12.591  10.934  71.306  1.00  0.00    -0.421 C  
HETATM    3  H1  UNL     1     -14.300   9.829  71.141  1.00  0.00     0.000 HD 
HETATM    4  H2  UNL     1     -13.069   9.286  70.104  1.00  0.00     0.000 HD 
ENDROOT
BRANCH   2   5
HETATM    5  C   UNL     1     -13.346  12.154  71.887  1.00  0.00    -0.421 C  
BRANCH   5   6
HETATM    6  C   UNL     1     -12.813  13.479  71.389  1.00  0.00    -0.440 A  
HETATM    7  F   UNL     1     -12.620  14.301  73.608  1.00  0.00    -0.516 F  
HETATM    8  C   UNL     1     -12.457  14.490  72.290  1.00  0.00    -0.271 A  
HETATM    9  C   UNL     1     -11.931  15.701  71.853  1.00  0.00    -0.530 A  
HETATM   10  C   UNL     1     -12.656  13.718  70.014  1.00  0.00    -0.207 A  
HETATM   11  C   UNL     1     -12.119  14.925  69.576  1.00  0.00    -0.279 A  
HETATM   12  F   UNL     1     -11.238  17.065  70.063  1.00  0.00    -0.167 F  
HETATM   13  C   UNL     1     -11.757  15.908  70.490  1.00  0.00    -0.373 A  
HETATM   14  F   UNL     1     -11.952  15.131  68.262  1.00  0.00    -0.346 F  
ENDBRANCH   5   6
ENDBRANCH   2   5
BRANCH   2  15
HETATM   15  C   UNL     1     -11.430  11.329  70.389  1.00  0.00    -0.203 C  
BRANCH  15  16
HETATM   16  C   UNL     1     -11.229  10.430  69.176  1.00  0.00    -0.246 C  
HETATM   17  N   UNL     1      -9.481   6.813  69.958  1.00  0.00    -0.158 NA 
HETATM   18  C   UNL     1     -10.078   8.464  68.226  1.00  0.00    -0.199 C  
HETATM   19  N   UNL     1     -10.344   9.371  69.346  1.00  0.00    -0.204 N  
HETATM   20  C   UNL     1      -9.151   7.844  70.797  1.00  0.00    -0.152 A  
HETATM   21  O   UNL     1     -11.833  10.610  68.122  1.00  0.00    -0.482 OA 
HETATM   22  C   UNL     1      -9.414   9.268  70.476  1.00  0.00    -0.264 C  
HETATM   23  C   UNL     1     -10.131   7.000  68.677  1.00  0.00    -0.166 C  
HETATM   24  N   UNL     1      -8.608   7.356  71.885  1.00  0.00    -0.110 NA 
HETATM   25  N   UNL     1      -8.619   5.988  71.781  1.00  0.00    -0.134 NA 
HETATM   26  C   UNL     1      -9.170   5.657  70.624  1.00  0.00    -0.151 A  
HETATM   27  C   UNL     1      -9.428   4.282  70.128  1.00  0.00    -0.182 C  
HETATM   28  F   UNL     1     -10.000   4.272  68.893  1.00  0.00    -0.235 F  
HETATM   29  F   UNL     1      -8.289   3.552  70.026  1.00  0.00    -0.057 F  
HETATM   30  F   UNL     1     -10.274   3.596  70.939  1.00  0.00    -0.203 F  
ENDBRANCH  15  16
ENDBRANCH   2  15
TORSDOF 4
ENDMDL
MODEL      151
REMARK 921   NORMALIZED FREE ENERGY PREDICTED BY IDOCK:   -5.28 KCAL/MOL
REMARK 922        TOTAL FREE ENERGY PREDICTED BY IDOCK:   -7.58 KCAL/MOL
REMARK 923 INTER-LIGAND FREE ENERGY PREDICTED BY IDOCK:   -6.87 KCAL/MOL
REMARK 924 INTRA-LIGAND FREE ENERGY PREDICTED BY IDOCK:   -0.71 KCAL/MOL
REMARK 927      BINDING AFFINITY PREDICTED BY RF-SCORE:    0.00 PKD
ROOT
HETATM    1  N   UNL     1     -10.661  10.352  65.966  1.00  0.00    -0.124 NA 
HETATM    2  C   UNL     1     -10.737  10.338  67.443  1.00  0.00    -0.281 C  
HETATM    3  H1  UNL     1     -11.334  11.036  65.619  1.00  0.00     0.000 HD 
HETATM    4  H2  UNL     1     -10.793   9.426  65.557  1.00  0.00     0.000 HD 
ENDROOT
BRANCH   2   5
HETATM    5  C   UNL     1     -10.490  11.765  67.991  1.00  0.00    -0.221 C  
BRANCH   5   6
HETATM    6  C   UNL     1     -11.310  12.081  69.223  1.00  0.00    -0.330 A  
HETATM    7  F   UNL     1     -11.211  14.407  68.762  1.00  0.00    -0.230 F  
HETATM    8  C   UNL     1     -11.646  13.403  69.537  1.00  0.00    -0.290 A  
HETATM    9  C   UNL     1     -12.429  13.710  70.644  1.00  0.00    -0.417 A  
HETATM   10  C   UNL     1     -11.758  11.053  70.070  1.00  0.00    -0.437 A  
HETATM   11  C   UNL     1     -12.551  11.359  71.171  1.00  0.00    -0.386 A  
HETATM   12  F   UNL     1     -13.652  12.965  72.514  1.00  0.00    -0.615 F  
HETATM   13  C   UNL     1     -12.886  12.678  71.454  1.00  0.00    -0.261 A  
HETATM   14  F   UNL     1     -12.992  10.367  71.958  1.00  0.00    -0.485 F  
ENDBRANCH   5   6
ENDBRANCH   2   5
BRANCH   2  15
HETATM   15  C   UNL     1      -9.727   9.312  67.964  1.00  0.00    -0.172 C  
BRANCH  15  16
HETATM   16  C   UNL     1     -10.219   7.871  67.980  1.00  0.00    -0.208 C  
HETATM   17  N   UNL     1      -9.428   5.798  71.419  1.00  0.00    -0.150 NA 
HETATM   18  C   UNL     1     -10.077   5.648  69.046  1.00  0.00    -0.195 C  
HETATM   19  N   UNL     1      -9.673   7.055  68.966  1.00  0.00    -0.145 N  
HETATM   20  C   UNL     1      -8.550   6.798  71.095  1.00  0.00    -0.132 A  
HETATM   21  O   UNL     1     -11.067   7.461  67.193  1.00  0.00    -0.263 OA 
HETATM   22  C   UNL     1      -8.485   7.415  69.747  1.00  0.00    -0.136 C  
HETATM   23  C   UNL     1     -10.392   5.246  70.490  1.00  0.00    -0.266 C  
HETATM   24  N   UNL     1      -7.834   7.100  72.149  1.00  0.00    -0.091 NA 
HETATM   25  N   UNL     1      -8.272   6.322  73.190  1.00  0.00    -0.116 NA 
HETATM   26  C   UNL     1      -9.254   5.549  72.756  1.00  0.00    -0.133 A  
HETATM   27  C   UNL     1     -10.050   4.591  73.563  1.00  0.00    -0.158 C  
HETATM   28  F   UNL     1     -10.985   3.936  72.822  1.00  0.00    -0.234 F  
HETATM   29  F   UNL     1      -9.275   3.633  74.130  1.00  0.00    -0.089 F  
HETATM   30  F   UNL     1     -10.727   5.206  74.566  1.00  0.00    -0.303 F  
ENDBRANCH  15  16
ENDBRANCH   2  15
TORSDOF 4
ENDMDL
MODEL      152
REMARK 921   NORMALIZED FREE ENERGY PREDICTED BY IDOCK:   -5.27 KCAL/MOL
REMARK 922        TOTAL FREE ENERGY PREDICTED BY IDOCK:   -7.57 KCAL/MOL
REMARK 923 INTER-LIGAND FREE ENERGY PREDICTED BY IDOCK:   -6.96 KCAL/MOL
REMARK 924 INTRA-LIGAND FREE ENERGY PREDICTED BY IDOCK:   -0.61 KCAL/MOL
REMARK 927      BINDING AFFINITY PREDICTED BY RF-SCORE:    0.00 PKD
ROOT
HETATM    1  N   UNL     1     -12.978   7.287  72.282  1.00  0.00    -0.505 NA 
HETATM    2  C   UNL     1     -11.524   7.500  72.116  1.00  0.00    -0.291 C  
HETATM    3  H1  UNL     1     -13.137   6.294  72.456  1.00  0.00     0.000 HD 
HETATM    4  H2  UNL     1     -13.521   7.641  71.494  1.00  0.00     0.000 HD 
ENDROOT
BRANCH   2   5
HETATM    5  C   UNL     1     -10.773   6.975  73.363  1.00  0.00    -0.379 C  
BRANCH   5   6
HETATM    6  C   UNL     1      -9.377   6.482  73.055  1.00  0.00    -0.145 A  
HETATM    7  F   UNL     1      -8.419   8.458  73.957  1.00  0.00    -0.306 F  
HETATM    8  C   UNL     1      -8.257   7.254  73.390  1.00  0.00    -0.112 A  
HETATM    9  C   UNL     1      -6.965   6.801  73.148  1.00  0.00    -0.075 A  
HETATM   10  C   UNL     1      -9.175   5.237  72.437  1.00  0.00    -0.154 A  
HETATM   11  C   UNL     1      -7.882   4.779  72.205  1.00  0.00    -0.104 A  
HETATM   12  F   UNL     1      -5.544   5.107  72.338  1.00  0.00    -0.013 F  
HETATM   13  C   UNL     1      -6.785   5.555  72.561  1.00  0.00    -0.075 A  
HETATM   14  F   UNL     1      -7.703   3.578  71.635  1.00  0.00    -0.052 F  
ENDBRANCH   5   6
ENDBRANCH   2   5
BRANCH   2  15
HETATM   15  C   UNL     1     -11.286   8.990  71.856  1.00  0.00    -0.438 C  
BRANCH  15  16
HETATM   16  C   UNL     1     -11.128   9.375  70.390  1.00  0.00    -0.261 C  
HETATM   17  N   UNL     1     -11.604  13.357  69.572  1.00  0.00    -0.293 NA 
HETATM   18  C   UNL     1     -11.521  11.074  68.643  1.00  0.00    -0.308 C  
HETATM   19  N   UNL     1     -11.617  10.628  70.036  1.00  0.00    -0.297 N  
HETATM   20  C   UNL     1     -12.291  12.870  70.652  1.00  0.00    -0.302 A  
HETATM   21  O   UNL     1     -10.576   8.638  69.577  1.00  0.00    -0.223 OA 
HETATM   22  C   UNL     1     -12.504  11.421  70.893  1.00  0.00    -0.379 C  
HETATM   23  C   UNL     1     -11.002  12.513  68.559  1.00  0.00    -0.249 C  
HETATM   24  N   UNL     1     -12.684  13.872  71.399  1.00  0.00    -0.351 NA 
HETATM   25  N   UNL     1     -12.215  15.028  70.829  1.00  0.00    -0.302 NA 
HETATM   26  C   UNL     1     -11.540  14.715  69.735  1.00  0.00    -0.296 A  
HETATM   27  C   UNL     1     -10.819  15.656  68.840  1.00  0.00    -0.252 C  
HETATM   28  F   UNL     1     -10.227  15.026  67.789  1.00  0.00    -0.230 F  
HETATM   29  F   UNL     1     -11.645  16.590  68.307  1.00  0.00    -0.334 F  
HETATM   30  F   UNL     1      -9.827  16.319  69.488  1.00  0.00    -0.234 F  
ENDBRANCH  15  16
ENDBRANCH   2  15
TORSDOF 4
ENDMDL
MODEL      153
REMARK 921   NORMALIZED FREE ENERGY PREDICTED BY IDOCK:   -5.27 KCAL/MOL
REMARK 922        TOTAL FREE ENERGY PREDICTED BY IDOCK:   -7.57 KCAL/MOL
REMARK 923 INTER-LIGAND FREE ENERGY PREDICTED BY IDOCK:   -7.08 KCAL/MOL
REMARK 924 INTRA-LIGAND FREE ENERGY PREDICTED BY IDOCK:   -0.49 KCAL/MOL
REMARK 927      BINDING AFFINITY PREDICTED BY RF-SCORE:    0.00 PKD
ROOT
HETATM    1  N   UNL     1      -9.849   7.043  66.118  1.00  0.00    -0.413 NA 
HETATM    2  C   UNL     1      -9.702   7.105  67.589  1.00  0.00    -0.143 C  
HETATM    3  H1  UNL     1     -10.036   6.075  65.857  1.00  0.00     0.000 HD 
HETATM    4  H2  UNL     1      -9.046   7.436  65.627  1.00  0.00     0.000 HD 
ENDROOT
BRANCH   2   5
HETATM    5  C   UNL     1     -10.971   6.529  68.264  1.00  0.00    -0.362 C  
BRANCH   5   6
HETATM    6  C   UNL     1     -10.679   5.799  69.557  1.00  0.00    -0.408 A  
HETATM    7  F   UNL     1     -11.717   7.516  70.827  1.00  0.00    -0.294 F  
HETATM    8  C   UNL     1     -11.090   6.332  70.785  1.00  0.00    -0.316 A  
HETATM    9  C   UNL     1     -10.863   5.659  71.981  1.00  0.00    -0.300 A  
HETATM   10  C   UNL     1     -10.000   4.570  69.550  1.00  0.00    -0.235 A  
HETATM   11  C   UNL     1      -9.783   3.891  70.745  1.00  0.00    -0.185 A  
HETATM   12  F   UNL     1     -10.006   3.770  73.096  1.00  0.00    -0.140 F  
HETATM   13  C   UNL     1     -10.215   4.430  71.951  1.00  0.00    -0.146 A  
HETATM   14  F   UNL     1      -9.155   2.706  70.722  1.00  0.00    -0.131 F  
ENDBRANCH   5   6
ENDBRANCH   2   5
BRANCH   2  15
HETATM   15  C   UNL     1      -9.421   8.558  67.981  1.00  0.00    -0.154 C  
BRANCH  15  16
HETATM   16  C   UNL     1      -9.606   9.577  66.864  1.00  0.00    -0.165 C  
HETATM   17  N   UNL     1     -11.072  13.211  68.046  1.00  0.00    -0.252 NA 
HETATM   18  C   UNL     1     -10.655  11.694  66.147  1.00  0.00    -0.262 C  
HETATM   19  N   UNL     1     -10.410  10.671  67.168  1.00  0.00    -0.216 N  
HETATM   20  C   UNL     1     -11.440  12.129  68.802  1.00  0.00    -0.307 A  
HETATM   21  O   UNL     1      -9.055   9.458  65.773  1.00  0.00    -0.170 OA 
HETATM   22  C   UNL     1     -11.287  10.728  68.342  1.00  0.00    -0.302 C  
HETATM   23  C   UNL     1     -10.485  13.102  66.726  1.00  0.00    -0.261 C  
HETATM   24  N   UNL     1     -11.908  12.548  69.952  1.00  0.00    -0.329 NA 
HETATM   25  N   UNL     1     -11.807  13.916  69.971  1.00  0.00    -0.308 NA 
HETATM   26  C   UNL     1     -11.279  14.317  68.827  1.00  0.00    -0.262 A  
HETATM   27  C   UNL     1     -10.946  15.713  68.446  1.00  0.00    -0.308 C  
HETATM   28  F   UNL     1     -10.421  15.801  67.193  1.00  0.00    -0.280 F  
HETATM   29  F   UNL     1     -12.036  16.521  68.460  1.00  0.00    -0.211 F  
HETATM   30  F   UNL     1     -10.026  16.265  69.279  1.00  0.00    -0.220 F  
ENDBRANCH  15  16
ENDBRANCH   2  15
TORSDOF 4
ENDMDL
MODEL      154
REMARK 921   NORMALIZED FREE ENERGY PREDICTED BY IDOCK:   -5.26 KCAL/MOL
REMARK 922        TOTAL FREE ENERGY PREDICTED BY IDOCK:   -7.56 KCAL/MOL
REMARK 923 INTER-LIGAND FREE ENERGY PREDICTED BY IDOCK:   -7.08 KCAL/MOL
REMARK 924 INTRA-LIGAND FREE ENERGY PREDICTED BY IDOCK:   -0.48 KCAL/MOL
REMARK 927      BINDING AFFINITY PREDICTED BY RF-SCORE:    0.00 PKD
ROOT
HETATM    1  N   UNL     1     -13.890   9.582  70.812  1.00  0.00    -0.482 NA 
HETATM    2  C   UNL     1     -12.841   9.119  71.746  1.00  0.00    -0.377 C  
HETATM    3  H1  UNL     1     -13.938  10.600  70.867  1.00  0.00     0.000 HD 
HETATM    4  H2  UNL     1     -14.791   9.135  70.980  1.00  0.00     0.000 HD 
ENDROOT
BRANCH   2   5
HETATM    5  C   UNL     1     -11.498   9.809  71.406  1.00  0.00    -0.435 C  
BRANCH   5   6
HETATM    6  C   UNL     1     -11.635  10.904  70.371  1.00  0.00    -0.418 A  
HETATM    7  F   UNL     1     -10.815   9.471  68.665  1.00  0.00    -0.239 F  
HETATM    8  C   UNL     1     -11.298  10.667  69.033  1.00  0.00    -0.277 A  
HETATM    9  C   UNL     1     -11.451  11.650  68.061  1.00  0.00    -0.385 A  
HETATM   10  C   UNL     1     -12.111  12.175  70.730  1.00  0.00    -0.279 A  
HETATM   11  C   UNL     1     -12.275  13.155  69.756  1.00  0.00    -0.202 A  
HETATM   12  F   UNL     1     -12.114  13.838  67.498  1.00  0.00    -0.388 F  
HETATM   13  C   UNL     1     -11.950  12.892  68.430  1.00  0.00    -0.248 A  
HETATM   14  F   UNL     1     -12.754  14.357  70.108  1.00  0.00    -0.377 F  
ENDBRANCH   5   6
ENDBRANCH   2   5
BRANCH   2  15
HETATM   15  C   UNL     1     -12.768   7.591  71.664  1.00  0.00    -0.385 C  
BRANCH  15  16
HETATM   16  C   UNL     1     -11.384   6.997  71.892  1.00  0.00    -0.257 C  
HETATM   17  N   UNL     1      -9.095   6.569  68.527  1.00  0.00    -0.128 NA 
HETATM   18  C   UNL     1      -9.403   5.922  70.886  1.00  0.00    -0.161 C  
HETATM   19  N   UNL     1     -10.733   6.525  70.758  1.00  0.00    -0.230 N  
HETATM   20  C   UNL     1     -10.452   6.504  68.354  1.00  0.00    -0.218 A  
HETATM   21  O   UNL     1     -10.862   6.964  73.003  1.00  0.00    -0.265 OA 
HETATM   22  C   UNL     1     -11.404   6.303  69.473  1.00  0.00    -0.404 C  
HETATM   23  C   UNL     1      -8.446   6.463  69.819  1.00  0.00    -0.127 C  
HETATM   24  N   UNL     1     -10.731   6.665  67.084  1.00  0.00    -0.326 NA 
HETATM   25  N   UNL     1      -9.551   6.880  66.420  1.00  0.00    -0.139 NA 
HETATM   26  C   UNL     1      -8.560   6.846  67.296  1.00  0.00    -0.120 A  
HETATM   27  C   UNL     1      -7.121   7.083  67.017  1.00  0.00    -0.079 C  
HETATM   28  F   UNL     1      -6.348   6.969  68.131  1.00  0.00    -0.032 F  
HETATM   29  F   UNL     1      -6.623   6.200  66.116  1.00  0.00    -0.042 F  
HETATM   30  F   UNL     1      -6.894   8.329  66.527  1.00  0.00    -0.062 F  
ENDBRANCH  15  16
ENDBRANCH   2  15
TORSDOF 4
ENDMDL
MODEL      155
REMARK 921   NORMALIZED FREE ENERGY PREDICTED BY IDOCK:   -5.26 KCAL/MOL
REMARK 922        TOTAL FREE ENERGY PREDICTED BY IDOCK:   -7.56 KCAL/MOL
REMARK 923 INTER-LIGAND FREE ENERGY PREDICTED BY IDOCK:   -6.70 KCAL/MOL
REMARK 924 INTRA-LIGAND FREE ENERGY PREDICTED BY IDOCK:   -0.86 KCAL/MOL
REMARK 927      BINDING AFFINITY PREDICTED BY RF-SCORE:    0.00 PKD
ROOT
HETATM    1  N   UNL     1      -6.800   9.963  66.153  1.00  0.00    -0.092 NA 
HETATM    2  C   UNL     1      -8.004  10.792  66.380  1.00  0.00    -0.151 C  
HETATM    3  H1  UNL     1      -7.098   8.994  66.036  1.00  0.00     0.000 HD 
HETATM    4  H2  UNL     1      -6.102  10.076  66.888  1.00  0.00     0.000 HD 
ENDROOT
BRANCH   2   5
HETATM    5  C   UNL     1      -8.999  10.599  65.209  1.00  0.00    -0.209 C  
BRANCH   5   6
HETATM    6  C   UNL     1     -10.199  11.516  65.288  1.00  0.00    -0.315 A  
HETATM    7  F   UNL     1     -10.734  10.721  67.460  1.00  0.00    -0.231 F  
HETATM    8  C   UNL     1     -11.004  11.541  66.434  1.00  0.00    -0.284 A  
HETATM    9  C   UNL     1     -12.090  12.403  66.540  1.00  0.00    -0.179 A  
HETATM   10  C   UNL     1     -10.524  12.368  64.219  1.00  0.00    -0.389 A  
HETATM   11  C   UNL     1     -11.604  13.238  64.330  1.00  0.00    -0.400 A  
HETATM   12  F   UNL     1     -13.414  14.100  65.584  1.00  0.00    -0.483 F  
HETATM   13  C   UNL     1     -12.379  13.257  65.483  1.00  0.00    -0.480 A  
HETATM   14  F   UNL     1     -11.889  14.063  63.311  1.00  0.00    -0.194 F  
ENDBRANCH   5   6
ENDBRANCH   2   5
BRANCH   2  15
HETATM   15  C   UNL     1      -7.558  12.246  66.555  1.00  0.00     0.356 C  
BRANCH  15  16
HETATM   16  C   UNL     1      -7.874  12.861  67.912  1.00  0.00    -0.151 C  
HETATM   17  N   UNL     1      -8.624  16.884  67.871  1.00  0.00    -0.205 NA 
HETATM   18  C   UNL     1      -8.063  14.924  69.256  1.00  0.00    -0.135 C  
HETATM   19  N   UNL     1      -7.790  14.248  67.984  1.00  0.00    -0.129 N  
HETATM   20  C   UNL     1      -7.786  16.410  66.897  1.00  0.00    -0.241 A  
HETATM   21  O   UNL     1      -8.213  12.179  68.875  1.00  0.00     0.000 OA 
HETATM   22  C   UNL     1      -7.147  15.073  66.956  1.00  0.00     0.253 C  
HETATM   23  C   UNL     1      -8.986  16.129  69.053  1.00  0.00    -0.247 C  
HETATM   24  N   UNL     1      -7.680  17.306  65.947  1.00  0.00    -0.478 NA 
HETATM   25  N   UNL     1      -8.489  18.363  66.277  1.00  0.00    -0.434 NA 
HETATM   26  C   UNL     1      -9.080  18.099  67.431  1.00  0.00    -0.253 A  
HETATM   27  C   UNL     1     -10.078  18.948  68.130  1.00  0.00    -0.388 C  
HETATM   28  F   UNL     1     -10.494  18.403  69.305  1.00  0.00    -0.301 F  
HETATM   29  F   UNL     1      -9.583  20.174  68.433  1.00  0.00    -0.404 F  
HETATM   30  F   UNL     1     -11.198  19.139  67.386  1.00  0.00    -0.535 F  
ENDBRANCH  15  16
ENDBRANCH   2  15
TORSDOF 4
ENDMDL
MODEL      156
REMARK 921   NORMALIZED FREE ENERGY PREDICTED BY IDOCK:   -5.26 KCAL/MOL
REMARK 922        TOTAL FREE ENERGY PREDICTED BY IDOCK:   -7.56 KCAL/MOL
REMARK 923 INTER-LIGAND FREE ENERGY PREDICTED BY IDOCK:   -7.10 KCAL/MOL
REMARK 924 INTRA-LIGAND FREE ENERGY PREDICTED BY IDOCK:   -0.45 KCAL/MOL
REMARK 927      BINDING AFFINITY PREDICTED BY RF-SCORE:    0.00 PKD
ROOT
HETATM    1  N   UNL     1      -9.529  14.670  65.702  1.00  0.00    -0.524 NA 
HETATM    2  C   UNL     1     -10.657  15.260  64.947  1.00  0.00    -0.351 C  
HETATM    3  H1  UNL     1      -8.697  15.231  65.520  1.00  0.00     0.000 HD 
HETATM    4  H2  UNL     1      -9.392  13.681  65.494  1.00  0.00     0.000 HD 
ENDROOT
BRANCH   2   5
HETATM    5  C   UNL     1     -10.828  16.747  65.342  1.00  0.00    -0.149 C  
BRANCH   5   6
HETATM    6  C   UNL     1      -9.865  17.193  66.420  1.00  0.00    -0.312 A  
HETATM    7  F   UNL     1     -11.448  16.702  68.119  1.00  0.00    -0.329 F  
HETATM    8  C   UNL     1     -10.226  17.129  67.771  1.00  0.00    -0.324 A  
HETATM    9  C   UNL     1      -9.341  17.500  68.777  1.00  0.00    -0.239 A  
HETATM   10  C   UNL     1      -8.586  17.670  66.086  1.00  0.00    -0.154 A  
HETATM   11  C   UNL     1      -7.697  18.031  67.093  1.00  0.00    -0.218 A  
HETATM   12  F   UNL     1      -7.209  18.289  69.393  1.00  0.00    -0.244 F  
HETATM   13  C   UNL     1      -8.071  17.944  68.429  1.00  0.00    -0.299 A  
HETATM   14  F   UNL     1      -6.471  18.463  66.763  1.00  0.00    -0.182 F  
ENDBRANCH   5   6
ENDBRANCH   2   5
BRANCH   2  15
HETATM   15  C   UNL     1     -11.907  14.419  65.220  1.00  0.00    -0.373 C  
BRANCH  15  16
HETATM   16  C   UNL     1     -11.740  13.335  66.277  1.00  0.00    -0.369 C  
HETATM   17  N   UNL     1      -9.555  10.079  65.105  1.00  0.00    -0.272 NA 
HETATM   18  C   UNL     1     -11.141  10.989  66.759  1.00  0.00    -0.172 C  
HETATM   19  N   UNL     1     -11.314  12.095  65.813  1.00  0.00    -0.344 N  
HETATM   20  C   UNL     1     -10.232  10.745  64.119  1.00  0.00    -0.344 A  
HETATM   21  O   UNL     1     -11.937  13.550  67.470  1.00  0.00    -0.361 OA 
HETATM   22  C   UNL     1     -11.318  11.718  64.395  1.00  0.00    -0.301 C  
HETATM   23  C   UNL     1      -9.815  10.260  66.519  1.00  0.00    -0.212 C  
HETATM   24  N   UNL     1      -9.750  10.394  62.953  1.00  0.00    -0.293 NA 
HETATM   25  N   UNL     1      -8.717   9.520  63.174  1.00  0.00    -0.219 NA 
HETATM   26  C   UNL     1      -8.581   9.346  64.478  1.00  0.00    -0.198 A  
HETATM   27  C   UNL     1      -7.551   8.522  65.160  1.00  0.00    -0.094 C  
HETATM   28  F   UNL     1      -7.683   8.539  66.515  1.00  0.00    -0.087 F  
HETATM   29  F   UNL     1      -7.611   7.219  64.789  1.00  0.00    -0.076 F  
HETATM   30  F   UNL     1      -6.292   8.958  64.899  1.00  0.00    -0.063 F  
ENDBRANCH  15  16
ENDBRANCH   2  15
TORSDOF 4
ENDMDL
MODEL      157
REMARK 921   NORMALIZED FREE ENERGY PREDICTED BY IDOCK:   -5.22 KCAL/MOL
REMARK 922        TOTAL FREE ENERGY PREDICTED BY IDOCK:   -7.51 KCAL/MOL
REMARK 923 INTER-LIGAND FREE ENERGY PREDICTED BY IDOCK:   -7.09 KCAL/MOL
REMARK 924 INTRA-LIGAND FREE ENERGY PREDICTED BY IDOCK:   -0.41 KCAL/MOL
REMARK 927      BINDING AFFINITY PREDICTED BY RF-SCORE:    0.00 PKD
ROOT
HETATM    1  N   UNL     1      -9.826   6.589  66.435  1.00  0.00    -0.363 NA 
HETATM    2  C   UNL     1      -9.770   7.082  67.828  1.00  0.00    -0.135 C  
HETATM    3  H1  UNL     1      -9.975   5.580  66.460  1.00  0.00     0.000 HD 
HETATM    4  H2  UNL     1      -9.004   6.852  65.891  1.00  0.00     0.000 HD 
ENDROOT
BRANCH   2   5
HETATM    5  C   UNL     1     -11.064   6.677  68.576  1.00  0.00    -0.284 C  
BRANCH   5   6
HETATM    6  C   UNL     1     -10.858   6.485  70.063  1.00  0.00    -0.342 A  
HETATM    7  F   UNL     1     -10.284   4.203  69.745  1.00  0.00    -0.273 F  
HETATM    8  C   UNL     1     -10.456   5.244  70.573  1.00  0.00    -0.242 A  
HETATM    9  C   UNL     1     -10.226   5.057  71.931  1.00  0.00    -0.267 A  
HETATM   10  C   UNL     1     -11.056   7.548  70.959  1.00  0.00    -0.274 A  
HETATM   11  C   UNL     1     -10.816   7.365  72.317  1.00  0.00    -0.247 A  
HETATM   12  F   UNL     1     -10.168   5.960  74.106  1.00  0.00    -0.191 F  
HETATM   13  C   UNL     1     -10.401   6.128  72.798  1.00  0.00    -0.199 A  
HETATM   14  F   UNL     1     -10.986   8.395  73.158  1.00  0.00    -0.327 F  
ENDBRANCH   5   6
ENDBRANCH   2   5
BRANCH   2  15
HETATM   15  C   UNL     1      -9.547   8.596  67.791  1.00  0.00    -0.178 C  
BRANCH  15  16
HETATM   16  C   UNL     1      -9.459   9.203  66.397  1.00  0.00    -0.227 C  
HETATM   17  N   UNL     1     -10.839  13.044  66.079  1.00  0.00    -0.270 NA 
HETATM   18  C   UNL     1     -10.209  10.990  64.867  1.00  0.00    -0.311 C  
HETATM   19  N   UNL     1     -10.221  10.347  66.185  1.00  0.00    -0.235 N  
HETATM   20  C   UNL     1     -11.411  12.269  67.052  1.00  0.00    -0.354 A  
HETATM   21  O   UNL     1      -8.737   8.732  65.523  1.00  0.00    -0.166 OA 
HETATM   22  C   UNL     1     -11.284  10.791  67.094  1.00  0.00    -0.147 C  
HETATM   23  C   UNL     1     -10.040  12.507  64.995  1.00  0.00    -0.236 C  
HETATM   24  N   UNL     1     -12.040  13.042  67.903  1.00  0.00    -0.272 NA 
HETATM   25  N   UNL     1     -11.845  14.341  67.511  1.00  0.00    -0.389 NA 
HETATM   26  C   UNL     1     -11.097  14.345  66.419  1.00  0.00    -0.326 A  
HETATM   27  C   UNL     1     -10.601  15.540  65.689  1.00  0.00    -0.373 C  
HETATM   28  F   UNL     1      -9.862  15.212  64.595  1.00  0.00    -0.216 F  
HETATM   29  F   UNL     1     -11.614  16.324  65.243  1.00  0.00    -0.018 F  
HETATM   30  F   UNL     1      -9.803  16.317  66.464  1.00  0.00    -0.230 F  
ENDBRANCH  15  16
ENDBRANCH   2  15
TORSDOF 4
ENDMDL
MODEL      158
REMARK 921   NORMALIZED FREE ENERGY PREDICTED BY IDOCK:   -5.21 KCAL/MOL
REMARK 922        TOTAL FREE ENERGY PREDICTED BY IDOCK:   -7.50 KCAL/MOL
REMARK 923 INTER-LIGAND FREE ENERGY PREDICTED BY IDOCK:   -6.76 KCAL/MOL
REMARK 924 INTRA-LIGAND FREE ENERGY PREDICTED BY IDOCK:   -0.74 KCAL/MOL
REMARK 927      BINDING AFFINITY PREDICTED BY RF-SCORE:    0.00 PKD
ROOT
HETATM    1  N   UNL     1     -10.094   9.398  69.632  1.00  0.00    -0.194 NA 
HETATM    2  C   UNL     1      -9.111   8.363  69.246  1.00  0.00    -0.150 C  
HETATM    3  H1  UNL     1     -10.702   9.007  70.351  1.00  0.00     0.000 HD 
HETATM    4  H2  UNL     1     -10.612   9.765  68.833  1.00  0.00     0.000 HD 
ENDROOT
BRANCH   2   5
HETATM    5  C   UNL     1      -8.339   7.884  70.500  1.00  0.00    -0.124 C  
BRANCH   5   6
HETATM    6  C   UNL     1      -9.100   6.862  71.316  1.00  0.00    -0.149 A  
HETATM    7  F   UNL     1      -9.679   8.501  72.933  1.00  0.00    -0.334 F  
HETATM    8  C   UNL     1      -9.754   7.235  72.496  1.00  0.00    -0.154 A  
HETATM    9  C   UNL     1     -10.489   6.319  73.240  1.00  0.00    -0.267 A  
HETATM   10  C   UNL     1      -9.175   5.523  70.900  1.00  0.00    -0.179 A  
HETATM   11  C   UNL     1      -9.919   4.608  71.638  1.00  0.00    -0.193 A  
HETATM   12  F   UNL     1     -11.291   4.121  73.501  1.00  0.00    -0.314 F  
HETATM   13  C   UNL     1     -10.574   5.005  72.798  1.00  0.00    -0.221 A  
HETATM   14  F   UNL     1     -10.002   3.337  71.217  1.00  0.00    -0.241 F  
ENDBRANCH   5   6
ENDBRANCH   2   5
BRANCH   2  15
HETATM   15  C   UNL     1      -8.197   8.949  68.167  1.00  0.00    -0.114 C  
BRANCH  15  16
HETATM   16  C   UNL     1      -8.006  10.459  68.230  1.00  0.00    -0.111 C  
HETATM   17  N   UNL     1     -10.328  12.618  65.643  1.00  0.00    -0.269 NA 
HETATM   18  C   UNL     1      -8.355  12.637  67.121  1.00  0.00    -0.172 C  
HETATM   19  N   UNL     1      -8.508  11.179  67.151  1.00  0.00    -0.134 N  
HETATM   20  C   UNL     1      -9.996  11.349  65.250  1.00  0.00    -0.258 A  
HETATM   21  O   UNL     1      -7.471  11.011  69.188  1.00  0.00    -0.117 OA 
HETATM   22  C   UNL     1      -8.911  10.561  65.884  1.00  0.00    -0.166 C  
HETATM   23  C   UNL     1      -9.667  13.321  66.724  1.00  0.00    -0.258 C  
HETATM   24  N   UNL     1     -10.790  10.979  64.275  1.00  0.00    -0.299 NA 
HETATM   25  N   UNL     1     -11.681  11.997  64.052  1.00  0.00    -0.400 NA 
HETATM   26  C   UNL     1     -11.418  12.982  64.896  1.00  0.00    -0.316 A  
HETATM   27  C   UNL     1     -12.171  14.254  65.036  1.00  0.00    -0.433 C  
HETATM   28  F   UNL     1     -11.645  15.069  65.990  1.00  0.00    -0.345 F  
HETATM   29  F   UNL     1     -12.180  14.972  63.885  1.00  0.00    -0.433 F  
HETATM   30  F   UNL     1     -13.465  14.046  65.390  1.00  0.00    -0.416 F  
ENDBRANCH  15  16
ENDBRANCH   2  15
TORSDOF 4
ENDMDL
MODEL      159
REMARK 921   NORMALIZED FREE ENERGY PREDICTED BY IDOCK:   -5.21 KCAL/MOL
REMARK 922        TOTAL FREE ENERGY PREDICTED BY IDOCK:   -7.49 KCAL/MOL
REMARK 923 INTER-LIGAND FREE ENERGY PREDICTED BY IDOCK:   -6.57 KCAL/MOL
REMARK 924 INTRA-LIGAND FREE ENERGY PREDICTED BY IDOCK:   -0.92 KCAL/MOL
REMARK 927      BINDING AFFINITY PREDICTED BY RF-SCORE:    0.00 PKD
ROOT
HETATM    1  N   UNL     1     -12.179  14.695  67.442  1.00  0.00    -0.556 NA 
HETATM    2  C   UNL     1     -10.839  15.321  67.431  1.00  0.00    -0.304 C  
HETATM    3  H1  UNL     1     -12.725  15.099  66.681  1.00  0.00     0.000 HD 
HETATM    4  H2  UNL     1     -12.643  14.776  68.347  1.00  0.00     0.000 HD 
ENDROOT
BRANCH   2   5
HETATM    5  C   UNL     1     -10.183  15.125  66.043  1.00  0.00    -0.325 C  
BRANCH   5   6
HETATM    6  C   UNL     1     -10.867  14.068  65.203  1.00  0.00    -0.376 A  
HETATM    7  F   UNL     1     -12.266  15.696  64.190  1.00  0.00    -0.464 F  
HETATM    8  C   UNL     1     -11.874  14.418  64.296  1.00  0.00    -0.364 A  
HETATM    9  C   UNL     1     -12.489  13.466  63.490  1.00  0.00    -0.287 A  
HETATM   10  C   UNL     1     -10.498  12.717  65.311  1.00  0.00    -0.312 A  
HETATM   11  C   UNL     1     -11.105  11.766  64.497  1.00  0.00    -0.315 A  
HETATM   12  F   UNL     1     -12.668  11.219  62.808  1.00  0.00    -0.320 F  
HETATM   13  C   UNL     1     -12.091  12.139  63.591  1.00  0.00    -0.551 A  
HETATM   14  F   UNL     1     -10.727  10.482  64.592  1.00  0.00    -0.387 F  
ENDBRANCH   5   6
ENDBRANCH   2   5
BRANCH   2  15
HETATM   15  C   UNL     1     -10.019  14.714  68.573  1.00  0.00    -0.235 C  
BRANCH  15  16
HETATM   16  C   UNL     1      -8.581  14.357  68.218  1.00  0.00    -0.170 C  
HETATM   17  N   UNL     1      -8.000  10.502  66.973  1.00  0.00    -0.116 NA 
HETATM   18  C   UNL     1      -6.935  12.562  67.809  1.00  0.00    -0.121 C  
HETATM   19  N   UNL     1      -8.298  12.998  68.131  1.00  0.00    -0.158 N  
HETATM   20  C   UNL     1      -9.041  10.713  67.838  1.00  0.00    -0.145 A  
HETATM   21  O   UNL     1      -7.731  15.214  67.991  1.00  0.00    -0.113 OA 
HETATM   22  C   UNL     1      -9.191  11.952  68.640  1.00  0.00    -0.061 C  
HETATM   23  C   UNL     1      -6.945  11.467  66.739  1.00  0.00    -0.128 C  
HETATM   24  N   UNL     1      -9.842   9.677  67.807  1.00  0.00    -0.153 NA 
HETATM   25  N   UNL     1      -9.349   8.793  66.882  1.00  0.00    -0.157 NA 
HETATM   26  C   UNL     1      -8.246   9.302  66.358  1.00  0.00    -0.111 A  
HETATM   27  C   UNL     1      -7.418   8.702  65.281  1.00  0.00    -0.086 C  
HETATM   28  F   UNL     1      -6.337   9.467  64.966  1.00  0.00    -0.071 F  
HETATM   29  F   UNL     1      -6.934   7.483  65.627  1.00  0.00    -0.055 F  
HETATM   30  F   UNL     1      -8.116   8.545  64.127  1.00  0.00    -0.131 F  
ENDBRANCH  15  16
ENDBRANCH   2  15
TORSDOF 4
ENDMDL
MODEL      160
REMARK 921   NORMALIZED FREE ENERGY PREDICTED BY IDOCK:   -5.20 KCAL/MOL
REMARK 922        TOTAL FREE ENERGY PREDICTED BY IDOCK:   -7.49 KCAL/MOL
REMARK 923 INTER-LIGAND FREE ENERGY PREDICTED BY IDOCK:   -6.43 KCAL/MOL
REMARK 924 INTRA-LIGAND FREE ENERGY PREDICTED BY IDOCK:   -1.06 KCAL/MOL
REMARK 927      BINDING AFFINITY PREDICTED BY RF-SCORE:    0.00 PKD
ROOT
HETATM    1  N   UNL     1     -12.970   6.492  72.312  1.00  0.00    -0.531 NA 
HETATM    2  C   UNL     1     -11.638   6.828  71.764  1.00  0.00    -0.297 C  
HETATM    3  H1  UNL     1     -12.908   6.506  73.330  1.00  0.00     0.000 HD 
HETATM    4  H2  UNL     1     -13.332   5.609  71.950  1.00  0.00     0.000 HD 
ENDROOT
BRANCH   2   5
HETATM    5  C   UNL     1     -11.172   8.193  72.325  1.00  0.00    -0.425 C  
BRANCH   5   6
HETATM    6  C   UNL     1     -10.774   9.177  71.247  1.00  0.00    -0.401 A  
HETATM    7  F   UNL     1      -8.553   8.340  71.223  1.00  0.00    -0.116 F  
HETATM    8  C   UNL     1      -9.471   9.186  70.734  1.00  0.00    -0.272 A  
HETATM    9  C   UNL     1      -9.097  10.058  69.718  1.00  0.00    -0.219 A  
HETATM   10  C   UNL     1     -11.706  10.094  70.733  1.00  0.00    -0.446 A  
HETATM   11  C   UNL     1     -11.335  10.959  69.709  1.00  0.00    -0.301 A  
HETATM   12  F   UNL     1      -9.691  11.771  68.215  1.00  0.00    -0.174 F  
HETATM   13  C   UNL     1     -10.040  10.938  69.203  1.00  0.00    -0.177 A  
HETATM   14  F   UNL     1     -12.240  11.814  69.211  1.00  0.00    -0.332 F  
ENDBRANCH   5   6
ENDBRANCH   2   5
BRANCH   2  15
HETATM   15  C   UNL     1     -11.729   6.807  70.236  1.00  0.00    -0.397 C  
BRANCH  15  16
HETATM   16  C   UNL     1     -10.722   5.901  69.539  1.00  0.00    -0.343 C  
HETATM   17  N   UNL     1      -8.630   7.644  66.484  1.00  0.00    -0.131 NA 
HETATM   18  C   UNL     1      -9.300   5.527  67.556  1.00  0.00    -0.111 C  
HETATM   19  N   UNL     1     -10.260   6.344  68.305  1.00  0.00    -0.156 N  
HETATM   20  C   UNL     1      -9.885   8.139  66.724  1.00  0.00    -0.259 A  
HETATM   21  O   UNL     1     -10.319   4.859  70.049  1.00  0.00    -0.268 OA 
HETATM   22  C   UNL     1     -10.894   7.427  67.545  1.00  0.00    -0.187 C  
HETATM   23  C   UNL     1      -8.151   6.384  67.014  1.00  0.00    -0.112 C  
HETATM   24  N   UNL     1     -10.006   9.305  66.139  1.00  0.00    -0.290 NA 
HETATM   25  N   UNL     1      -8.807   9.601  65.543  1.00  0.00    -0.160 NA 
HETATM   26  C   UNL     1      -7.965   8.607  65.772  1.00  0.00    -0.106 A  
HETATM   27  C   UNL     1      -6.541   8.538  65.354  1.00  0.00    -0.059 C  
HETATM   28  F   UNL     1      -5.942   7.377  65.733  1.00  0.00    -0.034 F  
HETATM   29  F   UNL     1      -6.399   8.618  64.007  1.00  0.00    -0.070 F  
HETATM   30  F   UNL     1      -5.800   9.538  65.896  1.00  0.00    -0.050 F  
ENDBRANCH  15  16
ENDBRANCH   2  15
TORSDOF 4
ENDMDL
MODEL      161
REMARK 921   NORMALIZED FREE ENERGY PREDICTED BY IDOCK:   -5.20 KCAL/MOL
REMARK 922        TOTAL FREE ENERGY PREDICTED BY IDOCK:   -7.48 KCAL/MOL
REMARK 923 INTER-LIGAND FREE ENERGY PREDICTED BY IDOCK:   -7.04 KCAL/MOL
REMARK 924 INTRA-LIGAND FREE ENERGY PREDICTED BY IDOCK:   -0.45 KCAL/MOL
REMARK 927      BINDING AFFINITY PREDICTED BY RF-SCORE:    0.00 PKD
ROOT
HETATM    1  N   UNL     1      -9.807  15.088  69.936  1.00  0.00    -0.472 NA 
HETATM    2  C   UNL     1     -10.268  15.535  68.604  1.00  0.00    -0.216 C  
HETATM    3  H1  UNL     1     -10.525  15.329  70.619  1.00  0.00     0.000 HD 
HETATM    4  H2  UNL     1      -8.889  15.461  70.180  1.00  0.00     0.000 HD 
ENDROOT
BRANCH   2   5
HETATM    5  C   UNL     1     -11.644  14.900  68.288  1.00  0.00    -0.356 C  
BRANCH   5   6
HETATM    6  C   UNL     1     -12.206  14.092  69.437  1.00  0.00    -0.329 A  
HETATM    7  F   UNL     1     -11.484  12.063  68.438  1.00  0.00    -0.252 F  
HETATM    8  C   UNL     1     -12.078  12.698  69.459  1.00  0.00    -0.192 A  
HETATM    9  C   UNL     1     -12.556  11.941  70.523  1.00  0.00    -0.212 A  
HETATM   10  C   UNL     1     -12.859  14.725  70.508  1.00  0.00    -0.374 A  
HETATM   11  C   UNL     1     -13.327  13.970  71.578  1.00  0.00    -0.350 A  
HETATM   12  F   UNL     1     -13.624  11.868  72.621  1.00  0.00    -0.411 F  
HETATM   13  C   UNL     1     -13.174  12.588  71.586  1.00  0.00    -0.284 A  
HETATM   14  F   UNL     1     -13.927  14.588  72.605  1.00  0.00    -0.502 F  
ENDBRANCH   5   6
ENDBRANCH   2   5
BRANCH   2  15
HETATM   15  C   UNL     1      -9.191  15.173  67.578  1.00  0.00    -0.188 C  
BRANCH  15  16
HETATM   16  C   UNL     1      -9.648  14.244  66.460  1.00  0.00    -0.297 C  
HETATM   17  N   UNL     1      -9.173  10.249  67.211  1.00  0.00    -0.141 NA 
HETATM   18  C   UNL     1      -9.567  11.974  65.494  1.00  0.00    -0.159 C  
HETATM   19  N   UNL     1      -9.189  12.933  66.536  1.00  0.00    -0.218 N  
HETATM   20  C   UNL     1      -8.289  11.095  67.828  1.00  0.00    -0.123 A  
HETATM   21  O   UNL     1     -10.400  14.619  65.565  1.00  0.00    -0.315 OA 
HETATM   22  C   UNL     1      -8.099  12.508  67.420  1.00  0.00    -0.180 C  
HETATM   23  C   UNL     1     -10.022  10.645  66.106  1.00  0.00    -0.228 C  
HETATM   24  N   UNL     1      -7.695  10.456  68.806  1.00  0.00    -0.096 NA 
HETATM   25  N   UNL     1      -8.221   9.191  68.861  1.00  0.00    -0.110 NA 
HETATM   26  C   UNL     1      -9.134   9.072  67.911  1.00  0.00    -0.135 A  
HETATM   27  C   UNL     1      -9.988   7.886  67.647  1.00  0.00    -0.181 C  
HETATM   28  F   UNL     1     -10.825   8.071  66.590  1.00  0.00    -0.379 F  
HETATM   29  F   UNL     1      -9.255   6.781  67.362  1.00  0.00    -0.125 F  
HETATM   30  F   UNL     1     -10.781   7.580  68.706  1.00  0.00    -0.211 F  
ENDBRANCH  15  16
ENDBRANCH   2  15
TORSDOF 4
ENDMDL
MODEL      162
REMARK 921   NORMALIZED FREE ENERGY PREDICTED BY IDOCK:   -5.20 KCAL/MOL
REMARK 922        TOTAL FREE ENERGY PREDICTED BY IDOCK:   -7.48 KCAL/MOL
REMARK 923 INTER-LIGAND FREE ENERGY PREDICTED BY IDOCK:   -6.97 KCAL/MOL
REMARK 924 INTRA-LIGAND FREE ENERGY PREDICTED BY IDOCK:   -0.52 KCAL/MOL
REMARK 927      BINDING AFFINITY PREDICTED BY RF-SCORE:    0.00 PKD
ROOT
HETATM    1  N   UNL     1      -7.611  11.492  66.233  1.00  0.00    -0.372 NA 
HETATM    2  C   UNL     1      -8.831  11.041  66.937  1.00  0.00    -0.149 C  
HETATM    3  H1  UNL     1      -7.147  10.671  65.843  1.00  0.00     0.000 HD 
HETATM    4  H2  UNL     1      -6.996  12.047  66.828  1.00  0.00     0.000 HD 
ENDROOT
BRANCH   2   5
HETATM    5  C   UNL     1      -9.730  10.242  65.963  1.00  0.00    -0.274 C  
BRANCH   5   6
HETATM    6  C   UNL     1      -9.133   8.913  65.553  1.00  0.00    -0.248 A  
HETATM    7  F   UNL     1      -8.114   9.895  63.646  1.00  0.00    -0.126 F  
HETATM    8  C   UNL     1      -8.331   8.814  64.410  1.00  0.00    -0.157 A  
HETATM    9  C   UNL     1      -7.743   7.610  64.037  1.00  0.00    -0.126 A  
HETATM   10  C   UNL     1      -9.363   7.757  66.316  1.00  0.00    -0.210 A  
HETATM   11  C   UNL     1      -8.766   6.555  65.951  1.00  0.00    -0.141 A  
HETATM   12  F   UNL     1      -7.386   5.324  64.477  1.00  0.00    -0.055 F  
HETATM   13  C   UNL     1      -7.960   6.483  64.821  1.00  0.00    -0.120 A  
HETATM   14  F   UNL     1      -8.975   5.463  66.701  1.00  0.00    -0.114 F  
ENDBRANCH   5   6
ENDBRANCH   2   5
BRANCH   2  15
HETATM   15  C   UNL     1      -9.528  12.273  67.522  1.00  0.00    -0.182 C  
BRANCH  15  16
HETATM   16  C   UNL     1      -8.599  13.405  67.940  1.00  0.00    -0.184 C  
HETATM   17  N   UNL     1      -9.484  17.066  66.339  1.00  0.00    -0.264 NA 
HETATM   18  C   UNL     1      -7.786  15.691  67.481  1.00  0.00    -0.161 C  
HETATM   19  N   UNL     1      -8.657  14.556  67.161  1.00  0.00    -0.213 N  
HETATM   20  C   UNL     1      -9.839  15.973  65.594  1.00  0.00    -0.274 A  
HETATM   21  O   UNL     1      -7.866  13.321  68.921  1.00  0.00    -0.037 OA 
HETATM   22  C   UNL     1      -9.309  14.611  65.848  1.00  0.00    -0.120 C  
HETATM   23  C   UNL     1      -8.567  17.008  67.459  1.00  0.00    -0.205 C  
HETATM   24  N   UNL     1     -10.703  16.338  64.679  1.00  0.00    -0.625 NA 
HETATM   25  N   UNL     1     -10.953  17.675  64.850  1.00  0.00    -0.765 NA 
HETATM   26  C   UNL     1     -10.233  18.113  65.870  1.00  0.00    -0.234 A  
HETATM   27  C   UNL     1     -10.238  19.487  66.433  1.00  0.00    -0.479 C  
HETATM   28  F   UNL     1      -9.379  19.625  67.479  1.00  0.00    -0.344 F  
HETATM   29  F   UNL     1      -9.873  20.417  65.515  1.00  0.00    -0.451 F  
HETATM   30  F   UNL     1     -11.462  19.844  66.901  1.00  0.00    -0.340 F  
ENDBRANCH  15  16
ENDBRANCH   2  15
TORSDOF 4
ENDMDL
MODEL      163
REMARK 921   NORMALIZED FREE ENERGY PREDICTED BY IDOCK:   -5.14 KCAL/MOL
REMARK 922        TOTAL FREE ENERGY PREDICTED BY IDOCK:   -7.41 KCAL/MOL
REMARK 923 INTER-LIGAND FREE ENERGY PREDICTED BY IDOCK:   -6.98 KCAL/MOL
REMARK 924 INTRA-LIGAND FREE ENERGY PREDICTED BY IDOCK:   -0.44 KCAL/MOL
REMARK 927      BINDING AFFINITY PREDICTED BY RF-SCORE:    0.00 PKD
ROOT
HETATM    1  N   UNL     1     -12.694  14.607  69.998  1.00  0.00    -0.559 NA 
HETATM    2  C   UNL     1     -11.674  14.065  69.075  1.00  0.00    -0.330 C  
HETATM    3  H1  UNL     1     -12.528  15.608  70.105  1.00  0.00     0.000 HD 
HETATM    4  H2  UNL     1     -12.717  14.114  70.891  1.00  0.00     0.000 HD 
ENDROOT
BRANCH   2   5
HETATM    5  C   UNL     1     -11.724  14.835  67.733  1.00  0.00    -0.368 C  
BRANCH   5   6
HETATM    6  C   UNL     1     -10.529  15.738  67.517  1.00  0.00    -0.288 A  
HETATM    7  F   UNL     1      -9.634  14.260  65.889  1.00  0.00    -0.296 F  
HETATM    8  C   UNL     1      -9.543  15.405  66.581  1.00  0.00    -0.256 A  
HETATM    9  C   UNL     1      -8.456  16.240  66.343  1.00  0.00    -0.365 A  
HETATM   10  C   UNL     1     -10.391  16.931  68.246  1.00  0.00    -0.335 A  
HETATM   11  C   UNL     1      -9.310  17.771  68.000  1.00  0.00    -0.276 A  
HETATM   12  F   UNL     1      -7.316  18.245  66.819  1.00  0.00    -0.200 F  
HETATM   13  C   UNL     1      -8.351  17.429  67.053  1.00  0.00    -0.217 A  
HETATM   14  F   UNL     1      -9.202  18.919  68.685  1.00  0.00    -0.341 F  
ENDBRANCH   5   6
ENDBRANCH   2   5
BRANCH   2  15
HETATM   15  C   UNL     1     -11.923  12.563  68.914  1.00  0.00    -0.282 C  
BRANCH  15  16
HETATM   16  C   UNL     1     -12.049  11.785  70.217  1.00  0.00    -0.342 C  
HETATM   17  N   UNL     1      -9.752   8.406  70.460  1.00  0.00    -0.171 NA 
HETATM   18  C   UNL     1     -11.659   9.654  71.401  1.00  0.00    -0.400 C  
HETATM   19  N   UNL     1     -11.564  10.481  70.195  1.00  0.00    -0.300 N  
HETATM   20  C   UNL     1     -10.151   8.783  69.205  1.00  0.00    -0.204 A  
HETATM   21  O   UNL     1     -12.521  12.286  71.235  1.00  0.00    -0.302 OA 
HETATM   22  C   UNL     1     -11.240   9.761  68.960  1.00  0.00    -0.038 C  
HETATM   23  C   UNL     1     -10.338   8.929  71.678  1.00  0.00    -0.345 C  
HETATM   24  N   UNL     1      -9.414   8.165  68.316  1.00  0.00    -0.141 NA 
HETATM   25  N   UNL     1      -8.493   7.406  68.991  1.00  0.00    -0.129 NA 
HETATM   26  C   UNL     1      -8.680   7.570  70.290  1.00  0.00    -0.145 A  
HETATM   27  C   UNL     1      -7.871   6.975  71.384  1.00  0.00    -0.095 C  
HETATM   28  F   UNL     1      -8.324   7.327  72.618  1.00  0.00    -0.108 F  
HETATM   29  F   UNL     1      -7.881   5.619  71.348  1.00  0.00    -0.099 F  
HETATM   30  F   UNL     1      -6.573   7.369  71.332  1.00  0.00    -0.045 F  
ENDBRANCH  15  16
ENDBRANCH   2  15
TORSDOF 4
ENDMDL
MODEL      164
REMARK 921   NORMALIZED FREE ENERGY PREDICTED BY IDOCK:   -5.14 KCAL/MOL
REMARK 922        TOTAL FREE ENERGY PREDICTED BY IDOCK:   -7.41 KCAL/MOL
REMARK 923 INTER-LIGAND FREE ENERGY PREDICTED BY IDOCK:   -6.82 KCAL/MOL
REMARK 924 INTRA-LIGAND FREE ENERGY PREDICTED BY IDOCK:   -0.59 KCAL/MOL
REMARK 927      BINDING AFFINITY PREDICTED BY RF-SCORE:    0.00 PKD
ROOT
HETATM    1  N   UNL     1      -8.610   7.245  67.038  1.00  0.00    -0.120 NA 
HETATM    2  C   UNL     1      -8.910   8.425  67.878  1.00  0.00    -0.138 C  
HETATM    3  H1  UNL     1      -8.844   6.407  67.572  1.00  0.00     0.000 HD 
HETATM    4  H2  UNL     1      -7.648   7.239  66.697  1.00  0.00     0.000 HD 
ENDROOT
BRANCH   2   5
HETATM    5  C   UNL     1     -10.391   8.384  68.325  1.00  0.00    -0.244 C  
BRANCH   5   6
HETATM    6  C   UNL     1     -10.562   8.086  69.798  1.00  0.00    -0.238 A  
HETATM    7  F   UNL     1      -9.731  10.231  70.387  1.00  0.00    -0.212 F  
HETATM    8  C   UNL     1     -10.234   9.046  70.763  1.00  0.00    -0.244 A  
HETATM    9  C   UNL     1     -10.418   8.804  72.120  1.00  0.00    -0.384 A  
HETATM   10  C   UNL     1     -11.061   6.845  70.226  1.00  0.00    -0.342 A  
HETATM   11  C   UNL     1     -11.256   6.607  71.583  1.00  0.00    -0.264 A  
HETATM   12  F   UNL     1     -11.133   7.346  73.826  1.00  0.00    -0.358 F  
HETATM   13  C   UNL     1     -10.940   7.581  72.522  1.00  0.00    -0.313 A  
HETATM   14  F   UNL     1     -11.756   5.426  71.977  1.00  0.00    -0.224 F  
ENDBRANCH   5   6
ENDBRANCH   2   5
BRANCH   2  15
HETATM   15  C   UNL     1      -8.559   9.683  67.078  1.00  0.00    -0.131 C  
BRANCH  15  16
HETATM   16  C   UNL     1      -9.719  10.309  66.315  1.00  0.00    -0.209 C  
HETATM   17  N   UNL     1     -10.277  14.310  66.969  1.00  0.00    -0.258 NA 
HETATM   18  C   UNL     1     -11.265  12.223  66.105  1.00  0.00    -0.328 C  
HETATM   19  N   UNL     1     -10.143  11.553  66.771  1.00  0.00    -0.210 N  
HETATM   20  C   UNL     1      -9.718  13.597  67.996  1.00  0.00    -0.226 A  
HETATM   21  O   UNL     1     -10.229   9.765  65.339  1.00  0.00    -0.246 OA 
HETATM   22  C   UNL     1      -9.752  12.115  68.067  1.00  0.00    -0.203 C  
HETATM   23  C   UNL     1     -10.947  13.698  65.840  1.00  0.00    -0.282 C  
HETATM   24  N   UNL     1      -9.163  14.427  68.844  1.00  0.00    -0.138 NA 
HETATM   25  N   UNL     1      -9.319  15.696  68.350  1.00  0.00    -0.192 NA 
HETATM   26  C   UNL     1      -9.973  15.626  67.202  1.00  0.00    -0.240 A  
HETATM   27  C   UNL     1     -10.310  16.759  66.304  1.00  0.00    -0.310 C  
HETATM   28  F   UNL     1     -10.998  16.361  65.199  1.00  0.00    -0.369 F  
HETATM   29  F   UNL     1     -11.084  17.688  66.920  1.00  0.00    -0.166 F  
HETATM   30  F   UNL     1      -9.202  17.397  65.848  1.00  0.00    -0.231 F  
ENDBRANCH  15  16
ENDBRANCH   2  15
TORSDOF 4
ENDMDL
MODEL      165
REMARK 921   NORMALIZED FREE ENERGY PREDICTED BY IDOCK:   -5.14 KCAL/MOL
REMARK 922        TOTAL FREE ENERGY PREDICTED BY IDOCK:   -7.41 KCAL/MOL
REMARK 923 INTER-LIGAND FREE ENERGY PREDICTED BY IDOCK:   -6.71 KCAL/MOL
REMARK 924 INTRA-LIGAND FREE ENERGY PREDICTED BY IDOCK:   -0.70 KCAL/MOL
REMARK 927      BINDING AFFINITY PREDICTED BY RF-SCORE:    0.00 PKD
ROOT
HETATM    1  N   UNL     1      -8.552  15.562  68.799  1.00  0.00    -0.173 NA 
HETATM    2  C   UNL     1      -9.276  15.608  67.510  1.00  0.00    -0.201 C  
HETATM    3  H1  UNL     1      -8.652  16.470  69.253  1.00  0.00     0.000 HD 
HETATM    4  H2  UNL     1      -7.578  15.279  68.693  1.00  0.00     0.000 HD 
ENDROOT
BRANCH   2   5
HETATM    5  C   UNL     1     -10.752  16.004  67.755  1.00  0.00    -0.323 C  
BRANCH   5   6
HETATM    6  C   UNL     1     -11.298  15.493  69.070  1.00  0.00    -0.331 A  
HETATM    7  F   UNL     1     -12.085  13.506  68.035  1.00  0.00    -0.369 F  
HETATM    8  C   UNL     1     -11.928  14.244  69.143  1.00  0.00    -0.335 A  
HETATM    9  C   UNL     1     -12.404  13.741  70.349  1.00  0.00    -0.423 A  
HETATM   10  C   UNL     1     -11.174  16.254  70.243  1.00  0.00    -0.343 A  
HETATM   11  C   UNL     1     -11.640  15.746  71.452  1.00  0.00    -0.445 A  
HETATM   12  F   UNL     1     -12.689  14.013  72.671  1.00  0.00    -0.407 F  
HETATM   13  C   UNL     1     -12.247  14.497  71.504  1.00  0.00    -0.347 A  
HETATM   14  F   UNL     1     -11.494  16.473  72.569  1.00  0.00    -0.507 F  
ENDBRANCH   5   6
ENDBRANCH   2   5
BRANCH   2  15
HETATM   15  C   UNL     1      -9.126  14.245  66.829  1.00  0.00    -0.269 C  
BRANCH  15  16
HETATM   16  C   UNL     1      -7.923  13.426  67.277  1.00  0.00    -0.119 C  
HETATM   17  N   UNL     1      -8.538   9.384  67.464  1.00  0.00    -0.122 NA 
HETATM   18  C   UNL     1      -7.095  11.266  68.140  1.00  0.00    -0.071 C  
HETATM   19  N   UNL     1      -8.193  12.122  67.678  1.00  0.00    -0.152 N  
HETATM   20  C   UNL     1      -9.635  10.178  67.669  1.00  0.00    -0.148 A  
HETATM   21  O   UNL     1      -6.781  13.877  67.256  1.00  0.00    -0.237 OA 
HETATM   22  C   UNL     1      -9.543  11.628  67.968  1.00  0.00    -0.184 C  
HETATM   23  C   UNL     1      -7.175   9.875  67.503  1.00  0.00    -0.089 C  
HETATM   24  N   UNL     1     -10.719   9.454  67.538  1.00  0.00    -0.268 NA 
HETATM   25  N   UNL     1     -10.335   8.182  67.202  1.00  0.00    -0.294 NA 
HETATM   26  C   UNL     1      -9.015   8.143  67.132  1.00  0.00    -0.139 A  
HETATM   27  C   UNL     1      -8.182   6.975  66.748  1.00  0.00    -0.111 C  
HETATM   28  F   UNL     1      -6.850   7.252  66.781  1.00  0.00    -0.057 F  
HETATM   29  F   UNL     1      -8.372   5.917  67.575  1.00  0.00    -0.105 F  
HETATM   30  F   UNL     1      -8.447   6.552  65.485  1.00  0.00    -0.138 F  
ENDBRANCH  15  16
ENDBRANCH   2  15
TORSDOF 4
ENDMDL
MODEL      166
REMARK 921   NORMALIZED FREE ENERGY PREDICTED BY IDOCK:   -5.12 KCAL/MOL
REMARK 922        TOTAL FREE ENERGY PREDICTED BY IDOCK:   -7.38 KCAL/MOL
REMARK 923 INTER-LIGAND FREE ENERGY PREDICTED BY IDOCK:   -7.06 KCAL/MOL
REMARK 924 INTRA-LIGAND FREE ENERGY PREDICTED BY IDOCK:   -0.32 KCAL/MOL
REMARK 927      BINDING AFFINITY PREDICTED BY RF-SCORE:    0.00 PKD
ROOT
HETATM    1  N   UNL     1      -9.661  13.593  69.042  1.00  0.00    -0.411 NA 
HETATM    2  C   UNL     1     -10.632  13.337  67.956  1.00  0.00    -0.240 C  
HETATM    3  H1  UNL     1      -9.510  14.600  69.103  1.00  0.00     0.000 HD 
HETATM    4  H2  UNL     1      -8.793  13.070  68.925  1.00  0.00     0.000 HD 
ENDROOT
BRANCH   2   5
HETATM    5  C   UNL     1     -11.933  14.132  68.221  1.00  0.00    -0.367 C  
BRANCH   5   6
HETATM    6  C   UNL     1     -12.234  14.311  69.693  1.00  0.00    -0.371 A  
HETATM    7  F   UNL     1     -11.490  16.565  69.630  1.00  0.00    -0.284 F  
HETATM    8  C   UNL     1     -12.009  15.541  70.323  1.00  0.00    -0.374 A  
HETATM    9  C   UNL     1     -12.313  15.735  71.666  1.00  0.00    -0.521 A  
HETATM   10  C   UNL     1     -12.753  13.250  70.454  1.00  0.00    -0.103 A  
HETATM   11  C   UNL     1     -13.067  13.447  71.795  1.00  0.00    -0.388 A  
HETATM   12  F   UNL     1     -13.160  14.866  73.685  1.00  0.00    -0.562 F  
HETATM   13  C   UNL     1     -12.852  14.683  72.395  1.00  0.00    -0.359 A  
HETATM   14  F   UNL     1     -13.584  12.433  72.504  1.00  0.00    -0.613 F  
ENDBRANCH   5   6
ENDBRANCH   2   5
BRANCH   2  15
HETATM   15  C   UNL     1     -10.860  11.826  67.865  1.00  0.00    -0.255 C  
BRANCH  15  16
HETATM   16  C   UNL     1     -10.305  11.162  66.611  1.00  0.00    -0.241 C  
HETATM   17  N   UNL     1      -8.922   7.345  67.127  1.00  0.00    -0.124 NA 
HETATM   18  C   UNL     1      -8.939   9.334  65.669  1.00  0.00    -0.199 C  
HETATM   19  N   UNL     1      -9.527  10.029  66.819  1.00  0.00    -0.163 N  
HETATM   20  C   UNL     1      -8.855   8.171  68.217  1.00  0.00    -0.133 A  
HETATM   21  O   UNL     1     -10.555  11.582  65.484  1.00  0.00    -0.268 OA 
HETATM   22  C   UNL     1      -8.991   9.645  68.129  1.00  0.00    -0.123 C  
HETATM   23  C   UNL     1      -9.145   7.820  65.776  1.00  0.00    -0.011 C  
HETATM   24  N   UNL     1      -8.679   7.446  69.295  1.00  0.00    -0.137 NA 
HETATM   25  N   UNL     1      -8.672   6.128  68.916  1.00  0.00    -0.123 NA 
HETATM   26  C   UNL     1      -8.843   6.064  67.605  1.00  0.00    -0.106 A  
HETATM   27  C   UNL     1      -8.951   4.831  66.786  1.00  0.00    -0.111 C  
HETATM   28  F   UNL     1      -9.115   5.098  65.461  1.00  0.00    -0.147 F  
HETATM   29  F   UNL     1      -7.844   4.053  66.882  1.00  0.00    -0.091 F  
HETATM   30  F   UNL     1     -10.012   4.066  67.150  1.00  0.00    -0.235 F  
ENDBRANCH  15  16
ENDBRANCH   2  15
TORSDOF 4
ENDMDL
MODEL      167
REMARK 921   NORMALIZED FREE ENERGY PREDICTED BY IDOCK:   -5.12 KCAL/MOL
REMARK 922        TOTAL FREE ENERGY PREDICTED BY IDOCK:   -7.38 KCAL/MOL
REMARK 923 INTER-LIGAND FREE ENERGY PREDICTED BY IDOCK:   -6.66 KCAL/MOL
REMARK 924 INTRA-LIGAND FREE ENERGY PREDICTED BY IDOCK:   -0.72 KCAL/MOL
REMARK 927      BINDING AFFINITY PREDICTED BY RF-SCORE:    0.00 PKD
ROOT
HETATM    1  N   UNL     1     -11.656   6.878  73.141  1.00  0.00    -0.476 NA 
HETATM    2  C   UNL     1     -11.293   6.419  71.783  1.00  0.00    -0.289 C  
HETATM    3  H1  UNL     1     -11.132   6.321  73.816  1.00  0.00     0.000 HD 
HETATM    4  H2  UNL     1     -12.662   6.855  73.308  1.00  0.00     0.000 HD 
ENDROOT
BRANCH   2   5
HETATM    5  C   UNL     1      -9.760   6.518  71.591  1.00  0.00    -0.174 C  
BRANCH   5   6
HETATM    6  C   UNL     1      -9.038   5.221  71.880  1.00  0.00    -0.153 A  
HETATM    7  F   UNL     1      -7.322   6.371  73.050  1.00  0.00    -0.086 F  
HETATM    8  C   UNL     1      -7.849   5.215  72.620  1.00  0.00    -0.098 A  
HETATM    9  C   UNL     1      -7.190   4.030  72.927  1.00  0.00    -0.063 A  
HETATM   10  C   UNL     1      -9.549   3.996  71.421  1.00  0.00    -0.241 A  
HETATM   11  C   UNL     1      -8.896   2.809  71.737  1.00  0.00    -0.075 A  
HETATM   12  F   UNL     1      -7.106   1.680  72.792  1.00  0.00    -0.021 F  
HETATM   13  C   UNL     1      -7.727   2.827  72.488  1.00  0.00    -0.054 A  
HETATM   14  F   UNL     1      -9.408   1.644  71.312  1.00  0.00    -0.127 F  
ENDBRANCH   5   6
ENDBRANCH   2   5
BRANCH   2  15
HETATM   15  C   UNL     1     -12.080   7.255  70.769  1.00  0.00    -0.284 C  
BRANCH  15  16
HETATM   16  C   UNL     1     -12.119   8.750  71.055  1.00  0.00    -0.225 C  
HETATM   17  N   UNL     1     -11.307  11.160  67.849  1.00  0.00    -0.364 NA 
HETATM   18  C   UNL     1     -11.498  11.018  70.303  1.00  0.00    -0.273 C  
HETATM   19  N   UNL     1     -11.520   9.566  70.101  1.00  0.00    -0.206 N  
HETATM   20  C   UNL     1     -10.724   9.920  67.843  1.00  0.00    -0.265 A  
HETATM   21  O   UNL     1     -12.673   9.211  72.050  1.00  0.00    -0.348 OA 
HETATM   22  C   UNL     1     -10.632   9.061  69.049  1.00  0.00    -0.190 C  
HETATM   23  C   UNL     1     -11.905  11.758  69.025  1.00  0.00    -0.317 C  
HETATM   24  N   UNL     1     -10.306   9.647  66.632  1.00  0.00    -0.230 NA 
HETATM   25  N   UNL     1     -10.654  10.698  65.822  1.00  0.00    -0.152 NA 
HETATM   26  C   UNL     1     -11.282  11.605  66.553  1.00  0.00    -0.294 A  
HETATM   27  C   UNL     1     -11.876  12.876  66.069  1.00  0.00    -0.430 C  
HETATM   28  F   UNL     1     -12.446  13.600  67.070  1.00  0.00    -0.395 F  
HETATM   29  F   UNL     1     -10.953  13.686  65.492  1.00  0.00    -0.286 F  
HETATM   30  F   UNL     1     -12.855  12.666  65.152  1.00  0.00    -0.546 F  
ENDBRANCH  15  16
ENDBRANCH   2  15
TORSDOF 4
ENDMDL
MODEL      168
REMARK 921   NORMALIZED FREE ENERGY PREDICTED BY IDOCK:   -5.09 KCAL/MOL
REMARK 922        TOTAL FREE ENERGY PREDICTED BY IDOCK:   -7.35 KCAL/MOL
REMARK 923 INTER-LIGAND FREE ENERGY PREDICTED BY IDOCK:   -7.15 KCAL/MOL
REMARK 924 INTRA-LIGAND FREE ENERGY PREDICTED BY IDOCK:   -0.21 KCAL/MOL
REMARK 927      BINDING AFFINITY PREDICTED BY RF-SCORE:    0.00 PKD
ROOT
HETATM    1  N   UNL     1      -8.663  12.165  68.837  1.00  0.00    -0.363 NA 
HETATM    2  C   UNL     1      -8.466  11.104  67.825  1.00  0.00    -0.124 C  
HETATM    3  H1  UNL     1      -7.977  12.900  68.666  1.00  0.00     0.000 HD 
HETATM    4  H2  UNL     1      -8.628  11.808  69.792  1.00  0.00     0.000 HD 
ENDROOT
BRANCH   2   5
HETATM    5  C   UNL     1      -8.571  11.713  66.405  1.00  0.00    -0.143 C  
BRANCH   5   6
HETATM    6  C   UNL     1      -9.880  12.429  66.158  1.00  0.00    -0.263 A  
HETATM    7  F   UNL     1     -10.652  10.661  64.775  1.00  0.00    -0.398 F  
HETATM    8  C   UNL     1     -10.872  11.848  65.359  1.00  0.00    -0.294 A  
HETATM    9  C   UNL     1     -12.096  12.474  65.150  1.00  0.00    -0.503 A  
HETATM   10  C   UNL     1     -10.131  13.686  66.734  1.00  0.00    -0.269 A  
HETATM   11  C   UNL     1     -11.359  14.308  66.534  1.00  0.00    -0.346 A  
HETATM   12  F   UNL     1     -13.516  14.306  65.565  1.00  0.00    -0.467 F  
HETATM   13  C   UNL     1     -12.335  13.704  65.750  1.00  0.00    -0.482 A  
HETATM   14  F   UNL     1     -11.594  15.496  67.108  1.00  0.00    -0.280 F  
ENDBRANCH   5   6
ENDBRANCH   2   5
BRANCH   2  15
HETATM   15  C   UNL     1      -9.496  10.000  68.082  1.00  0.00    -0.148 C  
BRANCH  15  16
HETATM   16  C   UNL     1      -8.919   8.598  68.222  1.00  0.00    -0.142 C  
HETATM   17  N   UNL     1      -9.925   6.636  71.671  1.00  0.00    -0.174 NA 
HETATM   18  C   UNL     1      -8.403   6.714  69.732  1.00  0.00    -0.132 C  
HETATM   19  N   UNL     1      -8.951   8.054  69.502  1.00  0.00    -0.147 N  
HETATM   20  C   UNL     1      -9.873   8.003  71.739  1.00  0.00    -0.183 A  
HETATM   21  O   UNL     1      -8.481   7.972  67.260  1.00  0.00    -0.123 OA 
HETATM   22  C   UNL     1      -9.215   8.843  70.709  1.00  0.00    -0.223 C  
HETATM   23  C   UNL     1      -9.355   5.867  70.583  1.00  0.00    -0.160 C  
HETATM   24  N   UNL     1     -10.500   8.403  72.818  1.00  0.00    -0.256 NA 
HETATM   25  N   UNL     1     -11.006   7.293  73.444  1.00  0.00    -0.327 NA 
HETATM   26  C   UNL     1     -10.679   6.223  72.737  1.00  0.00    -0.242 A  
HETATM   27  C   UNL     1     -11.067   4.819  73.025  1.00  0.00    -0.274 C  
HETATM   28  F   UNL     1     -10.564   3.943  72.113  1.00  0.00    -0.220 F  
HETATM   29  F   UNL     1     -10.623   4.403  74.237  1.00  0.00    -0.237 F  
HETATM   30  F   UNL     1     -12.413   4.647  73.009  1.00  0.00    -0.227 F  
ENDBRANCH  15  16
ENDBRANCH   2  15
TORSDOF 4
ENDMDL
MODEL      169
REMARK 921   NORMALIZED FREE ENERGY PREDICTED BY IDOCK:   -5.09 KCAL/MOL
REMARK 922        TOTAL FREE ENERGY PREDICTED BY IDOCK:   -7.34 KCAL/MOL
REMARK 923 INTER-LIGAND FREE ENERGY PREDICTED BY IDOCK:   -6.79 KCAL/MOL
REMARK 924 INTRA-LIGAND FREE ENERGY PREDICTED BY IDOCK:   -0.55 KCAL/MOL
REMARK 927      BINDING AFFINITY PREDICTED BY RF-SCORE:    0.00 PKD
ROOT
HETATM    1  N   UNL     1     -11.940  12.627  66.644  1.00  0.00    -0.529 NA 
HETATM    2  C   UNL     1     -10.745  12.250  67.430  1.00  0.00    -0.230 C  
HETATM    3  H1  UNL     1     -12.273  11.796  66.153  1.00  0.00     0.000 HD 
HETATM    4  H2  UNL     1     -11.767  13.413  66.018  1.00  0.00     0.000 HD 
ENDROOT
BRANCH   2   5
HETATM    5  C   UNL     1     -11.093  11.080  68.382  1.00  0.00    -0.308 C  
BRANCH   5   6
HETATM    6  C   UNL     1     -10.456   9.770  67.975  1.00  0.00    -0.271 A  
HETATM    7  F   UNL     1     -11.030   8.779  70.055  1.00  0.00    -0.239 F  
HETATM    8  C   UNL     1     -10.474   8.668  68.839  1.00  0.00    -0.192 A  
HETATM    9  C   UNL     1      -9.925   7.445  68.469  1.00  0.00    -0.172 A  
HETATM   10  C   UNL     1      -9.842   9.629  66.719  1.00  0.00    -0.270 A  
HETATM   11  C   UNL     1      -9.303   8.403  66.344  1.00  0.00    -0.214 A  
HETATM   12  F   UNL     1      -8.830   6.140  66.843  1.00  0.00    -0.114 F  
HETATM   13  C   UNL     1      -9.347   7.318  67.212  1.00  0.00    -0.132 A  
HETATM   14  F   UNL     1      -8.740   8.275  65.133  1.00  0.00    -0.179 F  
ENDBRANCH   5   6
ENDBRANCH   2   5
BRANCH   2  15
HETATM   15  C   UNL     1     -10.245  13.495  68.168  1.00  0.00    -0.249 C  
BRANCH  15  16
HETATM   16  C   UNL     1      -8.748  13.753  68.062  1.00  0.00    -0.181 C  
HETATM   17  N   UNL     1      -7.631  17.680  68.348  1.00  0.00    -0.250 NA 
HETATM   18  C   UNL     1      -6.955  15.406  67.677  1.00  0.00    -0.184 C  
HETATM   19  N   UNL     1      -8.375  15.069  67.809  1.00  0.00    -0.143 N  
HETATM   20  C   UNL     1      -8.879  17.436  67.839  1.00  0.00    -0.237 A  
HETATM   21  O   UNL     1      -7.918  12.861  68.221  1.00  0.00    -0.139 OA 
HETATM   22  C   UNL     1      -9.313  16.102  67.358  1.00  0.00    -0.217 C  
HETATM   23  C   UNL     1      -6.608  16.662  68.482  1.00  0.00    -0.142 C  
HETATM   24  N   UNL     1      -9.582  18.541  67.877  1.00  0.00    -0.292 NA 
HETATM   25  N   UNL     1      -8.804  19.512  68.455  1.00  0.00    -0.356 NA 
HETATM   26  C   UNL     1      -7.630  18.986  68.763  1.00  0.00    -0.340 A  
HETATM   27  C   UNL     1      -6.506  19.669  69.452  1.00  0.00    -0.335 C  
HETATM   28  F   UNL     1      -5.426  18.858  69.617  1.00  0.00    -0.187 F  
HETATM   29  F   UNL     1      -6.067  20.752  68.764  1.00  0.00    -0.341 F  
HETATM   30  F   UNL     1      -6.851  20.093  70.695  1.00  0.00    -0.352 F  
ENDBRANCH  15  16
ENDBRANCH   2  15
TORSDOF 4
ENDMDL
MODEL      170
REMARK 921   NORMALIZED FREE ENERGY PREDICTED BY IDOCK:   -5.08 KCAL/MOL
REMARK 922        TOTAL FREE ENERGY PREDICTED BY IDOCK:   -7.34 KCAL/MOL
REMARK 923 INTER-LIGAND FREE ENERGY PREDICTED BY IDOCK:   -6.85 KCAL/MOL
REMARK 924 INTRA-LIGAND FREE ENERGY PREDICTED BY IDOCK:   -0.49 KCAL/MOL
REMARK 927      BINDING AFFINITY PREDICTED BY RF-SCORE:    0.00 PKD
ROOT
HETATM    1  N   UNL     1     -11.212  11.548  69.840  1.00  0.00    -0.478 NA 
HETATM    2  C   UNL     1     -10.515  11.269  68.566  1.00  0.00    -0.197 C  
HETATM    3  H1  UNL     1     -11.776  12.389  69.717  1.00  0.00     0.000 HD 
HETATM    4  H2  UNL     1     -10.572  11.615  70.632  1.00  0.00     0.000 HD 
ENDROOT
BRANCH   2   5
HETATM    5  C   UNL     1     -11.550  11.143  67.421  1.00  0.00    -0.157 C  
BRANCH   5   6
HETATM    6  C   UNL     1     -10.931  11.237  66.044  1.00  0.00    -0.237 A  
HETATM    7  F   UNL     1     -11.679  13.476  65.798  1.00  0.00    -0.317 F  
HETATM    8  C   UNL     1     -11.015  12.422  65.303  1.00  0.00    -0.298 A  
HETATM    9  C   UNL     1     -10.421  12.540  64.051  1.00  0.00    -0.449 A  
HETATM   10  C   UNL     1     -10.251  10.141  65.486  1.00  0.00    -0.288 A  
HETATM   11  C   UNL     1      -9.648  10.262  64.239  1.00  0.00    -0.313 A  
HETATM   12  F   UNL     1      -9.143  11.564  62.330  1.00  0.00    -0.362 F  
HETATM   13  C   UNL     1      -9.730  11.454  63.528  1.00  0.00    -0.339 A  
HETATM   14  F   UNL     1      -8.982   9.216  63.727  1.00  0.00    -0.221 F  
ENDBRANCH   5   6
ENDBRANCH   2   5
BRANCH   2  15
HETATM   15  C   UNL     1      -9.668  10.006  68.750  1.00  0.00    -0.174 C  
BRANCH  15  16
HETATM   16  C   UNL     1     -10.227   8.991  69.739  1.00  0.00    -0.205 C  
HETATM   17  N   UNL     1     -10.018   5.086  68.532  1.00  0.00    -0.156 NA 
HETATM   18  C   UNL     1     -11.039   6.688  70.103  1.00  0.00    -0.329 C  
HETATM   19  N   UNL     1     -10.485   7.724  69.226  1.00  0.00    -0.220 N  
HETATM   20  C   UNL     1     -10.117   6.026  67.541  1.00  0.00    -0.159 A  
HETATM   21  O   UNL     1     -10.409   9.263  70.923  1.00  0.00    -0.248 OA 
HETATM   22  C   UNL     1     -10.534   7.428  67.790  1.00  0.00    -0.232 C  
HETATM   23  C   UNL     1     -10.295   5.361  69.927  1.00  0.00    -0.307 C  
HETATM   24  N   UNL     1      -9.773   5.485  66.398  1.00  0.00    -0.157 NA 
HETATM   25  N   UNL     1      -9.403   4.188  66.645  1.00  0.00    -0.163 NA 
HETATM   26  C   UNL     1      -9.527   3.951  67.941  1.00  0.00    -0.173 A  
HETATM   27  C   UNL     1      -9.184   2.692  68.649  1.00  0.00    -0.179 C  
HETATM   28  F   UNL     1      -9.435   2.760  69.984  1.00  0.00    -0.195 F  
HETATM   29  F   UNL     1      -9.892   1.633  68.182  1.00  0.00    -0.245 F  
HETATM   30  F   UNL     1      -7.868   2.380  68.528  1.00  0.00    -0.053 F  
ENDBRANCH  15  16
ENDBRANCH   2  15
TORSDOF 4
ENDMDL
MODEL      171
REMARK 921   NORMALIZED FREE ENERGY PREDICTED BY IDOCK:   -5.08 KCAL/MOL
REMARK 922        TOTAL FREE ENERGY PREDICTED BY IDOCK:   -7.34 KCAL/MOL
REMARK 923 INTER-LIGAND FREE ENERGY PREDICTED BY IDOCK:   -6.77 KCAL/MOL
REMARK 924 INTRA-LIGAND FREE ENERGY PREDICTED BY IDOCK:   -0.57 KCAL/MOL
REMARK 927      BINDING AFFINITY PREDICTED BY RF-SCORE:    0.00 PKD
ROOT
HETATM    1  N   UNL     1     -10.401  14.418  69.341  1.00  0.00    -0.424 NA 
HETATM    2  C   UNL     1      -9.760  14.867  68.086  1.00  0.00    -0.214 C  
HETATM    3  H1  UNL     1     -10.776  15.238  69.817  1.00  0.00     0.000 HD 
HETATM    4  H2  UNL     1      -9.771  13.873  69.930  1.00  0.00     0.000 HD 
ENDROOT
BRANCH   2   5
HETATM    5  C   UNL     1     -10.783  15.651  67.229  1.00  0.00    -0.305 C  
BRANCH   5   6
HETATM    6  C   UNL     1     -10.526  17.142  67.208  1.00  0.00    -0.313 A  
HETATM    7  F   UNL     1     -10.923  17.235  64.869  1.00  0.00    -0.393 F  
HETATM    8  C   UNL     1     -10.629  17.867  66.015  1.00  0.00    -0.234 A  
HETATM    9  C   UNL     1     -10.432  19.244  65.982  1.00  0.00    -0.573 A  
HETATM   10  C   UNL     1     -10.189  17.829  68.386  1.00  0.00    -0.384 A  
HETATM   11  C   UNL     1     -10.003  19.207  68.356  1.00  0.00    -0.418 A  
HETATM   12  F   UNL     1      -9.950  21.236  67.142  1.00  0.00    -0.521 F  
HETATM   13  C   UNL     1     -10.126  19.909  67.163  1.00  0.00    -0.438 A  
HETATM   14  F   UNL     1      -9.705  19.854  69.492  1.00  0.00    -0.396 F  
ENDBRANCH   5   6
ENDBRANCH   2   5
BRANCH   2  15
HETATM   15  C   UNL     1      -9.196  13.637  67.369  1.00  0.00    -0.222 C  
BRANCH  15  16
HETATM   16  C   UNL     1      -8.294  12.751  68.218  1.00  0.00    -0.161 C  
HETATM   17  N   UNL     1      -8.799   8.725  67.680  1.00  0.00    -0.135 NA 
HETATM   18  C   UNL     1      -7.870  10.494  69.125  1.00  0.00    -0.138 C  
HETATM   19  N   UNL     1      -8.673  11.416  68.316  1.00  0.00    -0.154 N  
HETATM   20  C   UNL     1      -9.897   9.513  67.457  1.00  0.00    -0.167 A  
HETATM   21  O   UNL     1      -7.277  13.179  68.758  1.00  0.00    -0.102 OA 
HETATM   22  C   UNL     1      -9.994  10.920  67.917  1.00  0.00    -0.176 C  
HETATM   23  C   UNL     1      -7.613   9.183  68.376  1.00  0.00    -0.083 C  
HETATM   24  N   UNL     1     -10.786   8.829  66.779  1.00  0.00    -0.139 NA 
HETATM   25  N   UNL     1     -10.252   7.593  66.517  1.00  0.00    -0.178 NA 
HETATM   26  C   UNL     1      -9.039   7.537  67.041  1.00  0.00    -0.135 A  
HETATM   27  C   UNL     1      -8.085   6.403  66.948  1.00  0.00    -0.109 C  
HETATM   28  F   UNL     1      -6.918   6.648  67.602  1.00  0.00    -0.070 F  
HETATM   29  F   UNL     1      -8.590   5.264  67.485  1.00  0.00    -0.107 F  
HETATM   30  F   UNL     1      -7.746   6.125  65.663  1.00  0.00    -0.080 F  
ENDBRANCH  15  16
ENDBRANCH   2  15
TORSDOF 4
ENDMDL
MODEL      172
REMARK 921   NORMALIZED FREE ENERGY PREDICTED BY IDOCK:   -5.07 KCAL/MOL
REMARK 922        TOTAL FREE ENERGY PREDICTED BY IDOCK:   -7.33 KCAL/MOL
REMARK 923 INTER-LIGAND FREE ENERGY PREDICTED BY IDOCK:   -6.13 KCAL/MOL
REMARK 924 INTRA-LIGAND FREE ENERGY PREDICTED BY IDOCK:   -1.20 KCAL/MOL
REMARK 927      BINDING AFFINITY PREDICTED BY RF-SCORE:    0.00 PKD
ROOT
HETATM    1  N   UNL     1      -8.500   8.212  69.636  1.00  0.00    -0.125 NA 
HETATM    2  C   UNL     1      -9.093   9.535  69.344  1.00  0.00    -0.168 C  
HETATM    3  H1  UNL     1      -9.168   7.680  70.194  1.00  0.00     0.000 HD 
HETATM    4  H2  UNL     1      -7.583   8.281  70.079  1.00  0.00     0.000 HD 
ENDROOT
BRANCH   2   5
HETATM    5  C   UNL     1     -10.459   9.351  68.640  1.00  0.00    -0.236 C  
BRANCH   5   6
HETATM    6  C   UNL     1     -11.024  10.640  68.087  1.00  0.00    -0.321 A  
HETATM    7  F   UNL     1     -11.398  11.482  70.275  1.00  0.00    -0.336 F  
HETATM    8  C   UNL     1     -11.453  11.659  68.947  1.00  0.00    -0.287 A  
HETATM    9  C   UNL     1     -11.942  12.865  68.457  1.00  0.00    -0.272 A  
HETATM   10  C   UNL     1     -11.121  10.845  66.700  1.00  0.00    -0.155 A  
HETATM   11  C   UNL     1     -11.599  12.056  66.210  1.00  0.00    -0.310 A  
HETATM   12  F   UNL     1     -12.458  14.224  66.604  1.00  0.00    -0.471 F  
HETATM   13  C   UNL     1     -12.003  13.060  67.083  1.00  0.00    -0.329 A  
HETATM   14  F   UNL     1     -11.663  12.248  64.884  1.00  0.00    -0.366 F  
ENDBRANCH   5   6
ENDBRANCH   2   5
BRANCH   2  15
HETATM   15  C   UNL     1      -8.090  10.334  68.506  1.00  0.00    -0.109 C  
BRANCH  15  16
HETATM   16  C   UNL     1      -7.440  11.510  69.224  1.00  0.00     0.035 C  
HETATM   17  N   UNL     1      -8.559  15.209  67.875  1.00  0.00    -0.150 NA 
HETATM   18  C   UNL     1      -6.915  13.922  69.187  1.00  0.00    -0.093 C  
HETATM   19  N   UNL     1      -7.526  12.738  68.576  1.00  0.00    -0.121 N  
HETATM   20  C   UNL     1      -8.596  14.189  66.961  1.00  0.00    -0.184 A  
HETATM   21  O   UNL     1      -6.900  11.389  70.320  1.00  0.00    -0.096 OA 
HETATM   22  C   UNL     1      -7.921  12.886  67.172  1.00  0.00    -0.099 C  
HETATM   23  C   UNL     1      -7.870  15.119  69.147  1.00  0.00    -0.199 C  
HETATM   24  N   UNL     1      -9.319  14.560  65.933  1.00  0.00    -0.177 NA 
HETATM   25  N   UNL     1      -9.798  15.819  66.191  1.00  0.00    -0.290 NA 
HETATM   26  C   UNL     1      -9.358  16.204  67.378  1.00  0.00    -0.217 A  
HETATM   27  C   UNL     1      -9.678  17.478  68.071  1.00  0.00    -0.287 C  
HETATM   28  F   UNL     1      -9.062  17.583  69.279  1.00  0.00    -0.151 F  
HETATM   29  F   UNL     1      -9.294  18.562  67.352  1.00  0.00    -0.271 F  
HETATM   30  F   UNL     1     -11.008  17.607  68.314  1.00  0.00    -0.342 F  
ENDBRANCH  15  16
ENDBRANCH   2  15
TORSDOF 4
ENDMDL
MODEL      173
REMARK 921   NORMALIZED FREE ENERGY PREDICTED BY IDOCK:   -5.05 KCAL/MOL
REMARK 922        TOTAL FREE ENERGY PREDICTED BY IDOCK:   -7.30 KCAL/MOL
REMARK 923 INTER-LIGAND FREE ENERGY PREDICTED BY IDOCK:   -6.51 KCAL/MOL
REMARK 924 INTRA-LIGAND FREE ENERGY PREDICTED BY IDOCK:   -0.79 KCAL/MOL
REMARK 927      BINDING AFFINITY PREDICTED BY RF-SCORE:    0.00 PKD
ROOT
HETATM    1  N   UNL     1      -7.080  11.312  65.918  1.00  0.00    -0.370 NA 
HETATM    2  C   UNL     1      -8.185  10.839  66.781  1.00  0.00    -0.135 C  
HETATM    3  H1  UNL     1      -6.756  10.525  65.355  1.00  0.00     0.000 HD 
HETATM    4  H2  UNL     1      -6.329  11.753  66.448  1.00  0.00     0.000 HD 
ENDROOT
BRANCH   2   5
HETATM    5  C   UNL     1      -9.301  10.218  65.906  1.00  0.00    -0.226 C  
BRANCH   5   6
HETATM    6  C   UNL     1      -9.564   8.762  66.219  1.00  0.00    -0.328 A  
HETATM    7  F   UNL     1     -11.172   9.348  67.865  1.00  0.00    -0.238 F  
HETATM    8  C   UNL     1     -10.513   8.399  67.183  1.00  0.00    -0.310 A  
HETATM    9  C   UNL     1     -10.795   7.066  67.460  1.00  0.00    -0.338 A  
HETATM   10  C   UNL     1      -8.870   7.745  65.543  1.00  0.00    -0.048 A  
HETATM   11  C   UNL     1      -9.160   6.411  65.811  1.00  0.00     0.003 A  
HETATM   12  F   UNL     1     -10.395   4.789  67.010  1.00  0.00    -0.226 F  
HETATM   13  C   UNL     1     -10.118   6.075  66.760  1.00  0.00    -0.187 A  
HETATM   14  F   UNL     1      -8.508   5.450  65.141  1.00  0.00    -0.127 F  
ENDBRANCH   5   6
ENDBRANCH   2   5
BRANCH   2  15
HETATM   15  C   UNL     1      -8.672  12.019  67.625  1.00  0.00    -0.166 C  
BRANCH  15  16
HETATM   16  C   UNL     1      -7.602  13.043  67.984  1.00  0.00    -0.139 C  
HETATM   17  N   UNL     1      -8.727  16.957  67.573  1.00  0.00    -0.206 NA 
HETATM   18  C   UNL     1      -6.842  15.386  67.820  1.00  0.00    -0.167 C  
HETATM   19  N   UNL     1      -7.827  14.339  67.533  1.00  0.00    -0.181 N  
HETATM   20  C   UNL     1      -9.342  16.055  66.746  1.00  0.00    -0.238 A  
HETATM   21  O   UNL     1      -6.617  12.750  68.657  1.00  0.00    -0.072 OA 
HETATM   22  C   UNL     1      -8.833  14.680  66.522  1.00  0.00    -0.155 C  
HETATM   23  C   UNL     1      -7.523  16.662  68.325  1.00  0.00    -0.182 C  
HETATM   24  N   UNL     1     -10.418  16.603  66.237  1.00  0.00    -0.296 NA 
HETATM   25  N   UNL     1     -10.535  17.863  66.765  1.00  0.00    -0.337 NA 
HETATM   26  C   UNL     1      -9.524  18.070  67.594  1.00  0.00    -0.264 A  
HETATM   27  C   UNL     1      -9.291  19.281  68.421  1.00  0.00    -0.366 C  
HETATM   28  F   UNL     1      -8.154  19.192  69.165  1.00  0.00    -0.360 F  
HETATM   29  F   UNL     1      -9.164  20.400  67.665  1.00  0.00    -0.418 F  
HETATM   30  F   UNL     1     -10.300  19.502  69.301  1.00  0.00    -0.429 F  
ENDBRANCH  15  16
ENDBRANCH   2  15
TORSDOF 4
ENDMDL
MODEL      174
REMARK 921   NORMALIZED FREE ENERGY PREDICTED BY IDOCK:   -5.05 KCAL/MOL
REMARK 922        TOTAL FREE ENERGY PREDICTED BY IDOCK:   -7.30 KCAL/MOL
REMARK 923 INTER-LIGAND FREE ENERGY PREDICTED BY IDOCK:   -6.64 KCAL/MOL
REMARK 924 INTRA-LIGAND FREE ENERGY PREDICTED BY IDOCK:   -0.66 KCAL/MOL
REMARK 927      BINDING AFFINITY PREDICTED BY RF-SCORE:    0.00 PKD
ROOT
HETATM    1  N   UNL     1      -8.329   6.583  63.920  1.00  0.00    -0.333 NA 
HETATM    2  C   UNL     1      -8.141   6.349  65.368  1.00  0.00    -0.128 C  
HETATM    3  H1  UNL     1      -8.265   5.684  63.442  1.00  0.00     0.000 HD 
HETATM    4  H2  UNL     1      -7.679   7.275  63.546  1.00  0.00     0.000 HD 
ENDROOT
BRANCH   2   5
HETATM    5  C   UNL     1      -9.183   5.320  65.870  1.00  0.00    -0.166 C  
BRANCH   5   6
HETATM    6  C   UNL     1      -9.552   5.507  67.326  1.00  0.00    -0.132 A  
HETATM    7  F   UNL     1     -11.646   6.455  66.733  1.00  0.00    -0.353 F  
HETATM    8  C   UNL     1     -10.789   6.056  67.684  1.00  0.00    -0.295 A  
HETATM    9  C   UNL     1     -11.161   6.201  69.016  1.00  0.00    -0.437 A  
HETATM   10  C   UNL     1      -8.665   5.124  68.346  1.00  0.00    -0.104 A  
HETATM   11  C   UNL     1      -9.041   5.258  69.678  1.00  0.00    -0.116 A  
HETATM   12  F   UNL     1     -10.638   5.914  71.294  1.00  0.00    -0.259 F  
HETATM   13  C   UNL     1     -10.282   5.791  70.010  1.00  0.00    -0.238 A  
HETATM   14  F   UNL     1      -8.195   4.867  70.642  1.00  0.00    -0.087 F  
ENDBRANCH   5   6
ENDBRANCH   2   5
BRANCH   2  15
HETATM   15  C   UNL     1      -8.236   7.698  66.086  1.00  0.00    -0.124 C  
BRANCH  15  16
HETATM   16  C   UNL     1      -8.383   8.909  65.173  1.00  0.00    -0.161 C  
HETATM   17  N   UNL     1     -10.732  11.923  66.639  1.00  0.00    -0.245 NA 
HETATM   18  C   UNL     1      -9.652  10.959  64.643  1.00  0.00    -0.257 C  
HETATM   19  N   UNL     1      -9.427   9.775  65.478  1.00  0.00    -0.242 N  
HETATM   20  C   UNL     1     -11.030  10.656  67.064  1.00  0.00    -0.208 A  
HETATM   21  O   UNL     1      -7.609   9.125  64.245  1.00  0.00    -0.108 OA 
HETATM   22  C   UNL     1     -10.519   9.434  66.395  1.00  0.00    -0.095 C  
HETATM   23  C   UNL     1      -9.878  12.206  65.502  1.00  0.00    -0.221 C  
HETATM   24  N   UNL     1     -11.793  10.727  68.126  1.00  0.00    -0.514 NA 
HETATM   25  N   UNL     1     -11.965  12.054  68.429  1.00  0.00    -0.423 NA 
HETATM   26  C   UNL     1     -11.303  12.779  67.543  1.00  0.00    -0.312 A  
HETATM   27  C   UNL     1     -11.175  14.258  67.527  1.00  0.00    -0.307 C  
HETATM   28  F   UNL     1     -10.433  14.706  66.477  1.00  0.00    -0.273 F  
HETATM   29  F   UNL     1     -12.379  14.875  67.433  1.00  0.00    -0.276 F  
HETATM   30  F   UNL     1     -10.568  14.731  68.646  1.00  0.00    -0.227 F  
ENDBRANCH  15  16
ENDBRANCH   2  15
TORSDOF 4
ENDMDL
MODEL      175
REMARK 921   NORMALIZED FREE ENERGY PREDICTED BY IDOCK:   -5.05 KCAL/MOL
REMARK 922        TOTAL FREE ENERGY PREDICTED BY IDOCK:   -7.29 KCAL/MOL
REMARK 923 INTER-LIGAND FREE ENERGY PREDICTED BY IDOCK:   -6.33 KCAL/MOL
REMARK 924 INTRA-LIGAND FREE ENERGY PREDICTED BY IDOCK:   -0.96 KCAL/MOL
REMARK 927      BINDING AFFINITY PREDICTED BY RF-SCORE:    0.00 PKD
ROOT
HETATM    1  N   UNL     1     -10.335   5.063  71.783  1.00  0.00    -0.209 NA 
HETATM    2  C   UNL     1     -10.381   4.958  70.309  1.00  0.00    -0.181 C  
HETATM    3  H1  UNL     1      -9.715   4.333  72.135  1.00  0.00     0.000 HD 
HETATM    4  H2  UNL     1     -11.262   5.031  72.209  1.00  0.00     0.000 HD 
ENDROOT
BRANCH   2   5
HETATM    5  C   UNL     1      -8.947   5.052  69.734  1.00  0.00    -0.141 C  
BRANCH   5   6
HETATM    6  C   UNL     1      -8.888   4.829  68.239  1.00  0.00    -0.117 A  
HETATM    7  F   UNL     1      -9.481   2.545  68.498  1.00  0.00    -0.215 F  
HETATM    8  C   UNL     1      -9.179   3.573  67.692  1.00  0.00    -0.188 A  
HETATM    9  C   UNL     1      -9.165   3.358  66.318  1.00  0.00    -0.168 A  
HETATM   10  C   UNL     1      -8.549   5.879  67.369  1.00  0.00    -0.106 A  
HETATM   11  C   UNL     1      -8.546   5.667  65.994  1.00  0.00    -0.137 A  
HETATM   12  F   UNL     1      -8.854   4.220  64.149  1.00  0.00    -0.118 F  
HETATM   13  C   UNL     1      -8.855   4.416  65.473  1.00  0.00    -0.127 A  
HETATM   14  F   UNL     1      -8.244   6.684  65.174  1.00  0.00    -0.119 F  
ENDBRANCH   5   6
ENDBRANCH   2   5
BRANCH   2  15
HETATM   15  C   UNL     1     -11.312   6.053  69.780  1.00  0.00    -0.344 C  
BRANCH  15  16
HETATM   16  C   UNL     1     -11.753   7.082  70.813  1.00  0.00    -0.349 C  
HETATM   17  N   UNL     1     -11.077  10.985  69.783  1.00  0.00    -0.256 NA 
HETATM   18  C   UNL     1     -11.591   9.413  71.611  1.00  0.00    -0.396 C  
HETATM   19  N   UNL     1     -11.233   8.362  70.653  1.00  0.00    -0.258 N  
HETATM   20  C   UNL     1     -10.218  10.057  69.254  1.00  0.00    -0.214 A  
HETATM   21  O   UNL     1     -12.543   6.808  71.713  1.00  0.00    -0.357 OA 
HETATM   22  C   UNL     1     -10.103   8.671  69.771  1.00  0.00    -0.199 C  
HETATM   23  C   UNL     1     -11.969  10.710  70.890  1.00  0.00    -0.363 C  
HETATM   24  N   UNL     1      -9.572  10.593  68.249  1.00  0.00    -0.157 NA 
HETATM   25  N   UNL     1     -10.038  11.872  68.086  1.00  0.00    -0.192 NA 
HETATM   26  C   UNL     1     -10.967  12.103  68.999  1.00  0.00    -0.205 A  
HETATM   27  C   UNL     1     -11.771  13.342  69.151  1.00  0.00    -0.329 C  
HETATM   28  F   UNL     1     -12.641  13.274  70.195  1.00  0.00    -0.323 F  
HETATM   29  F   UNL     1     -10.995  14.432  69.373  1.00  0.00    -0.240 F  
HETATM   30  F   UNL     1     -12.523  13.602  68.051  1.00  0.00    -0.327 F  
ENDBRANCH  15  16
ENDBRANCH   2  15
TORSDOF 4
ENDMDL
MODEL      176
REMARK 921   NORMALIZED FREE ENERGY PREDICTED BY IDOCK:   -5.03 KCAL/MOL
REMARK 922        TOTAL FREE ENERGY PREDICTED BY IDOCK:   -7.28 KCAL/MOL
REMARK 923 INTER-LIGAND FREE ENERGY PREDICTED BY IDOCK:   -6.36 KCAL/MOL
REMARK 924 INTRA-LIGAND FREE ENERGY PREDICTED BY IDOCK:   -0.92 KCAL/MOL
REMARK 927      BINDING AFFINITY PREDICTED BY RF-SCORE:    0.00 PKD
ROOT
HETATM    1  N   UNL     1      -9.041  15.239  69.753  1.00  0.00    -0.432 NA 
HETATM    2  C   UNL     1      -9.357  15.464  68.326  1.00  0.00    -0.193 C  
HETATM    3  H1  UNL     1      -9.494  15.973  70.298  1.00  0.00     0.000 HD 
HETATM    4  H2  UNL     1      -8.038  15.179  69.929  1.00  0.00     0.000 HD 
ENDROOT
BRANCH   2   5
HETATM    5  C   UNL     1     -10.892  15.506  68.131  1.00  0.00    -0.296 C  
BRANCH   5   6
HETATM    6  C   UNL     1     -11.331  15.063  66.753  1.00  0.00    -0.293 A  
HETATM    7  F   UNL     1     -10.511  17.070  65.784  1.00  0.00    -0.338 F  
HETATM    8  C   UNL     1     -11.097  15.873  65.635  1.00  0.00    -0.108 A  
HETATM    9  C   UNL     1     -11.461  15.467  64.355  1.00  0.00    -0.264 A  
HETATM   10  C   UNL     1     -11.972  13.827  66.566  1.00  0.00    -0.470 A  
HETATM   11  C   UNL     1     -12.326  13.416  65.285  1.00  0.00    -0.469 A  
HETATM   12  F   UNL     1     -12.408  13.826  62.957  1.00  0.00    -0.516 F  
HETATM   13  C   UNL     1     -12.069  14.229  64.187  1.00  0.00    -0.393 A  
HETATM   14  F   UNL     1     -12.916  12.223  65.118  1.00  0.00    -0.400 F  
ENDBRANCH   5   6
ENDBRANCH   2   5
BRANCH   2  15
HETATM   15  C   UNL     1      -8.678  14.363  67.506  1.00  0.00    -0.203 C  
BRANCH  15  16
HETATM   16  C   UNL     1      -7.735  13.460  68.291  1.00  0.00    -0.141 C  
HETATM   17  N   UNL     1      -8.505   9.452  67.989  1.00  0.00    -0.120 NA 
HETATM   18  C   UNL     1      -7.332  11.219  69.246  1.00  0.00    -0.068 C  
HETATM   19  N   UNL     1      -8.170  12.154  68.488  1.00  0.00    -0.138 N  
HETATM   20  C   UNL     1      -9.578  10.291  67.851  1.00  0.00    -0.145 A  
HETATM   21  O   UNL     1      -6.644  13.851  68.699  1.00  0.00    -0.082 OA 
HETATM   22  C   UNL     1      -9.551  11.718  68.256  1.00  0.00    -0.199 C  
HETATM   23  C   UNL     1      -7.227   9.868  68.532  1.00  0.00    -0.076 C  
HETATM   24  N   UNL     1     -10.570   9.633  67.304  1.00  0.00    -0.260 NA 
HETATM   25  N   UNL     1     -10.134   8.361  67.040  1.00  0.00    -0.255 NA 
HETATM   26  C   UNL     1      -8.875   8.256  67.432  1.00  0.00    -0.131 A  
HETATM   27  C   UNL     1      -7.997   7.067  67.287  1.00  0.00    -0.111 C  
HETATM   28  F   UNL     1      -6.753   7.271  67.800  1.00  0.00    -0.054 F  
HETATM   29  F   UNL     1      -8.498   5.980  67.925  1.00  0.00    -0.113 F  
HETATM   30  F   UNL     1      -7.816   6.721  65.986  1.00  0.00    -0.090 F  
ENDBRANCH  15  16
ENDBRANCH   2  15
TORSDOF 4
ENDMDL
MODEL      177
REMARK 921   NORMALIZED FREE ENERGY PREDICTED BY IDOCK:   -5.02 KCAL/MOL
REMARK 922        TOTAL FREE ENERGY PREDICTED BY IDOCK:   -7.26 KCAL/MOL
REMARK 923 INTER-LIGAND FREE ENERGY PREDICTED BY IDOCK:   -6.87 KCAL/MOL
REMARK 924 INTRA-LIGAND FREE ENERGY PREDICTED BY IDOCK:   -0.39 KCAL/MOL
REMARK 927      BINDING AFFINITY PREDICTED BY RF-SCORE:    0.00 PKD
ROOT
HETATM    1  N   UNL     1      -9.937  14.559  64.718  1.00  0.00    -0.542 NA 
HETATM    2  C   UNL     1     -10.812  15.321  65.635  1.00  0.00    -0.363 C  
HETATM    3  H1  UNL     1      -9.101  15.116  64.539  1.00  0.00     0.000 HD 
HETATM    4  H2  UNL     1     -10.414  14.278  63.861  1.00  0.00     0.000 HD 
ENDROOT
BRANCH   2   5
HETATM    5  C   UNL     1     -10.033  15.677  66.924  1.00  0.00    -0.252 C  
BRANCH   5   6
HETATM    6  C   UNL     1      -9.661  17.141  67.011  1.00  0.00    -0.265 A  
HETATM    7  F   UNL     1     -11.405  17.550  68.569  1.00  0.00    -0.119 F  
HETATM    8  C   UNL     1     -10.367  18.007  67.855  1.00  0.00    -0.392 A  
HETATM    9  C   UNL     1     -10.017  19.348  67.976  1.00  0.00    -0.488 A  
HETATM   10  C   UNL     1      -8.596  17.657  66.256  1.00  0.00    -0.224 A  
HETATM   11  C   UNL     1      -8.238  18.995  66.385  1.00  0.00    -0.305 A  
HETATM   12  F   UNL     1      -8.590  21.119  67.364  1.00  0.00    -0.370 F  
HETATM   13  C   UNL     1      -8.942  19.833  67.242  1.00  0.00    -0.326 A  
HETATM   14  F   UNL     1      -7.204  19.470  65.676  1.00  0.00    -0.275 F  
ENDBRANCH   5   6
ENDBRANCH   2   5
BRANCH   2  15
HETATM   15  C   UNL     1     -12.066  14.484  65.904  1.00  0.00    -0.288 C  
BRANCH  15  16
HETATM   16  C   UNL     1     -12.049  13.692  67.204  1.00  0.00    -0.362 C  
HETATM   17  N   UNL     1      -9.407  10.567  67.306  1.00  0.00    -0.146 NA 
HETATM   18  C   UNL     1     -11.385  11.607  68.349  1.00  0.00    -0.279 C  
HETATM   19  N   UNL     1     -11.434  12.445  67.147  1.00  0.00    -0.335 N  
HETATM   20  C   UNL     1      -9.903  10.907  66.075  1.00  0.00    -0.233 A  
HETATM   21  O   UNL     1     -12.520  14.137  68.248  1.00  0.00    -0.113 OA 
HETATM   22  C   UNL     1     -11.097  11.768  65.891  1.00  0.00    -0.302 C  
HETATM   23  C   UNL     1      -9.985  11.021  68.555  1.00  0.00    -0.193 C  
HETATM   24  N   UNL     1      -9.150  10.372  65.146  1.00  0.00    -0.184 NA 
HETATM   25  N   UNL     1      -8.124   9.709  65.769  1.00  0.00    -0.111 NA 
HETATM   26  C   UNL     1      -8.265   9.846  67.078  1.00  0.00    -0.117 A  
HETATM   27  C   UNL     1      -7.347   9.333  68.126  1.00  0.00    -0.079 C  
HETATM   28  F   UNL     1      -7.773   9.631  69.383  1.00  0.00    -0.075 F  
HETATM   29  F   UNL     1      -7.219   7.983  68.078  1.00  0.00    -0.083 F  
HETATM   30  F   UNL     1      -6.100   9.859  68.016  1.00  0.00    -0.051 F  
ENDBRANCH  15  16
ENDBRANCH   2  15
TORSDOF 4
ENDMDL
MODEL      178
REMARK 921   NORMALIZED FREE ENERGY PREDICTED BY IDOCK:   -4.98 KCAL/MOL
REMARK 922        TOTAL FREE ENERGY PREDICTED BY IDOCK:   -7.21 KCAL/MOL
REMARK 923 INTER-LIGAND FREE ENERGY PREDICTED BY IDOCK:   -6.99 KCAL/MOL
REMARK 924 INTRA-LIGAND FREE ENERGY PREDICTED BY IDOCK:   -0.22 KCAL/MOL
REMARK 927      BINDING AFFINITY PREDICTED BY RF-SCORE:    0.00 PKD
ROOT
HETATM    1  N   UNL     1      -9.302   8.373  71.348  1.00  0.00    -0.172 NA 
HETATM    2  C   UNL     1     -10.587   8.718  70.702  1.00  0.00    -0.215 C  
HETATM    3  H1  UNL     1      -9.480   8.194  72.336  1.00  0.00     0.000 HD 
HETATM    4  H2  UNL     1      -8.584   9.083  71.198  1.00  0.00     0.000 HD 
ENDROOT
BRANCH   2   5
HETATM    5  C   UNL     1     -11.611   7.581  70.939  1.00  0.00    -0.309 C  
BRANCH   5   6
HETATM    6  C   UNL     1     -10.977   6.208  70.990  1.00  0.00    -0.354 A  
HETATM    7  F   UNL     1     -11.402   6.036  73.319  1.00  0.00    -0.259 F  
HETATM    8  C   UNL     1     -10.922   5.491  72.191  1.00  0.00    -0.231 A  
HETATM    9  C   UNL     1     -10.376   4.214  72.251  1.00  0.00    -0.197 A  
HETATM   10  C   UNL     1     -10.441   5.622  69.831  1.00  0.00    -0.378 A  
HETATM   11  C   UNL     1      -9.904   4.339  69.888  1.00  0.00    -0.197 A  
HETATM   12  F   UNL     1      -9.362   2.405  71.135  1.00  0.00    -0.155 F  
HETATM   13  C   UNL     1      -9.876   3.640  71.089  1.00  0.00    -0.130 A  
HETATM   14  F   UNL     1      -9.417   3.782  68.770  1.00  0.00    -0.192 F  
ENDBRANCH   5   6
ENDBRANCH   2   5
BRANCH   2  15
HETATM   15  C   UNL     1     -10.321   8.986  69.218  1.00  0.00    -0.227 C  
BRANCH  15  16
HETATM   16  C   UNL     1      -9.203   9.980  68.931  1.00  0.00    -0.169 C  
HETATM   17  N   UNL     1     -10.375  13.431  67.069  1.00  0.00    -0.246 NA 
HETATM   18  C   UNL     1      -8.479  11.970  67.662  1.00  0.00    -0.160 C  
HETATM   19  N   UNL     1      -9.502  10.979  68.011  1.00  0.00    -0.162 N  
HETATM   20  C   UNL     1     -11.129  12.315  66.816  1.00  0.00    -0.296 A  
HETATM   21  O   UNL     1      -8.116   9.923  69.499  1.00  0.00    -0.121 OA 
HETATM   22  C   UNL     1     -10.670  10.939  67.124  1.00  0.00    -0.270 C  
HETATM   23  C   UNL     1      -9.059  13.388  67.673  1.00  0.00    -0.203 C  
HETATM   24  N   UNL     1     -12.276  12.679  66.299  1.00  0.00    -0.566 NA 
HETATM   25  N   UNL     1     -12.296  14.050  66.249  1.00  0.00    -0.465 NA 
HETATM   26  C   UNL     1     -11.155  14.507  66.737  1.00  0.00    -0.325 A  
HETATM   27  C   UNL     1     -10.777  15.932  66.919  1.00  0.00    -0.289 C  
HETATM   28  F   UNL     1      -9.527  16.077  67.438  1.00  0.00    -0.213 F  
HETATM   29  F   UNL     1     -10.783  16.616  65.747  1.00  0.00    -0.333 F  
HETATM   30  F   UNL     1     -11.615  16.579  67.767  1.00  0.00    -0.161 F  
ENDBRANCH  15  16
ENDBRANCH   2  15
TORSDOF 4
ENDMDL
MODEL      179
REMARK 921   NORMALIZED FREE ENERGY PREDICTED BY IDOCK:   -4.96 KCAL/MOL
REMARK 922        TOTAL FREE ENERGY PREDICTED BY IDOCK:   -7.19 KCAL/MOL
REMARK 923 INTER-LIGAND FREE ENERGY PREDICTED BY IDOCK:   -6.42 KCAL/MOL
REMARK 924 INTRA-LIGAND FREE ENERGY PREDICTED BY IDOCK:   -0.77 KCAL/MOL
REMARK 927      BINDING AFFINITY PREDICTED BY RF-SCORE:    0.00 PKD
ROOT
HETATM    1  N   UNL     1     -13.551   9.925  70.723  1.00  0.00    -0.500 NA 
HETATM    2  C   UNL     1     -12.101  10.216  70.765  1.00  0.00    -0.343 C  
HETATM    3  H1  UNL     1     -13.998  10.619  70.123  1.00  0.00     0.000 HD 
HETATM    4  H2  UNL     1     -13.969   9.880  71.653  1.00  0.00     0.000 HD 
ENDROOT
BRANCH   2   5
HETATM    5  C   UNL     1     -11.531  10.230  69.325  1.00  0.00    -0.223 C  
BRANCH   5   6
HETATM    6  C   UNL     1     -11.492  11.613  68.713  1.00  0.00    -0.346 A  
HETATM    7  F   UNL     1     -11.007  10.713  66.571  1.00  0.00    -0.288 F  
HETATM    8  C   UNL     1     -11.246  11.781  67.345  1.00  0.00    -0.297 A  
HETATM    9  C   UNL     1     -11.242  13.042  66.757  1.00  0.00    -0.333 A  
HETATM   10  C   UNL     1     -11.712  12.754  69.502  1.00  0.00    -0.383 A  
HETATM   11  C   UNL     1     -11.719  14.014  68.913  1.00  0.00    -0.340 A  
HETATM   12  F   UNL     1     -11.501  15.371  66.988  1.00  0.00    -0.322 F  
HETATM   13  C   UNL     1     -11.489  14.156  67.549  1.00  0.00    -0.340 A  
HETATM   14  F   UNL     1     -11.954  15.094  69.674  1.00  0.00    -0.292 F  
ENDBRANCH   5   6
ENDBRANCH   2   5
BRANCH   2  15
HETATM   15  C   UNL     1     -11.430   9.175  71.665  1.00  0.00    -0.451 C  
BRANCH  15  16
HETATM   16  C   UNL     1     -11.747   7.724  71.325  1.00  0.00    -0.288 C  
HETATM   17  N   UNL     1      -8.520   5.209  71.241  1.00  0.00    -0.121 NA 
HETATM   18  C   UNL     1     -10.876   5.533  70.594  1.00  0.00    -0.187 C  
HETATM   19  N   UNL     1     -10.662   6.938  70.953  1.00  0.00    -0.226 N  
HETATM   20  C   UNL     1      -8.277   6.522  70.937  1.00  0.00    -0.125 A  
HETATM   21  O   UNL     1     -12.884   7.268  71.404  1.00  0.00    -0.366 OA 
HETATM   22  C   UNL     1      -9.350   7.487  70.594  1.00  0.00    -0.163 C  
HETATM   23  C   UNL     1      -9.846   4.626  71.273  1.00  0.00    -0.190 C  
HETATM   24  N   UNL     1      -6.990   6.753  71.023  1.00  0.00    -0.065 NA 
HETATM   25  N   UNL     1      -6.383   5.592  71.429  1.00  0.00    -0.034 NA 
HETATM   26  C   UNL     1      -7.311   4.662  71.585  1.00  0.00    -0.069 A  
HETATM   27  C   UNL     1      -7.101   3.272  72.064  1.00  0.00    -0.038 C  
HETATM   28  F   UNL     1      -8.257   2.555  72.107  1.00  0.00    -0.052 F  
HETATM   29  F   UNL     1      -6.252   2.578  71.264  1.00  0.00    -0.016 F  
HETATM   30  F   UNL     1      -6.589   3.236  73.320  1.00  0.00    -0.024 F  
ENDBRANCH  15  16
ENDBRANCH   2  15
TORSDOF 4
ENDMDL
MODEL      180
REMARK 921   NORMALIZED FREE ENERGY PREDICTED BY IDOCK:   -4.96 KCAL/MOL
REMARK 922        TOTAL FREE ENERGY PREDICTED BY IDOCK:   -7.19 KCAL/MOL
REMARK 923 INTER-LIGAND FREE ENERGY PREDICTED BY IDOCK:   -6.64 KCAL/MOL
REMARK 924 INTRA-LIGAND FREE ENERGY PREDICTED BY IDOCK:   -0.54 KCAL/MOL
REMARK 927      BINDING AFFINITY PREDICTED BY RF-SCORE:    0.00 PKD
ROOT
HETATM    1  N   UNL     1     -10.817   9.075  71.268  1.00  0.00    -0.286 NA 
HETATM    2  C   UNL     1     -10.709   8.338  69.990  1.00  0.00    -0.239 C  
HETATM    3  H1  UNL     1     -11.805   9.144  71.513  1.00  0.00     0.000 HD 
HETATM    4  H2  UNL     1     -10.353   9.983  71.238  1.00  0.00     0.000 HD 
ENDROOT
BRANCH   2   5
HETATM    5  C   UNL     1     -11.399   6.959  70.123  1.00  0.00    -0.364 C  
BRANCH   5   6
HETATM    6  C   UNL     1     -10.680   5.857  69.377  1.00  0.00    -0.406 A  
HETATM    7  F   UNL     1     -11.161   6.881  67.289  1.00  0.00    -0.368 F  
HETATM    8  C   UNL     1     -10.583   5.887  67.980  1.00  0.00    -0.252 A  
HETATM    9  C   UNL     1      -9.895   4.903  67.279  1.00  0.00    -0.214 A  
HETATM   10  C   UNL     1     -10.088   4.789  70.069  1.00  0.00    -0.308 A  
HETATM   11  C   UNL     1      -9.390   3.810  69.369  1.00  0.00    -0.175 A  
HETATM   12  F   UNL     1      -8.616   2.926  67.317  1.00  0.00    -0.084 F  
HETATM   13  C   UNL     1      -9.292   3.869  67.984  1.00  0.00    -0.174 A  
HETATM   14  F   UNL     1      -8.809   2.808  70.045  1.00  0.00    -0.097 F  
ENDBRANCH   5   6
ENDBRANCH   2   5
BRANCH   2  15
HETATM   15  C   UNL     1      -9.226   8.234  69.622  1.00  0.00    -0.158 C  
BRANCH  15  16
HETATM   16  C   UNL     1      -8.469   9.555  69.606  1.00  0.00    -0.169 C  
HETATM   17  N   UNL     1      -9.547  12.146  66.627  1.00  0.00    -0.214 NA 
HETATM   18  C   UNL     1      -7.850  11.570  68.321  1.00  0.00    -0.138 C  
HETATM   19  N   UNL     1      -8.560  10.292  68.430  1.00  0.00    -0.121 N  
HETATM   20  C   UNL     1      -9.704  10.812  66.361  1.00  0.00    -0.199 A  
HETATM   21  O   UNL     1      -7.841   9.961  70.581  1.00  0.00    -0.278 OA 
HETATM   22  C   UNL     1      -9.068   9.743  67.169  1.00  0.00    -0.135 C  
HETATM   23  C   UNL     1      -8.755  12.655  67.729  1.00  0.00    -0.179 C  
HETATM   24  N   UNL     1     -10.498  10.670  65.328  1.00  0.00    -0.240 NA 
HETATM   25  N   UNL     1     -10.900  11.921  64.935  1.00  0.00    -0.296 NA 
HETATM   26  C   UNL     1     -10.344  12.815  65.736  1.00  0.00    -0.281 A  
HETATM   27  C   UNL     1     -10.551  14.285  65.702  1.00  0.00    -0.319 C  
HETATM   28  F   UNL     1      -9.828  14.936  66.654  1.00  0.00    -0.232 F  
HETATM   29  F   UNL     1     -10.186  14.825  64.512  1.00  0.00    -0.363 F  
HETATM   30  F   UNL     1     -11.848  14.624  65.916  1.00  0.00    -0.357 F  
ENDBRANCH  15  16
ENDBRANCH   2  15
TORSDOF 4
ENDMDL
MODEL      181
REMARK 921   NORMALIZED FREE ENERGY PREDICTED BY IDOCK:   -4.93 KCAL/MOL
REMARK 922        TOTAL FREE ENERGY PREDICTED BY IDOCK:   -7.15 KCAL/MOL
REMARK 923 INTER-LIGAND FREE ENERGY PREDICTED BY IDOCK:   -6.49 KCAL/MOL
REMARK 924 INTRA-LIGAND FREE ENERGY PREDICTED BY IDOCK:   -0.66 KCAL/MOL
REMARK 927      BINDING AFFINITY PREDICTED BY RF-SCORE:    0.00 PKD
ROOT
HETATM    1  N   UNL     1      -6.819   6.670  67.300  1.00  0.00    -0.070 NA 
HETATM    2  C   UNL     1      -7.735   7.003  68.412  1.00  0.00    -0.120 C  
HETATM    3  H1  UNL     1      -5.893   6.495  67.691  1.00  0.00     0.000 HD 
HETATM    4  H2  UNL     1      -6.810   7.383  66.570  1.00  0.00     0.000 HD 
ENDROOT
BRANCH   2   5
HETATM    5  C   UNL     1      -7.724   5.862  69.457  1.00  0.00    -0.097 C  
BRANCH   5   6
HETATM    6  C   UNL     1      -8.523   6.184  70.701  1.00  0.00    -0.134 A  
HETATM    7  F   UNL     1      -7.109   8.022  71.204  1.00  0.00    -0.049 F  
HETATM    8  C   UNL     1      -8.178   7.273  71.509  1.00  0.00    -0.105 A  
HETATM    9  C   UNL     1      -8.923   7.607  72.636  1.00  0.00    -0.205 A  
HETATM   10  C   UNL     1      -9.633   5.402  71.063  1.00  0.00    -0.224 A  
HETATM   11  C   UNL     1     -10.385   5.742  72.183  1.00  0.00    -0.205 A  
HETATM   12  F   UNL     1     -10.763   7.162  74.036  1.00  0.00    -0.406 F  
HETATM   13  C   UNL     1     -10.033   6.838  72.962  1.00  0.00    -0.178 A  
HETATM   14  F   UNL     1     -11.456   5.001  72.504  1.00  0.00    -0.267 F  
ENDBRANCH   5   6
ENDBRANCH   2   5
BRANCH   2  15
HETATM   15  C   UNL     1      -9.125   7.265  67.825  1.00  0.00    -0.124 C  
BRANCH  15  16
HETATM   16  C   UNL     1      -9.766   8.582  68.242  1.00  0.00    -0.155 C  
HETATM   17  N   UNL     1     -10.764  11.087  65.163  1.00  0.00    -0.230 NA 
HETATM   18  C   UNL     1     -10.379  10.883  67.590  1.00  0.00    -0.197 C  
HETATM   19  N   UNL     1      -9.794   9.577  67.270  1.00  0.00    -0.167 N  
HETATM   20  C   UNL     1      -9.706  10.245  64.945  1.00  0.00    -0.320 A  
HETATM   21  O   UNL     1     -10.256   8.747  69.356  1.00  0.00    -0.199 OA 
HETATM   22  C   UNL     1      -9.004   9.525  66.036  1.00  0.00    -0.163 C  
HETATM   23  C   UNL     1     -11.318  11.355  66.475  1.00  0.00    -0.122 C  
HETATM   24  N   UNL     1      -9.461  10.186  63.660  1.00  0.00    -0.289 NA 
HETATM   25  N   UNL     1     -10.393  10.962  63.020  1.00  0.00    -0.157 NA 
HETATM   26  C   UNL     1     -11.198  11.490  63.927  1.00  0.00    -0.355 A  
HETATM   27  C   UNL     1     -12.378  12.353  63.669  1.00  0.00    -0.548 C  
HETATM   28  F   UNL     1     -12.998  12.745  64.816  1.00  0.00    -0.507 F  
HETATM   29  F   UNL     1     -12.046  13.491  63.009  1.00  0.00    -0.545 F  
HETATM   30  F   UNL     1     -13.323  11.720  62.928  1.00  0.00    -0.355 F  
ENDBRANCH  15  16
ENDBRANCH   2  15
TORSDOF 4
ENDMDL
MODEL      182
REMARK 921   NORMALIZED FREE ENERGY PREDICTED BY IDOCK:   -4.90 KCAL/MOL
REMARK 922        TOTAL FREE ENERGY PREDICTED BY IDOCK:   -7.12 KCAL/MOL
REMARK 923 INTER-LIGAND FREE ENERGY PREDICTED BY IDOCK:   -6.41 KCAL/MOL
REMARK 924 INTRA-LIGAND FREE ENERGY PREDICTED BY IDOCK:   -0.71 KCAL/MOL
REMARK 927      BINDING AFFINITY PREDICTED BY RF-SCORE:    0.00 PKD
ROOT
HETATM    1  N   UNL     1      -8.722   5.560  65.694  1.00  0.00    -0.151 NA 
HETATM    2  C   UNL     1      -9.206   6.048  67.004  1.00  0.00    -0.121 C  
HETATM    3  H1  UNL     1      -8.250   4.668  65.842  1.00  0.00     0.000 HD 
HETATM    4  H2  UNL     1      -8.136   6.242  65.213  1.00  0.00     0.000 HD 
ENDROOT
BRANCH   2   5
HETATM    5  C   UNL     1     -10.117   4.978  67.655  1.00  0.00    -0.192 C  
BRANCH   5   6
HETATM    6  C   UNL     1      -9.781   4.711  69.106  1.00  0.00    -0.255 A  
HETATM    7  F   UNL     1     -11.027   6.608  69.803  1.00  0.00    -0.251 F  
HETATM    8  C   UNL     1     -10.276   5.543  70.118  1.00  0.00    -0.263 A  
HETATM    9  C   UNL     1     -10.008   5.293  71.459  1.00  0.00    -0.241 A  
HETATM   10  C   UNL     1      -8.974   3.620  69.466  1.00  0.00    -0.172 A  
HETATM   11  C   UNL     1      -8.715   3.363  70.809  1.00  0.00    -0.075 A  
HETATM   12  F   UNL     1      -8.981   3.936  73.087  1.00  0.00    -0.102 F  
HETATM   13  C   UNL     1      -9.231   4.192  71.798  1.00  0.00    -0.127 A  
HETATM   14  F   UNL     1      -7.963   2.303  71.141  1.00  0.00    -0.044 F  
ENDBRANCH   5   6
ENDBRANCH   2   5
BRANCH   2  15
HETATM   15  C   UNL     1      -9.916   7.386  66.783  1.00  0.00    -0.300 C  
BRANCH  15  16
HETATM   16  C   UNL     1      -9.208   8.599  67.371  1.00  0.00    -0.136 C  
HETATM   17  N   UNL     1      -9.972  12.149  65.482  1.00  0.00    -0.248 NA 
HETATM   18  C   UNL     1      -8.493  10.940  67.041  1.00  0.00    -0.134 C  
HETATM   19  N   UNL     1      -9.169   9.730  66.562  1.00  0.00    -0.152 N  
HETATM   20  C   UNL     1     -10.049  11.019  64.711  1.00  0.00    -0.308 A  
HETATM   21  O   UNL     1      -8.727   8.592  68.501  1.00  0.00    -0.137 OA 
HETATM   22  C   UNL     1      -9.488   9.711  65.130  1.00  0.00    -0.265 C  
HETATM   23  C   UNL     1      -9.348  12.185  66.789  1.00  0.00    -0.212 C  
HETATM   24  N   UNL     1     -10.694  11.296  63.606  1.00  0.00    -0.383 NA 
HETATM   25  N   UNL     1     -11.084  12.610  63.666  1.00  0.00    -0.451 NA 
HETATM   26  C   UNL     1     -10.667  13.122  64.813  1.00  0.00    -0.364 A  
HETATM   27  C   UNL     1     -10.917  14.498  65.311  1.00  0.00    -0.360 C  
HETATM   28  F   UNL     1     -10.347  14.723  66.527  1.00  0.00    -0.267 F  
HETATM   29  F   UNL     1     -10.417  15.443  64.476  1.00  0.00    -0.366 F  
HETATM   30  F   UNL     1     -12.241  14.755  65.463  1.00  0.00    -0.331 F  
ENDBRANCH  15  16
ENDBRANCH   2  15
TORSDOF 4
ENDMDL
MODEL      183
REMARK 921   NORMALIZED FREE ENERGY PREDICTED BY IDOCK:   -4.90 KCAL/MOL
REMARK 922        TOTAL FREE ENERGY PREDICTED BY IDOCK:   -7.11 KCAL/MOL
REMARK 923 INTER-LIGAND FREE ENERGY PREDICTED BY IDOCK:   -6.42 KCAL/MOL
REMARK 924 INTRA-LIGAND FREE ENERGY PREDICTED BY IDOCK:   -0.68 KCAL/MOL
REMARK 927      BINDING AFFINITY PREDICTED BY RF-SCORE:    0.00 PKD
ROOT
HETATM    1  N   UNL     1     -12.440  12.555  66.081  1.00  0.00    -0.412 NA 
HETATM    2  C   UNL     1     -11.312  12.015  66.871  1.00  0.00    -0.341 C  
HETATM    3  H1  UNL     1     -13.286  12.488  66.647  1.00  0.00     0.000 HD 
HETATM    4  H2  UNL     1     -12.537  12.100  65.173  1.00  0.00     0.000 HD 
ENDROOT
BRANCH   2   5
HETATM    5  C   UNL     1     -11.205  12.776  68.214  1.00  0.00    -0.308 C  
BRANCH   5   6
HETATM    6  C   UNL     1     -11.765  12.000  69.386  1.00  0.00    -0.402 A  
HETATM    7  F   UNL     1     -10.865   9.970  68.546  1.00  0.00    -0.225 F  
HETATM    8  C   UNL     1     -11.546  10.622  69.500  1.00  0.00    -0.288 A  
HETATM    9  C   UNL     1     -12.022   9.898  70.588  1.00  0.00    -0.361 A  
HETATM   10  C   UNL     1     -12.506  12.649  70.388  1.00  0.00    -0.219 A  
HETATM   11  C   UNL     1     -12.973  11.927  71.482  1.00  0.00    -0.323 A  
HETATM   12  F   UNL     1     -13.178   9.875  72.639  1.00  0.00    -0.419 F  
HETATM   13  C   UNL     1     -12.729  10.562  71.582  1.00  0.00    -0.445 A  
HETATM   14  F   UNL     1     -13.659  12.563  72.443  1.00  0.00    -0.618 F  
ENDBRANCH   5   6
ENDBRANCH   2   5
BRANCH   2  15
HETATM   15  C   UNL     1     -10.042  12.115  66.021  1.00  0.00    -0.259 C  
BRANCH  15  16
HETATM   16  C   UNL     1      -9.389  10.784  65.674  1.00  0.00    -0.207 C  
HETATM   17  N   UNL     1      -7.438   8.941  68.764  1.00  0.00    -0.082 NA 
HETATM   18  C   UNL     1      -7.757   9.048  66.321  1.00  0.00    -0.095 C  
HETATM   19  N   UNL     1      -8.447  10.315  66.583  1.00  0.00    -0.123 N  
HETATM   20  C   UNL     1      -7.501  10.308  68.811  1.00  0.00    -0.089 A  
HETATM   21  O   UNL     1      -9.697  10.147  64.670  1.00  0.00    -0.297 OA 
HETATM   22  C   UNL     1      -7.861  11.145  67.641  1.00  0.00    -0.115 C  
HETATM   23  C   UNL     1      -7.728   8.167  67.573  1.00  0.00    -0.102 C  
HETATM   24  N   UNL     1      -7.218  10.709  70.026  1.00  0.00    -0.142 NA 
HETATM   25  N   UNL     1      -7.008   9.595  70.797  1.00  0.00    -0.241 NA 
HETATM   26  C   UNL     1      -7.164   8.521  70.039  1.00  0.00    -0.051 A  
HETATM   27  C   UNL     1      -7.080   7.106  70.480  1.00  0.00    -0.063 C  
HETATM   28  F   UNL     1      -7.281   6.229  69.459  1.00  0.00    -0.068 F  
HETATM   29  F   UNL     1      -5.867   6.805  71.007  1.00  0.00    -0.026 F  
HETATM   30  F   UNL     1      -8.013   6.807  71.421  1.00  0.00    -0.103 F  
ENDBRANCH  15  16
ENDBRANCH   2  15
TORSDOF 4
ENDMDL
MODEL      184
REMARK 921   NORMALIZED FREE ENERGY PREDICTED BY IDOCK:   -4.88 KCAL/MOL
REMARK 922        TOTAL FREE ENERGY PREDICTED BY IDOCK:   -7.09 KCAL/MOL
REMARK 923 INTER-LIGAND FREE ENERGY PREDICTED BY IDOCK:   -6.80 KCAL/MOL
REMARK 924 INTRA-LIGAND FREE ENERGY PREDICTED BY IDOCK:   -0.29 KCAL/MOL
REMARK 927      BINDING AFFINITY PREDICTED BY RF-SCORE:    0.00 PKD
ROOT
HETATM    1  N   UNL     1     -13.354   9.827  72.496  1.00  0.00    -0.595 NA 
HETATM    2  C   UNL     1     -12.302  10.272  71.557  1.00  0.00    -0.390 C  
HETATM    3  H1  UNL     1     -13.742  10.652  72.954  1.00  0.00     0.000 HD 
HETATM    4  H2  UNL     1     -13.019   9.129  73.160  1.00  0.00     0.000 HD 
ENDROOT
BRANCH   2   5
HETATM    5  C   UNL     1     -12.893  11.298  70.560  1.00  0.00    -0.166 C  
BRANCH   5   6
HETATM    6  C   UNL     1     -12.563  12.732  70.912  1.00  0.00    -0.342 A  
HETATM    7  F   UNL     1     -13.891  12.615  72.877  1.00  0.00    -0.369 F  
HETATM    8  C   UNL     1     -13.073  13.316  72.078  1.00  0.00    -0.377 A  
HETATM    9  C   UNL     1     -12.751  14.620  72.438  1.00  0.00    -0.429 A  
HETATM   10  C   UNL     1     -11.731  13.501  70.083  1.00  0.00    -0.280 A  
HETATM   11  C   UNL     1     -11.399  14.802  70.448  1.00  0.00    -0.217 A  
HETATM   12  F   UNL     1     -11.578  16.607  71.966  1.00  0.00    -0.515 F  
HETATM   13  C   UNL     1     -11.904  15.356  71.619  1.00  0.00    -0.401 A  
HETATM   14  F   UNL     1     -10.585  15.518  69.659  1.00  0.00    -0.210 F  
ENDBRANCH   5   6
ENDBRANCH   2   5
BRANCH   2  15
HETATM   15  C   UNL     1     -11.720   9.034  70.869  1.00  0.00    -0.327 C  
BRANCH  15  16
HETATM   16  C   UNL     1     -10.207   8.889  70.970  1.00  0.00    -0.254 C  
HETATM   17  N   UNL     1      -8.903   5.499  72.856  1.00  0.00    -0.118 NA 
HETATM   18  C   UNL     1      -8.305   7.756  72.063  1.00  0.00    -0.115 C  
HETATM   19  N   UNL     1      -9.748   7.951  71.888  1.00  0.00    -0.168 N  
HETATM   20  C   UNL     1     -10.124   5.982  73.245  1.00  0.00    -0.193 A  
HETATM   21  O   UNL     1      -9.440   9.537  70.264  1.00  0.00    -0.228 OA 
HETATM   22  C   UNL     1     -10.595   7.351  72.924  1.00  0.00    -0.321 C  
HETATM   23  C   UNL     1      -7.948   6.266  72.081  1.00  0.00    -0.108 C  
HETATM   24  N   UNL     1     -10.767   5.046  73.899  1.00  0.00    -0.290 NA 
HETATM   25  N   UNL     1      -9.981   3.923  73.905  1.00  0.00    -0.119 NA 
HETATM   26  C   UNL     1      -8.861   4.188  73.252  1.00  0.00    -0.098 A  
HETATM   27  C   UNL     1      -7.752   3.240  72.974  1.00  0.00    -0.060 C  
HETATM   28  F   UNL     1      -6.731   3.820  72.286  1.00  0.00    -0.022 F  
HETATM   29  F   UNL     1      -7.209   2.740  74.112  1.00  0.00    -0.036 F  
HETATM   30  F   UNL     1      -8.159   2.184  72.224  1.00  0.00    -0.049 F  
ENDBRANCH  15  16
ENDBRANCH   2  15
TORSDOF 4
ENDMDL
MODEL      185
REMARK 921   NORMALIZED FREE ENERGY PREDICTED BY IDOCK:   -4.88 KCAL/MOL
REMARK 922        TOTAL FREE ENERGY PREDICTED BY IDOCK:   -7.09 KCAL/MOL
REMARK 923 INTER-LIGAND FREE ENERGY PREDICTED BY IDOCK:   -6.77 KCAL/MOL
REMARK 924 INTRA-LIGAND FREE ENERGY PREDICTED BY IDOCK:   -0.31 KCAL/MOL
REMARK 927      BINDING AFFINITY PREDICTED BY RF-SCORE:    0.00 PKD
ROOT
HETATM    1  N   UNL     1     -11.878  12.392  70.075  1.00  0.00    -0.465 NA 
HETATM    2  C   UNL     1     -10.944  11.453  69.416  1.00  0.00    -0.205 C  
HETATM    3  H1  UNL     1     -11.857  13.274  69.563  1.00  0.00     0.000 HD 
HETATM    4  H2  UNL     1     -11.683  12.508  71.069  1.00  0.00     0.000 HD 
ENDROOT
BRANCH   2   5
HETATM    5  C   UNL     1     -11.325  11.299  67.924  1.00  0.00    -0.367 C  
BRANCH   5   6
HETATM    6  C   UNL     1     -11.106  12.560  67.118  1.00  0.00    -0.321 A  
HETATM    7  F   UNL     1      -8.837  12.675  67.807  1.00  0.00    -0.148 F  
HETATM    8  C   UNL     1      -9.851  13.179  67.088  1.00  0.00    -0.235 A  
HETATM    9  C   UNL     1      -9.621  14.319  66.325  1.00  0.00    -0.310 A  
HETATM   10  C   UNL     1     -12.155  13.129  66.376  1.00  0.00    -0.447 A  
HETATM   11  C   UNL     1     -11.922  14.263  65.604  1.00  0.00    -0.386 A  
HETATM   12  F   UNL     1     -10.445  15.939  64.828  1.00  0.00    -0.410 F  
HETATM   13  C   UNL     1     -10.663  14.851  65.576  1.00  0.00    -0.356 A  
HETATM   14  F   UNL     1     -12.926  14.782  64.881  1.00  0.00    -0.306 F  
ENDBRANCH   5   6
ENDBRANCH   2   5
BRANCH   2  15
HETATM   15  C   UNL     1     -10.976  10.129  70.184  1.00  0.00    -0.376 C  
BRANCH  15  16
HETATM   16  C   UNL     1      -9.612   9.520  70.480  1.00  0.00    -0.251 C  
HETATM   17  N   UNL     1      -9.695   5.744  72.058  1.00  0.00    -0.154 NA 
HETATM   18  C   UNL     1      -8.342   7.769  71.671  1.00  0.00    -0.110 C  
HETATM   19  N   UNL     1      -9.613   8.410  71.319  1.00  0.00    -0.170 N  
HETATM   20  C   UNL     1     -10.775   6.542  72.329  1.00  0.00    -0.223 A  
HETATM   21  O   UNL     1      -8.578   9.959  69.985  1.00  0.00    -0.203 OA 
HETATM   22  C   UNL     1     -10.767   8.013  72.132  1.00  0.00    -0.276 C  
HETATM   23  C   UNL     1      -8.438   6.246  71.539  1.00  0.00    -0.130 C  
HETATM   24  N   UNL     1     -11.765   5.797  72.752  1.00  0.00    -0.227 NA 
HETATM   25  N   UNL     1     -11.349   4.490  72.719  1.00  0.00    -0.044 NA 
HETATM   26  C   UNL     1     -10.103   4.454  72.276  1.00  0.00    -0.189 A  
HETATM   27  C   UNL     1      -9.284   3.240  72.034  1.00  0.00    -0.114 C  
HETATM   28  F   UNL     1      -8.034   3.536  71.585  1.00  0.00    -0.057 F  
HETATM   29  F   UNL     1      -9.118   2.502  73.160  1.00  0.00    -0.077 F  
HETATM   30  F   UNL     1      -9.838   2.427  71.098  1.00  0.00    -0.215 F  
ENDBRANCH  15  16
ENDBRANCH   2  15
TORSDOF 4
ENDMDL
MODEL      186
REMARK 921   NORMALIZED FREE ENERGY PREDICTED BY IDOCK:   -4.88 KCAL/MOL
REMARK 922        TOTAL FREE ENERGY PREDICTED BY IDOCK:   -7.08 KCAL/MOL
REMARK 923 INTER-LIGAND FREE ENERGY PREDICTED BY IDOCK:   -6.03 KCAL/MOL
REMARK 924 INTRA-LIGAND FREE ENERGY PREDICTED BY IDOCK:   -1.05 KCAL/MOL
REMARK 927      BINDING AFFINITY PREDICTED BY RF-SCORE:    0.00 PKD
ROOT
HETATM    1  N   UNL     1     -13.135  11.443  72.088  1.00  0.00    -0.495 NA 
HETATM    2  C   UNL     1     -12.107  11.170  71.061  1.00  0.00    -0.275 C  
HETATM    3  H1  UNL     1     -13.234  12.455  72.179  1.00  0.00     0.000 HD 
HETATM    4  H2  UNL     1     -12.933  10.986  72.978  1.00  0.00     0.000 HD 
ENDROOT
BRANCH   2   5
HETATM    5  C   UNL     1     -12.500  11.863  69.733  1.00  0.00    -0.011 C  
BRANCH   5   6
HETATM    6  C   UNL     1     -11.784  13.177  69.511  1.00  0.00    -0.382 A  
HETATM    7  F   UNL     1     -13.456  14.357  70.715  1.00  0.00    -0.401 F  
HETATM    8  C   UNL     1     -12.299  14.368  70.036  1.00  0.00    -0.336 A  
HETATM    9  C   UNL     1     -11.637  15.580  69.874  1.00  0.00    -0.348 A  
HETATM   10  C   UNL     1     -10.585  13.226  68.781  1.00  0.00    -0.224 A  
HETATM   11  C   UNL     1      -9.916  14.436  68.628  1.00  0.00    -0.241 A  
HETATM   12  F   UNL     1      -9.786  16.764  69.025  1.00  0.00    -0.237 F  
HETATM   13  C   UNL     1     -10.437  15.604  69.173  1.00  0.00    -0.236 A  
HETATM   14  F   UNL     1      -8.759  14.466  67.950  1.00  0.00    -0.146 F  
ENDBRANCH   5   6
ENDBRANCH   2   5
BRANCH   2  15
HETATM   15  C   UNL     1     -11.958   9.653  70.924  1.00  0.00    -0.391 C  
BRANCH  15  16
HETATM   16  C   UNL     1     -10.531   9.130  71.029  1.00  0.00    -0.298 C  
HETATM   17  N   UNL     1      -8.099  10.062  67.871  1.00  0.00    -0.108 NA 
HETATM   18  C   UNL     1      -8.420   8.627  69.851  1.00  0.00    -0.129 C  
HETATM   19  N   UNL     1      -9.798   9.128  69.847  1.00  0.00    -0.180 N  
HETATM   20  C   UNL     1      -9.437   9.949  67.599  1.00  0.00    -0.147 A  
HETATM   21  O   UNL     1     -10.045   8.764  72.096  1.00  0.00    -0.320 OA 
HETATM   22  C   UNL     1     -10.402   9.303  68.521  1.00  0.00    -0.209 C  
HETATM   23  C   UNL     1      -7.487   9.575  69.091  1.00  0.00    -0.074 C  
HETATM   24  N   UNL     1      -9.688  10.509  66.441  1.00  0.00    -0.191 NA 
HETATM   25  N   UNL     1      -8.513  11.033  65.966  1.00  0.00    -0.169 NA 
HETATM   26  C   UNL     1      -7.554  10.784  66.843  1.00  0.00    -0.123 A  
HETATM   27  C   UNL     1      -6.137  11.218  66.753  1.00  0.00    -0.131 C  
HETATM   28  F   UNL     1      -5.394  10.795  67.811  1.00  0.00    -0.040 F  
HETATM   29  F   UNL     1      -5.524  10.738  65.642  1.00  0.00    -0.084 F  
HETATM   30  F   UNL     1      -6.017  12.570  66.725  1.00  0.00    -0.105 F  
ENDBRANCH  15  16
ENDBRANCH   2  15
TORSDOF 4
ENDMDL
MODEL      187
REMARK 921   NORMALIZED FREE ENERGY PREDICTED BY IDOCK:   -4.87 KCAL/MOL
REMARK 922        TOTAL FREE ENERGY PREDICTED BY IDOCK:   -7.07 KCAL/MOL
REMARK 923 INTER-LIGAND FREE ENERGY PREDICTED BY IDOCK:   -6.45 KCAL/MOL
REMARK 924 INTRA-LIGAND FREE ENERGY PREDICTED BY IDOCK:   -0.62 KCAL/MOL
REMARK 927      BINDING AFFINITY PREDICTED BY RF-SCORE:    0.00 PKD
ROOT
HETATM    1  N   UNL     1     -11.546  12.057  70.050  1.00  0.00    -0.510 NA 
HETATM    2  C   UNL     1     -10.624  11.082  69.428  1.00  0.00    -0.174 C  
HETATM    3  H1  UNL     1     -11.524  12.914  69.496  1.00  0.00     0.000 HD 
HETATM    4  H2  UNL     1     -11.341  12.219  71.036  1.00  0.00     0.000 HD 
ENDROOT
BRANCH   2   5
HETATM    5  C   UNL     1     -11.021  10.859  67.948  1.00  0.00    -0.325 C  
BRANCH   5   6
HETATM    6  C   UNL     1     -10.973  12.124  67.121  1.00  0.00    -0.316 A  
HETATM    7  F   UNL     1      -8.601  12.163  67.212  1.00  0.00    -0.150 F  
HETATM    8  C   UNL     1      -9.747  12.707  66.777  1.00  0.00    -0.240 A  
HETATM    9  C   UNL     1      -9.682  13.849  65.987  1.00  0.00    -0.270 A  
HETATM   10  C   UNL     1     -12.157  12.734  66.673  1.00  0.00    -0.316 A  
HETATM   11  C   UNL     1     -12.092  13.870  65.873  1.00  0.00    -0.433 A  
HETATM   12  F   UNL     1     -10.808  15.513  64.757  1.00  0.00    -0.394 F  
HETATM   13  C   UNL     1     -10.863  14.422  65.531  1.00  0.00    -0.331 A  
HETATM   14  F   UNL     1     -13.229  14.429  65.433  1.00  0.00    -0.465 F  
ENDBRANCH   5   6
ENDBRANCH   2   5
BRANCH   2  15
HETATM   15  C   UNL     1     -10.658   9.795  70.258  1.00  0.00    -0.348 C  
BRANCH  15  16
HETATM   16  C   UNL     1      -9.335   9.046  70.344  1.00  0.00    -0.208 C  
HETATM   17  N   UNL     1      -8.829   6.079  67.571  1.00  0.00    -0.111 NA 
HETATM   18  C   UNL     1      -8.048   7.038  69.704  1.00  0.00    -0.130 C  
HETATM   19  N   UNL     1      -9.279   7.835  69.663  1.00  0.00    -0.153 N  
HETATM   20  C   UNL     1     -10.118   6.351  67.944  1.00  0.00    -0.148 A  
HETATM   21  O   UNL     1      -8.366   9.496  70.951  1.00  0.00    -0.280 OA 
HETATM   22  C   UNL     1     -10.464   7.138  69.153  1.00  0.00    -0.211 C  
HETATM   23  C   UNL     1      -7.668   6.538  68.307  1.00  0.00    -0.105 C  
HETATM   24  N   UNL     1     -10.939   5.831  67.066  1.00  0.00    -0.228 NA 
HETATM   25  N   UNL     1     -10.184   5.246  66.082  1.00  0.00    -0.199 NA 
HETATM   26  C   UNL     1      -8.905   5.416  66.374  1.00  0.00    -0.123 A  
HETATM   27  C   UNL     1      -7.744   4.988  65.553  1.00  0.00    -0.087 C  
HETATM   28  F   UNL     1      -6.552   5.301  66.131  1.00  0.00    -0.042 F  
HETATM   29  F   UNL     1      -7.728   3.647  65.350  1.00  0.00    -0.080 F  
HETATM   30  F   UNL     1      -7.736   5.579  64.331  1.00  0.00    -0.073 F  
ENDBRANCH  15  16
ENDBRANCH   2  15
TORSDOF 4
ENDMDL
MODEL      188
REMARK 921   NORMALIZED FREE ENERGY PREDICTED BY IDOCK:   -4.87 KCAL/MOL
REMARK 922        TOTAL FREE ENERGY PREDICTED BY IDOCK:   -7.07 KCAL/MOL
REMARK 923 INTER-LIGAND FREE ENERGY PREDICTED BY IDOCK:   -6.59 KCAL/MOL
REMARK 924 INTRA-LIGAND FREE ENERGY PREDICTED BY IDOCK:   -0.48 KCAL/MOL
REMARK 927      BINDING AFFINITY PREDICTED BY RF-SCORE:    0.00 PKD
ROOT
HETATM    1  N   UNL     1      -8.891   7.526  70.235  1.00  0.00    -0.145 NA 
HETATM    2  C   UNL     1      -9.505   8.683  70.923  1.00  0.00    -0.194 C  
HETATM    3  H1  UNL     1      -7.977   7.355  70.654  1.00  0.00     0.000 HD 
HETATM    4  H2  UNL     1      -8.845   7.650  69.224  1.00  0.00     0.000 HD 
ENDROOT
BRANCH   2   5
HETATM    5  C   UNL     1      -9.576   8.407  72.445  1.00  0.00    -0.373 C  
BRANCH   5   6
HETATM    6  C   UNL     1      -9.955   6.981  72.776  1.00  0.00    -0.204 A  
HETATM    7  F   UNL     1      -7.701   6.441  73.291  1.00  0.00    -0.096 F  
HETATM    8  C   UNL     1      -8.986   6.066  73.204  1.00  0.00    -0.130 A  
HETATM    9  C   UNL     1      -9.321   4.760  73.547  1.00  0.00    -0.130 A  
HETATM   10  C   UNL     1     -11.287   6.549  72.668  1.00  0.00    -0.259 A  
HETATM   11  C   UNL     1     -11.625   5.246  73.022  1.00  0.00    -0.217 A  
HETATM   12  F   UNL     1     -10.980   3.109  73.804  1.00  0.00    -0.242 F  
HETATM   13  C   UNL     1     -10.648   4.360  73.461  1.00  0.00    -0.227 A  
HETATM   14  F   UNL     1     -12.904   4.853  72.938  1.00  0.00    -0.150 F  
ENDBRANCH   5   6
ENDBRANCH   2   5
BRANCH   2  15
HETATM   15  C   UNL     1     -10.877   8.941  70.295  1.00  0.00    -0.265 C  
BRANCH  15  16
HETATM   16  C   UNL     1     -10.846   9.546  68.898  1.00  0.00    -0.150 C  
HETATM   17  N   UNL     1     -11.351  13.604  68.744  1.00  0.00    -0.269 NA 
HETATM   18  C   UNL     1     -11.375  11.492  67.473  1.00  0.00    -0.299 C  
HETATM   19  N   UNL     1     -11.351  10.837  68.784  1.00  0.00    -0.269 N  
HETATM   20  C   UNL     1     -11.945  12.955  69.793  1.00  0.00    -0.296 A  
HETATM   21  O   UNL     1     -10.376   8.945  67.936  1.00  0.00    -0.211 OA 
HETATM   22  C   UNL     1     -12.150  11.487  69.828  1.00  0.00    -0.306 C  
HETATM   23  C   UNL     1     -10.850  12.928  67.564  1.00  0.00    -0.235 C  
HETATM   24  N   UNL     1     -12.259  13.830  70.717  1.00  0.00    -0.361 NA 
HETATM   25  N   UNL     1     -11.831  15.061  70.291  1.00  0.00    -0.287 NA 
HETATM   26  C   UNL     1     -11.259  14.922  69.106  1.00  0.00    -0.279 A  
HETATM   27  C   UNL     1     -10.610  15.991  68.305  1.00  0.00    -0.283 C  
HETATM   28  F   UNL     1     -10.121  15.532  67.121  1.00  0.00    -0.240 F  
HETATM   29  F   UNL     1     -11.471  16.994  67.997  1.00  0.00    -0.245 F  
HETATM   30  F   UNL     1      -9.558  16.551  68.955  1.00  0.00    -0.230 F  
ENDBRANCH  15  16
ENDBRANCH   2  15
TORSDOF 4
ENDMDL
MODEL      189
REMARK 921   NORMALIZED FREE ENERGY PREDICTED BY IDOCK:   -4.86 KCAL/MOL
REMARK 922        TOTAL FREE ENERGY PREDICTED BY IDOCK:   -7.06 KCAL/MOL
REMARK 923 INTER-LIGAND FREE ENERGY PREDICTED BY IDOCK:   -6.46 KCAL/MOL
REMARK 924 INTRA-LIGAND FREE ENERGY PREDICTED BY IDOCK:   -0.61 KCAL/MOL
REMARK 927      BINDING AFFINITY PREDICTED BY RF-SCORE:    0.00 PKD
ROOT
HETATM    1  N   UNL     1     -10.622  11.759  69.488  1.00  0.00    -0.437 NA 
HETATM    2  C   UNL     1     -10.191  10.466  68.915  1.00  0.00    -0.205 C  
HETATM    3  H1  UNL     1     -11.229  11.567  70.285  1.00  0.00     0.000 HD 
HETATM    4  H2  UNL     1     -11.060  12.369  68.797  1.00  0.00     0.000 HD 
ENDROOT
BRANCH   2   5
HETATM    5  C   UNL     1      -9.504   9.613  70.009  1.00  0.00    -0.277 C  
BRANCH   5   6
HETATM    6  C   UNL     1      -9.652   8.124  69.786  1.00  0.00    -0.171 A  
HETATM    7  F   UNL     1     -11.895   8.173  70.562  1.00  0.00    -0.263 F  
HETATM    8  C   UNL     1     -10.864   7.478  70.062  1.00  0.00    -0.249 A  
HETATM    9  C   UNL     1     -11.030   6.117  69.829  1.00  0.00    -0.459 A  
HETATM   10  C   UNL     1      -8.582   7.362  69.289  1.00  0.00    -0.137 A  
HETATM   11  C   UNL     1      -8.751   6.003  69.046  1.00  0.00    -0.122 A  
HETATM   12  F   UNL     1     -10.126   4.079  69.071  1.00  0.00    -0.197 F  
HETATM   13  C   UNL     1      -9.969   5.386  69.311  1.00  0.00    -0.207 A  
HETATM   14  F   UNL     1      -7.729   5.292  68.549  1.00  0.00    -0.076 F  
ENDBRANCH   5   6
ENDBRANCH   2   5
BRANCH   2  15
HETATM   15  C   UNL     1      -9.280  10.752  67.718  1.00  0.00    -0.155 C  
BRANCH  15  16
HETATM   16  C   UNL     1      -8.250  11.853  67.937  1.00  0.00    -0.150 C  
HETATM   17  N   UNL     1      -9.293  15.532  66.478  1.00  0.00    -0.259 NA 
HETATM   18  C   UNL     1      -7.459  14.104  67.302  1.00  0.00    -0.042 C  
HETATM   19  N   UNL     1      -8.414  12.999  67.167  1.00  0.00    -0.191 N  
HETATM   20  C   UNL     1      -9.818  14.446  65.828  1.00  0.00    -0.302 A  
HETATM   21  O   UNL     1      -7.350  11.749  68.766  1.00  0.00    -0.109 OA 
HETATM   22  C   UNL     1      -9.297  13.068  65.998  1.00  0.00    -0.009 C  
HETATM   23  C   UNL     1      -8.184  15.449  67.407  1.00  0.00    -0.183 C  
HETATM   24  N   UNL     1     -10.825  14.836  65.086  1.00  0.00    -0.375 NA 
HETATM   25  N   UNL     1     -10.992  16.183  65.281  1.00  0.00    -0.313 NA 
HETATM   26  C   UNL     1     -10.080  16.602  66.142  1.00  0.00    -0.345 A  
HETATM   27  C   UNL     1      -9.931  17.980  66.676  1.00  0.00    -0.362 C  
HETATM   28  F   UNL     1      -8.887  18.094  67.541  1.00  0.00    -0.248 F  
HETATM   29  F   UNL     1      -9.713  18.888  65.693  1.00  0.00    -0.184 F  
HETATM   30  F   UNL     1     -11.032  18.384  67.360  1.00  0.00    -0.430 F  
ENDBRANCH  15  16
ENDBRANCH   2  15
TORSDOF 4
ENDMDL
MODEL      190
REMARK 921   NORMALIZED FREE ENERGY PREDICTED BY IDOCK:   -4.86 KCAL/MOL
REMARK 922        TOTAL FREE ENERGY PREDICTED BY IDOCK:   -7.06 KCAL/MOL
REMARK 923 INTER-LIGAND FREE ENERGY PREDICTED BY IDOCK:   -6.77 KCAL/MOL
REMARK 924 INTRA-LIGAND FREE ENERGY PREDICTED BY IDOCK:   -0.29 KCAL/MOL
REMARK 927      BINDING AFFINITY PREDICTED BY RF-SCORE:    0.00 PKD
ROOT
HETATM    1  N   UNL     1     -10.843  14.798  70.288  1.00  0.00    -0.477 NA 
HETATM    2  C   UNL     1     -10.312  14.965  68.918  1.00  0.00    -0.244 C  
HETATM    3  H1  UNL     1     -11.247  15.687  70.583  1.00  0.00     0.000 HD 
HETATM    4  H2  UNL     1     -10.142  14.447  70.941  1.00  0.00     0.000 HD 
ENDROOT
BRANCH   2   5
HETATM    5  C   UNL     1     -11.439  15.461  67.979  1.00  0.00    -0.333 C  
BRANCH   5   6
HETATM    6  C   UNL     1     -11.447  14.763  66.636  1.00  0.00    -0.339 A  
HETATM    7  F   UNL     1      -9.514  15.953  65.941  1.00  0.00    -0.304 F  
HETATM    8  C   UNL     1     -10.459  15.038  65.683  1.00  0.00    -0.350 A  
HETATM    9  C   UNL     1     -10.429  14.380  64.458  1.00  0.00    -0.113 A  
HETATM   10  C   UNL     1     -12.439  13.819  66.324  1.00  0.00    -0.441 A  
HETATM   11  C   UNL     1     -12.403  13.153  65.104  1.00  0.00    -0.473 A  
HETATM   12  F   UNL     1     -11.372  12.782  63.008  1.00  0.00    -0.497 F  
HETATM   13  C   UNL     1     -11.403  13.430  64.179  1.00  0.00    -0.364 A  
HETATM   14  F   UNL     1     -13.343  12.237  64.828  1.00  0.00    -0.372 F  
ENDBRANCH   5   6
ENDBRANCH   2   5
BRANCH   2  15
HETATM   15  C   UNL     1      -9.706  13.631  68.474  1.00  0.00    -0.184 C  
BRANCH  15  16
HETATM   16  C   UNL     1     -10.592  12.412  68.694  1.00  0.00    -0.218 C  
HETATM   17  N   UNL     1      -9.248   8.947  66.979  1.00  0.00    -0.133 NA 
HETATM   18  C   UNL     1     -11.170  10.118  67.985  1.00  0.00    -0.179 C  
HETATM   19  N   UNL     1     -10.354  11.329  67.854  1.00  0.00    -0.177 N  
HETATM   20  C   UNL     1      -8.888  10.114  66.359  1.00  0.00    -0.143 A  
HETATM   21  O   UNL     1     -11.443  12.373  69.579  1.00  0.00    -0.271 OA 
HETATM   22  C   UNL     1      -9.545  11.415  66.633  1.00  0.00    -0.191 C  
HETATM   23  C   UNL     1     -10.297   8.860  67.975  1.00  0.00    -0.219 C  
HETATM   24  N   UNL     1      -7.895   9.876  65.539  1.00  0.00    -0.120 NA 
HETATM   25  N   UNL     1      -7.569   8.549  65.650  1.00  0.00    -0.087 NA 
HETATM   26  C   UNL     1      -8.372   7.990  66.540  1.00  0.00    -0.121 A  
HETATM   27  C   UNL     1      -8.333   6.580  67.006  1.00  0.00    -0.113 C  
HETATM   28  F   UNL     1      -9.301   6.308  67.924  1.00  0.00    -0.119 F  
HETATM   29  F   UNL     1      -8.514   5.700  65.990  1.00  0.00    -0.115 F  
HETATM   30  F   UNL     1      -7.153   6.271  67.601  1.00  0.00    -0.070 F  
ENDBRANCH  15  16
ENDBRANCH   2  15
TORSDOF 4
ENDMDL
MODEL      191
REMARK 921   NORMALIZED FREE ENERGY PREDICTED BY IDOCK:   -4.86 KCAL/MOL
REMARK 922        TOTAL FREE ENERGY PREDICTED BY IDOCK:   -7.06 KCAL/MOL
REMARK 923 INTER-LIGAND FREE ENERGY PREDICTED BY IDOCK:   -6.34 KCAL/MOL
REMARK 924 INTRA-LIGAND FREE ENERGY PREDICTED BY IDOCK:   -0.71 KCAL/MOL
REMARK 927      BINDING AFFINITY PREDICTED BY RF-SCORE:    0.00 PKD
ROOT
HETATM    1  N   UNL     1      -7.984  15.754  69.442  1.00  0.00    -0.233 NA 
HETATM    2  C   UNL     1      -8.316  16.440  68.174  1.00  0.00    -0.186 C  
HETATM    3  H1  UNL     1      -8.242  16.371  70.214  1.00  0.00     0.000 HD 
HETATM    4  H2  UNL     1      -7.010  15.456  69.484  1.00  0.00     0.000 HD 
ENDROOT
BRANCH   2   5
HETATM    5  C   UNL     1      -9.815  16.828  68.167  1.00  0.00    -0.264 C  
BRANCH   5   6
HETATM    6  C   UNL     1     -10.679  15.854  67.396  1.00  0.00    -0.313 A  
HETATM    7  F   UNL     1     -11.250  14.696  69.388  1.00  0.00    -0.240 F  
HETATM    8  C   UNL     1     -11.375  14.837  68.060  1.00  0.00    -0.316 A  
HETATM    9  C   UNL     1     -12.203  13.955  67.374  1.00  0.00    -0.291 A  
HETATM   10  C   UNL     1     -10.809  15.958  66.001  1.00  0.00    -0.226 A  
HETATM   11  C   UNL     1     -11.646  15.084  65.316  1.00  0.00    -0.258 A  
HETATM   12  F   UNL     1     -13.146  13.256  65.332  1.00  0.00    -0.514 F  
HETATM   13  C   UNL     1     -12.340  14.091  65.998  1.00  0.00    -0.473 A  
HETATM   14  F   UNL     1     -11.779  15.209  63.987  1.00  0.00    -0.296 F  
ENDBRANCH   5   6
ENDBRANCH   2   5
BRANCH   2  15
HETATM   15  C   UNL     1      -7.931  15.515  67.016  1.00  0.00    -0.268 C  
BRANCH  15  16
HETATM   16  C   UNL     1      -6.960  14.398  67.375  1.00  0.00    -0.064 C  
HETATM   17  N   UNL     1      -8.157  10.636  66.295  1.00  0.00    -0.146 NA 
HETATM   18  C   UNL     1      -6.621  11.972  67.686  1.00  0.00    -0.107 C  
HETATM   19  N   UNL     1      -7.480  13.108  67.339  1.00  0.00    -0.150 N  
HETATM   20  C   UNL     1      -9.151  11.539  66.562  1.00  0.00    -0.194 A  
HETATM   21  O   UNL     1      -5.783  14.617  67.649  1.00  0.00    -0.305 OA 
HETATM   22  C   UNL     1      -8.916  12.817  67.277  1.00  0.00    -0.199 C  
HETATM   23  C   UNL     1      -6.771  10.836  66.669  1.00  0.00    -0.120 C  
HETATM   24  N   UNL     1     -10.282  11.091  66.074  1.00  0.00    -0.245 NA 
HETATM   25  N   UNL     1     -10.022   9.902  65.442  1.00  0.00    -0.316 NA 
HETATM   26  C   UNL     1      -8.731   9.637  65.554  1.00  0.00    -0.153 A  
HETATM   27  C   UNL     1      -8.011   8.476  64.971  1.00  0.00    -0.131 C  
HETATM   28  F   UNL     1      -6.684   8.480  65.273  1.00  0.00    -0.061 F  
HETATM   29  F   UNL     1      -8.500   7.293  65.420  1.00  0.00    -0.136 F  
HETATM   30  F   UNL     1      -8.089   8.454  63.616  1.00  0.00    -0.140 F  
ENDBRANCH  15  16
ENDBRANCH   2  15
TORSDOF 4
ENDMDL
MODEL      192
REMARK 921   NORMALIZED FREE ENERGY PREDICTED BY IDOCK:   -4.85 KCAL/MOL
REMARK 922        TOTAL FREE ENERGY PREDICTED BY IDOCK:   -7.05 KCAL/MOL
REMARK 923 INTER-LIGAND FREE ENERGY PREDICTED BY IDOCK:   -6.50 KCAL/MOL
REMARK 924 INTRA-LIGAND FREE ENERGY PREDICTED BY IDOCK:   -0.55 KCAL/MOL
REMARK 927      BINDING AFFINITY PREDICTED BY RF-SCORE:    0.00 PKD
ROOT
HETATM    1  N   UNL     1     -10.750  11.616  69.447  1.00  0.00    -0.436 NA 
HETATM    2  C   UNL     1     -10.836  11.765  67.978  1.00  0.00    -0.213 C  
HETATM    3  H1  UNL     1     -10.788  12.547  69.864  1.00  0.00     0.000 HD 
HETATM    4  H2  UNL     1      -9.930  11.086  69.741  1.00  0.00     0.000 HD 
ENDROOT
BRANCH   2   5
HETATM    5  C   UNL     1     -12.121  12.545  67.607  1.00  0.00    -0.123 C  
BRANCH   5   6
HETATM    6  C   UNL     1     -11.881  13.646  66.598  1.00  0.00    -0.447 A  
HETATM    7  F   UNL     1     -13.099  12.467  64.936  1.00  0.00    -0.551 F  
HETATM    8  C   UNL     1     -12.405  13.555  65.303  1.00  0.00    -0.467 A  
HETATM    9  C   UNL     1     -12.225  14.573  64.373  1.00  0.00    -0.480 A  
HETATM   10  C   UNL     1     -11.135  14.785  66.943  1.00  0.00    -0.339 A  
HETATM   11  C   UNL     1     -10.964  15.809  66.016  1.00  0.00    -0.177 A  
HETATM   12  F   UNL     1     -11.344  16.694  63.856  1.00  0.00    -0.229 F  
HETATM   13  C   UNL     1     -11.508  15.704  64.741  1.00  0.00    -0.283 A  
HETATM   14  F   UNL     1     -10.270  16.902  66.366  1.00  0.00    -0.277 F  
ENDBRANCH   5   6
ENDBRANCH   2   5
BRANCH   2  15
HETATM   15  C   UNL     1     -10.781  10.369  67.352  1.00  0.00    -0.338 C  
BRANCH  15  16
HETATM   16  C   UNL     1      -9.464  10.016  66.673  1.00  0.00    -0.171 C  
HETATM   17  N   UNL     1      -9.024   6.075  65.661  1.00  0.00    -0.113 NA 
HETATM   18  C   UNL     1      -7.887   8.234  66.013  1.00  0.00    -0.095 C  
HETATM   19  N   UNL     1      -9.144   8.663  66.634  1.00  0.00    -0.155 N  
HETATM   20  C   UNL     1      -9.821   6.342  66.742  1.00  0.00    -0.164 A  
HETATM   21  O   UNL     1      -8.743  10.870  66.162  1.00  0.00    -0.172 OA 
HETATM   22  C   UNL     1      -9.826   7.649  67.444  1.00  0.00    -0.173 C  
HETATM   23  C   UNL     1      -8.112   7.040  65.081  1.00  0.00    -0.124 C  
HETATM   24  N   UNL     1     -10.552   5.288  67.008  1.00  0.00    -0.231 NA 
HETATM   25  N   UNL     1     -10.265   4.332  66.067  1.00  0.00    -0.203 NA 
HETATM   26  C   UNL     1      -9.357   4.816  65.236  1.00  0.00    -0.143 A  
HETATM   27  C   UNL     1      -8.800   4.136  64.039  1.00  0.00    -0.126 C  
HETATM   28  F   UNL     1      -7.873   4.895  63.393  1.00  0.00    -0.063 F  
HETATM   29  F   UNL     1      -8.183   2.970  64.354  1.00  0.00    -0.081 F  
HETATM   30  F   UNL     1      -9.758   3.849  63.121  1.00  0.00    -0.128 F  
ENDBRANCH  15  16
ENDBRANCH   2  15
TORSDOF 4
ENDMDL
MODEL      193
REMARK 921   NORMALIZED FREE ENERGY PREDICTED BY IDOCK:   -4.83 KCAL/MOL
REMARK 922        TOTAL FREE ENERGY PREDICTED BY IDOCK:   -7.03 KCAL/MOL
REMARK 923 INTER-LIGAND FREE ENERGY PREDICTED BY IDOCK:   -6.32 KCAL/MOL
REMARK 924 INTRA-LIGAND FREE ENERGY PREDICTED BY IDOCK:   -0.71 KCAL/MOL
REMARK 927      BINDING AFFINITY PREDICTED BY RF-SCORE:    0.00 PKD
ROOT
HETATM    1  N   UNL     1      -6.722  11.724  66.253  1.00  0.00    -0.337 NA 
HETATM    2  C   UNL     1      -7.323  11.248  67.518  1.00  0.00    -0.105 C  
HETATM    3  H1  UNL     1      -6.551  10.914  65.657  1.00  0.00     0.000 HD 
HETATM    4  H2  UNL     1      -5.884  12.287  66.403  1.00  0.00     0.000 HD 
ENDROOT
BRANCH   2   5
HETATM    5  C   UNL     1      -8.606  10.438  67.213  1.00  0.00    -0.126 C  
BRANCH   5   6
HETATM    6  C   UNL     1      -8.932   9.413  68.278  1.00  0.00    -0.128 A  
HETATM    7  F   UNL     1      -7.865   7.696  67.034  1.00  0.00    -0.102 F  
HETATM    8  C   UNL     1      -8.522   8.082  68.137  1.00  0.00    -0.123 A  
HETATM    9  C   UNL     1      -8.780   7.134  69.121  1.00  0.00    -0.133 A  
HETATM   10  C   UNL     1      -9.643   9.780  69.433  1.00  0.00    -0.218 A  
HETATM   11  C   UNL     1      -9.891   8.835  70.423  1.00  0.00    -0.182 A  
HETATM   12  F   UNL     1      -9.699   6.619  71.228  1.00  0.00    -0.171 F  
HETATM   13  C   UNL     1      -9.460   7.522  70.269  1.00  0.00    -0.165 A  
HETATM   14  F   UNL     1     -10.550   9.203  71.532  1.00  0.00    -0.327 F  
ENDBRANCH   5   6
ENDBRANCH   2   5
BRANCH   2  15
HETATM   15  C   UNL     1      -7.580  12.464  68.413  1.00  0.00    -0.129 C  
BRANCH  15  16
HETATM   16  C   UNL     1      -6.718  13.683  68.111  1.00  0.00    -0.122 C  
HETATM   17  N   UNL     1      -8.754  17.218  67.778  1.00  0.00    -0.223 NA 
HETATM   18  C   UNL     1      -6.645  16.023  67.327  1.00  0.00    -0.184 C  
HETATM   19  N   UNL     1      -7.397  14.808  67.656  1.00  0.00    -0.171 N  
HETATM   20  C   UNL     1      -9.444  16.082  67.444  1.00  0.00    -0.219 A  
HETATM   21  O   UNL     1      -5.503  13.684  68.289  1.00  0.00    -0.090 OA 
HETATM   22  C   UNL     1      -8.785  14.779  67.185  1.00  0.00    -0.221 C  
HETATM   23  C   UNL     1      -7.313  17.265  67.925  1.00  0.00    -0.184 C  
HETATM   24  N   UNL     1     -10.726  16.350  67.421  1.00  0.00    -0.309 NA 
HETATM   25  N   UNL     1     -10.886  17.663  67.783  1.00  0.00    -0.319 NA 
HETATM   26  C   UNL     1      -9.694  18.184  68.023  1.00  0.00    -0.311 A  
HETATM   27  C   UNL     1      -9.407  19.563  68.493  1.00  0.00    -0.373 C  
HETATM   28  F   UNL     1      -8.075  19.798  68.638  1.00  0.00    -0.360 F  
HETATM   29  F   UNL     1      -9.868  20.503  67.631  1.00  0.00    -0.514 F  
HETATM   30  F   UNL     1      -9.968  19.817  69.703  1.00  0.00    -0.470 F  
ENDBRANCH  15  16
ENDBRANCH   2  15
TORSDOF 4
ENDMDL
MODEL      194
REMARK 921   NORMALIZED FREE ENERGY PREDICTED BY IDOCK:   -4.83 KCAL/MOL
REMARK 922        TOTAL FREE ENERGY PREDICTED BY IDOCK:   -7.03 KCAL/MOL
REMARK 923 INTER-LIGAND FREE ENERGY PREDICTED BY IDOCK:   -6.57 KCAL/MOL
REMARK 924 INTRA-LIGAND FREE ENERGY PREDICTED BY IDOCK:   -0.46 KCAL/MOL
REMARK 927      BINDING AFFINITY PREDICTED BY RF-SCORE:    0.00 PKD
ROOT
HETATM    1  N   UNL     1      -5.130  17.252  65.996  1.00  0.00    -0.347 NA 
HETATM    2  C   UNL     1      -6.600  17.220  65.834  1.00  0.00     0.078 C  
HETATM    3  H1  UNL     1      -4.732  17.745  65.196  1.00  0.00     0.000 HD 
HETATM    4  H2  UNL     1      -4.728  16.323  66.125  1.00  0.00     0.000 HD 
ENDROOT
BRANCH   2   5
HETATM    5  C   UNL     1      -7.139  18.663  65.682  1.00  0.00    -0.215 C  
BRANCH   5   6
HETATM    6  C   UNL     1      -8.084  19.067  66.793  1.00  0.00    -0.279 A  
HETATM    7  F   UNL     1      -6.266  19.545  68.243  1.00  0.00    -0.228 F  
HETATM    8  C   UNL     1      -7.589  19.509  68.026  1.00  0.00    -0.296 A  
HETATM    9  C   UNL     1      -8.440  19.919  69.046  1.00  0.00     0.032 A  
HETATM   10  C   UNL     1      -9.475  19.014  66.607  1.00  0.00    -0.375 A  
HETATM   11  C   UNL     1     -10.327  19.435  67.623  1.00  0.00    -0.437 A  
HETATM   12  F   UNL     1     -10.638  20.293  69.805  1.00  0.00    -0.340 F  
HETATM   13  C   UNL     1      -9.812  19.886  68.833  1.00  0.00    -0.297 A  
HETATM   14  F   UNL     1     -11.653  19.402  67.424  1.00  0.00    -0.317 F  
ENDBRANCH   5   6
ENDBRANCH   2   5
BRANCH   2  15
HETATM   15  C   UNL     1      -7.197  16.479  67.034  1.00  0.00    -0.247 C  
BRANCH  15  16
HETATM   16  C   UNL     1      -6.565  15.128  67.340  1.00  0.00    -0.056 C  
HETATM   17  N   UNL     1      -8.957  11.884  66.625  1.00  0.00    -0.195 NA 
HETATM   18  C   UNL     1      -6.927  12.719  67.747  1.00  0.00    -0.131 C  
HETATM   19  N   UNL     1      -7.446  14.055  67.439  1.00  0.00    -0.164 N  
HETATM   20  C   UNL     1      -9.594  13.051  66.955  1.00  0.00    -0.236 A  
HETATM   21  O   UNL     1      -5.351  14.985  67.461  1.00  0.00    -0.328 OA 
HETATM   22  C   UNL     1      -8.899  14.212  67.564  1.00  0.00    -0.201 C  
HETATM   23  C   UNL     1      -7.539  11.663  66.821  1.00  0.00    -0.104 C  
HETATM   24  N   UNL     1     -10.860  12.957  66.630  1.00  0.00    -0.265 NA 
HETATM   25  N   UNL     1     -11.050  11.733  66.041  1.00  0.00    -0.319 NA 
HETATM   26  C   UNL     1      -9.894  11.092  66.015  1.00  0.00    -0.229 A  
HETATM   27  C   UNL     1      -9.634   9.757  65.419  1.00  0.00    -0.292 C  
HETATM   28  F   UNL     1      -8.339   9.365  65.562  1.00  0.00    -0.118 F  
HETATM   29  F   UNL     1     -10.390   8.786  65.990  1.00  0.00    -0.344 F  
HETATM   30  F   UNL     1      -9.889   9.734  64.086  1.00  0.00    -0.317 F  
ENDBRANCH  15  16
ENDBRANCH   2  15
TORSDOF 4
ENDMDL
MODEL      195
REMARK 921   NORMALIZED FREE ENERGY PREDICTED BY IDOCK:   -4.83 KCAL/MOL
REMARK 922        TOTAL FREE ENERGY PREDICTED BY IDOCK:   -7.02 KCAL/MOL
REMARK 923 INTER-LIGAND FREE ENERGY PREDICTED BY IDOCK:   -6.47 KCAL/MOL
REMARK 924 INTRA-LIGAND FREE ENERGY PREDICTED BY IDOCK:   -0.55 KCAL/MOL
REMARK 927      BINDING AFFINITY PREDICTED BY RF-SCORE:    0.00 PKD
ROOT
HETATM    1  N   UNL     1     -12.409  10.695  68.353  1.00  0.00    -0.560 NA 
HETATM    2  C   UNL     1     -11.629  11.501  69.318  1.00  0.00    -0.322 C  
HETATM    3  H1  UNL     1     -12.774  11.323  67.636  1.00  0.00     0.000 HD 
HETATM    4  H2  UNL     1     -13.140  10.143  68.803  1.00  0.00     0.000 HD 
ENDROOT
BRANCH   2   5
HETATM    5  C   UNL     1     -10.518  12.278  68.570  1.00  0.00    -0.248 C  
BRANCH   5   6
HETATM    6  C   UNL     1      -9.773  11.431  67.562  1.00  0.00    -0.191 A  
HETATM    7  F   UNL     1      -7.966  11.123  69.071  1.00  0.00    -0.128 F  
HETATM    8  C   UNL     1      -8.526  10.877  67.878  1.00  0.00    -0.129 A  
HETATM    9  C   UNL     1      -7.843  10.066  66.978  1.00  0.00    -0.102 A  
HETATM   10  C   UNL     1     -10.320  11.177  66.293  1.00  0.00    -0.299 A  
HETATM   11  C   UNL     1      -9.641  10.357  65.397  1.00  0.00    -0.246 A  
HETATM   12  F   UNL     1      -7.768   9.013  64.873  1.00  0.00    -0.099 F  
HETATM   13  C   UNL     1      -8.413   9.804  65.739  1.00  0.00    -0.133 A  
HETATM   14  F   UNL     1     -10.186  10.103  64.198  1.00  0.00    -0.369 F  
ENDBRANCH   5   6
ENDBRANCH   2   5
BRANCH   2  15
HETATM   15  C   UNL     1     -11.081  10.560  70.394  1.00  0.00    -0.321 C  
BRANCH  15  16
HETATM   16  C   UNL     1     -12.090   9.570  70.963  1.00  0.00    -0.318 C  
HETATM   17  N   UNL     1     -10.643   5.802  71.640  1.00  0.00    -0.238 NA 
HETATM   18  C   UNL     1     -12.655   7.204  71.386  1.00  0.00    -0.394 C  
HETATM   19  N   UNL     1     -11.737   8.228  70.877  1.00  0.00    -0.269 N  
HETATM   20  C   UNL     1     -10.046   6.512  70.633  1.00  0.00    -0.185 A  
HETATM   21  O   UNL     1     -13.136   9.935  71.493  1.00  0.00    -0.361 OA 
HETATM   22  C   UNL     1     -10.644   7.731  70.035  1.00  0.00    -0.238 C  
HETATM   23  C   UNL     1     -11.912   6.169  72.236  1.00  0.00    -0.232 C  
HETATM   24  N   UNL     1      -8.901   5.951  70.331  1.00  0.00    -0.142 NA 
HETATM   25  N   UNL     1      -8.722   4.886  71.176  1.00  0.00    -0.124 NA 
HETATM   26  C   UNL     1      -9.765   4.808  71.986  1.00  0.00    -0.162 A  
HETATM   27  C   UNL     1      -9.959   3.836  73.091  1.00  0.00    -0.133 C  
HETATM   28  F   UNL     1     -11.144   4.009  73.736  1.00  0.00    -0.275 F  
HETATM   29  F   UNL     1      -9.949   2.552  72.650  1.00  0.00    -0.164 F  
HETATM   30  F   UNL     1      -8.994   3.941  74.040  1.00  0.00    -0.091 F  
ENDBRANCH  15  16
ENDBRANCH   2  15
TORSDOF 4
ENDMDL
MODEL      196
REMARK 921   NORMALIZED FREE ENERGY PREDICTED BY IDOCK:   -4.82 KCAL/MOL
REMARK 922        TOTAL FREE ENERGY PREDICTED BY IDOCK:   -7.01 KCAL/MOL
REMARK 923 INTER-LIGAND FREE ENERGY PREDICTED BY IDOCK:   -6.07 KCAL/MOL
REMARK 924 INTRA-LIGAND FREE ENERGY PREDICTED BY IDOCK:   -0.94 KCAL/MOL
REMARK 927      BINDING AFFINITY PREDICTED BY RF-SCORE:    0.00 PKD
ROOT
HETATM    1  N   UNL     1     -12.382  10.701  68.650  1.00  0.00    -0.765 NA 
HETATM    2  C   UNL     1     -11.192  11.347  69.243  1.00  0.00    -0.277 C  
HETATM    3  H1  UNL     1     -12.719  11.290  67.889  1.00  0.00     0.000 HD 
HETATM    4  H2  UNL     1     -13.105  10.499  69.342  1.00  0.00     0.000 HD 
ENDROOT
BRANCH   2   5
HETATM    5  C   UNL     1     -10.127  11.587  68.145  1.00  0.00    -0.201 C  
BRANCH   5   6
HETATM    6  C   UNL     1      -9.143  10.445  68.009  1.00  0.00    -0.136 A  
HETATM    7  F   UNL     1     -10.599   9.292  66.530  1.00  0.00    -0.308 F  
HETATM    8  C   UNL     1      -9.429   9.352  67.182  1.00  0.00    -0.145 A  
HETATM    9  C   UNL     1      -8.522   8.311  67.016  1.00  0.00    -0.122 A  
HETATM   10  C   UNL     1      -7.921  10.465  68.700  1.00  0.00    -0.115 A  
HETATM   11  C   UNL     1      -7.009   9.429  68.526  1.00  0.00    -0.066 A  
HETATM   12  F   UNL     1      -6.423   7.370  67.520  1.00  0.00    -0.050 F  
HETATM   13  C   UNL     1      -7.307   8.361  67.687  1.00  0.00    -0.093 A  
HETATM   14  F   UNL     1      -5.835   9.471  69.173  1.00  0.00    -0.036 F  
ENDBRANCH   5   6
ENDBRANCH   2   5
BRANCH   2  15
HETATM   15  C   UNL     1     -10.686  10.463  70.386  1.00  0.00    -0.186 C  
BRANCH  15  16
HETATM   16  C   UNL     1     -11.750   9.610  71.064  1.00  0.00    -0.353 C  
HETATM   17  N   UNL     1     -10.802   5.651  71.488  1.00  0.00    -0.250 NA 
HETATM   18  C   UNL     1     -12.601   7.337  71.518  1.00  0.00    -0.379 C  
HETATM   19  N   UNL     1     -11.612   8.234  70.912  1.00  0.00    -0.277 N  
HETATM   20  C   UNL     1     -10.237   6.303  70.423  1.00  0.00    -0.200 A  
HETATM   21  O   UNL     1     -12.657  10.102  71.730  1.00  0.00    -0.395 OA 
HETATM   22  C   UNL     1     -10.719   7.615  69.927  1.00  0.00    -0.249 C  
HETATM   23  C   UNL     1     -11.918   6.176  72.248  1.00  0.00    -0.232 C  
HETATM   24  N   UNL     1      -9.234   5.594  69.968  1.00  0.00    -0.142 NA 
HETATM   25  N   UNL     1      -9.109   4.485  70.766  1.00  0.00    -0.120 NA 
HETATM   26  C   UNL     1     -10.043   4.530  71.701  1.00  0.00    -0.179 A  
HETATM   27  C   UNL     1     -10.238   3.557  72.806  1.00  0.00    -0.168 C  
HETATM   28  F   UNL     1     -11.296   3.876  73.601  1.00  0.00    -0.312 F  
HETATM   29  F   UNL     1     -10.473   2.302  72.347  1.00  0.00    -0.220 F  
HETATM   30  F   UNL     1      -9.158   3.490  73.625  1.00  0.00    -0.092 F  
ENDBRANCH  15  16
ENDBRANCH   2  15
TORSDOF 4
ENDMDL
MODEL      197
REMARK 921   NORMALIZED FREE ENERGY PREDICTED BY IDOCK:   -4.81 KCAL/MOL
REMARK 922        TOTAL FREE ENERGY PREDICTED BY IDOCK:   -7.00 KCAL/MOL
REMARK 923 INTER-LIGAND FREE ENERGY PREDICTED BY IDOCK:   -6.55 KCAL/MOL
REMARK 924 INTRA-LIGAND FREE ENERGY PREDICTED BY IDOCK:   -0.45 KCAL/MOL
REMARK 927      BINDING AFFINITY PREDICTED BY RF-SCORE:    0.00 PKD
ROOT
HETATM    1  N   UNL     1     -12.485   5.907  72.627  1.00  0.00    -0.487 NA 
HETATM    2  C   UNL     1     -11.096   6.363  72.404  1.00  0.00    -0.268 C  
HETATM    3  H1  UNL     1     -12.691   5.990  73.623  1.00  0.00     0.000 HD 
HETATM    4  H2  UNL     1     -12.653   4.968  72.266  1.00  0.00     0.000 HD 
ENDROOT
BRANCH   2   5
HETATM    5  C   UNL     1     -10.928   7.805  72.941  1.00  0.00    -0.467 C  
BRANCH   5   6
HETATM    6  C   UNL     1     -11.315   8.866  71.934  1.00  0.00    -0.446 A  
HETATM    7  F   UNL     1     -13.520   8.971  72.807  1.00  0.00    -0.472 F  
HETATM    8  C   UNL     1     -12.604   9.412  71.933  1.00  0.00    -0.401 A  
HETATM    9  C   UNL     1     -12.968  10.414  71.039  1.00  0.00    -0.490 A  
HETATM   10  C   UNL     1     -10.386   9.331  70.988  1.00  0.00    -0.388 A  
HETATM   11  C   UNL     1     -10.746  10.340  70.101  1.00  0.00    -0.278 A  
HETATM   12  F   UNL     1     -12.365  11.853  69.275  1.00  0.00    -0.289 F  
HETATM   13  C   UNL     1     -12.027  10.880  70.129  1.00  0.00    -0.352 A  
HETATM   14  F   UNL     1      -9.843  10.791  69.218  1.00  0.00    -0.210 F  
ENDBRANCH   5   6
ENDBRANCH   2   5
BRANCH   2  15
HETATM   15  C   UNL     1     -10.786   6.240  70.909  1.00  0.00    -0.329 C  
BRANCH  15  16
HETATM   16  C   UNL     1     -10.229   4.891  70.473  1.00  0.00    -0.218 C  
HETATM   17  N   UNL     1      -8.375   4.870  66.824  1.00  0.00    -0.107 NA 
HETATM   18  C   UNL     1      -9.385   3.505  68.612  1.00  0.00    -0.166 C  
HETATM   19  N   UNL     1      -9.913   4.774  69.124  1.00  0.00    -0.187 N  
HETATM   20  C   UNL     1      -9.370   5.795  66.997  1.00  0.00    -0.119 A  
HETATM   21  O   UNL     1     -10.040   3.974  71.267  1.00  0.00    -0.163 OA 
HETATM   22  C   UNL     1     -10.356   5.729  68.103  1.00  0.00    -0.212 C  
HETATM   23  C   UNL     1      -8.172   3.738  67.706  1.00  0.00    -0.089 C  
HETATM   24  N   UNL     1      -9.274   6.709  66.064  1.00  0.00    -0.090 NA 
HETATM   25  N   UNL     1      -8.181   6.407  65.293  1.00  0.00    -0.136 NA 
HETATM   26  C   UNL     1      -7.621   5.306  65.767  1.00  0.00    -0.083 A  
HETATM   27  C   UNL     1      -6.384   4.655  65.266  1.00  0.00    -0.035 C  
HETATM   28  F   UNL     1      -6.070   3.527  65.961  1.00  0.00    -0.024 F  
HETATM   29  F   UNL     1      -6.492   4.282  63.966  1.00  0.00    -0.035 F  
HETATM   30  F   UNL     1      -5.302   5.469  65.362  1.00  0.00    -0.011 F  
ENDBRANCH  15  16
ENDBRANCH   2  15
TORSDOF 4
ENDMDL
MODEL      198
REMARK 921   NORMALIZED FREE ENERGY PREDICTED BY IDOCK:   -4.81 KCAL/MOL
REMARK 922        TOTAL FREE ENERGY PREDICTED BY IDOCK:   -7.00 KCAL/MOL
REMARK 923 INTER-LIGAND FREE ENERGY PREDICTED BY IDOCK:   -6.23 KCAL/MOL
REMARK 924 INTRA-LIGAND FREE ENERGY PREDICTED BY IDOCK:   -0.77 KCAL/MOL
REMARK 927      BINDING AFFINITY PREDICTED BY RF-SCORE:    0.00 PKD
ROOT
HETATM    1  N   UNL     1      -9.486  10.146  70.086  1.00  0.00    -0.387 NA 
HETATM    2  C   UNL     1      -8.957   9.237  69.046  1.00  0.00    -0.140 C  
HETATM    3  H1  UNL     1     -10.384   9.778  70.403  1.00  0.00     0.000 HD 
HETATM    4  H2  UNL     1      -9.546  11.113  69.768  1.00  0.00     0.000 HD 
ENDROOT
BRANCH   2   5
HETATM    5  C   UNL     1      -8.859   7.799  69.611  1.00  0.00    -0.139 C  
BRANCH   5   6
HETATM    6  C   UNL     1      -9.157   6.731  68.581  1.00  0.00    -0.127 A  
HETATM    7  F   UNL     1     -11.436   6.651  69.239  1.00  0.00    -0.337 F  
HETATM    8  C   UNL     1     -10.452   6.220  68.437  1.00  0.00    -0.227 A  
HETATM    9  C   UNL     1     -10.753   5.265  67.472  1.00  0.00    -0.063 A  
HETATM   10  C   UNL     1      -8.142   6.239  67.744  1.00  0.00    -0.114 A  
HETATM   11  C   UNL     1      -8.445   5.292  66.771  1.00  0.00    -0.107 A  
HETATM   12  F   UNL     1     -10.027   3.903  65.693  1.00  0.00    -0.179 F  
HETATM   13  C   UNL     1      -9.742   4.811  66.634  1.00  0.00    -0.191 A  
HETATM   14  F   UNL     1      -7.472   4.847  65.961  1.00  0.00    -0.076 F  
ENDBRANCH   5   6
ENDBRANCH   2   5
BRANCH   2  15
HETATM   15  C   UNL     1      -7.610   9.787  68.569  1.00  0.00    -0.080 C  
BRANCH  15  16
HETATM   16  C   UNL     1      -7.541  11.303  68.436  1.00  0.00    -0.120 C  
HETATM   17  N   UNL     1     -10.165  12.938  65.753  1.00  0.00    -0.285 NA 
HETATM   18  C   UNL     1      -8.125  13.291  67.093  1.00  0.00    -0.088 C  
HETATM   19  N   UNL     1      -8.156  11.841  67.310  1.00  0.00    -0.156 N  
HETATM   20  C   UNL     1      -9.751  11.657  65.498  1.00  0.00    -0.232 A  
HETATM   21  O   UNL     1      -7.005  12.010  69.284  1.00  0.00    -0.096 OA 
HETATM   22  C   UNL     1      -8.573  11.039  66.156  1.00  0.00    -0.175 C  
HETATM   23  C   UNL     1      -9.508  13.819  66.698  1.00  0.00    -0.279 C  
HETATM   24  N   UNL     1     -10.561  11.109  64.628  1.00  0.00    -0.330 NA 
HETATM   25  N   UNL     1     -11.544  12.021  64.338  1.00  0.00    -0.346 NA 
HETATM   26  C   UNL     1     -11.318  13.121  65.037  1.00  0.00    -0.299 A  
HETATM   27  C   UNL     1     -12.165  14.341  65.067  1.00  0.00    -0.433 C  
HETATM   28  F   UNL     1     -11.658  15.307  65.880  1.00  0.00    -0.294 F  
HETATM   29  F   UNL     1     -12.293  14.905  63.840  1.00  0.00    -0.475 F  
HETATM   30  F   UNL     1     -13.417  14.083  65.524  1.00  0.00    -0.451 F  
ENDBRANCH  15  16
ENDBRANCH   2  15
TORSDOF 4
ENDMDL
MODEL      199
REMARK 921   NORMALIZED FREE ENERGY PREDICTED BY IDOCK:   -4.81 KCAL/MOL
REMARK 922        TOTAL FREE ENERGY PREDICTED BY IDOCK:   -7.00 KCAL/MOL
REMARK 923 INTER-LIGAND FREE ENERGY PREDICTED BY IDOCK:   -6.44 KCAL/MOL
REMARK 924 INTRA-LIGAND FREE ENERGY PREDICTED BY IDOCK:   -0.56 KCAL/MOL
REMARK 927      BINDING AFFINITY PREDICTED BY RF-SCORE:    0.00 PKD
ROOT
HETATM    1  N   UNL     1     -11.897   7.007  72.953  1.00  0.00    -0.505 NA 
HETATM    2  C   UNL     1     -12.294   6.534  71.609  1.00  0.00    -0.260 C  
HETATM    3  H1  UNL     1     -11.291   6.302  73.373  1.00  0.00     0.000 HD 
HETATM    4  H2  UNL     1     -12.699   7.239  73.540  1.00  0.00     0.000 HD 
ENDROOT
BRANCH   2   5
HETATM    5  C   UNL     1     -11.030   6.240  70.765  1.00  0.00    -0.357 C  
BRANCH   5   6
HETATM    6  C   UNL     1      -9.795   5.998  71.605  1.00  0.00    -0.196 A  
HETATM    7  F   UNL     1     -10.398   3.727  71.940  1.00  0.00    -0.243 F  
HETATM    8  C   UNL     1      -9.533   4.731  72.140  1.00  0.00    -0.139 A  
HETATM    9  C   UNL     1      -8.385   4.480  72.884  1.00  0.00    -0.103 A  
HETATM   10  C   UNL     1      -8.882   7.036  71.856  1.00  0.00    -0.128 A  
HETATM   11  C   UNL     1      -7.729   6.783  72.590  1.00  0.00    -0.099 A  
HETATM   12  F   UNL     1      -6.367   5.275  73.801  1.00  0.00    -0.056 F  
HETATM   13  C   UNL     1      -7.481   5.513  73.098  1.00  0.00    -0.096 A  
HETATM   14  F   UNL     1      -6.854   7.777  72.803  1.00  0.00    -0.061 F  
ENDBRANCH   5   6
ENDBRANCH   2   5
BRANCH   2  15
HETATM   15  C   UNL     1     -13.204   7.591  70.978  1.00  0.00    -0.133 C  
BRANCH  15  16
HETATM   16  C   UNL     1     -13.120   8.976  71.608  1.00  0.00    -0.365 C  
HETATM   17  N   UNL     1     -11.713  11.928  69.147  1.00  0.00    -0.297 NA 
HETATM   18  C   UNL     1     -12.189  11.258  71.472  1.00  0.00     0.028 C  
HETATM   19  N   UNL     1     -12.338   9.904  70.929  1.00  0.00    -0.309 N  
HETATM   20  C   UNL     1     -11.264  10.659  68.895  1.00  0.00    -0.275 A  
HETATM   21  O   UNL     1     -13.730   9.265  72.633  1.00  0.00    -0.450 OA 
HETATM   22  C   UNL     1     -11.396   9.544  69.865  1.00  0.00    -0.126 C  
HETATM   23  C   UNL     1     -12.373  12.315  70.378  1.00  0.00    -0.228 C  
HETATM   24  N   UNL     1     -10.745  10.617  67.693  1.00  0.00    -0.246 NA 
HETATM   25  N   UNL     1     -10.891  11.860  67.131  1.00  0.00    -0.242 NA 
HETATM   26  C   UNL     1     -11.499  12.649  68.002  1.00  0.00    -0.318 A  
HETATM   27  C   UNL     1     -11.902  14.061  67.786  1.00  0.00    -0.384 C  
HETATM   28  F   UNL     1     -12.502  14.605  68.880  1.00  0.00    -0.249 F  
HETATM   29  F   UNL     1     -10.842  14.857  67.498  1.00  0.00    -0.266 F  
HETATM   30  F   UNL     1     -12.789  14.190  66.767  1.00  0.00    -0.338 F  
ENDBRANCH  15  16
ENDBRANCH   2  15
TORSDOF 4
ENDMDL
MODEL      200
REMARK 921   NORMALIZED FREE ENERGY PREDICTED BY IDOCK:   -4.78 KCAL/MOL
REMARK 922        TOTAL FREE ENERGY PREDICTED BY IDOCK:   -6.96 KCAL/MOL
REMARK 923 INTER-LIGAND FREE ENERGY PREDICTED BY IDOCK:   -6.33 KCAL/MOL
REMARK 924 INTRA-LIGAND FREE ENERGY PREDICTED BY IDOCK:   -0.63 KCAL/MOL
REMARK 927      BINDING AFFINITY PREDICTED BY RF-SCORE:    0.00 PKD
ROOT
HETATM    1  N   UNL     1      -8.695  18.423  67.532  1.00  0.00    -0.256 NA 
HETATM    2  C   UNL     1      -8.793  17.229  68.399  1.00  0.00    -0.269 C  
HETATM    3  H1  UNL     1      -7.765  18.825  67.646  1.00  0.00     0.000 HD 
HETATM    4  H2  UNL     1      -9.440  19.098  67.706  1.00  0.00     0.000 HD 
ENDROOT
BRANCH   2   5
HETATM    5  C   UNL     1      -7.656  16.237  68.051  1.00  0.00    -0.143 C  
BRANCH   5   6
HETATM    6  C   UNL     1      -8.163  14.894  67.572  1.00  0.00    -0.199 A  
HETATM    7  F   UNL     1      -9.021  15.863  65.582  1.00  0.00    -0.333 F  
HETATM    8  C   UNL     1      -8.811  14.775  66.337  1.00  0.00    -0.117 A  
HETATM    9  C   UNL     1      -9.251  13.544  65.863  1.00  0.00     0.175 A  
HETATM   10  C   UNL     1      -7.983  13.740  68.352  1.00  0.00    -0.144 A  
HETATM   11  C   UNL     1      -8.413  12.506  67.874  1.00  0.00    -0.171 A  
HETATM   12  F   UNL     1      -9.447  11.219  66.181  1.00  0.00    -0.194 F  
HETATM   13  C   UNL     1      -9.040  12.409  66.636  1.00  0.00    -0.204 A  
HETATM   14  F   UNL     1      -8.215  11.408  68.617  1.00  0.00    -0.135 F  
ENDBRANCH   5   6
ENDBRANCH   2   5
BRANCH   2  15
HETATM   15  C   UNL     1     -10.189  16.625  68.227  1.00  0.00    -0.281 C  
BRANCH  15  16
HETATM   16  C   UNL     1     -10.933  16.333  69.524  1.00  0.00    -0.339 C  
HETATM   17  N   UNL     1     -12.168  12.459  69.990  1.00  0.00    -0.241 NA 
HETATM   18  C   UNL     1     -12.411  14.789  70.759  1.00  0.00    -0.337 C  
HETATM   19  N   UNL     1     -11.653  15.144  69.555  1.00  0.00    -0.298 N  
HETATM   20  C   UNL     1     -12.067  12.917  68.703  1.00  0.00    -0.135 A  
HETATM   21  O   UNL     1     -10.875  17.084  70.494  1.00  0.00     0.087 OA 
HETATM   22  C   UNL     1     -11.965  14.356  68.359  1.00  0.00    -0.293 C  
HETATM   23  C   UNL     1     -12.173  13.328  71.150  1.00  0.00    -0.113 C  
HETATM   24  N   UNL     1     -12.057  11.894  67.884  1.00  0.00    -0.522 NA 
HETATM   25  N   UNL     1     -12.110  10.751  68.640  1.00  0.00    -0.450 NA 
HETATM   26  C   UNL     1     -12.153  11.091  69.917  1.00  0.00    -0.361 A  
HETATM   27  C   UNL     1     -12.164  10.168  71.080  1.00  0.00    -0.374 C  
HETATM   28  F   UNL     1     -12.220  10.827  72.269  1.00  0.00    -0.032 F  
HETATM   29  F   UNL     1     -13.232   9.331  71.058  1.00  0.00    -0.329 F  
HETATM   30  F   UNL     1     -11.049   9.395  71.130  1.00  0.00    -0.317 F  
ENDBRANCH  15  16
ENDBRANCH   2  15
TORSDOF 4
ENDMDL
MODEL      201
REMARK 921   NORMALIZED FREE ENERGY PREDICTED BY IDOCK:   -4.77 KCAL/MOL
REMARK 922        TOTAL FREE ENERGY PREDICTED BY IDOCK:   -6.95 KCAL/MOL
REMARK 923 INTER-LIGAND FREE ENERGY PREDICTED BY IDOCK:   -6.43 KCAL/MOL
REMARK 924 INTRA-LIGAND FREE ENERGY PREDICTED BY IDOCK:   -0.52 KCAL/MOL
REMARK 927      BINDING AFFINITY PREDICTED BY RF-SCORE:    0.00 PKD
ROOT
HETATM    1  N   UNL     1     -12.626  14.453  63.551  1.00  0.00    -1.000 NA 
HETATM    2  C   UNL     1     -12.246  14.915  64.904  1.00  0.00    -0.227 C  
HETATM    3  H1  UNL     1     -12.270  15.128  62.873  1.00  0.00     0.000 HD 
HETATM    4  H2  UNL     1     -13.629  14.292  63.458  1.00  0.00     0.000 HD 
ENDROOT
BRANCH   2   5
HETATM    5  C   UNL     1     -10.711  15.100  64.980  1.00  0.00    -0.451 C  
BRANCH   5   6
HETATM    6  C   UNL     1     -10.294  16.283  65.826  1.00  0.00    -0.393 A  
HETATM    7  F   UNL     1     -11.568  17.767  64.481  1.00  0.00     0.409 F  
HETATM    8  C   UNL     1     -10.766  17.569  65.537  1.00  0.00    -0.062 A  
HETATM    9  C   UNL     1     -10.423  18.663  66.325  1.00  0.00    -0.468 A  
HETATM   10  C   UNL     1      -9.433  16.113  66.923  1.00  0.00    -0.245 A  
HETATM   11  C   UNL     1      -9.099  17.205  67.718  1.00  0.00    -0.233 A  
HETATM   12  F   UNL     1      -9.271  19.515  68.193  1.00  0.00    -0.352 F  
HETATM   13  C   UNL     1      -9.593  18.470  67.422  1.00  0.00    -0.293 A  
HETATM   14  F   UNL     1      -8.295  17.025  68.776  1.00  0.00    -0.230 F  
ENDBRANCH   5   6
ENDBRANCH   2   5
BRANCH   2  15
HETATM   15  C   UNL     1     -12.779  13.903  65.922  1.00  0.00    -0.466 C  
BRANCH  15  16
HETATM   16  C   UNL     1     -12.057  13.894  67.263  1.00  0.00    -0.368 C  
HETATM   17  N   UNL     1      -8.570  11.752  67.351  1.00  0.00    -0.154 NA 
HETATM   18  C   UNL     1     -10.347  12.822  68.685  1.00  0.00    -0.179 C  
HETATM   19  N   UNL     1     -11.081  12.915  67.420  1.00  0.00    -0.263 N  
HETATM   20  C   UNL     1      -9.522  11.332  66.459  1.00  0.00    -0.193 A  
HETATM   21  O   UNL     1     -12.299  14.718  68.141  1.00  0.00    -0.106 OA 
HETATM   22  C   UNL     1     -10.940  11.764  66.522  1.00  0.00    -0.295 C  
HETATM   23  C   UNL     1      -8.843  12.669  68.440  1.00  0.00    -0.119 C  
HETATM   24  N   UNL     1      -8.965  10.538  65.579  1.00  0.00    -0.175 NA 
HETATM   25  N   UNL     1      -7.626  10.467  65.867  1.00  0.00    -0.146 NA 
HETATM   26  C   UNL     1      -7.381  11.221  66.926  1.00  0.00    -0.145 A  
HETATM   27  C   UNL     1      -6.056  11.474  67.547  1.00  0.00    -0.071 C  
HETATM   28  F   UNL     1      -6.136  12.289  68.633  1.00  0.00    -0.053 F  
HETATM   29  F   UNL     1      -5.464  10.330  67.973  1.00  0.00    -0.038 F  
HETATM   30  F   UNL     1      -5.195  12.076  66.687  1.00  0.00    -0.112 F  
ENDBRANCH  15  16
ENDBRANCH   2  15
TORSDOF 4
ENDMDL
MODEL      202
REMARK 921   NORMALIZED FREE ENERGY PREDICTED BY IDOCK:   -4.76 KCAL/MOL
REMARK 922        TOTAL FREE ENERGY PREDICTED BY IDOCK:   -6.94 KCAL/MOL
REMARK 923 INTER-LIGAND FREE ENERGY PREDICTED BY IDOCK:   -6.43 KCAL/MOL
REMARK 924 INTRA-LIGAND FREE ENERGY PREDICTED BY IDOCK:   -0.51 KCAL/MOL
REMARK 927      BINDING AFFINITY PREDICTED BY RF-SCORE:    0.00 PKD
ROOT
HETATM    1  N   UNL     1     -13.318   9.928  72.486  1.00  0.00    -0.581 NA 
HETATM    2  C   UNL     1     -12.287  10.044  71.432  1.00  0.00    -0.415 C  
HETATM    3  H1  UNL     1     -13.646  10.866  72.714  1.00  0.00     0.000 HD 
HETATM    4  H2  UNL     1     -12.988   9.415  73.304  1.00  0.00     0.000 HD 
ENDROOT
BRANCH   2   5
HETATM    5  C   UNL     1     -12.871  10.797  70.211  1.00  0.00    -0.226 C  
BRANCH   5   6
HETATM    6  C   UNL     1     -12.328  12.201  70.061  1.00  0.00    -0.167 A  
HETATM    7  F   UNL     1     -13.474  12.913  72.015  1.00  0.00    -0.506 F  
HETATM    8  C   UNL     1     -12.649  13.194  70.995  1.00  0.00    -0.312 A  
HETATM    9  C   UNL     1     -12.131  14.480  70.894  1.00  0.00    -0.404 A  
HETATM   10  C   UNL     1     -11.484  12.534  68.989  1.00  0.00    -0.355 A  
HETATM   11  C   UNL     1     -10.957  13.817  68.894  1.00  0.00    -0.252 A  
HETATM   12  F   UNL     1     -10.762  16.015  69.747  1.00  0.00    -0.236 F  
HETATM   13  C   UNL     1     -11.276  14.783  69.842  1.00  0.00    -0.257 A  
HETATM   14  F   UNL     1     -10.133  14.116  67.878  1.00  0.00    -0.220 F  
ENDBRANCH   5   6
ENDBRANCH   2   5
BRANCH   2  15
HETATM   15  C   UNL     1     -11.794   8.635  71.088  1.00  0.00    -0.331 C  
BRANCH  15  16
HETATM   16  C   UNL     1     -10.280   8.470  71.053  1.00  0.00    -0.203 C  
HETATM   17  N   UNL     1      -8.796   6.705  67.672  1.00  0.00    -0.118 NA 
HETATM   18  C   UNL     1      -8.344   7.349  70.009  1.00  0.00    -0.137 C  
HETATM   19  N   UNL     1      -9.789   7.582  70.103  1.00  0.00    -0.180 N  
HETATM   20  C   UNL     1     -10.067   6.350  68.038  1.00  0.00    -0.148 A  
HETATM   21  O   UNL     1      -9.536   9.104  71.797  1.00  0.00    -0.283 OA 
HETATM   22  C   UNL     1     -10.631   6.620  69.383  1.00  0.00    -0.240 C  
HETATM   23  C   UNL     1      -7.872   7.392  68.552  1.00  0.00    -0.122 C  
HETATM   24  N   UNL     1     -10.663   5.777  67.021  1.00  0.00    -0.295 NA 
HETATM   25  N   UNL     1      -9.791   5.792  65.963  1.00  0.00    -0.043 NA 
HETATM   26  C   UNL     1      -8.668   6.376  66.349  1.00  0.00    -0.138 A  
HETATM   27  C   UNL     1      -7.477   6.650  65.505  1.00  0.00    -0.079 C  
HETATM   28  F   UNL     1      -6.476   7.257  66.199  1.00  0.00    -0.040 F  
HETATM   29  F   UNL     1      -6.946   5.516  64.985  1.00  0.00    -0.048 F  
HETATM   30  F   UNL     1      -7.766   7.473  64.464  1.00  0.00    -0.092 F  
ENDBRANCH  15  16
ENDBRANCH   2  15
TORSDOF 4
ENDMDL
MODEL      203
REMARK 921   NORMALIZED FREE ENERGY PREDICTED BY IDOCK:   -4.75 KCAL/MOL
REMARK 922        TOTAL FREE ENERGY PREDICTED BY IDOCK:   -6.92 KCAL/MOL
REMARK 923 INTER-LIGAND FREE ENERGY PREDICTED BY IDOCK:   -6.21 KCAL/MOL
REMARK 924 INTRA-LIGAND FREE ENERGY PREDICTED BY IDOCK:   -0.71 KCAL/MOL
REMARK 927      BINDING AFFINITY PREDICTED BY RF-SCORE:    0.00 PKD
ROOT
HETATM    1  N   UNL     1     -10.201   8.435  68.147  1.00  0.00    -0.201 NA 
HETATM    2  C   UNL     1      -9.400   9.632  67.809  1.00  0.00    -0.127 C  
HETATM    3  H1  UNL     1      -9.720   7.615  67.778  1.00  0.00     0.000 HD 
HETATM    4  H2  UNL     1     -11.167   8.505  67.825  1.00  0.00     0.000 HD 
ENDROOT
BRANCH   2   5
HETATM    5  C   UNL     1      -7.963   9.471  68.361  1.00  0.00    -0.093 C  
BRANCH   5   6
HETATM    6  C   UNL     1      -7.239  10.788  68.533  1.00  0.00    -0.088 A  
HETATM    7  F   UNL     1      -7.440  11.266  66.217  1.00  0.00    -0.140 F  
HETATM    8  C   UNL     1      -7.029  11.635  67.439  1.00  0.00    -0.117 A  
HETATM    9  C   UNL     1      -6.398  12.866  67.583  1.00  0.00    -0.158 A  
HETATM   10  C   UNL     1      -6.772  11.191  69.795  1.00  0.00    -0.121 A  
HETATM   11  C   UNL     1      -6.150  12.427  69.943  1.00  0.00    -0.135 A  
HETATM   12  F   UNL     1      -5.373  14.449  68.994  1.00  0.00    -0.083 F  
HETATM   13  C   UNL     1      -5.968  13.259  68.844  1.00  0.00    -0.079 A  
HETATM   14  F   UNL     1      -5.730  12.810  71.157  1.00  0.00    -0.185 F  
ENDBRANCH   5   6
ENDBRANCH   2   5
BRANCH   2  15
HETATM   15  C   UNL     1     -10.122  10.863  68.364  1.00  0.00    -0.196 C  
BRANCH  15  16
HETATM   16  C   UNL     1     -10.974  11.622  67.355  1.00  0.00    -0.261 C  
HETATM   17  N   UNL     1     -10.825  15.701  67.666  1.00  0.00    -0.302 NA 
HETATM   18  C   UNL     1     -12.039  13.764  66.742  1.00  0.00    -0.418 C  
HETATM   19  N   UNL     1     -11.215  12.960  67.650  1.00  0.00    -0.263 N  
HETATM   20  C   UNL     1     -10.616  14.993  68.820  1.00  0.00    -0.240 A  
HETATM   21  O   UNL     1     -11.398  11.096  66.330  1.00  0.00    -0.198 OA 
HETATM   22  C   UNL     1     -10.959  13.557  68.965  1.00  0.00    -0.225 C  
HETATM   23  C   UNL     1     -11.389  15.122  66.463  1.00  0.00    -0.234 C  
HETATM   24  N   UNL     1     -10.068  15.779  69.714  1.00  0.00    -0.286 NA 
HETATM   25  N   UNL     1      -9.874  17.005  69.130  1.00  0.00    -0.236 NA 
HETATM   26  C   UNL     1     -10.310  16.952  67.882  1.00  0.00    -0.332 A  
HETATM   27  C   UNL     1     -10.244  18.040  66.874  1.00  0.00    -0.362 C  
HETATM   28  F   UNL     1     -10.786  17.678  65.679  1.00  0.00    -0.358 F  
HETATM   29  F   UNL     1     -10.913  19.150  67.274  1.00  0.00    -0.519 F  
HETATM   30  F   UNL     1      -8.966  18.415  66.609  1.00  0.00    -0.257 F  
ENDBRANCH  15  16
ENDBRANCH   2  15
TORSDOF 4
ENDMDL
MODEL      204
REMARK 921   NORMALIZED FREE ENERGY PREDICTED BY IDOCK:   -4.73 KCAL/MOL
REMARK 922        TOTAL FREE ENERGY PREDICTED BY IDOCK:   -6.91 KCAL/MOL
REMARK 923 INTER-LIGAND FREE ENERGY PREDICTED BY IDOCK:   -6.36 KCAL/MOL
REMARK 924 INTRA-LIGAND FREE ENERGY PREDICTED BY IDOCK:   -0.55 KCAL/MOL
REMARK 927      BINDING AFFINITY PREDICTED BY RF-SCORE:    0.00 PKD
ROOT
HETATM    1  N   UNL     1     -10.566   6.885  67.047  1.00  0.00    -0.323 NA 
HETATM    2  C   UNL     1     -10.438   7.198  68.487  1.00  0.00    -0.204 C  
HETATM    3  H1  UNL     1     -10.354   5.896  66.916  1.00  0.00     0.000 HD 
HETATM    4  H2  UNL     1      -9.993   7.493  66.460  1.00  0.00     0.000 HD 
ENDROOT
BRANCH   2   5
HETATM    5  C   UNL     1     -11.362   6.265  69.307  1.00  0.00    -0.411 C  
BRANCH   5   6
HETATM    6  C   UNL     1     -10.673   5.643  70.502  1.00  0.00    -0.344 A  
HETATM    7  F   UNL     1      -9.381   4.234  69.094  1.00  0.00    -0.156 F  
HETATM    8  C   UNL     1      -9.692   4.659  70.327  1.00  0.00    -0.225 A  
HETATM    9  C   UNL     1      -9.022   4.101  71.410  1.00  0.00    -0.165 A  
HETATM   10  C   UNL     1     -10.996   6.046  71.808  1.00  0.00    -0.323 A  
HETATM   11  C   UNL     1     -10.318   5.497  72.891  1.00  0.00    -0.195 A  
HETATM   12  F   UNL     1      -8.684   4.012  73.739  1.00  0.00    -0.092 F  
HETATM   13  C   UNL     1      -9.336   4.534  72.693  1.00  0.00    -0.129 A  
HETATM   14  F   UNL     1     -10.619   5.908  74.131  1.00  0.00    -0.255 F  
ENDBRANCH   5   6
ENDBRANCH   2   5
BRANCH   2  15
HETATM   15  C   UNL     1     -10.757   8.683  68.684  1.00  0.00    -0.092 C  
BRANCH  15  16
HETATM   16  C   UNL     1      -9.547   9.581  68.906  1.00  0.00    -0.156 C  
HETATM   17  N   UNL     1      -9.621  13.136  66.881  1.00  0.00    -0.240 NA 
HETATM   18  C   UNL     1      -8.232  11.514  68.113  1.00  0.00    -0.149 C  
HETATM   19  N   UNL     1      -9.379  10.610  67.986  1.00  0.00    -0.145 N  
HETATM   20  C   UNL     1     -10.292  12.091  66.303  1.00  0.00    -0.221 A  
HETATM   21  O   UNL     1      -8.783   9.426  69.855  1.00  0.00    -0.160 OA 
HETATM   22  C   UNL     1     -10.097  10.678  66.709  1.00  0.00    -0.224 C  
HETATM   23  C   UNL     1      -8.662  12.976  67.955  1.00  0.00    -0.189 C  
HETATM   24  N   UNL     1     -11.107  12.557  65.389  1.00  0.00    -0.293 NA 
HETATM   25  N   UNL     1     -11.004  13.924  65.394  1.00  0.00    -0.306 NA 
HETATM   26  C   UNL     1     -10.122  14.278  66.313  1.00  0.00    -0.298 A  
HETATM   27  C   UNL     1      -9.743  15.664  66.690  1.00  0.00    -0.249 C  
HETATM   28  F   UNL     1      -8.797  15.698  67.668  1.00  0.00    -0.169 F  
HETATM   29  F   UNL     1      -9.231  16.357  65.642  1.00  0.00    -0.319 F  
HETATM   30  F   UNL     1     -10.800  16.372  67.164  1.00  0.00    -0.321 F  
ENDBRANCH  15  16
ENDBRANCH   2  15
TORSDOF 4
ENDMDL
MODEL      205
REMARK 921   NORMALIZED FREE ENERGY PREDICTED BY IDOCK:   -4.72 KCAL/MOL
REMARK 922        TOTAL FREE ENERGY PREDICTED BY IDOCK:   -6.90 KCAL/MOL
REMARK 923 INTER-LIGAND FREE ENERGY PREDICTED BY IDOCK:   -6.80 KCAL/MOL
REMARK 924 INTRA-LIGAND FREE ENERGY PREDICTED BY IDOCK:   -0.09 KCAL/MOL
REMARK 927      BINDING AFFINITY PREDICTED BY RF-SCORE:    0.00 PKD
ROOT
HETATM    1  N   UNL     1      -9.579  10.705  65.152  1.00  0.00    -0.229 NA 
HETATM    2  C   UNL     1     -10.194  10.449  66.472  1.00  0.00    -0.229 C  
HETATM    3  H1  UNL     1     -10.129  11.423  64.679  1.00  0.00     0.000 HD 
HETATM    4  H2  UNL     1      -9.477   9.856  64.595  1.00  0.00     0.000 HD 
ENDROOT
BRANCH   2   5
HETATM    5  C   UNL     1     -10.282  11.771  67.272  1.00  0.00    -0.226 C  
BRANCH   5   6
HETATM    6  C   UNL     1     -10.550  12.979  66.401  1.00  0.00    -0.294 A  
HETATM    7  F   UNL     1     -12.556  12.011  65.578  1.00  0.00    -0.236 F  
HETATM    8  C   UNL     1     -11.699  13.042  65.603  1.00  0.00    -0.375 A  
HETATM    9  C   UNL     1     -11.981  14.159  64.823  1.00  0.00    -0.441 A  
HETATM   10  C   UNL     1      -9.658  14.064  66.384  1.00  0.00    -0.299 A  
HETATM   11  C   UNL     1      -9.945  15.185  65.613  1.00  0.00    -0.354 A  
HETATM   12  F   UNL     1     -11.372  16.317  64.104  1.00  0.00    -0.490 F  
HETATM   13  C   UNL     1     -11.100  15.233  64.840  1.00  0.00    -0.424 A  
HETATM   14  F   UNL     1      -9.097  16.224  65.623  1.00  0.00    -0.330 F  
ENDBRANCH   5   6
ENDBRANCH   2   5
BRANCH   2  15
HETATM   15  C   UNL     1      -9.370   9.372  67.183  1.00  0.00    -0.172 C  
BRANCH  15  16
HETATM   16  C   UNL     1     -10.098   8.056  67.428  1.00  0.00    -0.228 C  
HETATM   17  N   UNL     1      -9.589   6.451  71.159  1.00  0.00    -0.174 NA 
HETATM   18  C   UNL     1     -10.310   6.040  68.837  1.00  0.00    -0.218 C  
HETATM   19  N   UNL     1      -9.675   7.326  68.534  1.00  0.00    -0.147 N  
HETATM   20  C   UNL     1      -8.562   7.222  70.681  1.00  0.00    -0.142 A  
HETATM   21  O   UNL     1     -11.022   7.678  66.714  1.00  0.00    -0.183 OA 
HETATM   22  C   UNL     1      -8.426   7.598  69.253  1.00  0.00    -0.138 C  
HETATM   23  C   UNL     1     -10.655   5.932  70.325  1.00  0.00    -0.286 C  
HETATM   24  N   UNL     1      -7.781   7.562  71.676  1.00  0.00    -0.084 NA 
HETATM   25  N   UNL     1      -8.320   7.045  72.827  1.00  0.00    -0.107 NA 
HETATM   26  C   UNL     1      -9.429   6.392  72.518  1.00  0.00    -0.145 A  
HETATM   27  C   UNL     1     -10.356   5.724  73.465  1.00  0.00    -0.236 C  
HETATM   28  F   UNL     1     -11.406   5.130  72.835  1.00  0.00    -0.292 F  
HETATM   29  F   UNL     1      -9.742   4.750  74.182  1.00  0.00    -0.122 F  
HETATM   30  F   UNL     1     -10.896   6.597  74.354  1.00  0.00    -0.200 F  
ENDBRANCH  15  16
ENDBRANCH   2  15
TORSDOF 4
ENDMDL
MODEL      206
REMARK 921   NORMALIZED FREE ENERGY PREDICTED BY IDOCK:   -4.70 KCAL/MOL
REMARK 922        TOTAL FREE ENERGY PREDICTED BY IDOCK:   -6.86 KCAL/MOL
REMARK 923 INTER-LIGAND FREE ENERGY PREDICTED BY IDOCK:   -6.62 KCAL/MOL
REMARK 924 INTRA-LIGAND FREE ENERGY PREDICTED BY IDOCK:   -0.24 KCAL/MOL
REMARK 927      BINDING AFFINITY PREDICTED BY RF-SCORE:    0.00 PKD
ROOT
HETATM    1  N   UNL     1     -12.848  14.678  69.594  1.00  0.00    -0.520 NA 
HETATM    2  C   UNL     1     -11.608  14.015  69.136  1.00  0.00    -0.313 C  
HETATM    3  H1  UNL     1     -12.675  15.682  69.636  1.00  0.00     0.000 HD 
HETATM    4  H2  UNL     1     -13.193  14.300  70.477  1.00  0.00     0.000 HD 
ENDROOT
BRANCH   2   5
HETATM    5  C   UNL     1     -11.169  14.612  67.777  1.00  0.00    -0.320 C  
BRANCH   5   6
HETATM    6  C   UNL     1      -9.903  15.435  67.869  1.00  0.00    -0.219 A  
HETATM    7  F   UNL     1     -11.122  17.334  68.605  1.00  0.00    -0.298 F  
HETATM    8  C   UNL     1      -9.946  16.766  68.301  1.00  0.00    -0.273 A  
HETATM    9  C   UNL     1      -8.789  17.527  68.426  1.00  0.00    -0.276 A  
HETATM   10  C   UNL     1      -8.658  14.877  67.531  1.00  0.00    -0.195 A  
HETATM   11  C   UNL     1      -7.499  15.635  67.667  1.00  0.00    -0.164 A  
HETATM   12  F   UNL     1      -6.445  17.671  68.246  1.00  0.00    -0.170 F  
HETATM   13  C   UNL     1      -7.565  16.949  68.114  1.00  0.00    -0.188 A  
HETATM   14  F   UNL     1      -6.315  15.083  67.365  1.00  0.00    -0.176 F  
ENDBRANCH   5   6
ENDBRANCH   2   5
BRANCH   2  15
HETATM   15  C   UNL     1     -11.868  12.507  69.072  1.00  0.00    -0.344 C  
BRANCH  15  16
HETATM   16  C   UNL     1     -11.550  11.851  67.735  1.00  0.00    -0.323 C  
HETATM   17  N   UNL     1      -9.572   8.276  67.972  1.00  0.00    -0.150 NA 
HETATM   18  C   UNL     1     -10.217  10.163  66.522  1.00  0.00    -0.223 C  
HETATM   19  N   UNL     1     -10.596  10.839  67.767  1.00  0.00    -0.211 N  
HETATM   20  C   UNL     1      -9.354   9.162  68.993  1.00  0.00    -0.151 A  
HETATM   21  O   UNL     1     -12.122  12.173  66.697  1.00  0.00    -0.622 OA 
HETATM   22  C   UNL     1      -9.709  10.600  68.910  1.00  0.00    -0.202 C  
HETATM   23  C   UNL     1     -10.181   8.643  66.709  1.00  0.00    -0.291 C  
HETATM   24  N   UNL     1      -8.822   8.527  70.008  1.00  0.00    -0.138 NA 
HETATM   25  N   UNL     1      -8.727   7.201  69.668  1.00  0.00    -0.141 NA 
HETATM   26  C   UNL     1      -9.203   7.044  68.444  1.00  0.00    -0.129 A  
HETATM   27  C   UNL     1      -9.338   5.764  67.704  1.00  0.00    -0.108 C  
HETATM   28  F   UNL     1      -9.856   5.934  66.457  1.00  0.00    -0.159 F  
HETATM   29  F   UNL     1      -8.145   5.140  67.538  1.00  0.00    -0.097 F  
HETATM   30  F   UNL     1     -10.163   4.891  68.337  1.00  0.00    -0.225 F  
ENDBRANCH  15  16
ENDBRANCH   2  15
TORSDOF 4
ENDMDL
MODEL      207
REMARK 921   NORMALIZED FREE ENERGY PREDICTED BY IDOCK:   -4.69 KCAL/MOL
REMARK 922        TOTAL FREE ENERGY PREDICTED BY IDOCK:   -6.86 KCAL/MOL
REMARK 923 INTER-LIGAND FREE ENERGY PREDICTED BY IDOCK:   -6.12 KCAL/MOL
REMARK 924 INTRA-LIGAND FREE ENERGY PREDICTED BY IDOCK:   -0.74 KCAL/MOL
REMARK 927      BINDING AFFINITY PREDICTED BY RF-SCORE:    0.00 PKD
ROOT
HETATM    1  N   UNL     1      -6.954  11.772  65.969  1.00  0.00    -0.072 NA 
HETATM    2  C   UNL     1      -7.789  11.462  67.150  1.00  0.00    -0.156 C  
HETATM    3  H1  UNL     1      -7.110  11.046  65.269  1.00  0.00     0.000 HD 
HETATM    4  H2  UNL     1      -5.968  11.887  66.204  1.00  0.00     0.000 HD 
ENDROOT
BRANCH   2   5
HETATM    5  C   UNL     1      -9.272  11.340  66.723  1.00  0.00    -0.186 C  
BRANCH   5   6
HETATM    6  C   UNL     1     -10.167  12.368  67.378  1.00  0.00    -0.215 A  
HETATM    7  F   UNL     1     -10.119  13.731  65.435  1.00  0.00    -0.300 F  
HETATM    8  C   UNL     1     -10.563  13.517  66.682  1.00  0.00    -0.280 A  
HETATM    9  C   UNL     1     -11.415  14.456  67.254  1.00  0.00    -0.377 A  
HETATM   10  C   UNL     1     -10.628  12.186  68.693  1.00  0.00    -0.248 A  
HETATM   11  C   UNL     1     -11.489  13.119  69.261  1.00  0.00    -0.291 A  
HETATM   12  F   UNL     1     -12.714  15.136  69.097  1.00  0.00    -0.083 F  
HETATM   13  C   UNL     1     -11.882  14.244  68.545  1.00  0.00    -0.347 A  
HETATM   14  F   UNL     1     -11.940  12.922  70.509  1.00  0.00    -0.398 F  
ENDBRANCH   5   6
ENDBRANCH   2   5
BRANCH   2  15
HETATM   15  C   UNL     1      -7.554  12.551  68.201  1.00  0.00    -0.127 C  
BRANCH  15  16
HETATM   16  C   UNL     1      -6.285  13.371  68.011  1.00  0.00    -0.133 C  
HETATM   17  N   UNL     1      -6.809  17.430  68.044  1.00  0.00    -0.177 NA 
HETATM   18  C   UNL     1      -5.303  15.567  67.458  1.00  0.00     0.025 C  
HETATM   19  N   UNL     1      -6.470  14.707  67.675  1.00  0.00    -0.164 N  
HETATM   20  C   UNL     1      -7.870  16.681  67.608  1.00  0.00    -0.174 A  
HETATM   21  O   UNL     1      -5.166  12.891  68.176  1.00  0.00    -0.070 OA 
HETATM   22  C   UNL     1      -7.751  15.255  67.216  1.00  0.00    -0.211 C  
HETATM   23  C   UNL     1      -5.464  16.908  68.181  1.00  0.00    -0.120 C  
HETATM   24  N   UNL     1      -8.952  17.420  67.623  1.00  0.00    -0.231 NA 
HETATM   25  N   UNL     1      -8.610  18.654  68.113  1.00  0.00    -0.298 NA 
HETATM   26  C   UNL     1      -7.316  18.654  68.391  1.00  0.00    -0.287 A  
HETATM   27  C   UNL     1      -6.539  19.768  68.991  1.00  0.00    -0.333 C  
HETATM   28  F   UNL     1      -5.222  19.462  69.145  1.00  0.00    -0.187 F  
HETATM   29  F   UNL     1      -6.582  20.890  68.229  1.00  0.00    -0.331 F  
HETATM   30  F   UNL     1      -6.995  20.103  70.225  1.00  0.00    -0.349 F  
ENDBRANCH  15  16
ENDBRANCH   2  15
TORSDOF 4
ENDMDL
MODEL      208
REMARK 921   NORMALIZED FREE ENERGY PREDICTED BY IDOCK:   -4.69 KCAL/MOL
REMARK 922        TOTAL FREE ENERGY PREDICTED BY IDOCK:   -6.85 KCAL/MOL
REMARK 923 INTER-LIGAND FREE ENERGY PREDICTED BY IDOCK:   -5.92 KCAL/MOL
REMARK 924 INTRA-LIGAND FREE ENERGY PREDICTED BY IDOCK:   -0.93 KCAL/MOL
REMARK 927      BINDING AFFINITY PREDICTED BY RF-SCORE:    0.00 PKD
ROOT
HETATM    1  N   UNL     1      -8.683   5.807  66.980  1.00  0.00    -0.110 NA 
HETATM    2  C   UNL     1      -8.506   6.691  68.153  1.00  0.00    -0.116 C  
HETATM    3  H1  UNL     1      -8.659   4.840  67.304  1.00  0.00     0.000 HD 
HETATM    4  H2  UNL     1      -8.003   5.992  66.242  1.00  0.00     0.000 HD 
ENDROOT
BRANCH   2   5
HETATM    5  C   UNL     1      -9.592   6.378  69.210  1.00  0.00    -0.145 C  
BRANCH   5   6
HETATM    6  C   UNL     1      -9.263   6.922  70.583  1.00  0.00    -0.158 A  
HETATM    7  F   UNL     1     -11.016   8.515  70.435  1.00  0.00    -0.227 F  
HETATM    8  C   UNL     1     -10.015   7.964  71.137  1.00  0.00    -0.173 A  
HETATM    9  C   UNL     1      -9.750   8.453  72.412  1.00  0.00    -0.376 A  
HETATM   10  C   UNL     1      -8.203   6.385  71.332  1.00  0.00    -0.121 A  
HETATM   11  C   UNL     1      -7.945   6.866  72.612  1.00  0.00    -0.101 A  
HETATM   12  F   UNL     1      -8.464   8.346  74.382  1.00  0.00    -0.302 F  
HETATM   13  C   UNL     1      -8.715   7.891  73.148  1.00  0.00    -0.220 A  
HETATM   14  F   UNL     1      -6.945   6.328  73.326  1.00  0.00    -0.072 F  
ENDBRANCH   5   6
ENDBRANCH   2   5
BRANCH   2  15
HETATM   15  C   UNL     1      -8.542   8.142  67.667  1.00  0.00    -0.130 C  
BRANCH  15  16
HETATM   16  C   UNL     1      -9.935   8.716  67.445  1.00  0.00    -0.210 C  
HETATM   17  N   UNL     1     -10.150  12.803  67.398  1.00  0.00    -0.217 NA 
HETATM   18  C   UNL     1     -11.408  10.692  67.598  1.00  0.00    -0.207 C  
HETATM   19  N   UNL     1     -10.095  10.060  67.765  1.00  0.00    -0.173 N  
HETATM   20  C   UNL     1      -9.148  12.254  68.154  1.00  0.00    -0.196 A  
HETATM   21  O   UNL     1     -10.853   8.044  66.983  1.00  0.00    -0.283 OA 
HETATM   22  C   UNL     1      -9.123  10.825  68.553  1.00  0.00    -0.170 C  
HETATM   23  C   UNL     1     -11.282  12.049  66.898  1.00  0.00    -0.320 C  
HETATM   24  N   UNL     1      -8.258  13.176  68.423  1.00  0.00    -0.151 NA 
HETATM   25  N   UNL     1      -8.654  14.334  67.803  1.00  0.00    -0.166 NA 
HETATM   26  C   UNL     1      -9.788  14.103  67.162  1.00  0.00    -0.253 A  
HETATM   27  C   UNL     1     -10.539  15.066  66.316  1.00  0.00    -0.307 C  
HETATM   28  F   UNL     1     -11.677  14.528  65.799  1.00  0.00    -0.347 F  
HETATM   29  F   UNL     1     -10.920  16.167  67.010  1.00  0.00    -0.320 F  
HETATM   30  F   UNL     1      -9.808  15.492  65.255  1.00  0.00    -0.343 F  
ENDBRANCH  15  16
ENDBRANCH   2  15
TORSDOF 4
ENDMDL
MODEL      209
REMARK 921   NORMALIZED FREE ENERGY PREDICTED BY IDOCK:   -4.67 KCAL/MOL
REMARK 922        TOTAL FREE ENERGY PREDICTED BY IDOCK:   -6.83 KCAL/MOL
REMARK 923 INTER-LIGAND FREE ENERGY PREDICTED BY IDOCK:   -6.35 KCAL/MOL
REMARK 924 INTRA-LIGAND FREE ENERGY PREDICTED BY IDOCK:   -0.47 KCAL/MOL
REMARK 927      BINDING AFFINITY PREDICTED BY RF-SCORE:    0.00 PKD
ROOT
HETATM    1  N   UNL     1     -12.474  10.252  69.675  1.00  0.00    -0.556 NA 
HETATM    2  C   UNL     1     -11.162  10.880  69.406  1.00  0.00    -0.272 C  
HETATM    3  H1  UNL     1     -13.204  10.909  69.399  1.00  0.00     0.000 HD 
HETATM    4  H2  UNL     1     -12.570   9.940  70.642  1.00  0.00     0.000 HD 
ENDROOT
BRANCH   2   5
HETATM    5  C   UNL     1     -11.076  11.291  67.916  1.00  0.00    -0.325 C  
BRANCH   5   6
HETATM    6  C   UNL     1     -10.842  12.773  67.719  1.00  0.00    -0.248 A  
HETATM    7  F   UNL     1      -9.719  12.379  65.665  1.00  0.00    -0.244 F  
HETATM    8  C   UNL     1     -10.181  13.245  66.578  1.00  0.00    -0.283 A  
HETATM    9  C   UNL     1      -9.988  14.605  66.362  1.00  0.00    -0.296 A  
HETATM   10  C   UNL     1     -11.290  13.703  68.671  1.00  0.00    -0.321 A  
HETATM   11  C   UNL     1     -11.107  15.065  68.449  1.00  0.00    -0.278 A  
HETATM   12  F   UNL     1     -10.294  16.823  67.092  1.00  0.00    -0.277 F  
HETATM   13  C   UNL     1     -10.463  15.512  67.301  1.00  0.00    -0.279 A  
HETATM   14  F   UNL     1     -11.560  15.944  69.354  1.00  0.00    -0.291 F  
ENDBRANCH   5   6
ENDBRANCH   2   5
BRANCH   2  15
HETATM   15  C   UNL     1     -10.066   9.894  69.820  1.00  0.00    -0.274 C  
BRANCH  15  16
HETATM   16  C   UNL     1     -10.527   8.756  70.723  1.00  0.00    -0.219 C  
HETATM   17  N   UNL     1     -10.332   5.023  69.056  1.00  0.00    -0.141 NA 
HETATM   18  C   UNL     1     -11.262   6.404  70.875  1.00  0.00    -0.326 C  
HETATM   19  N   UNL     1     -10.798   7.549  70.086  1.00  0.00    -0.247 N  
HETATM   20  C   UNL     1     -10.527   6.067  68.192  1.00  0.00    -0.236 A  
HETATM   21  O   UNL     1     -10.622   8.885  71.940  1.00  0.00    -0.327 OA 
HETATM   22  C   UNL     1     -10.951   7.418  68.634  1.00  0.00     0.055 C  
HETATM   23  C   UNL     1     -10.506   5.128  70.491  1.00  0.00    -0.208 C  
HETATM   24  N   UNL     1     -10.262   5.670  66.972  1.00  0.00    -0.196 NA 
HETATM   25  N   UNL     1      -9.847   4.365  67.037  1.00  0.00    -0.207 NA 
HETATM   26  C   UNL     1      -9.866   3.978  68.302  1.00  0.00     0.014 A  
HETATM   27  C   UNL     1      -9.444   2.657  68.831  1.00  0.00    -0.096 C  
HETATM   28  F   UNL     1      -9.592   2.563  70.181  1.00  0.00    -0.202 F  
HETATM   29  F   UNL     1     -10.164   1.638  68.298  1.00  0.00    -0.018 F  
HETATM   30  F   UNL     1      -8.135   2.399  68.578  1.00  0.00    -0.056 F  
ENDBRANCH  15  16
ENDBRANCH   2  15
TORSDOF 4
ENDMDL
MODEL      210
REMARK 921   NORMALIZED FREE ENERGY PREDICTED BY IDOCK:   -4.66 KCAL/MOL
REMARK 922        TOTAL FREE ENERGY PREDICTED BY IDOCK:   -6.82 KCAL/MOL
REMARK 923 INTER-LIGAND FREE ENERGY PREDICTED BY IDOCK:   -6.30 KCAL/MOL
REMARK 924 INTRA-LIGAND FREE ENERGY PREDICTED BY IDOCK:   -0.52 KCAL/MOL
REMARK 927      BINDING AFFINITY PREDICTED BY RF-SCORE:    0.00 PKD
ROOT
HETATM    1  N   UNL     1      -9.109  11.989  66.080  1.00  0.00    -0.391 NA 
HETATM    2  C   UNL     1     -10.041  11.784  64.949  1.00  0.00    -0.259 C  
HETATM    3  H1  UNL     1      -9.113  12.980  66.319  1.00  0.00     0.000 HD 
HETATM    4  H2  UNL     1      -8.173  11.633  65.887  1.00  0.00     0.000 HD 
ENDROOT
BRANCH   2   5
HETATM    5  C   UNL     1     -11.446  12.311  65.328  1.00  0.00    -0.399 C  
BRANCH   5   6
HETATM    6  C   UNL     1     -11.417  13.351  66.427  1.00  0.00    -0.359 A  
HETATM    7  F   UNL     1     -12.226  11.780  68.013  1.00  0.00    -0.332 F  
HETATM    8  C   UNL     1     -11.797  13.020  67.733  1.00  0.00    -0.347 A  
HETATM    9  C   UNL     1     -11.743  13.952  68.763  1.00  0.00    -0.392 A  
HETATM   10  C   UNL     1     -10.999  14.665  66.160  1.00  0.00    -0.329 A  
HETATM   11  C   UNL     1     -10.933  15.594  67.193  1.00  0.00    -0.270 A  
HETATM   12  F   UNL     1     -11.231  16.137  69.476  1.00  0.00    -0.277 F  
HETATM   13  C   UNL     1     -11.300  15.239  68.486  1.00  0.00    -0.327 A  
HETATM   14  F   UNL     1     -10.509  16.839  66.930  1.00  0.00    -0.296 F  
ENDBRANCH   5   6
ENDBRANCH   2   5
BRANCH   2  15
HETATM   15  C   UNL     1     -10.035  10.295  64.589  1.00  0.00    -0.377 C  
BRANCH  15  16
HETATM   16  C   UNL     1      -8.667   9.628  64.615  1.00  0.00    -0.201 C  
HETATM   17  N   UNL     1      -8.664   5.700  65.765  1.00  0.00    -0.147 NA 
HETATM   18  C   UNL     1      -7.306   7.727  65.409  1.00  0.00    -0.077 C  
HETATM   19  N   UNL     1      -8.589   8.431  65.319  1.00  0.00    -0.171 N  
HETATM   20  C   UNL     1      -9.664   6.485  66.277  1.00  0.00    -0.010 A  
HETATM   21  O   UNL     1      -7.698  10.100  64.026  1.00  0.00    -0.148 OA 
HETATM   22  C   UNL     1      -9.629   7.967  66.243  1.00  0.00    -0.152 C  
HETATM   23  C   UNL     1      -7.477   6.231  65.127  1.00  0.00    -0.082 C  
HETATM   24  N   UNL     1     -10.611   5.717  66.756  1.00  0.00    -0.290 NA 
HETATM   25  N   UNL     1     -10.253   4.414  66.520  1.00  0.00    -0.195 NA 
HETATM   26  C   UNL     1      -9.085   4.403  65.898  1.00  0.00    -0.133 A  
HETATM   27  C   UNL     1      -8.354   3.207  65.408  1.00  0.00    -0.096 C  
HETATM   28  F   UNL     1      -7.170   3.526  64.817  1.00  0.00    -0.060 F  
HETATM   29  F   UNL     1      -8.057   2.342  66.410  1.00  0.00    -0.077 F  
HETATM   30  F   UNL     1      -9.065   2.518  64.480  1.00  0.00    -0.107 F  
ENDBRANCH  15  16
ENDBRANCH   2  15
TORSDOF 4
ENDMDL
MODEL      211
REMARK 921   NORMALIZED FREE ENERGY PREDICTED BY IDOCK:   -4.66 KCAL/MOL
REMARK 922        TOTAL FREE ENERGY PREDICTED BY IDOCK:   -6.81 KCAL/MOL
REMARK 923 INTER-LIGAND FREE ENERGY PREDICTED BY IDOCK:   -6.52 KCAL/MOL
REMARK 924 INTRA-LIGAND FREE ENERGY PREDICTED BY IDOCK:   -0.29 KCAL/MOL
REMARK 927      BINDING AFFINITY PREDICTED BY RF-SCORE:    0.00 PKD
ROOT
HETATM    1  N   UNL     1     -11.829  11.961  70.536  1.00  0.00    -0.510 NA 
HETATM    2  C   UNL     1     -10.987  11.374  69.471  1.00  0.00    -0.166 C  
HETATM    3  H1  UNL     1     -12.186  12.857  70.202  1.00  0.00     0.000 HD 
HETATM    4  H2  UNL     1     -11.337  12.040  71.427  1.00  0.00     0.000 HD 
ENDROOT
BRANCH   2   5
HETATM    5  C   UNL     1     -11.808  11.251  68.165  1.00  0.00    -0.276 C  
BRANCH   5   6
HETATM    6  C   UNL     1     -11.506  12.344  67.164  1.00  0.00    -0.423 A  
HETATM    7  F   UNL     1     -12.404  13.997  68.612  1.00  0.00    -0.378 F  
HETATM    8  C   UNL     1     -11.808  13.680  67.453  1.00  0.00    -0.393 A  
HETATM    9  C   UNL     1     -11.504  14.703  66.561  1.00  0.00    -0.354 A  
HETATM   10  C   UNL     1     -10.907  12.041  65.930  1.00  0.00    -0.329 A  
HETATM   11  C   UNL     1     -10.593  13.065  65.042  1.00  0.00    -0.319 A  
HETATM   12  F   UNL     1     -10.578  15.367  64.500  1.00  0.00    -0.388 F  
HETATM   13  C   UNL     1     -10.887  14.387  65.357  1.00  0.00    -0.344 A  
HETATM   14  F   UNL     1     -10.000  12.765  63.877  1.00  0.00    -0.388 F  
ENDBRANCH   5   6
ENDBRANCH   2   5
BRANCH   2  15
HETATM   15  C   UNL     1     -10.450  10.030  69.972  1.00  0.00    -0.337 C  
BRANCH  15  16
HETATM   16  C   UNL     1      -9.160   9.562  69.312  1.00  0.00    -0.161 C  
HETATM   17  N   UNL     1      -8.607   5.507  69.247  1.00  0.00    -0.103 NA 
HETATM   18  C   UNL     1      -7.547   7.719  68.996  1.00  0.00    -0.100 C  
HETATM   19  N   UNL     1      -8.784   8.249  69.578  1.00  0.00    -0.137 N  
HETATM   20  C   UNL     1      -9.352   6.005  70.283  1.00  0.00    -0.159 A  
HETATM   21  O   UNL     1      -8.507  10.286  68.565  1.00  0.00    -0.112 OA 
HETATM   22  C   UNL     1      -9.374   7.442  70.651  1.00  0.00    -0.160 C  
HETATM   23  C   UNL     1      -7.773   6.329  68.394  1.00  0.00    -0.104 C  
HETATM   24  N   UNL     1     -10.020   5.025  70.842  1.00  0.00    -0.203 NA 
HETATM   25  N   UNL     1      -9.746   3.879  70.141  1.00  0.00    -0.199 NA 
HETATM   26  C   UNL     1      -8.908   4.173  69.160  1.00  0.00    -0.097 A  
HETATM   27  C   UNL     1      -8.391   3.240  68.127  1.00  0.00    -0.079 C  
HETATM   28  F   UNL     1      -7.537   3.847  67.258  1.00  0.00    -0.072 F  
HETATM   29  F   UNL     1      -7.707   2.203  68.671  1.00  0.00    -0.049 F  
HETATM   30  F   UNL     1      -9.387   2.713  67.370  1.00  0.00    -0.184 F  
ENDBRANCH  15  16
ENDBRANCH   2  15
TORSDOF 4
ENDMDL
MODEL      212
REMARK 921   NORMALIZED FREE ENERGY PREDICTED BY IDOCK:   -4.65 KCAL/MOL
REMARK 922        TOTAL FREE ENERGY PREDICTED BY IDOCK:   -6.81 KCAL/MOL
REMARK 923 INTER-LIGAND FREE ENERGY PREDICTED BY IDOCK:   -6.35 KCAL/MOL
REMARK 924 INTRA-LIGAND FREE ENERGY PREDICTED BY IDOCK:   -0.46 KCAL/MOL
REMARK 927      BINDING AFFINITY PREDICTED BY RF-SCORE:    0.00 PKD
ROOT
HETATM    1  N   UNL     1     -12.511  14.584  67.481  1.00  0.00    -0.505 NA 
HETATM    2  C   UNL     1     -11.124  15.058  67.674  1.00  0.00    -0.316 C  
HETATM    3  H1  UNL     1     -12.940  15.145  66.744  1.00  0.00     0.000 HD 
HETATM    4  H2  UNL     1     -13.052  14.589  68.345  1.00  0.00     0.000 HD 
ENDROOT
BRANCH   2   5
HETATM    5  C   UNL     1     -10.356  14.985  66.331  1.00  0.00    -0.293 C  
BRANCH   5   6
HETATM    6  C   UNL     1     -10.943  13.983  65.362  1.00  0.00    -0.321 A  
HETATM    7  F   UNL     1     -12.271  15.665  64.340  1.00  0.00    -0.367 F  
HETATM    8  C   UNL     1     -11.869  14.387  64.392  1.00  0.00    -0.415 A  
HETATM    9  C   UNL     1     -12.393  13.488  63.469  1.00  0.00    -0.343 A  
HETATM   10  C   UNL     1     -10.564  12.632  65.408  1.00  0.00    -0.307 A  
HETATM   11  C   UNL     1     -11.078  11.734  64.478  1.00  0.00    -0.315 A  
HETATM   12  F   UNL     1     -12.472  11.293  62.619  1.00  0.00    -0.153 F  
HETATM   13  C   UNL     1     -11.984  12.161  63.513  1.00  0.00    -0.524 A  
HETATM   14  F   UNL     1     -10.689  10.452  64.518  1.00  0.00    -0.348 F  
ENDBRANCH   5   6
ENDBRANCH   2   5
BRANCH   2  15
HETATM   15  C   UNL     1     -10.480  14.216  68.779  1.00  0.00    -0.249 C  
BRANCH  15  16
HETATM   16  C   UNL     1     -10.916  12.757  68.818  1.00  0.00    -0.250 C  
HETATM   17  N   UNL     1      -7.950  10.074  69.688  1.00  0.00    -0.155 NA 
HETATM   18  C   UNL     1     -10.222  10.388  68.782  1.00  0.00    -0.187 C  
HETATM   19  N   UNL     1      -9.893  11.816  68.765  1.00  0.00    -0.141 N  
HETATM   20  C   UNL     1      -7.563  11.229  69.062  1.00  0.00    -0.106 A  
HETATM   21  O   UNL     1     -12.095  12.429  68.922  1.00  0.00    -0.265 OA 
HETATM   22  C   UNL     1      -8.515  12.142  68.382  1.00  0.00    -0.145 C  
HETATM   23  C   UNL     1      -9.327   9.627  69.765  1.00  0.00    -0.218 C  
HETATM   24  N   UNL     1      -6.268  11.373  69.190  1.00  0.00    -0.058 NA 
HETATM   25  N   UNL     1      -5.802  10.327  69.943  1.00  0.00    -0.046 NA 
HETATM   26  C   UNL     1      -6.824   9.551  70.266  1.00  0.00    -0.092 A  
HETATM   27  C   UNL     1      -6.779   8.336  71.119  1.00  0.00    -0.047 C  
HETATM   28  F   UNL     1      -8.000   7.751  71.257  1.00  0.00    -0.087 F  
HETATM   29  F   UNL     1      -5.956   7.385  70.611  1.00  0.00    -0.030 F  
HETATM   30  F   UNL     1      -6.348   8.610  72.377  1.00  0.00    -0.069 F  
ENDBRANCH  15  16
ENDBRANCH   2  15
TORSDOF 4
ENDMDL
MODEL      213
REMARK 921   NORMALIZED FREE ENERGY PREDICTED BY IDOCK:   -4.65 KCAL/MOL
REMARK 922        TOTAL FREE ENERGY PREDICTED BY IDOCK:   -6.80 KCAL/MOL
REMARK 923 INTER-LIGAND FREE ENERGY PREDICTED BY IDOCK:   -6.38 KCAL/MOL
REMARK 924 INTRA-LIGAND FREE ENERGY PREDICTED BY IDOCK:   -0.42 KCAL/MOL
REMARK 927      BINDING AFFINITY PREDICTED BY RF-SCORE:    0.00 PKD
ROOT
HETATM    1  N   UNL     1     -12.374  12.621  65.944  1.00  0.00    -0.595 NA 
HETATM    2  C   UNL     1     -11.168  12.326  66.747  1.00  0.00    -0.318 C  
HETATM    3  H1  UNL     1     -13.194  12.363  66.494  1.00  0.00     0.000 HD 
HETATM    4  H2  UNL     1     -12.357  12.171  65.029  1.00  0.00     0.000 HD 
ENDROOT
BRANCH   2   5
HETATM    5  C   UNL     1     -11.248  13.071  68.102  1.00  0.00    -0.305 C  
BRANCH   5   6
HETATM    6  C   UNL     1     -11.698  12.186  69.244  1.00  0.00    -0.386 A  
HETATM    7  F   UNL     1     -10.550  10.322  68.326  1.00  0.00    -0.195 F  
HETATM    8  C   UNL     1     -11.304  10.844  69.304  1.00  0.00    -0.277 A  
HETATM    9  C   UNL     1     -11.676  10.025  70.364  1.00  0.00    -0.365 A  
HETATM   10  C   UNL     1     -12.510  12.696  70.270  1.00  0.00    -0.163 A  
HETATM   11  C   UNL     1     -12.874  11.880  71.336  1.00  0.00    -0.307 A  
HETATM   12  F   UNL     1     -12.807   9.776  72.415  1.00  0.00    -0.438 F  
HETATM   13  C   UNL     1     -12.457  10.554  71.384  1.00  0.00    -0.411 A  
HETATM   14  F   UNL     1     -13.630  12.385  72.322  1.00  0.00    -0.592 F  
ENDBRANCH   5   6
ENDBRANCH   2   5
BRANCH   2  15
HETATM   15  C   UNL     1      -9.938  12.713  65.922  1.00  0.00    -0.274 C  
BRANCH  15  16
HETATM   16  C   UNL     1      -9.771  11.953  64.613  1.00  0.00    -0.115 C  
HETATM   17  N   UNL     1      -7.972   8.292  64.939  1.00  0.00    -0.136 NA 
HETATM   18  C   UNL     1      -8.639  10.113  63.418  1.00  0.00    -0.199 C  
HETATM   19  N   UNL     1      -8.873  10.891  64.638  1.00  0.00    -0.136 N  
HETATM   20  C   UNL     1      -7.621   9.229  65.874  1.00  0.00    -0.098 A  
HETATM   21  O   UNL     1     -10.413  12.239  63.605  1.00  0.00    -0.411 OA 
HETATM   22  C   UNL     1      -7.905  10.677  65.718  1.00  0.00    -0.141 C  
HETATM   23  C   UNL     1      -8.667   8.609  63.708  1.00  0.00     0.117 C  
HETATM   24  N   UNL     1      -7.038   8.632  66.884  1.00  0.00    -0.074 NA 
HETATM   25  N   UNL     1      -7.043   7.284  66.632  1.00  0.00    -0.076 NA 
HETATM   26  C   UNL     1      -7.630   7.074  65.466  1.00  0.00    -0.091 A  
HETATM   27  C   UNL     1      -7.895   5.758  64.832  1.00  0.00    -0.113 C  
HETATM   28  F   UNL     1      -8.508   5.875  63.623  1.00  0.00    -0.116 F  
HETATM   29  F   UNL     1      -6.755   5.056  64.613  1.00  0.00    -0.042 F  
HETATM   30  F   UNL     1      -8.707   4.979  65.591  1.00  0.00    -0.121 F  
ENDBRANCH  15  16
ENDBRANCH   2  15
TORSDOF 4
ENDMDL
MODEL      214
REMARK 921   NORMALIZED FREE ENERGY PREDICTED BY IDOCK:   -4.65 KCAL/MOL
REMARK 922        TOTAL FREE ENERGY PREDICTED BY IDOCK:   -6.80 KCAL/MOL
REMARK 923 INTER-LIGAND FREE ENERGY PREDICTED BY IDOCK:   -6.24 KCAL/MOL
REMARK 924 INTRA-LIGAND FREE ENERGY PREDICTED BY IDOCK:   -0.57 KCAL/MOL
REMARK 927      BINDING AFFINITY PREDICTED BY RF-SCORE:    0.00 PKD
ROOT
HETATM    1  N   UNL     1      -6.301   7.677  70.779  1.00  0.00    -0.038 NA 
HETATM    2  C   UNL     1      -7.538   8.463  70.980  1.00  0.00    -0.084 C  
HETATM    3  H1  UNL     1      -5.568   8.083  71.362  1.00  0.00     0.000 HD 
HETATM    4  H2  UNL     1      -6.032   7.612  69.797  1.00  0.00     0.000 HD 
ENDROOT
BRANCH   2   5
HETATM    5  C   UNL     1      -7.903   8.485  72.484  1.00  0.00    -0.095 C  
BRANCH   5   6
HETATM    6  C   UNL     1      -8.836   7.366  72.889  1.00  0.00    -0.173 A  
HETATM    7  F   UNL     1     -10.738   8.725  72.477  1.00  0.00    -0.398 F  
HETATM    8  C   UNL     1     -10.224   7.543  72.846  1.00  0.00    -0.278 A  
HETATM    9  C   UNL     1     -11.099   6.514  73.180  1.00  0.00    -0.197 A  
HETATM   10  C   UNL     1      -8.329   6.124  73.307  1.00  0.00    -0.117 A  
HETATM   11  C   UNL     1      -9.203   5.091  73.630  1.00  0.00    -0.122 A  
HETATM   12  F   UNL     1     -11.413   4.285  73.872  1.00  0.00    -0.289 F  
HETATM   13  C   UNL     1     -10.578   5.285  73.563  1.00  0.00    -0.270 A  
HETATM   14  F   UNL     1      -8.706   3.903  74.004  1.00  0.00    -0.091 F  
ENDBRANCH   5   6
ENDBRANCH   2   5
BRANCH   2  15
HETATM   15  C   UNL     1      -8.638   7.854  70.106  1.00  0.00    -0.134 C  
BRANCH  15  16
HETATM   16  C   UNL     1      -8.317   7.783  68.618  1.00  0.00    -0.129 C  
HETATM   17  N   UNL     1     -10.237  10.544  66.286  1.00  0.00    -0.237 NA 
HETATM   18  C   UNL     1      -8.971   8.429  66.327  1.00  0.00    -0.174 C  
HETATM   19  N   UNL     1      -9.194   8.457  67.776  1.00  0.00    -0.131 N  
HETATM   20  C   UNL     1     -10.885  10.154  67.428  1.00  0.00    -0.261 A  
HETATM   21  O   UNL     1      -7.328   7.194  68.191  1.00  0.00    -0.091 OA 
HETATM   22  C   UNL     1     -10.510   8.945  68.202  1.00  0.00    -0.202 C  
HETATM   23  C   UNL     1      -9.112   9.828  65.720  1.00  0.00    -0.177 C  
HETATM   24  N   UNL     1     -11.833  11.017  67.701  1.00  0.00    -0.562 NA 
HETATM   25  N   UNL     1     -11.781  12.008  66.754  1.00  0.00    -0.580 NA 
HETATM   26  C   UNL     1     -10.800  11.735  65.910  1.00  0.00    -0.291 A  
HETATM   27  C   UNL     1     -10.360  12.570  64.764  1.00  0.00    -0.307 C  
HETATM   28  F   UNL     1      -9.326  12.012  64.078  1.00  0.00    -0.105 F  
HETATM   29  F   UNL     1     -11.354  12.765  63.861  1.00  0.00    -0.370 F  
HETATM   30  F   UNL     1      -9.931  13.796  65.159  1.00  0.00    -0.334 F  
ENDBRANCH  15  16
ENDBRANCH   2  15
TORSDOF 4
ENDMDL
MODEL      215
REMARK 921   NORMALIZED FREE ENERGY PREDICTED BY IDOCK:   -4.65 KCAL/MOL
REMARK 922        TOTAL FREE ENERGY PREDICTED BY IDOCK:   -6.80 KCAL/MOL
REMARK 923 INTER-LIGAND FREE ENERGY PREDICTED BY IDOCK:   -6.80 KCAL/MOL
REMARK 924 INTRA-LIGAND FREE ENERGY PREDICTED BY IDOCK:   -0.00 KCAL/MOL
REMARK 927      BINDING AFFINITY PREDICTED BY RF-SCORE:    0.00 PKD
ROOT
HETATM    1  N   UNL     1     -12.584  14.222  69.130  1.00  0.00    -0.465 NA 
HETATM    2  C   UNL     1     -11.399  13.347  68.997  1.00  0.00    -0.287 C  
HETATM    3  H1  UNL     1     -12.351  15.134  68.736  1.00  0.00     0.000 HD 
HETATM    4  H2  UNL     1     -12.923  14.283  70.090  1.00  0.00     0.000 HD 
ENDROOT
BRANCH   2   5
HETATM    5  C   UNL     1     -10.968  13.274  67.513  1.00  0.00    -0.281 C  
BRANCH   5   6
HETATM    6  C   UNL     1      -9.938  14.317  67.139  1.00  0.00    -0.255 A  
HETATM    7  F   UNL     1     -11.470  15.387  65.674  1.00  0.00    -0.308 F  
HETATM    8  C   UNL     1     -10.255  15.343  66.240  1.00  0.00    -0.290 A  
HETATM    9  C   UNL     1      -9.334  16.332  65.912  1.00  0.00    -0.299 A  
HETATM   10  C   UNL     1      -8.648  14.283  67.693  1.00  0.00    -0.186 A  
HETATM   11  C   UNL     1      -7.730  15.279  67.374  1.00  0.00    -0.197 A  
HETATM   12  F   UNL     1      -7.185  17.254  66.192  1.00  0.00    -0.269 F  
HETATM   13  C   UNL     1      -8.072  16.297  66.492  1.00  0.00    -0.302 A  
HETATM   14  F   UNL     1      -6.509  15.248  67.928  1.00  0.00    -0.107 F  
ENDBRANCH   5   6
ENDBRANCH   2   5
BRANCH   2  15
HETATM   15  C   UNL     1     -11.748  11.978  69.588  1.00  0.00    -0.405 C  
BRANCH  15  16
HETATM   16  C   UNL     1     -11.513  10.793  68.660  1.00  0.00    -0.295 C  
HETATM   17  N   UNL     1     -10.063   7.421  70.469  1.00  0.00    -0.191 NA 
HETATM   18  C   UNL     1     -10.421   8.603  68.335  1.00  0.00    -0.176 C  
HETATM   19  N   UNL     1     -10.713   9.775  69.166  1.00  0.00    -0.217 N  
HETATM   20  C   UNL     1      -9.732   8.616  71.052  1.00  0.00    -0.210 A  
HETATM   21  O   UNL     1     -12.024  10.725  67.545  1.00  0.00    -0.313 OA 
HETATM   22  C   UNL     1      -9.880   9.922  70.364  1.00  0.00    -0.123 C  
HETATM   23  C   UNL     1     -10.601   7.305  69.129  1.00  0.00    -0.208 C  
HETATM   24  N   UNL     1      -9.306   8.396  72.271  1.00  0.00    -0.261 NA 
HETATM   25  N   UNL     1      -9.395   7.048  72.509  1.00  0.00    -0.138 NA 
HETATM   26  C   UNL     1      -9.877   6.459  71.427  1.00  0.00    -0.176 A  
HETATM   27  C   UNL     1     -10.184   5.015  71.267  1.00  0.00    -0.203 C  
HETATM   28  F   UNL     1     -10.660   4.717  70.027  1.00  0.00    -0.318 F  
HETATM   29  F   UNL     1      -9.089   4.236  71.451  1.00  0.00    -0.134 F  
HETATM   30  F   UNL     1     -11.130   4.593  72.145  1.00  0.00    -0.183 F  
ENDBRANCH  15  16
ENDBRANCH   2  15
TORSDOF 4
ENDMDL
MODEL      216
REMARK 921   NORMALIZED FREE ENERGY PREDICTED BY IDOCK:   -4.63 KCAL/MOL
REMARK 922        TOTAL FREE ENERGY PREDICTED BY IDOCK:   -6.77 KCAL/MOL
REMARK 923 INTER-LIGAND FREE ENERGY PREDICTED BY IDOCK:   -5.91 KCAL/MOL
REMARK 924 INTRA-LIGAND FREE ENERGY PREDICTED BY IDOCK:   -0.86 KCAL/MOL
REMARK 927      BINDING AFFINITY PREDICTED BY RF-SCORE:    0.00 PKD
ROOT
HETATM    1  N   UNL     1      -8.627   7.692  64.135  1.00  0.00    -0.337 NA 
HETATM    2  C   UNL     1      -8.290   8.180  65.490  1.00  0.00    -0.153 C  
HETATM    3  H1  UNL     1      -8.853   6.699  64.202  1.00  0.00     0.000 HD 
HETATM    4  H2  UNL     1      -7.892   7.884  63.454  1.00  0.00     0.000 HD 
ENDROOT
BRANCH   2   5
HETATM    5  C   UNL     1      -9.464   7.889  66.456  1.00  0.00    -0.277 C  
BRANCH   5   6
HETATM    6  C   UNL     1      -9.026   7.727  67.895  1.00  0.00    -0.125 A  
HETATM    7  F   UNL     1      -7.770   5.786  67.355  1.00  0.00    -0.091 F  
HETATM    8  C   UNL     1      -8.176   6.679  68.269  1.00  0.00    -0.114 A  
HETATM    9  C   UNL     1      -7.733   6.535  69.580  1.00  0.00    -0.100 A  
HETATM   10  C   UNL     1      -9.455   8.630  68.882  1.00  0.00    -0.146 A  
HETATM   11  C   UNL     1      -9.003   8.493  70.191  1.00  0.00    -0.147 A  
HETATM   12  F   UNL     1      -7.713   7.330  71.796  1.00  0.00    -0.083 F  
HETATM   13  C   UNL     1      -8.146   7.454  70.536  1.00  0.00    -0.104 A  
HETATM   14  F   UNL     1      -9.401   9.375  71.119  1.00  0.00    -0.304 F  
ENDBRANCH   5   6
ENDBRANCH   2   5
BRANCH   2  15
HETATM   15  C   UNL     1      -7.950   9.670  65.391  1.00  0.00    -0.120 C  
BRANCH  15  16
HETATM   16  C   UNL     1      -8.922  10.502  64.565  1.00  0.00    -0.209 C  
HETATM   17  N   UNL     1     -10.003  14.082  66.228  1.00  0.00    -0.297 NA 
HETATM   18  C   UNL     1     -10.530  12.375  64.528  1.00  0.00    -0.325 C  
HETATM   19  N   UNL     1      -9.565  11.533  65.241  1.00  0.00    -0.231 N  
HETATM   20  C   UNL     1      -9.670  13.080  67.100  1.00  0.00    -0.230 A  
HETATM   21  O   UNL     1      -9.105  10.296  63.368  1.00  0.00    -0.213 OA 
HETATM   22  C   UNL     1      -9.582  11.654  66.703  1.00  0.00    -0.204 C  
HETATM   23  C   UNL     1     -10.293  13.859  64.825  1.00  0.00    -0.394 C  
HETATM   24  N   UNL     1      -9.437  13.598  68.281  1.00  0.00    -0.213 NA 
HETATM   25  N   UNL     1      -9.576  14.958  68.176  1.00  0.00    -0.206 NA 
HETATM   26  C   UNL     1      -9.895  15.255  66.927  1.00  0.00    -0.235 A  
HETATM   27  C   UNL     1     -10.089  16.615  66.361  1.00  0.00    -0.315 C  
HETATM   28  F   UNL     1     -10.422  16.588  65.042  1.00  0.00    -0.321 F  
HETATM   29  F   UNL     1     -11.080  17.294  66.990  1.00  0.00    -0.164 F  
HETATM   30  F   UNL     1      -8.965  17.370  66.450  1.00  0.00    -0.253 F  
ENDBRANCH  15  16
ENDBRANCH   2  15
TORSDOF 4
ENDMDL
MODEL      217
REMARK 921   NORMALIZED FREE ENERGY PREDICTED BY IDOCK:   -4.60 KCAL/MOL
REMARK 922        TOTAL FREE ENERGY PREDICTED BY IDOCK:   -6.74 KCAL/MOL
REMARK 923 INTER-LIGAND FREE ENERGY PREDICTED BY IDOCK:   -7.32 KCAL/MOL
REMARK 924 INTRA-LIGAND FREE ENERGY PREDICTED BY IDOCK:    0.58 KCAL/MOL
REMARK 927      BINDING AFFINITY PREDICTED BY RF-SCORE:    0.00 PKD
ROOT
HETATM    1  N   UNL     1      -8.027  16.635  66.022  1.00  0.00    -0.305 NA 
HETATM    2  C   UNL     1      -8.710  16.151  67.242  1.00  0.00    -0.183 C  
HETATM    3  H1  UNL     1      -7.020  16.575  66.177  1.00  0.00     0.000 HD 
HETATM    4  H2  UNL     1      -8.329  17.570  65.748  1.00  0.00     0.000 HD 
ENDROOT
BRANCH   2   5
HETATM    5  C   UNL     1      -8.232  14.717  67.574  1.00  0.00    -0.203 C  
BRANCH   5   6
HETATM    6  C   UNL     1      -8.818  13.665  66.657  1.00  0.00    -0.084 A  
HETATM    7  F   UNL     1      -7.832  11.922  67.933  1.00  0.00    -0.110 F  
HETATM    8  C   UNL     1      -8.598  12.304  66.900  1.00  0.00    -0.182 A  
HETATM    9  C   UNL     1      -9.158  11.322  66.090  1.00  0.00    -0.216 A  
HETATM   10  C   UNL     1      -9.602  14.033  65.552  1.00  0.00    -0.032 A  
HETATM   11  C   UNL     1     -10.172  13.051  64.748  1.00  0.00    -0.291 A  
HETATM   12  F   UNL     1     -10.508  10.765  64.243  1.00  0.00    -0.397 F  
HETATM   13  C   UNL     1      -9.953  11.705  65.018  1.00  0.00    -0.259 A  
HETATM   14  F   UNL     1     -10.938  13.415  63.709  1.00  0.00    -0.367 F  
ENDBRANCH   5   6
ENDBRANCH   2   5
BRANCH   2  15
HETATM   15  C   UNL     1     -10.221  16.241  67.011  1.00  0.00    -0.280 C  
BRANCH  15  16
HETATM   16  C   UNL     1     -11.068  16.283  68.277  1.00  0.00    -0.346 C  
HETATM   17  N   UNL     1     -12.309  12.639  69.666  1.00  0.00    -0.073 NA 
HETATM   18  C   UNL     1     -12.633  15.081  69.761  1.00  0.00    -0.110 C  
HETATM   19  N   UNL     1     -11.780  15.124  68.569  1.00  0.00    -0.336 N  
HETATM   20  C   UNL     1     -12.104  12.739  68.315  1.00  0.00    -0.104 A  
HETATM   21  O   UNL     1     -11.097  17.267  69.011  1.00  0.00    -0.045 OA 
HETATM   22  C   UNL     1     -11.984  14.037  67.607  1.00  0.00    -0.368 C  
HETATM   23  C   UNL     1     -12.417  13.784  70.547  1.00  0.00    -0.339 C  
HETATM   24  N   UNL     1     -12.019  11.536  67.803  1.00  0.00    -0.637 NA 
HETATM   25  N   UNL     1     -12.126  10.635  68.831  1.00  0.00    -0.344 NA 
HETATM   26  C   UNL     1     -12.277  11.302  69.964  1.00  0.00    -0.314 A  
HETATM   27  C   UNL     1     -12.379  10.721  71.326  1.00  0.00    -0.365 C  
HETATM   28  F   UNL     1     -12.539  11.672  72.287  1.00  0.00    -0.229 F  
HETATM   29  F   UNL     1     -13.434   9.878  71.446  1.00  0.00    -0.405 F  
HETATM   30  F   UNL     1     -11.266  10.023  71.669  1.00  0.00    -0.396 F  
ENDBRANCH  15  16
ENDBRANCH   2  15
TORSDOF 4
ENDMDL
MODEL      218
REMARK 921   NORMALIZED FREE ENERGY PREDICTED BY IDOCK:   -4.57 KCAL/MOL
REMARK 922        TOTAL FREE ENERGY PREDICTED BY IDOCK:   -6.70 KCAL/MOL
REMARK 923 INTER-LIGAND FREE ENERGY PREDICTED BY IDOCK:   -6.29 KCAL/MOL
REMARK 924 INTRA-LIGAND FREE ENERGY PREDICTED BY IDOCK:   -0.41 KCAL/MOL
REMARK 927      BINDING AFFINITY PREDICTED BY RF-SCORE:    0.00 PKD
ROOT
HETATM    1  N   UNL     1      -9.572  18.654  68.159  1.00  0.00    -0.316 NA 
HETATM    2  C   UNL     1      -8.852  17.566  68.857  1.00  0.00    -0.136 C  
HETATM    3  H1  UNL     1      -9.277  19.542  68.565  1.00  0.00     0.000 HD 
HETATM    4  H2  UNL     1     -10.584  18.530  68.176  1.00  0.00     0.000 HD 
ENDROOT
BRANCH   2   5
HETATM    5  C   UNL     1      -7.326  17.802  68.757  1.00  0.00    -0.271 C  
BRANCH   5   6
HETATM    6  C   UNL     1      -6.884  18.278  67.390  1.00  0.00    -0.206 A  
HETATM    7  F   UNL     1      -6.344  16.063  66.730  1.00  0.00    -0.172 F  
HETATM    8  C   UNL     1      -6.427  17.367  66.430  1.00  0.00    -0.248 A  
HETATM    9  C   UNL     1      -6.051  17.781  65.157  1.00  0.00     0.339 A  
HETATM   10  C   UNL     1      -6.933  19.641  67.055  1.00  0.00    -0.222 A  
HETATM   11  C   UNL     1      -6.567  20.055  65.778  1.00  0.00    -0.244 A  
HETATM   12  F   UNL     1      -5.786  19.534  63.607  1.00  0.00    -0.302 F  
HETATM   13  C   UNL     1      -6.132  19.130  64.835  1.00  0.00    -0.277 A  
HETATM   14  F   UNL     1      -6.641  21.356  65.463  1.00  0.00    -0.185 F  
ENDBRANCH   5   6
ENDBRANCH   2   5
BRANCH   2  15
HETATM   15  C   UNL     1      -9.294  16.233  68.248  1.00  0.00    -0.204 C  
BRANCH  15  16
HETATM   16  C   UNL     1     -10.699  15.782  68.627  1.00  0.00    -0.263 C  
HETATM   17  N   UNL     1     -11.088  11.789  69.437  1.00  0.00    -0.216 NA 
HETATM   18  C   UNL     1     -12.262  13.890  68.901  1.00  0.00    -0.222 C  
HETATM   19  N   UNL     1     -10.933  14.412  68.568  1.00  0.00    -0.242 N  
HETATM   20  C   UNL     1     -10.102  12.138  68.553  1.00  0.00    -0.187 A  
HETATM   21  O   UNL     1     -11.563  16.574  68.994  1.00  0.00    -0.216 OA 
HETATM   22  C   UNL     1     -10.034  13.467  67.897  1.00  0.00    -0.236 C  
HETATM   23  C   UNL     1     -12.160  12.679  69.834  1.00  0.00    -0.252 C  
HETATM   24  N   UNL     1      -9.266  11.138  68.424  1.00  0.00    -0.169 NA 
HETATM   25  N   UNL     1      -9.682  10.135  69.261  1.00  0.00    -0.213 NA 
HETATM   26  C   UNL     1     -10.772  10.536  69.894  1.00  0.00    -0.247 A  
HETATM   27  C   UNL     1     -11.522   9.785  70.932  1.00  0.00    -0.369 C  
HETATM   28  F   UNL     1     -12.609  10.466  71.386  1.00  0.00    -0.392 F  
HETATM   29  F   UNL     1     -11.984   8.596  70.469  1.00  0.00    -0.243 F  
HETATM   30  F   UNL     1     -10.759   9.521  72.024  1.00  0.00    -0.380 F  
ENDBRANCH  15  16
ENDBRANCH   2  15
TORSDOF 4
ENDMDL
MODEL      219
REMARK 921   NORMALIZED FREE ENERGY PREDICTED BY IDOCK:   -4.51 KCAL/MOL
REMARK 922        TOTAL FREE ENERGY PREDICTED BY IDOCK:   -6.63 KCAL/MOL
REMARK 923 INTER-LIGAND FREE ENERGY PREDICTED BY IDOCK:   -6.39 KCAL/MOL
REMARK 924 INTRA-LIGAND FREE ENERGY PREDICTED BY IDOCK:   -0.25 KCAL/MOL
REMARK 927      BINDING AFFINITY PREDICTED BY RF-SCORE:    0.00 PKD
ROOT
HETATM    1  N   UNL     1     -10.333  15.211  64.217  1.00  0.00    -0.201 NA 
HETATM    2  C   UNL     1     -11.020  15.306  65.524  1.00  0.00    -0.359 C  
HETATM    3  H1  UNL     1      -9.724  16.023  64.118  1.00  0.00     0.000 HD 
HETATM    4  H2  UNL     1     -10.983  15.108  63.438  1.00  0.00     0.000 HD 
ENDROOT
BRANCH   2   5
HETATM    5  C   UNL     1      -9.971  15.421  66.657  1.00  0.00    -0.271 C  
BRANCH   5   6
HETATM    6  C   UNL     1     -10.054  16.727  67.416  1.00  0.00    -0.276 A  
HETATM    7  F   UNL     1      -9.498  15.644  69.454  1.00  0.00    -0.211 F  
HETATM    8  C   UNL     1      -9.791  16.772  68.790  1.00  0.00    -0.264 A  
HETATM    9  C   UNL     1      -9.826  17.969  69.497  1.00  0.00     0.237 A  
HETATM   10  C   UNL     1     -10.385  17.921  66.754  1.00  0.00    -0.357 A  
HETATM   11  C   UNL     1     -10.409  19.120  67.459  1.00  0.00    -0.432 A  
HETATM   12  F   UNL     1     -10.150  20.302  69.492  1.00  0.00    -0.345 F  
HETATM   13  C   UNL     1     -10.129  19.144  68.821  1.00  0.00    -0.375 A  
HETATM   14  F   UNL     1     -10.704  20.257  66.811  1.00  0.00    -0.507 F  
ENDBRANCH   5   6
ENDBRANCH   2   5
BRANCH   2  15
HETATM   15  C   UNL     1     -11.933  14.086  65.674  1.00  0.00    -0.408 C  
BRANCH  15  16
HETATM   16  C   UNL     1     -11.635  12.933  64.724  1.00  0.00    -0.331 C  
HETATM   17  N   UNL     1      -9.600   9.792  66.378  1.00  0.00    -0.185 NA 
HETATM   18  C   UNL     1     -10.305  10.899  64.291  1.00  0.00    -0.368 C  
HETATM   19  N   UNL     1     -10.666  12.031  65.150  1.00  0.00    -0.278 N  
HETATM   20  C   UNL     1      -9.373  11.025  66.931  1.00  0.00    -0.173 A  
HETATM   21  O   UNL     1     -12.235  12.790  63.661  1.00  0.00    -0.485 OA 
HETATM   22  C   UNL     1      -9.751  12.295  66.265  1.00  0.00    -0.244 C  
HETATM   23  C   UNL     1     -10.241   9.596  65.094  1.00  0.00     0.361 C  
HETATM   24  N   UNL     1      -8.810  10.873  68.104  1.00  0.00    -0.132 NA 
HETATM   25  N   UNL     1      -8.702   9.527  68.346  1.00  0.00    -0.123 NA 
HETATM   26  C   UNL     1      -9.202   8.871  67.311  1.00  0.00    -0.138 A  
HETATM   27  C   UNL     1      -9.334   7.398  67.177  1.00  0.00    -0.142 C  
HETATM   28  F   UNL     1      -9.882   7.030  65.986  1.00  0.00    -0.118 F  
HETATM   29  F   UNL     1      -8.136   6.768  67.255  1.00  0.00    -0.111 F  
HETATM   30  F   UNL     1     -10.132   6.866  68.138  1.00  0.00    -0.147 F  
ENDBRANCH  15  16
ENDBRANCH   2  15
TORSDOF 4
ENDMDL
MODEL      220
REMARK 921   NORMALIZED FREE ENERGY PREDICTED BY IDOCK:   -4.48 KCAL/MOL
REMARK 922        TOTAL FREE ENERGY PREDICTED BY IDOCK:   -6.60 KCAL/MOL
REMARK 923 INTER-LIGAND FREE ENERGY PREDICTED BY IDOCK:   -6.12 KCAL/MOL
REMARK 924 INTRA-LIGAND FREE ENERGY PREDICTED BY IDOCK:   -0.48 KCAL/MOL
REMARK 927      BINDING AFFINITY PREDICTED BY RF-SCORE:    0.00 PKD
ROOT
HETATM    1  N   UNL     1      -5.951   7.878  66.978  1.00  0.00    -0.050 NA 
HETATM    2  C   UNL     1      -6.813   7.881  68.179  1.00  0.00    -0.068 C  
HETATM    3  H1  UNL     1      -4.978   7.890  67.285  1.00  0.00     0.000 HD 
HETATM    4  H2  UNL     1      -6.170   8.640  66.335  1.00  0.00     0.000 HD 
ENDROOT
BRANCH   2   5
HETATM    5  C   UNL     1      -6.449   6.679  69.086  1.00  0.00    -0.040 C  
BRANCH   5   6
HETATM    6  C   UNL     1      -7.340   5.476  68.868  1.00  0.00    -0.081 A  
HETATM    7  F   UNL     1      -8.785   6.158  70.624  1.00  0.00    -0.131 F  
HETATM    8  C   UNL     1      -8.487   5.287  69.649  1.00  0.00    -0.098 A  
HETATM    9  C   UNL     1      -9.338   4.207  69.440  1.00  0.00    -0.238 A  
HETATM   10  C   UNL     1      -7.041   4.532  67.873  1.00  0.00    -0.064 A  
HETATM   11  C   UNL     1      -7.897   3.457  67.656  1.00  0.00    -0.077 A  
HETATM   12  F   UNL     1      -9.861   2.264  68.216  1.00  0.00    -0.255 F  
HETATM   13  C   UNL     1      -9.039   3.298  68.433  1.00  0.00    -0.157 A  
HETATM   14  F   UNL     1      -7.612   2.575  66.687  1.00  0.00    -0.066 F  
ENDBRANCH   5   6
ENDBRANCH   2   5
BRANCH   2  15
HETATM   15  C   UNL     1      -8.274   7.864  67.719  1.00  0.00    -0.129 C  
BRANCH  15  16
HETATM   16  C   UNL     1      -9.103   9.065  68.154  1.00  0.00    -0.132 C  
HETATM   17  N   UNL     1     -10.506  11.408  65.105  1.00  0.00    -0.283 NA 
HETATM   18  C   UNL     1     -10.067  11.250  67.526  1.00  0.00    -0.183 C  
HETATM   19  N   UNL     1      -9.294  10.050  67.190  1.00  0.00    -0.148 N  
HETATM   20  C   UNL     1      -9.335  10.738  64.870  1.00  0.00    -0.222 A  
HETATM   21  O   UNL     1      -9.600   9.147  69.274  1.00  0.00    -0.155 OA 
HETATM   22  C   UNL     1      -8.519  10.126  65.947  1.00  0.00    -0.141 C  
HETATM   23  C   UNL     1     -11.079  11.580  66.425  1.00  0.00    -0.269 C  
HETATM   24  N   UNL     1      -9.099  10.725  63.581  1.00  0.00    -0.208 NA 
HETATM   25  N   UNL     1     -10.145  11.354  62.957  1.00  0.00    -0.323 NA 
HETATM   26  C   UNL     1     -11.011  11.748  63.877  1.00  0.00    -0.407 A  
HETATM   27  C   UNL     1     -12.311  12.423  63.639  1.00  0.00    -0.548 C  
HETATM   28  F   UNL     1     -12.970  12.709  64.795  1.00  0.00    -0.535 F  
HETATM   29  F   UNL     1     -12.164  13.602  62.984  1.00  0.00    -0.543 F  
HETATM   30  F   UNL     1     -13.157  11.658  62.903  1.00  0.00    -0.568 F  
ENDBRANCH  15  16
ENDBRANCH   2  15
TORSDOF 4
ENDMDL
MODEL      221
REMARK 921   NORMALIZED FREE ENERGY PREDICTED BY IDOCK:   -4.47 KCAL/MOL
REMARK 922        TOTAL FREE ENERGY PREDICTED BY IDOCK:   -6.58 KCAL/MOL
REMARK 923 INTER-LIGAND FREE ENERGY PREDICTED BY IDOCK:   -5.79 KCAL/MOL
REMARK 924 INTRA-LIGAND FREE ENERGY PREDICTED BY IDOCK:   -0.79 KCAL/MOL
REMARK 927      BINDING AFFINITY PREDICTED BY RF-SCORE:    0.00 PKD
ROOT
HETATM    1  N   UNL     1     -12.792  10.570  69.856  1.00  0.00    -0.514 NA 
HETATM    2  C   UNL     1     -11.439  11.141  70.028  1.00  0.00    -0.292 C  
HETATM    3  H1  UNL     1     -13.452  11.341  69.751  1.00  0.00     0.000 HD 
HETATM    4  H2  UNL     1     -13.049   9.932  70.609  1.00  0.00     0.000 HD 
ENDROOT
BRANCH   2   5
HETATM    5  C   UNL     1     -11.106  12.065  68.832  1.00  0.00    -0.298 C  
BRANCH   5   6
HETATM    6  C   UNL     1     -10.139  11.443  67.848  1.00  0.00    -0.198 A  
HETATM    7  F   UNL     1      -8.398  12.895  68.555  1.00  0.00    -0.151 F  
HETATM    8  C   UNL     1      -8.813  11.886  67.774  1.00  0.00    -0.166 A  
HETATM    9  C   UNL     1      -7.900  11.303  66.902  1.00  0.00    -0.156 A  
HETATM   10  C   UNL     1     -10.550  10.404  66.998  1.00  0.00    -0.305 A  
HETATM   11  C   UNL     1      -9.634   9.812  66.134  1.00  0.00    -0.227 A  
HETATM   12  F   UNL     1      -7.441   9.681  65.258  1.00  0.00    -0.099 F  
HETATM   13  C   UNL     1      -8.318  10.257  66.089  1.00  0.00    -0.140 A  
HETATM   14  F   UNL     1     -10.033   8.805  65.344  1.00  0.00    -0.140 F  
ENDBRANCH   5   6
ENDBRANCH   2   5
BRANCH   2  15
HETATM   15  C   UNL     1     -10.448   9.984  70.186  1.00  0.00    -0.338 C  
BRANCH  15  16
HETATM   16  C   UNL     1     -10.953   8.808  71.012  1.00  0.00    -0.268 C  
HETATM   17  N   UNL     1     -10.240   5.113  69.402  1.00  0.00    -0.233 NA 
HETATM   18  C   UNL     1     -11.528   6.407  71.059  1.00  0.00    -0.334 C  
HETATM   19  N   UNL     1     -11.037   7.590  70.345  1.00  0.00    -0.262 N  
HETATM   20  C   UNL     1     -10.380   6.148  68.515  1.00  0.00    -0.207 A  
HETATM   21  O   UNL     1     -11.238   8.919  72.201  1.00  0.00    -0.360 OA 
HETATM   22  C   UNL     1     -10.963   7.461  68.886  1.00  0.00     0.029 C  
HETATM   23  C   UNL     1     -10.633   5.193  70.794  1.00  0.00    -0.135 C  
HETATM   24  N   UNL     1      -9.908   5.782  67.350  1.00  0.00    -0.129 NA 
HETATM   25  N   UNL     1      -9.413   4.510  67.479  1.00  0.00    -0.151 NA 
HETATM   26  C   UNL     1      -9.592   4.112  68.728  1.00  0.00    -0.140 A  
HETATM   27  C   UNL     1      -9.157   2.820  69.317  1.00  0.00    -0.129 C  
HETATM   28  F   UNL     1      -9.497   2.705  70.629  1.00  0.00    -0.186 F  
HETATM   29  F   UNL     1      -9.713   1.757  68.685  1.00  0.00    -0.225 F  
HETATM   30  F   UNL     1      -7.810   2.661  69.262  1.00  0.00    -0.044 F  
ENDBRANCH  15  16
ENDBRANCH   2  15
TORSDOF 4
ENDMDL
MODEL      222
REMARK 921   NORMALIZED FREE ENERGY PREDICTED BY IDOCK:   -4.46 KCAL/MOL
REMARK 922        TOTAL FREE ENERGY PREDICTED BY IDOCK:   -6.57 KCAL/MOL
REMARK 923 INTER-LIGAND FREE ENERGY PREDICTED BY IDOCK:   -5.82 KCAL/MOL
REMARK 924 INTRA-LIGAND FREE ENERGY PREDICTED BY IDOCK:   -0.75 KCAL/MOL
REMARK 927      BINDING AFFINITY PREDICTED BY RF-SCORE:    0.00 PKD
ROOT
HETATM    1  N   UNL     1     -12.441  10.672  68.746  1.00  0.00    -0.690 NA 
HETATM    2  C   UNL     1     -11.188  11.420  68.990  1.00  0.00    -0.256 C  
HETATM    3  H1  UNL     1     -13.132  11.322  68.371  1.00  0.00     0.000 HD 
HETATM    4  H2  UNL     1     -12.772  10.179  69.575  1.00  0.00     0.000 HD 
ENDROOT
BRANCH   2   5
HETATM    5  C   UNL     1     -10.729  12.108  67.681  1.00  0.00    -0.252 C  
BRANCH   5   6
HETATM    6  C   UNL     1     -10.368  13.566  67.869  1.00  0.00    -0.249 A  
HETATM    7  F   UNL     1     -12.466  14.256  66.997  1.00  0.00    -0.442 F  
HETATM    8  C   UNL     1     -11.277  14.575  67.528  1.00  0.00    -0.321 A  
HETATM    9  C   UNL     1     -10.978  15.919  67.726  1.00  0.00    -0.315 A  
HETATM   10  C   UNL     1      -9.120  13.934  68.397  1.00  0.00    -0.184 A  
HETATM   11  C   UNL     1      -8.825  15.277  68.606  1.00  0.00    -0.188 A  
HETATM   12  F   UNL     1      -9.460  17.552  68.484  1.00  0.00    -0.258 F  
HETATM   13  C   UNL     1      -9.749  16.262  68.276  1.00  0.00    -0.222 A  
HETATM   14  F   UNL     1      -7.639  15.615  69.133  1.00  0.00    -0.146 F  
ENDBRANCH   5   6
ENDBRANCH   2   5
BRANCH   2  15
HETATM   15  C   UNL     1     -10.150  10.445  69.551  1.00  0.00    -0.246 C  
BRANCH  15  16
HETATM   16  C   UNL     1     -10.674   9.048  69.860  1.00  0.00    -0.229 C  
HETATM   17  N   UNL     1      -8.879   6.013  67.783  1.00  0.00    -0.107 NA 
HETATM   18  C   UNL     1     -10.816   6.687  69.152  1.00  0.00    -0.283 C  
HETATM   19  N   UNL     1     -10.340   8.058  68.942  1.00  0.00    -0.211 N  
HETATM   20  C   UNL     1      -8.916   7.236  67.166  1.00  0.00    -0.126 A  
HETATM   21  O   UNL     1     -11.325   8.804  70.873  1.00  0.00    -0.262 OA 
HETATM   22  C   UNL     1      -9.801   8.342  67.608  1.00  0.00    -0.169 C  
HETATM   23  C   UNL     1      -9.688   5.673  68.936  1.00  0.00    -0.138 C  
HETATM   24  N   UNL     1      -8.053   7.246  66.180  1.00  0.00    -0.115 NA 
HETATM   25  N   UNL     1      -7.412   6.034  66.173  1.00  0.00    -0.084 NA 
HETATM   26  C   UNL     1      -7.894   5.295  67.158  1.00  0.00    -0.100 A  
HETATM   27  C   UNL     1      -7.446   3.933  67.545  1.00  0.00    -0.068 C  
HETATM   28  F   UNL     1      -8.148   3.433  68.598  1.00  0.00    -0.061 F  
HETATM   29  F   UNL     1      -7.591   3.040  66.533  1.00  0.00    -0.071 F  
HETATM   30  F   UNL     1      -6.141   3.910  67.917  1.00  0.00    -0.027 F  
ENDBRANCH  15  16
ENDBRANCH   2  15
TORSDOF 4
ENDMDL
MODEL      223
REMARK 921   NORMALIZED FREE ENERGY PREDICTED BY IDOCK:   -4.44 KCAL/MOL
REMARK 922        TOTAL FREE ENERGY PREDICTED BY IDOCK:   -6.55 KCAL/MOL
REMARK 923 INTER-LIGAND FREE ENERGY PREDICTED BY IDOCK:   -7.05 KCAL/MOL
REMARK 924 INTRA-LIGAND FREE ENERGY PREDICTED BY IDOCK:    0.50 KCAL/MOL
REMARK 927      BINDING AFFINITY PREDICTED BY RF-SCORE:    0.00 PKD
ROOT
HETATM    1  N   UNL     1     -12.332   6.180  72.395  1.00  0.00    -0.535 NA 
HETATM    2  C   UNL     1     -10.873   6.341  72.578  1.00  0.00    -0.240 C  
HETATM    3  H1  UNL     1     -12.794   6.454  73.263  1.00  0.00     0.000 HD 
HETATM    4  H2  UNL     1     -12.589   5.241  72.090  1.00  0.00     0.000 HD 
ENDROOT
BRANCH   2   5
HETATM    5  C   UNL     1     -10.558   7.796  73.001  1.00  0.00    -0.441 C  
BRANCH   5   6
HETATM    6  C   UNL     1     -10.971   8.821  71.968  1.00  0.00    -0.438 A  
HETATM    7  F   UNL     1     -13.096   9.082  72.993  1.00  0.00    -0.449 F  
HETATM    8  C   UNL     1     -12.229   9.431  72.031  1.00  0.00    -0.326 A  
HETATM    9  C   UNL     1     -12.613  10.401  71.112  1.00  0.00    -0.512 A  
HETATM   10  C   UNL     1     -10.097   9.187  70.931  1.00  0.00    -0.356 A  
HETATM   11  C   UNL     1     -10.476  10.166  70.018  1.00  0.00    -0.274 A  
HETATM   12  F   UNL     1     -12.081  11.714  69.230  1.00  0.00    -0.332 F  
HETATM   13  C   UNL     1     -11.724  10.770  70.110  1.00  0.00    -0.339 A  
HETATM   14  F   UNL     1      -9.623  10.524  69.047  1.00  0.00    -0.167 F  
ENDBRANCH   5   6
ENDBRANCH   2   5
BRANCH   2  15
HETATM   15  C   UNL     1     -10.180   5.931  71.276  1.00  0.00    -0.262 C  
BRANCH  15  16
HETATM   16  C   UNL     1     -10.957   6.241  70.003  1.00  0.00    -0.358 C  
HETATM   17  N   UNL     1      -9.106   5.147  66.521  1.00  0.00    -0.123 NA 
HETATM   18  C   UNL     1     -10.889   6.504  67.550  1.00  0.00    -0.352 C  
HETATM   19  N   UNL     1     -10.225   6.204  68.822  1.00  0.00    -0.168 N  
HETATM   20  C   UNL     1      -8.288   5.461  67.574  1.00  0.00    -0.103 A  
HETATM   21  O   UNL     1     -12.162   6.478  70.015  1.00  0.00    -0.174 OA 
HETATM   22  C   UNL     1      -8.759   6.186  68.779  1.00  0.00    -0.119 C  
HETATM   23  C   UNL     1     -10.516   5.477  66.476  1.00  0.00    -0.271 C  
HETATM   24  N   UNL     1      -7.084   5.004  67.333  1.00  0.00    -0.065 NA 
HETATM   25  N   UNL     1      -7.118   4.347  66.130  1.00  0.00    -0.070 NA 
HETATM   26  C   UNL     1      -8.348   4.411  65.648  1.00  0.00    -0.114 A  
HETATM   27  C   UNL     1      -8.842   3.788  64.394  1.00  0.00    -0.120 C  
HETATM   28  F   UNL     1     -10.159   4.045  64.168  1.00  0.00    -0.167 F  
HETATM   29  F   UNL     1      -8.174   4.236  63.302  1.00  0.00    -0.079 F  
HETATM   30  F   UNL     1      -8.721   2.436  64.413  1.00  0.00    -0.090 F  
ENDBRANCH  15  16
ENDBRANCH   2  15
TORSDOF 4
ENDMDL
MODEL      224
REMARK 921   NORMALIZED FREE ENERGY PREDICTED BY IDOCK:   -4.41 KCAL/MOL
REMARK 922        TOTAL FREE ENERGY PREDICTED BY IDOCK:   -6.51 KCAL/MOL
REMARK 923 INTER-LIGAND FREE ENERGY PREDICTED BY IDOCK:   -6.08 KCAL/MOL
REMARK 924 INTRA-LIGAND FREE ENERGY PREDICTED BY IDOCK:   -0.43 KCAL/MOL
REMARK 927      BINDING AFFINITY PREDICTED BY RF-SCORE:    0.00 PKD
ROOT
HETATM    1  N   UNL     1      -6.778   8.389  67.480  1.00  0.00    -0.062 NA 
HETATM    2  C   UNL     1      -7.403   7.049  67.529  1.00  0.00    -0.092 C  
HETATM    3  H1  UNL     1      -6.917   8.770  66.544  1.00  0.00     0.000 HD 
HETATM    4  H2  UNL     1      -5.797   8.375  67.759  1.00  0.00     0.000 HD 
ENDROOT
BRANCH   2   5
HETATM    5  C   UNL     1      -8.895   7.154  67.131  1.00  0.00    -0.121 C  
BRANCH   5   6
HETATM    6  C   UNL     1      -9.190   8.332  66.229  1.00  0.00    -0.258 A  
HETATM    7  F   UNL     1     -10.610   9.303  67.866  1.00  0.00    -0.260 F  
HETATM    8  C   UNL     1     -10.030   9.367  66.658  1.00  0.00    -0.258 A  
HETATM    9  C   UNL     1     -10.284  10.476  65.858  1.00  0.00    -0.311 A  
HETATM   10  C   UNL     1      -8.621   8.416  64.948  1.00  0.00    -0.108 A  
HETATM   11  C   UNL     1      -8.866   9.530  64.151  1.00  0.00    -0.211 A  
HETATM   12  F   UNL     1      -9.918  11.624  63.835  1.00  0.00    -0.262 F  
HETATM   13  C   UNL     1      -9.690  10.553  64.605  1.00  0.00    -0.309 A  
HETATM   14  F   UNL     1      -8.297   9.608  62.939  1.00  0.00    -0.131 F  
ENDBRANCH   5   6
ENDBRANCH   2   5
BRANCH   2  15
HETATM   15  C   UNL     1      -7.196   6.475  68.933  1.00  0.00    -0.084 C  
BRANCH  15  16
HETATM   16  C   UNL     1      -8.326   5.591  69.444  1.00  0.00    -0.101 C  
HETATM   17  N   UNL     1     -11.420   7.580  71.238  1.00  0.00    -0.267 NA 
HETATM   18  C   UNL     1     -10.310   5.404  70.901  1.00  0.00    -0.242 C  
HETATM   19  N   UNL     1      -9.202   6.187  70.346  1.00  0.00    -0.153 N  
HETATM   20  C   UNL     1     -10.188   8.174  71.314  1.00  0.00    -0.195 A  
HETATM   21  O   UNL     1      -8.475   4.434  69.061  1.00  0.00    -0.081 OA 
HETATM   22  C   UNL     1      -8.923   7.456  71.026  1.00  0.00    -0.151 C  
HETATM   23  C   UNL     1     -11.621   6.197  70.857  1.00  0.00    -0.189 C  
HETATM   24  N   UNL     1     -10.337   9.431  71.652  1.00  0.00    -0.230 NA 
HETATM   25  N   UNL     1     -11.681   9.680  71.758  1.00  0.00    -0.362 NA 
HETATM   26  C   UNL     1     -12.340   8.565  71.484  1.00  0.00    -0.314 A  
HETATM   27  C   UNL     1     -13.814   8.399  71.431  1.00  0.00    -0.255 C  
HETATM   28  F   UNL     1     -14.185   7.124  71.130  1.00  0.00    -0.509 F  
HETATM   29  F   UNL     1     -14.407   8.698  72.614  1.00  0.00    -0.477 F  
HETATM   30  F   UNL     1     -14.384   9.189  70.485  1.00  0.00    -0.089 F  
ENDBRANCH  15  16
ENDBRANCH   2  15
TORSDOF 4
ENDMDL
MODEL      225
REMARK 921   NORMALIZED FREE ENERGY PREDICTED BY IDOCK:   -4.40 KCAL/MOL
REMARK 922        TOTAL FREE ENERGY PREDICTED BY IDOCK:   -6.49 KCAL/MOL
REMARK 923 INTER-LIGAND FREE ENERGY PREDICTED BY IDOCK:   -6.70 KCAL/MOL
REMARK 924 INTRA-LIGAND FREE ENERGY PREDICTED BY IDOCK:    0.21 KCAL/MOL
REMARK 927      BINDING AFFINITY PREDICTED BY RF-SCORE:    0.00 PKD
ROOT
HETATM    1  N   UNL     1      -7.174  11.422  66.792  1.00  0.00    -0.185 NA 
HETATM    2  C   UNL     1      -8.452  11.568  67.522  1.00  0.00    -0.143 C  
HETATM    3  H1  UNL     1      -6.650  10.657  67.217  1.00  0.00     0.000 HD 
HETATM    4  H2  UNL     1      -6.641  12.292  66.755  1.00  0.00     0.000 HD 
ENDROOT
BRANCH   2   5
HETATM    5  C   UNL     1      -9.220  10.224  67.503  1.00  0.00    -0.153 C  
BRANCH   5   6
HETATM    6  C   UNL     1      -8.365   9.043  67.906  1.00  0.00    -0.117 A  
HETATM    7  F   UNL     1      -7.405   8.923  65.738  1.00  0.00    -0.084 F  
HETATM    8  C   UNL     1      -7.478   8.459  66.994  1.00  0.00    -0.088 A  
HETATM    9  C   UNL     1      -6.658   7.396  67.357  1.00  0.00    -0.061 A  
HETATM   10  C   UNL     1      -8.437   8.515  69.206  1.00  0.00    -0.128 A  
HETATM   11  C   UNL     1      -7.609   7.459  69.573  1.00  0.00    -0.099 A  
HETATM   12  F   UNL     1      -5.927   5.892  69.016  1.00  0.00    -0.016 F  
HETATM   13  C   UNL     1      -6.724   6.906  68.655  1.00  0.00    -0.060 A  
HETATM   14  F   UNL     1      -7.671   6.980  70.824  1.00  0.00    -0.087 F  
ENDBRANCH   5   6
ENDBRANCH   2   5
BRANCH   2  15
HETATM   15  C   UNL     1      -9.238  12.717  66.885  1.00  0.00    -0.216 C  
BRANCH  15  16
HETATM   16  C   UNL     1      -9.978  13.617  67.867  1.00  0.00    -0.244 C  
HETATM   17  N   UNL     1      -9.580  17.634  67.187  1.00  0.00    -0.271 NA 
HETATM   18  C   UNL     1     -10.237  15.888  68.800  1.00  0.00    -0.220 C  
HETATM   19  N   UNL     1      -9.589  14.953  67.875  1.00  0.00    -0.203 N  
HETATM   20  C   UNL     1      -8.538  16.841  66.785  1.00  0.00    -0.232 A  
HETATM   21  O   UNL     1     -10.882  13.199  68.584  1.00  0.00    -0.248 OA 
HETATM   22  C   UNL     1      -8.360  15.441  67.242  1.00  0.00    -0.199 C  
HETATM   23  C   UNL     1     -10.624  17.188  68.088  1.00  0.00    -0.380 C  
HETATM   24  N   UNL     1      -7.784  17.513  65.950  1.00  0.00    -0.534 NA 
HETATM   25  N   UNL     1      -8.357  18.745  65.767  1.00  0.00    -0.392 NA 
HETATM   26  C   UNL     1      -9.459  18.811  66.497  1.00  0.00    -0.338 A  
HETATM   27  C   UNL     1     -10.415  19.945  66.556  1.00  0.00    -0.471 C  
HETATM   28  F   UNL     1     -11.449  19.712  67.410  1.00  0.00    -0.437 F  
HETATM   29  F   UNL     1      -9.825  21.091  66.979  1.00  0.00    -0.585 F  
HETATM   30  F   UNL     1     -10.977  20.204  65.348  1.00  0.00    -0.510 F  
ENDBRANCH  15  16
ENDBRANCH   2  15
TORSDOF 4
ENDMDL
MODEL      226
REMARK 921   NORMALIZED FREE ENERGY PREDICTED BY IDOCK:   -4.39 KCAL/MOL
REMARK 922        TOTAL FREE ENERGY PREDICTED BY IDOCK:   -6.48 KCAL/MOL
REMARK 923 INTER-LIGAND FREE ENERGY PREDICTED BY IDOCK:   -5.84 KCAL/MOL
REMARK 924 INTRA-LIGAND FREE ENERGY PREDICTED BY IDOCK:   -0.64 KCAL/MOL
REMARK 927      BINDING AFFINITY PREDICTED BY RF-SCORE:    0.00 PKD
ROOT
HETATM    1  N   UNL     1     -10.327   4.777  66.504  1.00  0.00    -0.262 NA 
HETATM    2  C   UNL     1      -9.252   5.693  66.945  1.00  0.00    -0.120 C  
HETATM    3  H1  UNL     1     -10.020   3.820  66.677  1.00  0.00     0.000 HD 
HETATM    4  H2  UNL     1     -10.604   4.934  65.535  1.00  0.00     0.000 HD 
ENDROOT
BRANCH   2   5
HETATM    5  C   UNL     1      -8.913   5.423  68.431  1.00  0.00    -0.113 C  
BRANCH   5   6
HETATM    6  C   UNL     1      -9.392   6.516  69.361  1.00  0.00    -0.143 A  
HETATM    7  F   UNL     1     -11.642   5.791  69.147  1.00  0.00    -0.297 F  
HETATM    8  C   UNL     1     -10.749   6.632  69.688  1.00  0.00    -0.260 A  
HETATM    9  C   UNL     1     -11.203   7.608  70.568  1.00  0.00    -0.275 A  
HETATM   10  C   UNL     1      -8.484   7.430  69.922  1.00  0.00    -0.139 A  
HETATM   11  C   UNL     1      -8.937   8.399  70.811  1.00  0.00    -0.155 A  
HETATM   12  F   UNL     1     -10.714   9.417  71.994  1.00  0.00    -0.415 F  
HETATM   13  C   UNL     1     -10.286   8.484  71.134  1.00  0.00    -0.215 A  
HETATM   14  F   UNL     1      -8.057   9.250  71.358  1.00  0.00    -0.172 F  
ENDBRANCH   5   6
ENDBRANCH   2   5
BRANCH   2  15
HETATM   15  C   UNL     1      -9.713   7.130  66.687  1.00  0.00    -0.233 C  
BRANCH  15  16
HETATM   16  C   UNL     1      -8.616   8.093  66.250  1.00  0.00    -0.144 C  
HETATM   17  N   UNL     1      -9.496  12.063  66.710  1.00  0.00    -0.203 NA 
HETATM   18  C   UNL     1      -8.019  10.408  65.634  1.00  0.00    -0.153 C  
HETATM   19  N   UNL     1      -9.007   9.415  66.069  1.00  0.00    -0.157 N  
HETATM   20  C   UNL     1     -10.558  11.224  66.497  1.00  0.00    -0.266 A  
HETATM   21  O   UNL     1      -7.452   7.732  66.097  1.00  0.00    -0.076 OA 
HETATM   22  C   UNL     1     -10.408   9.840  65.984  1.00  0.00    -0.114 C  
HETATM   23  C   UNL     1      -8.117  11.687  66.471  1.00  0.00    -0.075 C  
HETATM   24  N   UNL     1     -11.665  11.838  66.834  1.00  0.00    -0.584 NA 
HETATM   25  N   UNL     1     -11.328  13.077  67.313  1.00  0.00    -0.290 NA 
HETATM   26  C   UNL     1     -10.012  13.207  67.262  1.00  0.00    -0.230 A  
HETATM   27  C   UNL     1      -9.217  14.370  67.731  1.00  0.00    -0.192 C  
HETATM   28  F   UNL     1      -7.881  14.203  67.531  1.00  0.00    -0.139 F  
HETATM   29  F   UNL     1      -9.558  15.515  67.088  1.00  0.00    -0.213 F  
HETATM   30  F   UNL     1      -9.374  14.593  69.061  1.00  0.00    -0.198 F  
ENDBRANCH  15  16
ENDBRANCH   2  15
TORSDOF 4
ENDMDL
MODEL      227
REMARK 921   NORMALIZED FREE ENERGY PREDICTED BY IDOCK:   -4.39 KCAL/MOL
REMARK 922        TOTAL FREE ENERGY PREDICTED BY IDOCK:   -6.48 KCAL/MOL
REMARK 923 INTER-LIGAND FREE ENERGY PREDICTED BY IDOCK:   -5.00 KCAL/MOL
REMARK 924 INTRA-LIGAND FREE ENERGY PREDICTED BY IDOCK:   -1.48 KCAL/MOL
REMARK 927      BINDING AFFINITY PREDICTED BY RF-SCORE:    0.00 PKD
ROOT
HETATM    1  N   UNL     1     -11.935  11.893  70.468  1.00  0.00    -0.484 NA 
HETATM    2  C   UNL     1     -10.963  10.836  70.112  1.00  0.00    -0.159 C  
HETATM    3  H1  UNL     1     -11.802  12.676  69.828  1.00  0.00     0.000 HD 
HETATM    4  H2  UNL     1     -11.873  12.170  71.448  1.00  0.00     0.000 HD 
ENDROOT
BRANCH   2   5
HETATM    5  C   UNL     1     -11.142  10.442  68.626  1.00  0.00    -0.313 C  
BRANCH   5   6
HETATM    6  C   UNL     1      -9.832  10.173  67.918  1.00  0.00    -0.176 A  
HETATM    7  F   UNL     1     -10.898   8.715  66.378  1.00  0.00    -0.206 F  
HETATM    8  C   UNL     1      -9.783   9.325  66.805  1.00  0.00    -0.200 A  
HETATM    9  C   UNL     1      -8.595   9.094  66.120  1.00  0.00    -0.149 A  
HETATM   10  C   UNL     1      -8.642  10.776  68.358  1.00  0.00    -0.141 A  
HETATM   11  C   UNL     1      -7.456  10.554  67.666  1.00  0.00    -0.092 A  
HETATM   12  F   UNL     1      -6.290   9.515  65.889  1.00  0.00    -0.068 F  
HETATM   13  C   UNL     1      -7.434   9.721  66.553  1.00  0.00    -0.095 A  
HETATM   14  F   UNL     1      -6.331  11.154  68.081  1.00  0.00    -0.052 F  
ENDBRANCH   5   6
ENDBRANCH   2   5
BRANCH   2  15
HETATM   15  C   UNL     1     -11.162   9.660  71.072  1.00  0.00    -0.445 C  
BRANCH  15  16
HETATM   16  C   UNL     1      -9.917   8.824  71.339  1.00  0.00    -0.283 C  
HETATM   17  N   UNL     1      -9.047   6.030  68.478  1.00  0.00    -0.113 NA 
HETATM   18  C   UNL     1      -8.634   6.789  70.787  1.00  0.00    -0.141 C  
HETATM   19  N   UNL     1      -9.794   7.662  70.585  1.00  0.00    -0.182 N  
HETATM   20  C   UNL     1     -10.369   6.357  68.629  1.00  0.00    -0.199 A  
HETATM   21  O   UNL     1      -9.059   9.170  72.147  1.00  0.00    -0.312 OA 
HETATM   22  C   UNL     1     -10.896   7.079  69.813  1.00  0.00    -0.248 C  
HETATM   23  C   UNL     1      -8.024   6.363  69.448  1.00  0.00    -0.110 C  
HETATM   24  N   UNL     1     -11.035   5.951  67.576  1.00  0.00    -0.240 NA 
HETATM   25  N   UNL     1     -10.138   5.390  66.704  1.00  0.00    -0.193 NA 
HETATM   26  C   UNL     1      -8.930   5.458  67.238  1.00  0.00    -0.111 A  
HETATM   27  C   UNL     1      -7.658   5.016  66.612  1.00  0.00    -0.088 C  
HETATM   28  F   UNL     1      -6.582   5.212  67.422  1.00  0.00    -0.046 F  
HETATM   29  F   UNL     1      -7.670   3.693  66.310  1.00  0.00    -0.083 F  
HETATM   30  F   UNL     1      -7.392   5.688  65.463  1.00  0.00    -0.066 F  
ENDBRANCH  15  16
ENDBRANCH   2  15
TORSDOF 4
ENDMDL
MODEL      228
REMARK 921   NORMALIZED FREE ENERGY PREDICTED BY IDOCK:   -4.37 KCAL/MOL
REMARK 922        TOTAL FREE ENERGY PREDICTED BY IDOCK:   -6.45 KCAL/MOL
REMARK 923 INTER-LIGAND FREE ENERGY PREDICTED BY IDOCK:   -5.76 KCAL/MOL
REMARK 924 INTRA-LIGAND FREE ENERGY PREDICTED BY IDOCK:   -0.69 KCAL/MOL
REMARK 927      BINDING AFFINITY PREDICTED BY RF-SCORE:    0.00 PKD
ROOT
HETATM    1  N   UNL     1     -13.080   9.541  70.826  1.00  0.00    -0.561 NA 
HETATM    2  C   UNL     1     -12.129   8.447  71.122  1.00  0.00    -0.249 C  
HETATM    3  H1  UNL     1     -13.933   9.375  71.361  1.00  0.00     0.000 HD 
HETATM    4  H2  UNL     1     -13.256   9.649  69.827  1.00  0.00     0.000 HD 
ENDROOT
BRANCH   2   5
HETATM    5  C   UNL     1     -11.883   8.370  72.648  1.00  0.00    -0.360 C  
BRANCH   5   6
HETATM    6  C   UNL     1     -10.775   7.411  73.026  1.00  0.00    -0.413 A  
HETATM    7  F   UNL     1     -12.143   5.539  72.515  1.00  0.00    -0.337 F  
HETATM    8  C   UNL     1     -10.961   6.027  72.920  1.00  0.00    -0.269 A  
HETATM    9  C   UNL     1      -9.943   5.132  73.228  1.00  0.00    -0.182 A  
HETATM   10  C   UNL     1      -9.535   7.890  73.480  1.00  0.00    -0.312 A  
HETATM   11  C   UNL     1      -8.512   6.995  73.777  1.00  0.00    -0.139 A  
HETATM   12  F   UNL     1      -7.725   4.770  73.933  1.00  0.00    -0.091 F  
HETATM   13  C   UNL     1      -8.715   5.626  73.649  1.00  0.00    -0.122 A  
HETATM   14  F   UNL     1      -7.326   7.466  74.187  1.00  0.00    -0.105 F  
ENDBRANCH   5   6
ENDBRANCH   2   5
BRANCH   2  15
HETATM   15  C   UNL     1     -10.849   8.695  70.320  1.00  0.00    -0.250 C  
BRANCH  15  16
HETATM   16  C   UNL     1     -10.624   7.746  69.150  1.00  0.00    -0.183 C  
HETATM   17  N   UNL     1      -9.307   9.511  65.700  1.00  0.00    -0.222 NA 
HETATM   18  C   UNL     1     -10.316   7.502  66.712  1.00  0.00    -0.262 C  
HETATM   19  N   UNL     1     -10.518   8.341  67.897  1.00  0.00    -0.219 N  
HETATM   20  C   UNL     1     -10.074  10.288  66.529  1.00  0.00    -0.231 A  
HETATM   21  O   UNL     1     -10.512   6.533  69.305  1.00  0.00    -0.187 OA 
HETATM   22  C   UNL     1     -10.900   9.731  67.628  1.00  0.00    -0.239 C  
HETATM   23  C   UNL     1      -9.212   8.070  65.816  1.00  0.00    -0.005 C  
HETATM   24  N   UNL     1      -9.928  11.546  66.195  1.00  0.00    -0.216 NA 
HETATM   25  N   UNL     1      -9.025  11.604  65.165  1.00  0.00     0.083 NA 
HETATM   26  C   UNL     1      -8.630  10.374  64.879  1.00  0.00    -0.182 A  
HETATM   27  C   UNL     1      -7.618   9.980  63.866  1.00  0.00    -0.138 C  
HETATM   28  F   UNL     1      -7.438   8.633  63.804  1.00  0.00    -0.100 F  
HETATM   29  F   UNL     1      -7.967  10.375  62.616  1.00  0.00    -0.135 F  
HETATM   30  F   UNL     1      -6.397  10.512  64.129  1.00  0.00    -0.133 F  
ENDBRANCH  15  16
ENDBRANCH   2  15
TORSDOF 4
ENDMDL
MODEL      229
REMARK 921   NORMALIZED FREE ENERGY PREDICTED BY IDOCK:   -4.36 KCAL/MOL
REMARK 922        TOTAL FREE ENERGY PREDICTED BY IDOCK:   -6.45 KCAL/MOL
REMARK 923 INTER-LIGAND FREE ENERGY PREDICTED BY IDOCK:   -6.09 KCAL/MOL
REMARK 924 INTRA-LIGAND FREE ENERGY PREDICTED BY IDOCK:   -0.36 KCAL/MOL
REMARK 927      BINDING AFFINITY PREDICTED BY RF-SCORE:    0.00 PKD
ROOT
HETATM    1  N   UNL     1      -9.989  17.557  68.342  1.00  0.00    -0.315 NA 
HETATM    2  C   UNL     1      -9.281  16.275  68.545  1.00  0.00    -0.211 C  
HETATM    3  H1  UNL     1      -9.694  18.203  69.076  1.00  0.00     0.000 HD 
HETATM    4  H2  UNL     1     -11.002  17.444  68.301  1.00  0.00     0.000 HD 
ENDROOT
BRANCH   2   5
HETATM    5  C   UNL     1      -7.752  16.520  68.558  1.00  0.00    -0.204 C  
BRANCH   5   6
HETATM    6  C   UNL     1      -7.340  17.760  67.797  1.00  0.00    -0.205 A  
HETATM    7  F   UNL     1      -7.374  19.061  69.783  1.00  0.00    -0.150 F  
HETATM    8  C   UNL     1      -7.153  18.978  68.463  1.00  0.00    -0.290 A  
HETATM    9  C   UNL     1      -6.739  20.120  67.786  1.00  0.00    -0.301 A  
HETATM   10  C   UNL     1      -7.127  17.713  66.409  1.00  0.00    -0.310 A  
HETATM   11  C   UNL     1      -6.702  18.852  65.733  1.00  0.00    -0.268 A  
HETATM   12  F   UNL     1      -6.094  21.138  65.762  1.00  0.00    -0.268 F  
HETATM   13  C   UNL     1      -6.507  20.046  66.418  1.00  0.00    -0.201 A  
HETATM   14  F   UNL     1      -6.479  18.788  64.412  1.00  0.00    -0.194 F  
ENDBRANCH   5   6
ENDBRANCH   2   5
BRANCH   2  15
HETATM   15  C   UNL     1      -9.722  15.306  67.445  1.00  0.00    -0.208 C  
BRANCH  15  16
HETATM   16  C   UNL     1     -10.872  14.380  67.821  1.00  0.00    -0.258 C  
HETATM   17  N   UNL     1     -10.483  10.510  66.548  1.00  0.00    -0.234 NA 
HETATM   18  C   UNL     1     -12.021  12.234  67.409  1.00  0.00    -0.133 C  
HETATM   19  N   UNL     1     -10.938  13.179  67.123  1.00  0.00    -0.264 N  
HETATM   20  C   UNL     1      -9.871  11.468  65.784  1.00  0.00    -0.234 A  
HETATM   21  O   UNL     1     -11.674  14.661  68.708  1.00  0.00    -0.299 OA 
HETATM   22  C   UNL     1     -10.178  12.915  65.896  1.00  0.00    -0.290 C  
HETATM   23  C   UNL     1     -11.485  10.807  67.552  1.00  0.00    -0.090 C  
HETATM   24  N   UNL     1      -8.996  10.894  64.995  1.00  0.00    -0.192 NA 
HETATM   25  N   UNL     1      -9.002   9.551  65.271  1.00  0.00    -0.186 NA 
HETATM   26  C   UNL     1      -9.885   9.320  66.228  1.00  0.00    -0.291 A  
HETATM   27  C   UNL     1     -10.177   8.012  66.867  1.00  0.00    -0.315 C  
HETATM   28  F   UNL     1     -11.148   8.100  67.817  1.00  0.00    -0.171 F  
HETATM   29  F   UNL     1     -10.605   7.088  65.971  1.00  0.00     0.112 F  
HETATM   30  F   UNL     1      -9.088   7.493  67.490  1.00  0.00    -0.125 F  
ENDBRANCH  15  16
ENDBRANCH   2  15
TORSDOF 4
ENDMDL
MODEL      230
REMARK 921   NORMALIZED FREE ENERGY PREDICTED BY IDOCK:   -4.34 KCAL/MOL
REMARK 922        TOTAL FREE ENERGY PREDICTED BY IDOCK:   -6.42 KCAL/MOL
REMARK 923 INTER-LIGAND FREE ENERGY PREDICTED BY IDOCK:   -5.52 KCAL/MOL
REMARK 924 INTRA-LIGAND FREE ENERGY PREDICTED BY IDOCK:   -0.90 KCAL/MOL
REMARK 927      BINDING AFFINITY PREDICTED BY RF-SCORE:    0.00 PKD
ROOT
HETATM    1  N   UNL     1      -9.231   7.704  74.310  1.00  0.00    -0.422 NA 
HETATM    2  C   UNL     1      -9.078   6.234  74.237  1.00  0.00    -0.154 C  
HETATM    3  H1  UNL     1      -8.330   8.105  74.572  1.00  0.00     0.000 HD 
HETATM    4  H2  UNL     1      -9.986   7.990  74.934  1.00  0.00     0.000 HD 
ENDROOT
BRANCH   2   5
HETATM    5  C   UNL     1      -7.944   5.876  73.246  1.00  0.00    -0.109 C  
BRANCH   5   6
HETATM    6  C   UNL     1      -7.363   7.083  72.542  1.00  0.00    -0.080 A  
HETATM    7  F   UNL     1      -5.792   7.418  74.291  1.00  0.00    -0.068 F  
HETATM    8  C   UNL     1      -6.291   7.789  73.102  1.00  0.00    -0.066 A  
HETATM    9  C   UNL     1      -5.721   8.879  72.453  1.00  0.00    -0.076 A  
HETATM   10  C   UNL     1      -7.882   7.514  71.310  1.00  0.00    -0.094 A  
HETATM   11  C   UNL     1      -7.304   8.596  70.655  1.00  0.00    -0.064 A  
HETATM   12  F   UNL     1      -5.676  10.310  70.584  1.00  0.00    -0.055 F  
HETATM   13  C   UNL     1      -6.229   9.272  71.222  1.00  0.00    -0.079 A  
HETATM   14  F   UNL     1      -7.793   8.982  69.467  1.00  0.00    -0.082 F  
ENDBRANCH   5   6
ENDBRANCH   2   5
BRANCH   2  15
HETATM   15  C   UNL     1     -10.430   5.632  73.844  1.00  0.00    -0.302 C  
BRANCH  15  16
HETATM   16  C   UNL     1     -10.597   5.329  72.361  1.00  0.00    -0.225 C  
HETATM   17  N   UNL     1     -11.263   8.591  69.980  1.00  0.00    -0.154 NA 
HETATM   18  C   UNL     1     -11.370   6.134  70.159  1.00  0.00    -0.363 C  
HETATM   19  N   UNL     1     -11.158   6.345  71.594  1.00  0.00    -0.256 N  
HETATM   20  C   UNL     1     -11.696   8.683  71.277  1.00  0.00    -0.289 A  
HETATM   21  O   UNL     1     -10.230   4.267  71.865  1.00  0.00    -0.183 OA 
HETATM   22  C   UNL     1     -11.842   7.507  72.169  1.00  0.00    -0.298 C  
HETATM   23  C   UNL     1     -10.890   7.342  69.347  1.00  0.00    -0.190 C  
HETATM   24  N   UNL     1     -11.922   9.941  71.565  1.00  0.00    -0.396 NA 
HETATM   25  N   UNL     1     -11.596  10.689  70.464  1.00  0.00    -0.336 NA 
HETATM   26  C   UNL     1     -11.173   9.875  69.510  1.00  0.00    -0.177 A  
HETATM   27  C   UNL     1     -10.669  10.267  68.170  1.00  0.00    -0.246 C  
HETATM   28  F   UNL     1     -10.317   9.193  67.411  1.00  0.00    -0.247 F  
HETATM   29  F   UNL     1     -11.597  10.950  67.454  1.00  0.00    -0.368 F  
HETATM   30  F   UNL     1      -9.564  11.051  68.248  1.00  0.00    -0.149 F  
ENDBRANCH  15  16
ENDBRANCH   2  15
TORSDOF 4
ENDMDL
MODEL      231
REMARK 921   NORMALIZED FREE ENERGY PREDICTED BY IDOCK:   -4.32 KCAL/MOL
REMARK 922        TOTAL FREE ENERGY PREDICTED BY IDOCK:   -6.40 KCAL/MOL
REMARK 923 INTER-LIGAND FREE ENERGY PREDICTED BY IDOCK:   -6.78 KCAL/MOL
REMARK 924 INTRA-LIGAND FREE ENERGY PREDICTED BY IDOCK:    0.38 KCAL/MOL
REMARK 927      BINDING AFFINITY PREDICTED BY RF-SCORE:    0.00 PKD
ROOT
HETATM    1  N   UNL     1     -12.683  13.380  64.679  1.00  0.00    -0.671 NA 
HETATM    2  C   UNL     1     -11.911  12.996  65.880  1.00  0.00    -0.416 C  
HETATM    3  H1  UNL     1     -13.088  14.302  64.842  1.00  0.00     0.000 HD 
HETATM    4  H2  UNL     1     -13.382  12.682  64.422  1.00  0.00     0.000 HD 
ENDROOT
BRANCH   2   5
HETATM    5  C   UNL     1     -10.848  14.079  66.185  1.00  0.00    -0.291 C  
BRANCH   5   6
HETATM    6  C   UNL     1     -10.970  14.660  67.577  1.00  0.00    -0.301 A  
HETATM    7  F   UNL     1     -10.406  16.825  66.786  1.00  0.00    -0.282 F  
HETATM    8  C   UNL     1     -10.756  16.025  67.803  1.00  0.00    -0.323 A  
HETATM    9  C   UNL     1     -10.899  16.583  69.068  1.00  0.00    -0.329 A  
HETATM   10  C   UNL     1     -11.309  13.843  68.668  1.00  0.00    -0.310 A  
HETATM   11  C   UNL     1     -11.463  14.402  69.933  1.00  0.00    -0.260 A  
HETATM   12  F   UNL     1     -11.416  16.297  71.348  1.00  0.00    -0.420 F  
HETATM   13  C   UNL     1     -11.262  15.764  70.130  1.00  0.00    -0.349 A  
HETATM   14  F   UNL     1     -11.810  13.616  70.962  1.00  0.00    -0.362 F  
ENDBRANCH   5   6
ENDBRANCH   2   5
BRANCH   2  15
HETATM   15  C   UNL     1     -11.303  11.612  65.637  1.00  0.00    -0.233 C  
BRANCH  15  16
HETATM   16  C   UNL     1      -9.924  11.394  66.245  1.00  0.00    -0.224 C  
HETATM   17  N   UNL     1      -8.878   7.482  66.839  1.00  0.00    -0.131 NA 
HETATM   18  C   UNL     1      -8.389   9.835  67.390  1.00  0.00    -0.114 C  
HETATM   19  N   UNL     1      -9.686  10.129  66.771  1.00  0.00    -0.180 N  
HETATM   20  C   UNL     1     -10.216   7.770  66.889  1.00  0.00    -0.303 A  
HETATM   21  O   UNL     1      -9.063  12.270  66.244  1.00  0.00    -0.206 OA 
HETATM   22  C   UNL     1     -10.745   9.149  67.030  1.00  0.00    -0.118 C  
HETATM   23  C   UNL     1      -7.839   8.490  66.906  1.00  0.00    -0.092 C  
HETATM   24  N   UNL     1     -10.899   6.658  66.773  1.00  0.00    -0.307 NA 
HETATM   25  N   UNL     1     -10.005   5.633  66.602  1.00  0.00    -0.166 NA 
HETATM   26  C   UNL     1      -8.780   6.134  66.618  1.00  0.00    -0.124 A  
HETATM   27  C   UNL     1      -7.514   5.384  66.416  1.00  0.00    -0.087 C  
HETATM   28  F   UNL     1      -6.416   6.184  66.500  1.00  0.00    -0.040 F  
HETATM   29  F   UNL     1      -7.345   4.407  67.341  1.00  0.00    -0.065 F  
HETATM   30  F   UNL     1      -7.458   4.795  65.194  1.00  0.00    -0.071 F  
ENDBRANCH  15  16
ENDBRANCH   2  15
TORSDOF 4
ENDMDL
MODEL      232
REMARK 921   NORMALIZED FREE ENERGY PREDICTED BY IDOCK:   -4.32 KCAL/MOL
REMARK 922        TOTAL FREE ENERGY PREDICTED BY IDOCK:   -6.39 KCAL/MOL
REMARK 923 INTER-LIGAND FREE ENERGY PREDICTED BY IDOCK:   -5.73 KCAL/MOL
REMARK 924 INTRA-LIGAND FREE ENERGY PREDICTED BY IDOCK:   -0.66 KCAL/MOL
REMARK 927      BINDING AFFINITY PREDICTED BY RF-SCORE:    0.00 PKD
ROOT
HETATM    1  N   UNL     1      -7.342  10.142  70.894  1.00  0.00    -0.343 NA 
HETATM    2  C   UNL     1      -6.423   9.817  69.781  1.00  0.00    -0.053 C  
HETATM    3  H1  UNL     1      -6.847   9.982  71.772  1.00  0.00     0.000 HD 
HETATM    4  H2  UNL     1      -8.223   9.631  70.838  1.00  0.00     0.000 HD 
ENDROOT
BRANCH   2   5
HETATM    5  C   UNL     1      -5.129  10.656  69.910  1.00  0.00    -0.039 C  
BRANCH   5   6
HETATM    6  C   UNL     1      -5.388  12.144  69.992  1.00  0.00    -0.098 A  
HETATM    7  F   UNL     1      -5.222  12.101  72.359  1.00  0.00     0.008 F  
HETATM    8  C   UNL     1      -5.403  12.799  71.229  1.00  0.00    -0.138 A  
HETATM    9  C   UNL     1      -5.603  14.172  71.321  1.00  0.00    -0.217 A  
HETATM   10  C   UNL     1      -5.608  12.899  68.828  1.00  0.00    -0.071 A  
HETATM   11  C   UNL     1      -5.797  14.274  68.918  1.00  0.00    -0.086 A  
HETATM   12  F   UNL     1      -5.970  16.230  70.236  1.00  0.00    -0.188 F  
HETATM   13  C   UNL     1      -5.792  14.906  70.157  1.00  0.00    -0.141 A  
HETATM   14  F   UNL     1      -5.983  14.987  67.798  1.00  0.00    -0.129 F  
ENDBRANCH   5   6
ENDBRANCH   2   5
BRANCH   2  15
HETATM   15  C   UNL     1      -7.165  10.058  68.463  1.00  0.00    -0.076 C  
BRANCH  15  16
HETATM   16  C   UNL     1      -8.681   9.944  68.543  1.00  0.00    -0.121 C  
HETATM   17  N   UNL     1     -10.755  12.809  66.483  1.00  0.00    -0.256 NA 
HETATM   18  C   UNL     1     -10.860  11.059  68.217  1.00  0.00    -0.215 C  
HETATM   19  N   UNL     1      -9.395  11.074  68.157  1.00  0.00    -0.166 N  
HETATM   20  C   UNL     1      -9.519  13.169  66.951  1.00  0.00    -0.244 A  
HETATM   21  O   UNL     1      -9.242   8.910  68.897  1.00  0.00    -0.140 OA 
HETATM   22  C   UNL     1      -8.785  12.396  67.982  1.00  0.00    -0.186 C  
HETATM   23  C   UNL     1     -11.471  11.632  66.935  1.00  0.00    -0.247 C  
HETATM   24  N   UNL     1      -9.125  14.254  66.331  1.00  0.00    -0.197 NA 
HETATM   25  N   UNL     1     -10.091  14.589  65.418  1.00  0.00    -0.365 NA 
HETATM   26  C   UNL     1     -11.069  13.701  65.491  1.00  0.00    -0.295 A  
HETATM   27  C   UNL     1     -12.287  13.653  64.645  1.00  0.00    -0.371 C  
HETATM   28  F   UNL     1     -13.110  12.620  64.974  1.00  0.00    -0.541 F  
HETATM   29  F   UNL     1     -13.032  14.782  64.755  1.00  0.00    -0.315 F  
HETATM   30  F   UNL     1     -11.991  13.494  63.330  1.00  0.00    -0.503 F  
ENDBRANCH  15  16
ENDBRANCH   2  15
TORSDOF 4
ENDMDL
MODEL      233
REMARK 921   NORMALIZED FREE ENERGY PREDICTED BY IDOCK:   -4.29 KCAL/MOL
REMARK 922        TOTAL FREE ENERGY PREDICTED BY IDOCK:   -6.36 KCAL/MOL
REMARK 923 INTER-LIGAND FREE ENERGY PREDICTED BY IDOCK:   -5.78 KCAL/MOL
REMARK 924 INTRA-LIGAND FREE ENERGY PREDICTED BY IDOCK:   -0.58 KCAL/MOL
REMARK 927      BINDING AFFINITY PREDICTED BY RF-SCORE:    0.00 PKD
ROOT
HETATM    1  N   UNL     1      -7.051   8.587  67.039  1.00  0.00    -0.074 NA 
HETATM    2  C   UNL     1      -7.348   7.532  66.046  1.00  0.00    -0.081 C  
HETATM    3  H1  UNL     1      -7.283   9.490  66.623  1.00  0.00     0.000 HD 
HETATM    4  H2  UNL     1      -6.091   8.546  67.381  1.00  0.00     0.000 HD 
ENDROOT
BRANCH   2   5
HETATM    5  C   UNL     1      -8.827   7.634  65.603  1.00  0.00    -0.086 C  
BRANCH   5   6
HETATM    6  C   UNL     1      -9.406   9.021  65.769  1.00  0.00    -0.302 A  
HETATM    7  F   UNL     1     -10.168   8.504  67.957  1.00  0.00    -0.201 F  
HETATM    8  C   UNL     1     -10.039   9.393  66.962  1.00  0.00    -0.240 A  
HETATM    9  C   UNL     1     -10.545  10.675  67.147  1.00  0.00    -0.312 A  
HETATM   10  C   UNL     1      -9.311   9.967  64.735  1.00  0.00    -0.330 A  
HETATM   11  C   UNL     1      -9.807  11.253  64.924  1.00  0.00    -0.264 A  
HETATM   12  F   UNL     1     -10.888  12.845  66.299  1.00  0.00    -0.273 F  
HETATM   13  C   UNL     1     -10.417  11.605  66.123  1.00  0.00    -0.247 A  
HETATM   14  F   UNL     1      -9.689  12.154  63.937  1.00  0.00    -0.280 F  
ENDBRANCH   5   6
ENDBRANCH   2   5
BRANCH   2  15
HETATM   15  C   UNL     1      -7.000   6.177  66.669  1.00  0.00    -0.067 C  
BRANCH  15  16
HETATM   16  C   UNL     1      -8.184   5.399  67.227  1.00  0.00    -0.104 C  
HETATM   17  N   UNL     1      -9.782   6.897  70.685  1.00  0.00    -0.176 NA 
HETATM   18  C   UNL     1      -9.636   4.954  69.174  1.00  0.00    -0.163 C  
HETATM   19  N   UNL     1      -8.518   5.669  68.550  1.00  0.00    -0.105 N  
HETATM   20  C   UNL     1      -8.448   7.132  70.477  1.00  0.00    -0.139 A  
HETATM   21  O   UNL     1      -8.826   4.605  66.544  1.00  0.00    -0.112 OA 
HETATM   22  C   UNL     1      -7.641   6.397  69.473  1.00  0.00    -0.095 C  
HETATM   23  C   UNL     1     -10.547   5.917  69.942  1.00  0.00    -0.299 C  
HETATM   24  N   UNL     1      -8.052   8.092  71.275  1.00  0.00    -0.099 NA 
HETATM   25  N   UNL     1      -9.142   8.523  71.986  1.00  0.00    -0.229 NA 
HETATM   26  C   UNL     1     -10.196   7.816  71.613  1.00  0.00    -0.186 A  
HETATM   27  C   UNL     1     -11.592   7.987  72.090  1.00  0.00    -0.342 C  
HETATM   28  F   UNL     1     -12.450   7.097  71.521  1.00  0.00    -0.331 F  
HETATM   29  F   UNL     1     -11.699   7.814  73.431  1.00  0.00    -0.276 F  
HETATM   30  F   UNL     1     -12.083   9.219  71.802  1.00  0.00    -0.370 F  
ENDBRANCH  15  16
ENDBRANCH   2  15
TORSDOF 4
ENDMDL
MODEL      234
REMARK 921   NORMALIZED FREE ENERGY PREDICTED BY IDOCK:   -4.28 KCAL/MOL
REMARK 922        TOTAL FREE ENERGY PREDICTED BY IDOCK:   -6.35 KCAL/MOL
REMARK 923 INTER-LIGAND FREE ENERGY PREDICTED BY IDOCK:   -5.74 KCAL/MOL
REMARK 924 INTRA-LIGAND FREE ENERGY PREDICTED BY IDOCK:   -0.61 KCAL/MOL
REMARK 927      BINDING AFFINITY PREDICTED BY RF-SCORE:    0.00 PKD
ROOT
HETATM    1  N   UNL     1      -6.485  15.821  67.054  1.00  0.00    -0.288 NA 
HETATM    2  C   UNL     1      -7.844  15.969  66.489  1.00  0.00    -0.191 C  
HETATM    3  H1  UNL     1      -5.810  16.027  66.316  1.00  0.00     0.000 HD 
HETATM    4  H2  UNL     1      -6.334  14.908  67.483  1.00  0.00     0.000 HD 
ENDROOT
BRANCH   2   5
HETATM    5  C   UNL     1      -8.010  17.388  65.893  1.00  0.00    -0.060 C  
BRANCH   5   6
HETATM    6  C   UNL     1      -8.738  18.341  66.815  1.00  0.00    -0.281 A  
HETATM    7  F   UNL     1     -10.690  18.244  65.467  1.00  0.00    -0.445 F  
HETATM    8  C   UNL     1     -10.064  18.710  66.558  1.00  0.00    -0.394 A  
HETATM    9  C   UNL     1     -10.761  19.556  67.413  1.00  0.00    -0.589 A  
HETATM   10  C   UNL     1      -8.101  18.868  67.951  1.00  0.00    -0.300 A  
HETATM   11  C   UNL     1      -8.802  19.706  68.812  1.00  0.00    -0.244 A  
HETATM   12  F   UNL     1     -10.793  20.848  69.382  1.00  0.00    -0.191 F  
HETATM   13  C   UNL     1     -10.123  20.044  68.547  1.00  0.00    -0.365 A  
HETATM   14  F   UNL     1      -8.190  20.183  69.906  1.00  0.00     0.076 F  
ENDBRANCH   5   6
ENDBRANCH   2   5
BRANCH   2  15
HETATM   15  C   UNL     1      -8.857  15.661  67.595  1.00  0.00    -0.181 C  
BRANCH  15  16
HETATM   16  C   UNL     1      -8.562  14.411  68.414  1.00  0.00    -0.174 C  
HETATM   17  N   UNL     1      -9.344  10.865  66.525  1.00  0.00    -0.170 NA 
HETATM   18  C   UNL     1      -8.911  11.982  68.681  1.00  0.00    -0.023 C  
HETATM   19  N   UNL     1      -9.131  13.231  67.946  1.00  0.00    -0.194 N  
HETATM   20  C   UNL     1     -10.104  11.940  66.145  1.00  0.00    -0.228 A  
HETATM   21  O   UNL     1      -7.841  14.436  69.408  1.00  0.00    -0.036 OA 
HETATM   22  C   UNL     1     -10.193  13.191  66.936  1.00  0.00    -0.245 C  
HETATM   23  C   UNL     1      -8.538  10.841  67.730  1.00  0.00    -0.127 C  
HETATM   24  N   UNL     1     -10.687  11.671  65.003  1.00  0.00    -0.288 NA 
HETATM   25  N   UNL     1     -10.274  10.425  64.605  1.00  0.00    -0.312 NA 
HETATM   26  C   UNL     1      -9.441   9.946  65.515  1.00  0.00    -0.252 A  
HETATM   27  C   UNL     1      -8.717   8.650  65.458  1.00  0.00    -0.186 C  
HETATM   28  F   UNL     1      -7.940   8.439  66.554  1.00  0.00    -0.091 F  
HETATM   29  F   UNL     1      -9.565   7.594  65.383  1.00  0.00     0.147 F  
HETATM   30  F   UNL     1      -7.886   8.575  64.387  1.00  0.00    -0.109 F  
ENDBRANCH  15  16
ENDBRANCH   2  15
TORSDOF 4
ENDMDL
MODEL      235
REMARK 921   NORMALIZED FREE ENERGY PREDICTED BY IDOCK:   -4.27 KCAL/MOL
REMARK 922        TOTAL FREE ENERGY PREDICTED BY IDOCK:   -6.34 KCAL/MOL
REMARK 923 INTER-LIGAND FREE ENERGY PREDICTED BY IDOCK:   -6.26 KCAL/MOL
REMARK 924 INTRA-LIGAND FREE ENERGY PREDICTED BY IDOCK:   -0.08 KCAL/MOL
REMARK 927      BINDING AFFINITY PREDICTED BY RF-SCORE:    0.00 PKD
ROOT
HETATM    1  N   UNL     1     -10.990  10.964  66.297  1.00  0.00    -0.130 NA 
HETATM    2  C   UNL     1     -11.044  10.758  67.760  1.00  0.00    -0.318 C  
HETATM    3  H1  UNL     1     -11.575  11.768  66.067  1.00  0.00     0.000 HD 
HETATM    4  H2  UNL     1     -11.247  10.128  65.772  1.00  0.00     0.000 HD 
ENDROOT
BRANCH   2   5
HETATM    5  C   UNL     1     -10.606  12.053  68.486  1.00  0.00    -0.252 C  
BRANCH   5   6
HETATM    6  C   UNL     1     -11.499  12.414  69.653  1.00  0.00    -0.264 A  
HETATM    7  F   UNL     1     -11.432  14.714  69.067  1.00  0.00    -0.251 F  
HETATM    8  C   UNL     1     -11.884  13.742  69.874  1.00  0.00    -0.327 A  
HETATM    9  C   UNL     1     -12.733  14.088  70.919  1.00  0.00    -0.420 A  
HETATM   10  C   UNL     1     -11.967  11.423  70.532  1.00  0.00    -0.451 A  
HETATM   11  C   UNL     1     -12.825  11.767  71.571  1.00  0.00    -0.345 A  
HETATM   12  F   UNL     1     -14.037  13.414  72.761  1.00  0.00    -0.585 F  
HETATM   13  C   UNL     1     -13.207  13.090  71.761  1.00  0.00    -0.392 A  
HETATM   14  F   UNL     1     -13.284  10.808  72.389  1.00  0.00    -0.529 F  
ENDBRANCH   5   6
ENDBRANCH   2   5
BRANCH   2  15
HETATM   15  C   UNL     1     -10.166   9.551  68.106  1.00  0.00    -0.231 C  
BRANCH  15  16
HETATM   16  C   UNL     1      -9.159   9.156  67.034  1.00  0.00    -0.123 C  
HETATM   17  N   UNL     1      -8.766   5.130  66.411  1.00  0.00    -0.112 NA 
HETATM   18  C   UNL     1      -7.776   7.360  66.056  1.00  0.00    -0.095 C  
HETATM   19  N   UNL     1      -8.755   7.825  67.043  1.00  0.00    -0.127 N  
HETATM   20  C   UNL     1      -9.138   5.519  67.670  1.00  0.00    -0.107 A  
HETATM   21  O   UNL     1      -8.750   9.954  66.195  1.00  0.00    -0.132 OA 
HETATM   22  C   UNL     1      -9.005   6.912  68.163  1.00  0.00    -0.123 C  
HETATM   23  C   UNL     1      -8.216   6.036  65.423  1.00  0.00    -0.141 C  
HETATM   24  N   UNL     1      -9.627   4.486  68.312  1.00  0.00    -0.148 NA 
HETATM   25  N   UNL     1      -9.616   3.417  67.454  1.00  0.00    -0.171 NA 
HETATM   26  C   UNL     1      -9.117   3.811  66.294  1.00  0.00    -0.150 A  
HETATM   27  C   UNL     1      -8.973   2.988  65.066  1.00  0.00    -0.141 C  
HETATM   28  F   UNL     1      -8.414   3.681  64.036  1.00  0.00    -0.089 F  
HETATM   29  F   UNL     1      -8.183   1.904  65.267  1.00  0.00    -0.075 F  
HETATM   30  F   UNL     1     -10.169   2.535  64.610  1.00  0.00    -0.032 F  
ENDBRANCH  15  16
ENDBRANCH   2  15
TORSDOF 4
ENDMDL
MODEL      236
REMARK 921   NORMALIZED FREE ENERGY PREDICTED BY IDOCK:   -4.25 KCAL/MOL
REMARK 922        TOTAL FREE ENERGY PREDICTED BY IDOCK:   -6.31 KCAL/MOL
REMARK 923 INTER-LIGAND FREE ENERGY PREDICTED BY IDOCK:   -5.93 KCAL/MOL
REMARK 924 INTRA-LIGAND FREE ENERGY PREDICTED BY IDOCK:   -0.38 KCAL/MOL
REMARK 927      BINDING AFFINITY PREDICTED BY RF-SCORE:    0.00 PKD
ROOT
HETATM    1  N   UNL     1     -11.258  12.205  70.140  1.00  0.00    -0.406 NA 
HETATM    2  C   UNL     1     -11.521  10.752  70.064  1.00  0.00    -0.331 C  
HETATM    3  H1  UNL     1     -11.737  12.573  70.962  1.00  0.00     0.000 HD 
HETATM    4  H2  UNL     1     -11.513  12.696  69.283  1.00  0.00     0.000 HD 
ENDROOT
BRANCH   2   5
HETATM    5  C   UNL     1     -11.074  10.071  71.380  1.00  0.00    -0.055 C  
BRANCH   5   6
HETATM    6  C   UNL     1     -11.907   8.860  71.738  1.00  0.00    -0.429 A  
HETATM    7  F   UNL     1     -13.811  10.218  72.144  1.00  0.00    -0.378 F  
HETATM    8  C   UNL     1     -13.255   8.999  72.089  1.00  0.00    -0.446 A  
HETATM    9  C   UNL     1     -14.046   7.894  72.386  1.00  0.00    -0.086 A  
HETATM   10  C   UNL     1     -11.346   7.572  71.717  1.00  0.00    -0.289 A  
HETATM   11  C   UNL     1     -12.140   6.466  72.002  1.00  0.00    -0.303 A  
HETATM   12  F   UNL     1     -14.239   5.557  72.602  1.00  0.00     0.070 F  
HETATM   13  C   UNL     1     -13.481   6.626  72.332  1.00  0.00     0.434 A  
HETATM   14  F   UNL     1     -11.599   5.240  71.955  1.00  0.00    -0.174 F  
ENDBRANCH   5   6
ENDBRANCH   2   5
BRANCH   2  15
HETATM   15  C   UNL     1     -10.802  10.199  68.830  1.00  0.00    -0.259 C  
BRANCH  15  16
HETATM   16  C   UNL     1      -9.384  10.714  68.622  1.00  0.00    -0.177 C  
HETATM   17  N   UNL     1      -9.109  14.422  66.910  1.00  0.00    -0.241 NA 
HETATM   18  C   UNL     1      -7.918  12.338  67.476  1.00  0.00    -0.166 C  
HETATM   19  N   UNL     1      -9.250  11.787  67.747  1.00  0.00    -0.175 N  
HETATM   20  C   UNL     1     -10.211  13.679  66.581  1.00  0.00    -0.276 A  
HETATM   21  O   UNL     1      -8.421  10.234  69.214  1.00  0.00    -0.147 OA 
HETATM   22  C   UNL     1     -10.310  12.220  66.830  1.00  0.00    -0.216 C  
HETATM   23  C   UNL     1      -7.930  13.868  67.545  1.00  0.00    -0.179 C  
HETATM   24  N   UNL     1     -11.117  14.464  66.054  1.00  0.00    -0.318 NA 
HETATM   25  N   UNL     1     -10.625  15.744  66.074  1.00  0.00    -0.321 NA 
HETATM   26  C   UNL     1      -9.417  15.724  66.615  1.00  0.00    -0.257 A  
HETATM   27  C   UNL     1      -8.545  16.896  66.878  1.00  0.00    -0.214 C  
HETATM   28  F   UNL     1      -7.355  16.545  67.437  1.00  0.00    -0.130 F  
HETATM   29  F   UNL     1      -8.247  17.577  65.744  1.00  0.00    -0.223 F  
HETATM   30  F   UNL     1      -9.119  17.777  67.738  1.00  0.00    -0.238 F  
ENDBRANCH  15  16
ENDBRANCH   2  15
TORSDOF 4
ENDMDL
MODEL      237
REMARK 921   NORMALIZED FREE ENERGY PREDICTED BY IDOCK:   -4.24 KCAL/MOL
REMARK 922        TOTAL FREE ENERGY PREDICTED BY IDOCK:   -6.30 KCAL/MOL
REMARK 923 INTER-LIGAND FREE ENERGY PREDICTED BY IDOCK:   -5.64 KCAL/MOL
REMARK 924 INTRA-LIGAND FREE ENERGY PREDICTED BY IDOCK:   -0.66 KCAL/MOL
REMARK 927      BINDING AFFINITY PREDICTED BY RF-SCORE:    0.00 PKD
ROOT
HETATM    1  N   UNL     1      -9.127   8.720  71.612  1.00  0.00    -0.241 NA 
HETATM    2  C   UNL     1      -9.027   7.613  70.637  1.00  0.00    -0.153 C  
HETATM    3  H1  UNL     1      -8.556   8.481  72.424  1.00  0.00     0.000 HD 
HETATM    4  H2  UNL     1     -10.092   8.940  71.860  1.00  0.00     0.000 HD 
ENDROOT
BRANCH   2   5
HETATM    5  C   UNL     1      -7.541   7.363  70.282  1.00  0.00    -0.088 C  
BRANCH   5   6
HETATM    6  C   UNL     1      -6.869   8.562  69.650  1.00  0.00    -0.043 A  
HETATM    7  F   UNL     1      -6.539   7.378  67.618  1.00  0.00    -0.051 F  
HETATM    8  C   UNL     1      -6.413   8.510  68.327  1.00  0.00    -0.060 A  
HETATM    9  C   UNL     1      -5.825   9.613  67.717  1.00  0.00    -0.044 A  
HETATM   10  C   UNL     1      -6.697   9.753  70.374  1.00  0.00    -0.123 A  
HETATM   11  C   UNL     1      -6.120  10.860  69.761  1.00  0.00    -0.087 A  
HETATM   12  F   UNL     1      -5.139  11.861  67.856  1.00  0.00    -0.044 F  
HETATM   13  C   UNL     1      -5.690  10.791  68.440  1.00  0.00    -0.043 A  
HETATM   14  F   UNL     1      -5.983  11.999  70.456  1.00  0.00    -0.152 F  
ENDBRANCH   5   6
ENDBRANCH   2   5
BRANCH   2  15
HETATM   15  C   UNL     1      -9.882   7.970  69.418  1.00  0.00    -0.181 C  
BRANCH  15  16
HETATM   16  C   UNL     1     -10.752   9.211  69.579  1.00  0.00    -0.215 C  
HETATM   17  N   UNL     1     -11.004  11.603  66.268  1.00  0.00    -0.288 NA 
HETATM   18  C   UNL     1     -11.366  11.435  68.701  1.00  0.00    -0.265 C  
HETATM   19  N   UNL     1     -10.581  10.199  68.616  1.00  0.00    -0.200 N  
HETATM   20  C   UNL     1      -9.850  10.879  66.411  1.00  0.00    -0.207 A  
HETATM   21  O   UNL     1     -11.575   9.319  70.484  1.00  0.00    -0.267 OA 
HETATM   22  C   UNL     1      -9.449  10.234  67.685  1.00  0.00    -0.151 C  
HETATM   23  C   UNL     1     -11.959  11.807  67.339  1.00  0.00     0.026 C  
HETATM   24  N   UNL     1      -9.217  10.849  65.264  1.00  0.00    -0.206 NA 
HETATM   25  N   UNL     1      -9.981  11.524  64.347  1.00  0.00    -0.256 NA 
HETATM   26  C   UNL     1     -11.076  11.961  64.948  1.00  0.00    -0.307 A  
HETATM   27  C   UNL     1     -12.201  12.695  64.315  1.00  0.00    -0.445 C  
HETATM   28  F   UNL     1     -13.180  13.016  65.204  1.00  0.00    -0.469 F  
HETATM   29  F   UNL     1     -11.799  13.863  63.754  1.00  0.00    -0.420 F  
HETATM   30  F   UNL     1     -12.802  11.966  63.340  1.00  0.00    -0.660 F  
ENDBRANCH  15  16
ENDBRANCH   2  15
TORSDOF 4
ENDMDL
MODEL      238
REMARK 921   NORMALIZED FREE ENERGY PREDICTED BY IDOCK:   -4.20 KCAL/MOL
REMARK 922        TOTAL FREE ENERGY PREDICTED BY IDOCK:   -6.25 KCAL/MOL
REMARK 923 INTER-LIGAND FREE ENERGY PREDICTED BY IDOCK:   -5.30 KCAL/MOL
REMARK 924 INTRA-LIGAND FREE ENERGY PREDICTED BY IDOCK:   -0.95 KCAL/MOL
REMARK 927      BINDING AFFINITY PREDICTED BY RF-SCORE:    0.00 PKD
ROOT
HETATM    1  N   UNL     1      -8.924  13.894  69.315  1.00  0.00    -0.193 NA 
HETATM    2  C   UNL     1      -9.214  13.538  67.909  1.00  0.00    -0.211 C  
HETATM    3  H1  UNL     1      -9.554  14.648  69.589  1.00  0.00     0.000 HD 
HETATM    4  H2  UNL     1      -7.942  14.125  69.468  1.00  0.00     0.000 HD 
ENDROOT
BRANCH   2   5
HETATM    5  C   UNL     1     -10.709  13.164  67.764  1.00  0.00    -0.252 C  
BRANCH   5   6
HETATM    6  C   UNL     1     -11.240  13.361  66.361  1.00  0.00    -0.323 A  
HETATM    7  F   UNL     1     -10.771  15.687  66.449  1.00  0.00    -0.296 F  
HETATM    8  C   UNL     1     -11.225  14.628  65.764  1.00  0.00    -0.336 A  
HETATM    9  C   UNL     1     -11.675  14.823  64.462  1.00  0.00    -0.398 A  
HETATM   10  C   UNL     1     -11.748  12.277  65.626  1.00  0.00    -0.440 A  
HETATM   11  C   UNL     1     -12.188  12.469  64.320  1.00  0.00    -0.452 A  
HETATM   12  F   UNL     1     -12.569  13.910  62.484  1.00  0.00     0.140 F  
HETATM   13  C   UNL     1     -12.148  13.733  63.742  1.00  0.00    -0.336 A  
HETATM   14  F   UNL     1     -12.648  11.422  63.622  1.00  0.00    -0.408 F  
ENDBRANCH   5   6
ENDBRANCH   2   5
BRANCH   2  15
HETATM   15  C   UNL     1      -8.269  12.406  67.498  1.00  0.00    -0.173 C  
BRANCH  15  16
HETATM   16  C   UNL     1      -8.557  11.056  68.143  1.00  0.00    -0.140 C  
HETATM   17  N   UNL     1      -8.108   7.817  65.681  1.00  0.00    -0.121 NA 
HETATM   18  C   UNL     1      -9.048   8.661  67.799  1.00  0.00    -0.135 C  
HETATM   19  N   UNL     1      -8.750   9.994  67.266  1.00  0.00    -0.125 N  
HETATM   20  C   UNL     1      -8.460   8.996  65.080  1.00  0.00    -0.174 A  
HETATM   21  O   UNL     1      -8.585  10.907  69.361  1.00  0.00    -0.052 OA 
HETATM   22  C   UNL     1      -8.984  10.165  65.828  1.00  0.00    -0.160 C  
HETATM   23  C   UNL     1      -8.198   7.589  67.110  1.00  0.00    -0.114 C  
HETATM   24  N   UNL     1      -8.237   8.905  63.792  1.00  0.00    -0.168 NA 
HETATM   25  N   UNL     1      -7.694   7.670  63.548  1.00  0.00    -0.125 NA 
HETATM   26  C   UNL     1      -7.593   7.018  64.695  1.00  0.00    -0.106 A  
HETATM   27  C   UNL     1      -7.010   5.668  64.899  1.00  0.00    -0.056 C  
HETATM   28  F   UNL     1      -7.061   5.269  66.199  1.00  0.00    -0.065 F  
HETATM   29  F   UNL     1      -7.661   4.717  64.183  1.00  0.00    -0.065 F  
HETATM   30  F   UNL     1      -5.702   5.616  64.540  1.00  0.00    -0.018 F  
ENDBRANCH  15  16
ENDBRANCH   2  15
TORSDOF 4
ENDMDL
MODEL      239
REMARK 921   NORMALIZED FREE ENERGY PREDICTED BY IDOCK:   -4.20 KCAL/MOL
REMARK 922        TOTAL FREE ENERGY PREDICTED BY IDOCK:   -6.24 KCAL/MOL
REMARK 923 INTER-LIGAND FREE ENERGY PREDICTED BY IDOCK:   -5.68 KCAL/MOL
REMARK 924 INTRA-LIGAND FREE ENERGY PREDICTED BY IDOCK:   -0.57 KCAL/MOL
REMARK 927      BINDING AFFINITY PREDICTED BY RF-SCORE:    0.00 PKD
ROOT
HETATM    1  N   UNL     1     -10.466   9.402  69.548  1.00  0.00    -0.210 NA 
HETATM    2  C   UNL     1     -10.282  10.422  68.493  1.00  0.00    -0.173 C  
HETATM    3  H1  UNL     1     -10.087   9.774  70.419  1.00  0.00     0.000 HD 
HETATM    4  H2  UNL     1     -10.062   8.500  69.297  1.00  0.00     0.000 HD 
ENDROOT
BRANCH   2   5
HETATM    5  C   UNL     1     -10.950  11.749  68.927  1.00  0.00    -0.288 C  
BRANCH   5   6
HETATM    6  C   UNL     1     -10.945  12.803  67.842  1.00  0.00    -0.262 A  
HETATM    7  F   UNL     1      -8.633  13.222  68.179  1.00  0.00    -0.150 F  
HETATM    8  C   UNL     1      -9.765  13.480  67.509  1.00  0.00    -0.228 A  
HETATM    9  C   UNL     1      -9.733  14.426  66.491  1.00  0.00    -0.305 A  
HETATM   10  C   UNL     1     -12.121  13.116  67.140  1.00  0.00    -0.343 A  
HETATM   11  C   UNL     1     -12.087  14.054  66.113  1.00  0.00    -0.446 A  
HETATM   12  F   UNL     1     -10.873  15.600  64.797  1.00  0.00    -0.399 F  
HETATM   13  C   UNL     1     -10.900  14.702  65.789  1.00  0.00    -0.323 A  
HETATM   14  F   UNL     1     -13.211  14.327  65.435  1.00  0.00    -0.505 F  
ENDBRANCH   5   6
ENDBRANCH   2   5
BRANCH   2  15
HETATM   15  C   UNL     1     -10.850   9.865  67.185  1.00  0.00    -0.227 C  
BRANCH  15  16
HETATM   16  C   UNL     1      -9.892   9.888  66.001  1.00  0.00    -0.264 C  
HETATM   17  N   UNL     1      -8.299   6.261  64.975  1.00  0.00    -0.130 NA 
HETATM   18  C   UNL     1      -8.121   8.710  64.748  1.00  0.00    -0.149 C  
HETATM   19  N   UNL     1      -9.085   8.766  65.852  1.00  0.00    -0.207 N  
HETATM   20  C   UNL     1      -8.636   6.428  66.292  1.00  0.00    -0.140 A  
HETATM   21  O   UNL     1      -9.856  10.825  65.208  1.00  0.00    -0.235 OA 
HETATM   22  C   UNL     1      -8.904   7.755  66.899  1.00  0.00    -0.131 C  
HETATM   23  C   UNL     1      -8.180   7.356  64.033  1.00  0.00     0.053 C  
HETATM   24  N   UNL     1      -8.694   5.256  66.873  1.00  0.00    -0.112 NA 
HETATM   25  N   UNL     1      -8.434   4.303  65.922  1.00  0.00    -0.113 NA 
HETATM   26  C   UNL     1      -8.218   4.909  64.765  1.00  0.00    -0.126 A  
HETATM   27  C   UNL     1      -7.952   4.256  63.459  1.00  0.00    -0.085 C  
HETATM   28  F   UNL     1      -7.761   5.155  62.455  1.00  0.00    -0.053 F  
HETATM   29  F   UNL     1      -6.838   3.481  63.492  1.00  0.00    -0.038 F  
HETATM   30  F   UNL     1      -8.981   3.463  63.064  1.00  0.00    -0.091 F  
ENDBRANCH  15  16
ENDBRANCH   2  15
TORSDOF 4
ENDMDL
MODEL      240
REMARK 921   NORMALIZED FREE ENERGY PREDICTED BY IDOCK:   -4.18 KCAL/MOL
REMARK 922        TOTAL FREE ENERGY PREDICTED BY IDOCK:   -6.22 KCAL/MOL
REMARK 923 INTER-LIGAND FREE ENERGY PREDICTED BY IDOCK:   -5.29 KCAL/MOL
REMARK 924 INTRA-LIGAND FREE ENERGY PREDICTED BY IDOCK:   -0.94 KCAL/MOL
REMARK 927      BINDING AFFINITY PREDICTED BY RF-SCORE:    0.00 PKD
ROOT
HETATM    1  N   UNL     1     -12.046   5.808  72.765  1.00  0.00    -0.534 NA 
HETATM    2  C   UNL     1     -10.665   6.221  72.434  1.00  0.00    -0.225 C  
HETATM    3  H1  UNL     1     -12.307   6.249  73.647  1.00  0.00     0.000 HD 
HETATM    4  H2  UNL     1     -12.159   4.795  72.781  1.00  0.00     0.000 HD 
ENDROOT
BRANCH   2   5
HETATM    5  C   UNL     1     -10.578   7.767  72.390  1.00  0.00    -0.336 C  
BRANCH   5   6
HETATM    6  C   UNL     1      -9.222   8.276  71.957  1.00  0.00    -0.270 A  
HETATM    7  F   UNL     1     -10.145   9.225  69.986  1.00  0.00    -0.181 F  
HETATM    8  C   UNL     1      -9.079   9.004  70.769  1.00  0.00    -0.245 A  
HETATM    9  C   UNL     1      -7.847   9.512  70.372  1.00  0.00    -0.190 A  
HETATM   10  C   UNL     1      -8.081   8.038  72.741  1.00  0.00    -0.205 A  
HETATM   11  C   UNL     1      -6.850   8.556  72.350  1.00  0.00    -0.067 A  
HETATM   12  F   UNL     1      -5.549   9.788  70.808  1.00  0.00    -0.042 F  
HETATM   13  C   UNL     1      -6.735   9.290  71.176  1.00  0.00    -0.072 A  
HETATM   14  F   UNL     1      -5.774   8.341  73.120  1.00  0.00    -0.047 F  
ENDBRANCH   5   6
ENDBRANCH   2   5
BRANCH   2  15
HETATM   15  C   UNL     1     -10.272   5.561  71.110  1.00  0.00    -0.285 C  
BRANCH  15  16
HETATM   16  C   UNL     1     -11.036   6.056  69.888  1.00  0.00    -0.399 C  
HETATM   17  N   UNL     1      -9.585   4.767  66.285  1.00  0.00    -0.161 NA 
HETATM   18  C   UNL     1     -11.034   6.392  67.442  1.00  0.00    -0.376 C  
HETATM   19  N   UNL     1     -10.379   5.928  68.669  1.00  0.00    -0.192 N  
HETATM   20  C   UNL     1      -8.675   4.886  67.302  1.00  0.00    -0.103 A  
HETATM   21  O   UNL     1     -12.174   6.510  69.969  1.00  0.00    -0.174 OA 
HETATM   22  C   UNL     1      -8.946   5.641  68.549  1.00  0.00    -0.115 C  
HETATM   23  C   UNL     1     -10.910   5.353  66.323  1.00  0.00    -0.091 C  
HETATM   24  N   UNL     1      -7.589   4.225  66.986  1.00  0.00    -0.080 NA 
HETATM   25  N   UNL     1      -7.801   3.629  65.769  1.00  0.00    -0.092 NA 
HETATM   26  C   UNL     1      -9.018   3.937  65.354  1.00  0.00    -0.132 A  
HETATM   27  C   UNL     1      -9.677   3.462  64.111  1.00  0.00    -0.164 C  
HETATM   28  F   UNL     1     -10.933   3.966  63.961  1.00  0.00    -0.283 F  
HETATM   29  F   UNL     1      -8.989   3.819  62.998  1.00  0.00    -0.092 F  
HETATM   30  F   UNL     1      -9.809   2.111  64.086  1.00  0.00    -0.137 F  
ENDBRANCH  15  16
ENDBRANCH   2  15
TORSDOF 4
ENDMDL
MODEL      241
REMARK 921   NORMALIZED FREE ENERGY PREDICTED BY IDOCK:   -4.17 KCAL/MOL
REMARK 922        TOTAL FREE ENERGY PREDICTED BY IDOCK:   -6.22 KCAL/MOL
REMARK 923 INTER-LIGAND FREE ENERGY PREDICTED BY IDOCK:   -5.44 KCAL/MOL
REMARK 924 INTRA-LIGAND FREE ENERGY PREDICTED BY IDOCK:   -0.78 KCAL/MOL
REMARK 927      BINDING AFFINITY PREDICTED BY RF-SCORE:    0.00 PKD
ROOT
HETATM    1  N   UNL     1      -5.702   9.531  65.295  1.00  0.00    -0.057 NA 
HETATM    2  C   UNL     1      -6.472   9.055  66.464  1.00  0.00    -0.067 C  
HETATM    3  H1  UNL     1      -4.922   8.890  65.146  1.00  0.00     0.000 HD 
HETATM    4  H2  UNL     1      -5.401  10.501  65.391  1.00  0.00     0.000 HD 
ENDROOT
BRANCH   2   5
HETATM    5  C   UNL     1      -6.925   7.593  66.231  1.00  0.00    -0.066 C  
BRANCH   5   6
HETATM    6  C   UNL     1      -8.132   7.204  67.056  1.00  0.00    -0.117 A  
HETATM    7  F   UNL     1      -6.826   7.130  69.037  1.00  0.00    -0.052 F  
HETATM    8  C   UNL     1      -8.019   7.007  68.438  1.00  0.00    -0.123 A  
HETATM    9  C   UNL     1      -9.124   6.684  69.218  1.00  0.00    -0.138 A  
HETATM   10  C   UNL     1      -9.390   7.040  66.454  1.00  0.00    -0.182 A  
HETATM   11  C   UNL     1     -10.498   6.728  67.236  1.00  0.00    -0.282 A  
HETATM   12  F   UNL     1     -11.436   6.258  69.355  1.00  0.00    -0.435 F  
HETATM   13  C   UNL     1     -10.365   6.555  68.608  1.00  0.00    -0.191 A  
HETATM   14  F   UNL     1     -11.698   6.599  66.652  1.00  0.00    -0.233 F  
ENDBRANCH   5   6
ENDBRANCH   2   5
BRANCH   2  15
HETATM   15  C   UNL     1      -7.643  10.017  66.689  1.00  0.00    -0.104 C  
BRANCH  15  16
HETATM   16  C   UNL     1      -7.252  11.475  66.891  1.00  0.00    -0.137 C  
HETATM   17  N   UNL     1     -10.147  13.840  68.559  1.00  0.00    -0.233 NA 
HETATM   18  C   UNL     1      -8.020  13.784  67.313  1.00  0.00    -0.119 C  
HETATM   19  N   UNL     1      -8.303  12.357  67.123  1.00  0.00    -0.181 N  
HETATM   20  C   UNL     1     -10.583  12.770  67.822  1.00  0.00    -0.221 A  
HETATM   21  O   UNL     1      -6.082  11.846  66.881  1.00  0.00    -0.153 OA 
HETATM   22  C   UNL     1      -9.710  12.019  66.887  1.00  0.00    -0.203 C  
HETATM   23  C   UNL     1      -8.789  14.343  68.514  1.00  0.00    -0.182 C  
HETATM   24  N   UNL     1     -11.842  12.539  68.103  1.00  0.00    -0.341 NA 
HETATM   25  N   UNL     1     -12.228  13.438  69.064  1.00  0.00    -0.239 NA 
HETATM   26  C   UNL     1     -11.196  14.211  69.359  1.00  0.00    -0.255 A  
HETATM   27  C   UNL     1     -11.157  15.283  70.385  1.00  0.00    -0.298 C  
HETATM   28  F   UNL     1      -9.948  15.906  70.442  1.00  0.00    -0.179 F  
HETATM   29  F   UNL     1     -12.074  16.254  70.145  1.00  0.00    -0.275 F  
HETATM   30  F   UNL     1     -11.394  14.806  71.633  1.00  0.00    -0.376 F  
ENDBRANCH  15  16
ENDBRANCH   2  15
TORSDOF 4
ENDMDL
MODEL      242
REMARK 921   NORMALIZED FREE ENERGY PREDICTED BY IDOCK:   -4.17 KCAL/MOL
REMARK 922        TOTAL FREE ENERGY PREDICTED BY IDOCK:   -6.22 KCAL/MOL
REMARK 923 INTER-LIGAND FREE ENERGY PREDICTED BY IDOCK:   -5.91 KCAL/MOL
REMARK 924 INTRA-LIGAND FREE ENERGY PREDICTED BY IDOCK:   -0.31 KCAL/MOL
REMARK 927      BINDING AFFINITY PREDICTED BY RF-SCORE:    0.00 PKD
ROOT
HETATM    1  N   UNL     1      -9.926  10.178  68.499  1.00  0.00    -0.158 NA 
HETATM    2  C   UNL     1     -10.321  11.198  67.504  1.00  0.00    -0.196 C  
HETATM    3  H1  UNL     1     -10.303   9.278  68.200  1.00  0.00     0.000 HD 
HETATM    4  H2  UNL     1     -10.205  10.426  69.449  1.00  0.00     0.000 HD 
ENDROOT
BRANCH   2   5
HETATM    5  C   UNL     1      -9.833  10.773  66.098  1.00  0.00    -0.269 C  
BRANCH   5   6
HETATM    6  C   UNL     1      -8.700   9.771  66.138  1.00  0.00    -0.150 A  
HETATM    7  F   UNL     1      -7.097  11.507  66.368  1.00  0.00    -0.127 F  
HETATM    8  C   UNL     1      -7.375  10.197  66.291  1.00  0.00    -0.112 A  
HETATM    9  C   UNL     1      -6.324   9.290  66.367  1.00  0.00    -0.066 A  
HETATM   10  C   UNL     1      -8.955   8.394  66.033  1.00  0.00    -0.228 A  
HETATM   11  C   UNL     1      -7.906   7.485  66.119  1.00  0.00    -0.096 A  
HETATM   12  F   UNL     1      -5.595   7.050  66.375  1.00  0.00    -0.020 F  
HETATM   13  C   UNL     1      -6.600   7.931  66.288  1.00  0.00    -0.050 A  
HETATM   14  F   UNL     1      -8.166   6.172  66.041  1.00  0.00    -0.108 F  
ENDBRANCH   5   6
ENDBRANCH   2   5
BRANCH   2  15
HETATM   15  C   UNL     1      -9.756  12.549  67.953  1.00  0.00    -0.205 C  
BRANCH  15  16
HETATM   16  C   UNL     1     -10.780  13.523  68.521  1.00  0.00    -0.255 C  
HETATM   17  N   UNL     1     -10.016  17.477  67.792  1.00  0.00    -0.299 NA 
HETATM   18  C   UNL     1     -11.293  15.856  69.141  1.00  0.00    -0.366 C  
HETATM   19  N   UNL     1     -10.377  14.852  68.593  1.00  0.00    -0.231 N  
HETATM   20  C   UNL     1      -8.927  16.649  67.867  1.00  0.00    -0.217 A  
HETATM   21  O   UNL     1     -11.902  13.164  68.866  1.00  0.00    -0.300 OA 
HETATM   22  C   UNL     1      -8.983  15.284  68.444  1.00  0.00    -0.184 C  
HETATM   23  C   UNL     1     -11.337  17.105  68.256  1.00  0.00     0.197 C  
HETATM   24  N   UNL     1      -7.890  17.253  67.341  1.00  0.00    -0.178 NA 
HETATM   25  N   UNL     1      -8.309  18.474  66.877  1.00  0.00    -0.256 NA 
HETATM   26  C   UNL     1      -9.602  18.601  67.128  1.00  0.00    -0.298 A  
HETATM   27  C   UNL     1     -10.470  19.744  66.748  1.00  0.00    -0.489 C  
HETATM   28  F   UNL     1     -11.757  19.581  67.159  1.00  0.00    -0.162 F  
HETATM   29  F   UNL     1     -10.043  20.913  67.290  1.00  0.00    -0.580 F  
HETATM   30  F   UNL     1     -10.523  19.921  65.403  1.00  0.00    -0.508 F  
ENDBRANCH  15  16
ENDBRANCH   2  15
TORSDOF 4
ENDMDL
MODEL      243
REMARK 921   NORMALIZED FREE ENERGY PREDICTED BY IDOCK:   -4.16 KCAL/MOL
REMARK 922        TOTAL FREE ENERGY PREDICTED BY IDOCK:   -6.20 KCAL/MOL
REMARK 923 INTER-LIGAND FREE ENERGY PREDICTED BY IDOCK:   -5.59 KCAL/MOL
REMARK 924 INTRA-LIGAND FREE ENERGY PREDICTED BY IDOCK:   -0.60 KCAL/MOL
REMARK 927      BINDING AFFINITY PREDICTED BY RF-SCORE:    0.00 PKD
ROOT
HETATM    1  N   UNL     1      -8.297  14.062  68.886  1.00  0.00    -0.341 NA 
HETATM    2  C   UNL     1      -7.042  14.796  68.614  1.00  0.00    -0.112 C  
HETATM    3  H1  UNL     1      -9.066  14.732  68.878  1.00  0.00     0.000 HD 
HETATM    4  H2  UNL     1      -8.256  13.519  69.748  1.00  0.00     0.000 HD 
ENDROOT
BRANCH   2   5
HETATM    5  C   UNL     1      -7.165  15.563  67.275  1.00  0.00    -0.242 C  
BRANCH   5   6
HETATM    6  C   UNL     1      -8.221  16.645  67.302  1.00  0.00    -0.197 A  
HETATM    7  F   UNL     1      -9.345  15.674  65.450  1.00  0.00    -0.311 F  
HETATM    8  C   UNL     1      -9.280  16.632  66.386  1.00  0.00    -0.287 A  
HETATM    9  C   UNL     1     -10.280  17.598  66.418  1.00  0.00    -0.364 A  
HETATM   10  C   UNL     1      -8.167  17.678  68.252  1.00  0.00    -0.276 A  
HETATM   11  C   UNL     1      -9.173  18.638  68.292  1.00  0.00    -0.322 A  
HETATM   12  F   UNL     1     -11.191  19.520  67.430  1.00  0.00    -0.578 F  
HETATM   13  C   UNL     1     -10.224  18.595  67.383  1.00  0.00    -0.384 A  
HETATM   14  F   UNL     1      -9.121  19.605  69.220  1.00  0.00    -0.379 F  
ENDBRANCH   5   6
ENDBRANCH   2   5
BRANCH   2  15
HETATM   15  C   UNL     1      -5.887  13.790  68.625  1.00  0.00    -0.087 C  
BRANCH  15  16
HETATM   16  C   UNL     1      -6.164  12.479  67.902  1.00  0.00    -0.100 C  
HETATM   17  N   UNL     1      -6.761   9.240  70.331  1.00  0.00    -0.063 NA 
HETATM   18  C   UNL     1      -6.259  10.016  68.046  1.00  0.00    -0.053 C  
HETATM   19  N   UNL     1      -6.027  11.324  68.665  1.00  0.00    -0.043 N  
HETATM   20  C   UNL     1      -5.953  10.230  70.823  1.00  0.00    -0.086 A  
HETATM   21  O   UNL     1      -6.518  12.443  66.726  1.00  0.00    -0.094 OA 
HETATM   22  C   UNL     1      -5.364  11.294  69.973  1.00  0.00    -0.068 C  
HETATM   23  C   UNL     1      -7.138   9.132  68.936  1.00  0.00    -0.068 C  
HETATM   24  N   UNL     1      -5.824  10.077  72.118  1.00  0.00    -0.276 NA 
HETATM   25  N   UNL     1      -6.588   9.001  72.490  1.00  0.00    -0.307 NA 
HETATM   26  C   UNL     1      -7.176   8.507  71.412  1.00  0.00    -0.092 A  
HETATM   27  C   UNL     1      -8.133   7.373  71.366  1.00  0.00    -0.097 C  
HETATM   28  F   UNL     1      -8.556   7.098  70.102  1.00  0.00    -0.133 F  
HETATM   29  F   UNL     1      -7.589   6.225  71.843  1.00  0.00    -0.089 F  
HETATM   30  F   UNL     1      -9.253   7.618  72.093  1.00  0.00    -0.144 F  
ENDBRANCH  15  16
ENDBRANCH   2  15
TORSDOF 4
ENDMDL
MODEL      244
REMARK 921   NORMALIZED FREE ENERGY PREDICTED BY IDOCK:   -4.15 KCAL/MOL
REMARK 922        TOTAL FREE ENERGY PREDICTED BY IDOCK:   -6.18 KCAL/MOL
REMARK 923 INTER-LIGAND FREE ENERGY PREDICTED BY IDOCK:   -6.63 KCAL/MOL
REMARK 924 INTRA-LIGAND FREE ENERGY PREDICTED BY IDOCK:    0.44 KCAL/MOL
REMARK 927      BINDING AFFINITY PREDICTED BY RF-SCORE:    0.00 PKD
ROOT
HETATM    1  N   UNL     1     -11.823  15.138  68.285  1.00  0.00    -0.498 NA 
HETATM    2  C   UNL     1     -10.664  16.002  68.601  1.00  0.00    -0.281 C  
HETATM    3  H1  UNL     1     -12.374  15.599  67.561  1.00  0.00     0.000 HD 
HETATM    4  H2  UNL     1     -12.374  14.902  69.110  1.00  0.00     0.000 HD 
ENDROOT
BRANCH   2   5
HETATM    5  C   UNL     1      -9.857  16.285  67.311  1.00  0.00    -0.243 C  
BRANCH   5   6
HETATM    6  C   UNL     1      -9.187  17.642  67.312  1.00  0.00    -0.241 A  
HETATM    7  F   UNL     1     -11.259  18.726  67.725  1.00  0.00    -0.366 F  
HETATM    8  C   UNL     1      -9.933  18.805  67.540  1.00  0.00    -0.338 A  
HETATM    9  C   UNL     1      -9.330  20.058  67.580  1.00  0.00    -0.476 A  
HETATM   10  C   UNL     1      -7.805  17.760  67.094  1.00  0.00    -0.229 A  
HETATM   11  C   UNL     1      -7.200  19.012  67.146  1.00  0.00    -0.208 A  
HETATM   12  F   UNL     1      -7.368  21.352  67.443  1.00  0.00    -0.421 F  
HETATM   13  C   UNL     1      -7.957  20.152  67.390  1.00  0.00    -0.322 A  
HETATM   14  F   UNL     1      -5.875  19.109  66.960  1.00  0.00    -0.163 F  
ENDBRANCH   5   6
ENDBRANCH   2   5
BRANCH   2  15
HETATM   15  C   UNL     1      -9.835  15.310  69.688  1.00  0.00    -0.224 C  
BRANCH  15  16
HETATM   16  C   UNL     1      -8.661  14.485  69.179  1.00  0.00     0.031 C  
HETATM   17  N   UNL     1      -9.563  11.820  66.206  1.00  0.00    -0.220 NA 
HETATM   18  C   UNL     1      -7.923  12.493  67.920  1.00  0.00    -0.157 C  
HETATM   19  N   UNL     1      -8.990  13.355  68.437  1.00  0.00    -0.169 N  
HETATM   20  C   UNL     1     -10.571  12.119  67.083  1.00  0.00    -0.226 A  
HETATM   21  O   UNL     1      -7.495  14.811  69.382  1.00  0.00    -0.163 OA 
HETATM   22  C   UNL     1     -10.341  12.785  68.388  1.00  0.00    -0.243 C  
HETATM   23  C   UNL     1      -8.169  12.130  66.452  1.00  0.00     0.163 C  
HETATM   24  N   UNL     1     -11.716  11.745  66.566  1.00  0.00    -0.528 NA 
HETATM   25  N   UNL     1     -11.464  11.232  65.319  1.00  0.00     0.079 NA 
HETATM   26  C   UNL     1     -10.163  11.299  65.090  1.00  0.00    -0.289 A  
HETATM   27  C   UNL     1      -9.462  10.902  63.843  1.00  0.00    -0.261 C  
HETATM   28  F   UNL     1      -8.116  11.083  63.921  1.00  0.00     0.010 F  
HETATM   29  F   UNL     1      -9.653   9.592  63.543  1.00  0.00    -0.278 F  
HETATM   30  F   UNL     1      -9.877  11.623  62.770  1.00  0.00    -0.365 F  
ENDBRANCH  15  16
ENDBRANCH   2  15
TORSDOF 4
ENDMDL
MODEL      245
REMARK 921   NORMALIZED FREE ENERGY PREDICTED BY IDOCK:   -4.13 KCAL/MOL
REMARK 922        TOTAL FREE ENERGY PREDICTED BY IDOCK:   -6.16 KCAL/MOL
REMARK 923 INTER-LIGAND FREE ENERGY PREDICTED BY IDOCK:   -5.44 KCAL/MOL
REMARK 924 INTRA-LIGAND FREE ENERGY PREDICTED BY IDOCK:   -0.72 KCAL/MOL
REMARK 927      BINDING AFFINITY PREDICTED BY RF-SCORE:    0.00 PKD
ROOT
HETATM    1  N   UNL     1     -11.261  13.087  63.581  1.00  0.00    -0.583 NA 
HETATM    2  C   UNL     1     -11.331  13.277  65.046  1.00  0.00    -0.305 C  
HETATM    3  H1  UNL     1     -11.228  14.007  63.142  1.00  0.00     0.000 HD 
HETATM    4  H2  UNL     1     -12.020  12.507  63.224  1.00  0.00     0.000 HD 
ENDROOT
BRANCH   2   5
HETATM    5  C   UNL     1     -10.130  14.131  65.519  1.00  0.00    -0.360 C  
BRANCH   5   6
HETATM    6  C   UNL     1     -10.185  14.475  66.992  1.00  0.00    -0.262 A  
HETATM    7  F   UNL     1      -8.007  13.595  67.338  1.00  0.00    -0.147 F  
HETATM    8  C   UNL     1      -9.098  14.201  67.830  1.00  0.00    -0.189 A  
HETATM    9  C   UNL     1      -9.116  14.542  69.178  1.00  0.00     0.025 A  
HETATM   10  C   UNL     1     -11.324  15.085  67.544  1.00  0.00    -0.340 A  
HETATM   11  C   UNL     1     -11.338  15.437  68.890  1.00  0.00    -0.314 A  
HETATM   12  F   UNL     1     -10.259  15.515  70.993  1.00  0.00    -0.161 F  
HETATM   13  C   UNL     1     -10.240  15.170  69.700  1.00  0.00    -0.208 A  
HETATM   14  F   UNL     1     -12.422  16.041  69.399  1.00  0.00    -0.281 F  
ENDBRANCH   5   6
ENDBRANCH   2   5
BRANCH   2  15
HETATM   15  C   UNL     1     -11.381  11.895  65.706  1.00  0.00    -0.354 C  
BRANCH  15  16
HETATM   16  C   UNL     1     -10.503  10.835  65.054  1.00  0.00    -0.237 C  
HETATM   17  N   UNL     1      -8.422   8.455  67.653  1.00  0.00    -0.129 NA 
HETATM   18  C   UNL     1      -8.641   9.237  65.325  1.00  0.00    -0.166 C  
HETATM   19  N   UNL     1      -9.540  10.257  65.874  1.00  0.00    -0.195 N  
HETATM   20  C   UNL     1      -8.710   9.723  68.084  1.00  0.00    -0.119 A  
HETATM   21  O   UNL     1     -10.656  10.488  63.886  1.00  0.00    -0.100 OA 
HETATM   22  C   UNL     1      -9.148  10.810  67.174  1.00  0.00    -0.144 C  
HETATM   23  C   UNL     1      -8.526   8.037  66.270  1.00  0.00    -0.133 C  
HETATM   24  N   UNL     1      -8.553   9.781  69.383  1.00  0.00    -0.151 NA 
HETATM   25  N   UNL     1      -8.199   8.530  69.819  1.00  0.00    -0.119 NA 
HETATM   26  C   UNL     1      -8.143   7.720  68.775  1.00  0.00    -0.126 A  
HETATM   27  C   UNL     1      -7.849   6.264  68.798  1.00  0.00    -0.101 C  
HETATM   28  F   UNL     1      -7.855   5.711  67.554  1.00  0.00    -0.096 F  
HETATM   29  F   UNL     1      -6.629   5.997  69.327  1.00  0.00    -0.042 F  
HETATM   30  F   UNL     1      -8.762   5.570  69.523  1.00  0.00    -0.101 F  
ENDBRANCH  15  16
ENDBRANCH   2  15
TORSDOF 4
ENDMDL
MODEL      246
REMARK 921   NORMALIZED FREE ENERGY PREDICTED BY IDOCK:   -4.11 KCAL/MOL
REMARK 922        TOTAL FREE ENERGY PREDICTED BY IDOCK:   -6.14 KCAL/MOL
REMARK 923 INTER-LIGAND FREE ENERGY PREDICTED BY IDOCK:   -5.20 KCAL/MOL
REMARK 924 INTRA-LIGAND FREE ENERGY PREDICTED BY IDOCK:   -0.94 KCAL/MOL
REMARK 927      BINDING AFFINITY PREDICTED BY RF-SCORE:    0.00 PKD
ROOT
HETATM    1  N   UNL     1     -12.639   6.098  72.544  1.00  0.00    -0.514 NA 
HETATM    2  C   UNL     1     -11.379   6.545  71.913  1.00  0.00    -0.285 C  
HETATM    3  H1  UNL     1     -12.485   6.031  73.551  1.00  0.00     0.000 HD 
HETATM    4  H2  UNL     1     -12.995   5.231  72.141  1.00  0.00     0.000 HD 
ENDROOT
BRANCH   2   5
HETATM    5  C   UNL     1     -10.922   7.881  72.547  1.00  0.00    -0.412 C  
BRANCH   5   6
HETATM    6  C   UNL     1      -9.442   8.145  72.384  1.00  0.00    -0.319 A  
HETATM    7  F   UNL     1      -9.834   9.487  70.466  1.00  0.00    -0.248 F  
HETATM    8  C   UNL     1      -8.972   8.960  71.347  1.00  0.00    -0.229 A  
HETATM    9  C   UNL     1      -7.618   9.243  71.202  1.00  0.00    -0.045 A  
HETATM   10  C   UNL     1      -8.510   7.585  73.274  1.00  0.00    -0.181 A  
HETATM   11  C   UNL     1      -7.157   7.877  73.136  1.00  0.00    -0.094 A  
HETATM   12  F   UNL     1      -5.412   8.982  71.985  1.00  0.00    -0.041 F  
HETATM   13  C   UNL     1      -6.715   8.703  72.109  1.00  0.00    -0.060 A  
HETATM   14  F   UNL     1      -6.281   7.355  74.007  1.00  0.00    -0.072 F  
ENDBRANCH   5   6
ENDBRANCH   2   5
BRANCH   2  15
HETATM   15  C   UNL     1     -11.609   6.646  70.403  1.00  0.00    -0.457 C  
BRANCH  15  16
HETATM   16  C   UNL     1     -10.771   5.699  69.555  1.00  0.00    -0.310 C  
HETATM   17  N   UNL     1      -8.925   7.416  66.331  1.00  0.00    -0.157 NA 
HETATM   18  C   UNL     1      -9.632   5.309  67.399  1.00  0.00    -0.134 C  
HETATM   19  N   UNL     1     -10.425   6.162  68.290  1.00  0.00    -0.205 N  
HETATM   20  C   UNL     1     -10.097   7.993  66.741  1.00  0.00    -0.287 A  
HETATM   21  O   UNL     1     -10.395   4.607  69.972  1.00  0.00    -0.205 OA 
HETATM   22  C   UNL     1     -11.056   7.324  67.654  1.00  0.00    -0.001 C  
HETATM   23  C   UNL     1      -8.490   6.099  66.752  1.00  0.00    -0.111 C  
HETATM   24  N   UNL     1     -10.193   9.191  66.218  1.00  0.00    -0.248 NA 
HETATM   25  N   UNL     1      -9.053   9.422  65.491  1.00  0.00    -0.202 NA 
HETATM   26  C   UNL     1      -8.273   8.357  65.577  1.00  0.00    -0.140 A  
HETATM   27  C   UNL     1      -6.921   8.199  64.985  1.00  0.00    -0.070 C  
HETATM   28  F   UNL     1      -6.377   6.978  65.245  1.00  0.00    -0.034 F  
HETATM   29  F   UNL     1      -6.935   8.329  63.635  1.00  0.00    -0.079 F  
HETATM   30  F   UNL     1      -6.041   9.113  65.468  1.00  0.00    -0.055 F  
ENDBRANCH  15  16
ENDBRANCH   2  15
TORSDOF 4
ENDMDL
MODEL      247
REMARK 921   NORMALIZED FREE ENERGY PREDICTED BY IDOCK:   -4.10 KCAL/MOL
REMARK 922        TOTAL FREE ENERGY PREDICTED BY IDOCK:   -6.13 KCAL/MOL
REMARK 923 INTER-LIGAND FREE ENERGY PREDICTED BY IDOCK:   -5.44 KCAL/MOL
REMARK 924 INTRA-LIGAND FREE ENERGY PREDICTED BY IDOCK:   -0.69 KCAL/MOL
REMARK 927      BINDING AFFINITY PREDICTED BY RF-SCORE:    0.00 PKD
ROOT
HETATM    1  N   UNL     1      -6.658   8.468  66.646  1.00  0.00    -0.059 NA 
HETATM    2  C   UNL     1      -7.155   8.539  68.037  1.00  0.00    -0.086 C  
HETATM    3  H1  UNL     1      -6.092   7.625  66.552  1.00  0.00     0.000 HD 
HETATM    4  H2  UNL     1      -6.158   9.312  66.364  1.00  0.00     0.000 HD 
ENDROOT
BRANCH   2   5
HETATM    5  C   UNL     1      -7.933   7.245  68.379  1.00  0.00    -0.124 C  
BRANCH   5   6
HETATM    6  C   UNL     1      -8.671   7.323  69.697  1.00  0.00    -0.141 A  
HETATM    7  F   UNL     1      -6.627   7.374  70.904  1.00  0.00    -0.041 F  
HETATM    8  C   UNL     1      -7.968   7.403  70.905  1.00  0.00    -0.097 A  
HETATM    9  C   UNL     1      -8.628   7.512  72.124  1.00  0.00    -0.137 A  
HETATM   10  C   UNL     1     -10.075   7.328  69.734  1.00  0.00    -0.196 A  
HETATM   11  C   UNL     1     -10.736   7.448  70.952  1.00  0.00    -0.235 A  
HETATM   12  F   UNL     1     -10.659   7.662  73.306  1.00  0.00    -0.344 F  
HETATM   13  C   UNL     1     -10.017   7.543  72.138  1.00  0.00    -0.177 A  
HETATM   14  F   UNL     1     -12.077   7.475  70.972  1.00  0.00    -0.313 F  
ENDBRANCH   5   6
ENDBRANCH   2   5
BRANCH   2  15
HETATM   15  C   UNL     1      -8.004   9.805  68.178  1.00  0.00    -0.100 C  
BRANCH  15  16
HETATM   16  C   UNL     1      -7.225  11.113  68.155  1.00  0.00    -0.080 C  
HETATM   17  N   UNL     1      -9.508  14.496  67.848  1.00  0.00    -0.208 NA 
HETATM   18  C   UNL     1      -7.250  13.527  67.639  1.00  0.00    -0.168 C  
HETATM   19  N   UNL     1      -7.926  12.229  67.710  1.00  0.00    -0.141 N  
HETATM   20  C   UNL     1     -10.025  13.358  67.287  1.00  0.00    -0.232 A  
HETATM   21  O   UNL     1      -6.059  11.187  68.534  1.00  0.00    -0.043 OA 
HETATM   22  C   UNL     1      -9.213  12.148  67.010  1.00  0.00    -0.202 C  
HETATM   23  C   UNL     1      -8.120  14.636  68.240  1.00  0.00    -0.143 C  
HETATM   24  N   UNL     1     -11.307  13.528  67.074  1.00  0.00    -0.312 NA 
HETATM   25  N   UNL     1     -11.646  14.773  67.538  1.00  0.00    -0.358 NA 
HETATM   26  C   UNL     1     -10.562  15.352  68.029  1.00  0.00    -0.263 A  
HETATM   27  C   UNL     1     -10.487  16.684  68.680  1.00  0.00    -0.323 C  
HETATM   28  F   UNL     1      -9.223  17.002  69.072  1.00  0.00    -0.259 F  
HETATM   29  F   UNL     1     -10.891  17.681  67.854  1.00  0.00    -0.373 F  
HETATM   30  F   UNL     1     -11.256  16.751  69.797  1.00  0.00    -0.283 F  
ENDBRANCH  15  16
ENDBRANCH   2  15
TORSDOF 4
ENDMDL
MODEL      248
REMARK 921   NORMALIZED FREE ENERGY PREDICTED BY IDOCK:   -4.09 KCAL/MOL
REMARK 922        TOTAL FREE ENERGY PREDICTED BY IDOCK:   -6.11 KCAL/MOL
REMARK 923 INTER-LIGAND FREE ENERGY PREDICTED BY IDOCK:   -5.27 KCAL/MOL
REMARK 924 INTRA-LIGAND FREE ENERGY PREDICTED BY IDOCK:   -0.84 KCAL/MOL
REMARK 927      BINDING AFFINITY PREDICTED BY RF-SCORE:    0.00 PKD
ROOT
HETATM    1  N   UNL     1     -10.190   4.734  70.102  1.00  0.00    -0.236 NA 
HETATM    2  C   UNL     1     -10.229   5.610  68.911  1.00  0.00    -0.211 C  
HETATM    3  H1  UNL     1      -9.386   4.112  70.014  1.00  0.00     0.000 HD 
HETATM    4  H2  UNL     1     -11.065   4.230  70.248  1.00  0.00     0.000 HD 
ENDROOT
BRANCH   2   5
HETATM    5  C   UNL     1      -8.886   6.369  68.777  1.00  0.00    -0.124 C  
BRANCH   5   6
HETATM    6  C   UNL     1      -8.411   6.492  67.346  1.00  0.00    -0.120 A  
HETATM    7  F   UNL     1      -8.251   8.852  67.541  1.00  0.00    -0.106 F  
HETATM    8  C   UNL     1      -8.097   7.744  66.803  1.00  0.00    -0.115 A  
HETATM    9  C   UNL     1      -7.625   7.873  65.501  1.00  0.00    -0.083 A  
HETATM   10  C   UNL     1      -8.265   5.352  66.537  1.00  0.00    -0.109 A  
HETATM   11  C   UNL     1      -7.781   5.480  65.239  1.00  0.00    -0.090 A  
HETATM   12  F   UNL     1      -6.992   6.847  63.478  1.00  0.00    -0.048 F  
HETATM   13  C   UNL     1      -7.461   6.732  64.727  1.00  0.00    -0.096 A  
HETATM   14  F   UNL     1      -7.624   4.382  64.486  1.00  0.00    -0.068 F  
ENDBRANCH   5   6
ENDBRANCH   2   5
BRANCH   2  15
HETATM   15  C   UNL     1     -11.435   6.544  69.043  1.00  0.00    -0.195 C  
BRANCH  15  16
HETATM   16  C   UNL     1     -11.678   7.093  70.443  1.00  0.00    -0.230 C  
HETATM   17  N   UNL     1     -11.870  11.173  70.707  1.00  0.00    -0.290 NA 
HETATM   18  C   UNL     1     -11.596   9.055  71.940  1.00  0.00    -0.370 C  
HETATM   19  N   UNL     1     -11.405   8.446  70.620  1.00  0.00    -0.261 N  
HETATM   20  C   UNL     1     -11.094  10.663  69.699  1.00  0.00    -0.284 A  
HETATM   21  O   UNL     1     -12.116   6.394  71.353  1.00  0.00    -0.317 OA 
HETATM   22  C   UNL     1     -10.645   9.250  69.657  1.00  0.00    -0.229 C  
HETATM   23  C   UNL     1     -12.343  10.388  71.829  1.00  0.00    -0.217 C  
HETATM   24  N   UNL     1     -10.858  11.605  68.820  1.00  0.00    -0.211 NA 
HETATM   25  N   UNL     1     -11.518  12.735  69.229  1.00  0.00    -0.288 NA 
HETATM   26  C   UNL     1     -12.151  12.468  70.360  1.00  0.00    -0.297 A  
HETATM   27  C   UNL     1     -13.030  13.391  71.121  1.00  0.00    -0.236 C  
HETATM   28  F   UNL     1     -13.529  12.822  72.253  1.00  0.00    -0.569 F  
HETATM   29  F   UNL     1     -12.376  14.512  71.517  1.00  0.00    -0.354 F  
HETATM   30  F   UNL     1     -14.106  13.789  70.395  1.00  0.00     0.490 F  
ENDBRANCH  15  16
ENDBRANCH   2  15
TORSDOF 4
ENDMDL
MODEL      249
REMARK 921   NORMALIZED FREE ENERGY PREDICTED BY IDOCK:   -4.03 KCAL/MOL
REMARK 922        TOTAL FREE ENERGY PREDICTED BY IDOCK:   -6.04 KCAL/MOL
REMARK 923 INTER-LIGAND FREE ENERGY PREDICTED BY IDOCK:   -5.18 KCAL/MOL
REMARK 924 INTRA-LIGAND FREE ENERGY PREDICTED BY IDOCK:   -0.86 KCAL/MOL
REMARK 927      BINDING AFFINITY PREDICTED BY RF-SCORE:    0.00 PKD
ROOT
HETATM    1  N   UNL     1      -5.126  17.507  65.372  1.00  0.00    -0.175 NA 
HETATM    2  C   UNL     1      -6.511  17.304  65.848  1.00  0.00     0.112 C  
HETATM    3  H1  UNL     1      -5.159  17.702  64.370  1.00  0.00     0.000 HD 
HETATM    4  H2  UNL     1      -4.513  16.724  65.601  1.00  0.00     0.000 HD 
ENDROOT
BRANCH   2   5
HETATM    5  C   UNL     1      -7.370  18.545  65.500  1.00  0.00     0.050 C  
BRANCH   5   6
HETATM    6  C   UNL     1      -8.265  18.989  66.636  1.00  0.00    -0.301 A  
HETATM    7  F   UNL     1      -6.557  20.388  67.510  1.00  0.00    -0.232 F  
HETATM    8  C   UNL     1      -7.810  19.914  67.583  1.00  0.00    -0.290 A  
HETATM    9  C   UNL     1      -8.630  20.362  68.613  1.00  0.00     0.430 A  
HETATM   10  C   UNL     1      -9.572  18.490  66.756  1.00  0.00    -0.329 A  
HETATM   11  C   UNL     1     -10.397  18.946  67.780  1.00  0.00    -0.421 A  
HETATM   12  F   UNL     1     -10.729  20.316  69.679  1.00  0.00    -0.283 F  
HETATM   13  C   UNL     1      -9.929  19.878  68.699  1.00  0.00    -0.384 A  
HETATM   14  F   UNL     1     -11.651  18.480  67.870  1.00  0.00     0.098 F  
ENDBRANCH   5   6
ENDBRANCH   2   5
BRANCH   2  15
HETATM   15  C   UNL     1      -6.462  17.012  67.351  1.00  0.00    -0.177 C  
BRANCH  15  16
HETATM   16  C   UNL     1      -6.239  15.551  67.719  1.00  0.00    -0.157 C  
HETATM   17  N   UNL     1      -9.633  13.438  68.597  1.00  0.00    -0.124 NA 
HETATM   18  C   UNL     1      -7.173  13.511  68.750  1.00  0.00    -0.096 C  
HETATM   19  N   UNL     1      -7.305  14.915  68.347  1.00  0.00    -0.108 N  
HETATM   20  C   UNL     1      -9.668  14.783  68.855  1.00  0.00    -0.215 A  
HETATM   21  O   UNL     1      -5.196  14.961  67.450  1.00  0.00    -0.335 OA 
HETATM   22  C   UNL     1      -8.452  15.630  68.916  1.00  0.00    -0.213 C  
HETATM   23  C   UNL     1      -8.410  12.703  68.347  1.00  0.00    -0.125 C  
HETATM   24  N   UNL     1     -10.914  15.159  69.006  1.00  0.00    -0.232 NA 
HETATM   25  N   UNL     1     -11.710  14.061  68.805  1.00  0.00    -0.330 NA 
HETATM   26  C   UNL     1     -10.937  13.022  68.533  1.00  0.00    -0.263 A  
HETATM   27  C   UNL     1     -11.386  11.647  68.199  1.00  0.00    -0.292 C  
HETATM   28  F   UNL     1     -10.345  10.798  67.979  1.00  0.00    -0.179 F  
HETATM   29  F   UNL     1     -12.125  11.094  69.193  1.00  0.00    -0.350 F  
HETATM   30  F   UNL     1     -12.141  11.616  67.071  1.00  0.00    -0.256 F  
ENDBRANCH  15  16
ENDBRANCH   2  15
TORSDOF 4
ENDMDL
MODEL      250
REMARK 921   NORMALIZED FREE ENERGY PREDICTED BY IDOCK:   -4.00 KCAL/MOL
REMARK 922        TOTAL FREE ENERGY PREDICTED BY IDOCK:   -6.00 KCAL/MOL
REMARK 923 INTER-LIGAND FREE ENERGY PREDICTED BY IDOCK:   -5.56 KCAL/MOL
REMARK 924 INTRA-LIGAND FREE ENERGY PREDICTED BY IDOCK:   -0.44 KCAL/MOL
REMARK 927      BINDING AFFINITY PREDICTED BY RF-SCORE:    0.00 PKD
ROOT
HETATM    1  N   UNL     1     -12.292   5.788  72.763  1.00  0.00    -0.488 NA 
HETATM    2  C   UNL     1     -10.850   5.991  72.502  1.00  0.00    -0.247 C  
HETATM    3  H1  UNL     1     -12.466   5.981  73.750  1.00  0.00     0.000 HD 
HETATM    4  H2  UNL     1     -12.616   4.863  72.479  1.00  0.00     0.000 HD 
ENDROOT
BRANCH   2   5
HETATM    5  C   UNL     1     -10.441   7.424  72.921  1.00  0.00    -0.344 C  
BRANCH   5   6
HETATM    6  C   UNL     1     -10.965   8.492  71.986  1.00  0.00    -0.410 A  
HETATM    7  F   UNL     1      -8.796   8.850  71.088  1.00  0.00    -0.194 F  
HETATM    8  C   UNL     1     -10.104   9.144  71.094  1.00  0.00    -0.314 A  
HETATM    9  C   UNL     1     -10.573  10.102  70.202  1.00  0.00    -0.337 A  
HETATM   10  C   UNL     1     -12.325   8.843  71.987  1.00  0.00    -0.460 A  
HETATM   11  C   UNL     1     -12.796   9.793  71.087  1.00  0.00    -0.345 A  
HETATM   12  F   UNL     1     -12.388  11.326  69.333  1.00  0.00    -0.354 F  
HETATM   13  C   UNL     1     -11.927  10.416  70.199  1.00  0.00    -0.276 A  
HETATM   14  F   UNL     1     -14.101  10.102  71.082  1.00  0.00    -0.102 F  
ENDBRANCH   5   6
ENDBRANCH   2   5
BRANCH   2  15
HETATM   15  C   UNL     1     -10.587   5.702  71.021  1.00  0.00    -0.318 C  
BRANCH  15  16
HETATM   16  C   UNL     1      -9.129   5.451  70.660  1.00  0.00    -0.144 C  
HETATM   17  N   UNL     1      -8.398   4.855  66.677  1.00  0.00    -0.107 NA 
HETATM   18  C   UNL     1      -7.528   4.623  68.973  1.00  0.00    -0.056 C  
HETATM   19  N   UNL     1      -8.901   4.911  69.398  1.00  0.00    -0.090 N  
HETATM   20  C   UNL     1      -9.636   4.487  67.132  1.00  0.00    -0.186 A  
HETATM   21  O   UNL     1      -8.208   5.737  71.421  1.00  0.00    -0.122 OA 
HETATM   22  C   UNL     1      -9.956   4.318  68.570  1.00  0.00     0.047 C  
HETATM   23  C   UNL     1      -7.274   5.130  67.550  1.00  0.00    -0.071 C  
HETATM   24  N   UNL     1     -10.443   4.342  66.110  1.00  0.00    -0.164 NA 
HETATM   25  N   UNL     1      -9.742   4.658  64.975  1.00  0.00    -0.119 NA 
HETATM   26  C   UNL     1      -8.509   4.993  65.319  1.00  0.00    -0.141 A  
HETATM   27  C   UNL     1      -7.430   5.455  64.409  1.00  0.00    -0.067 C  
HETATM   28  F   UNL     1      -6.268   5.714  65.069  1.00  0.00    -0.026 F  
HETATM   29  F   UNL     1      -7.132   4.534  63.460  1.00  0.00    -0.041 F  
HETATM   30  F   UNL     1      -7.761   6.603  63.765  1.00  0.00    -0.085 F  
ENDBRANCH  15  16
ENDBRANCH   2  15
TORSDOF 4
ENDMDL
MODEL      251
REMARK 921   NORMALIZED FREE ENERGY PREDICTED BY IDOCK:   -3.98 KCAL/MOL
REMARK 922        TOTAL FREE ENERGY PREDICTED BY IDOCK:   -5.98 KCAL/MOL
REMARK 923 INTER-LIGAND FREE ENERGY PREDICTED BY IDOCK:   -5.41 KCAL/MOL
REMARK 924 INTRA-LIGAND FREE ENERGY PREDICTED BY IDOCK:   -0.57 KCAL/MOL
REMARK 927      BINDING AFFINITY PREDICTED BY RF-SCORE:    0.00 PKD
ROOT
HETATM    1  N   UNL     1      -8.022   6.586  66.832  1.00  0.00    -0.110 NA 
HETATM    2  C   UNL     1      -8.957   6.816  67.954  1.00  0.00    -0.113 C  
HETATM    3  H1  UNL     1      -7.208   6.088  67.193  1.00  0.00     0.000 HD 
HETATM    4  H2  UNL     1      -7.773   7.447  66.345  1.00  0.00     0.000 HD 
ENDROOT
BRANCH   2   5
HETATM    5  C   UNL     1      -9.318   5.465  68.619  1.00  0.00    -0.147 C  
BRANCH   5   6
HETATM    6  C   UNL     1      -8.488   5.164  69.847  1.00  0.00    -0.097 A  
HETATM    7  F   UNL     1      -6.819   4.107  68.531  1.00  0.00    -0.043 F  
HETATM    8  C   UNL     1      -7.257   4.507  69.733  1.00  0.00    -0.050 A  
HETATM    9  C   UNL     1      -6.463   4.254  70.847  1.00  0.00    -0.030 A  
HETATM   10  C   UNL     1      -8.932   5.546  71.124  1.00  0.00    -0.153 A  
HETATM   11  C   UNL     1      -8.133   5.303  72.237  1.00  0.00    -0.110 A  
HETATM   12  F   UNL     1      -6.141   4.437  73.173  1.00  0.00    -0.013 F  
HETATM   13  C   UNL     1      -6.906   4.664  72.098  1.00  0.00    -0.055 A  
HETATM   14  F   UNL     1      -8.557   5.694  73.448  1.00  0.00    -0.116 F  
ENDBRANCH   5   6
ENDBRANCH   2   5
BRANCH   2  15
HETATM   15  C   UNL     1     -10.180   7.563  67.413  1.00  0.00    -0.318 C  
BRANCH  15  16
HETATM   16  C   UNL     1     -10.512   8.865  68.130  1.00  0.00    -0.202 C  
HETATM   17  N   UNL     1     -10.622  12.190  65.746  1.00  0.00    -0.252 NA 
HETATM   18  C   UNL     1     -10.493  11.333  68.054  1.00  0.00    -0.188 C  
HETATM   19  N   UNL     1     -10.220  10.033  67.433  1.00  0.00    -0.205 N  
HETATM   20  C   UNL     1      -9.787  11.180  65.346  1.00  0.00    -0.242 A  
HETATM   21  O   UNL     1     -11.034   8.885  69.242  1.00  0.00    -0.144 OA 
HETATM   22  C   UNL     1      -9.371  10.071  66.238  1.00  0.00    -0.168 C  
HETATM   23  C   UNL     1     -11.197  12.276  67.073  1.00  0.00    -0.310 C  
HETATM   24  N   UNL     1      -9.462  11.363  64.090  1.00  0.00    -0.179 NA 
HETATM   25  N   UNL     1     -10.123  12.479  63.645  1.00  0.00    -0.374 NA 
HETATM   26  C   UNL     1     -10.845  12.968  64.640  1.00  0.00    -0.354 A  
HETATM   27  C   UNL     1     -11.755  14.139  64.581  1.00  0.00    -0.417 C  
HETATM   28  F   UNL     1     -12.350  14.397  65.778  1.00  0.00    -0.392 F  
HETATM   29  F   UNL     1     -11.104  15.276  64.227  1.00  0.00    -0.287 F  
HETATM   30  F   UNL     1     -12.764  13.960  63.690  1.00  0.00    -0.342 F  
ENDBRANCH  15  16
ENDBRANCH   2  15
TORSDOF 4
ENDMDL
MODEL      252
REMARK 921   NORMALIZED FREE ENERGY PREDICTED BY IDOCK:   -3.96 KCAL/MOL
REMARK 922        TOTAL FREE ENERGY PREDICTED BY IDOCK:   -5.96 KCAL/MOL
REMARK 923 INTER-LIGAND FREE ENERGY PREDICTED BY IDOCK:   -6.05 KCAL/MOL
REMARK 924 INTRA-LIGAND FREE ENERGY PREDICTED BY IDOCK:    0.09 KCAL/MOL
REMARK 927      BINDING AFFINITY PREDICTED BY RF-SCORE:    0.00 PKD
ROOT
HETATM    1  N   UNL     1     -10.305   8.334  68.128  1.00  0.00    -0.234 NA 
HETATM    2  C   UNL     1      -9.522   9.501  67.667  1.00  0.00    -0.131 C  
HETATM    3  H1  UNL     1      -9.742   7.495  67.984  1.00  0.00     0.000 HD 
HETATM    4  H2  UNL     1     -11.221   8.275  67.683  1.00  0.00     0.000 HD 
ENDROOT
BRANCH   2   5
HETATM    5  C   UNL     1      -8.165   9.545  68.412  1.00  0.00    -0.113 C  
BRANCH   5   6
HETATM    6  C   UNL     1      -7.933   8.344  69.302  1.00  0.00    -0.113 A  
HETATM    7  F   UNL     1      -9.522   9.133  70.879  1.00  0.00    -0.237 F  
HETATM    8  C   UNL     1      -8.648   8.192  70.496  1.00  0.00    -0.130 A  
HETATM    9  C   UNL     1      -8.475   7.077  71.309  1.00  0.00    -0.118 A  
HETATM   10  C   UNL     1      -7.004   7.353  68.942  1.00  0.00    -0.078 A  
HETATM   11  C   UNL     1      -6.839   6.232  69.749  1.00  0.00    -0.065 A  
HETATM   12  F   UNL     1      -7.410   5.011  71.692  1.00  0.00    -0.064 F  
HETATM   13  C   UNL     1      -7.572   6.094  70.923  1.00  0.00    -0.097 A  
HETATM   14  F   UNL     1      -5.966   5.282  69.383  1.00  0.00    -0.016 F  
ENDBRANCH   5   6
ENDBRANCH   2   5
BRANCH   2  15
HETATM   15  C   UNL     1     -10.366  10.760  67.883  1.00  0.00    -0.216 C  
BRANCH  15  16
HETATM   16  C   UNL     1     -10.556  11.631  66.648  1.00  0.00    -0.243 C  
HETATM   17  N   UNL     1     -11.101  15.618  67.394  1.00  0.00    -0.297 NA 
HETATM   18  C   UNL     1     -11.311  13.800  65.742  1.00  0.00    -0.304 C  
HETATM   19  N   UNL     1     -11.080  12.899  66.875  1.00  0.00    -0.270 N  
HETATM   20  C   UNL     1     -11.520  14.752  68.369  1.00  0.00    -0.314 A  
HETATM   21  O   UNL     1     -10.239  11.250  65.524  1.00  0.00    -0.239 OA 
HETATM   22  C   UNL     1     -11.710  13.299  68.138  1.00  0.00    -0.362 C  
HETATM   23  C   UNL     1     -10.787  15.208  66.040  1.00  0.00    -0.335 C  
HETATM   24  N   UNL     1     -11.691  15.414  69.487  1.00  0.00    -0.325 NA 
HETATM   25  N   UNL     1     -11.341  16.720  69.257  1.00  0.00    -0.025 NA 
HETATM   26  C   UNL     1     -10.960  16.840  67.996  1.00  0.00    -0.296 A  
HETATM   27  C   UNL     1     -10.451  18.070  67.338  1.00  0.00    -0.387 C  
HETATM   28  F   UNL     1     -10.150  17.873  66.026  1.00  0.00    -0.320 F  
HETATM   29  F   UNL     1     -11.354  19.081  67.373  1.00  0.00    -0.441 F  
HETATM   30  F   UNL     1      -9.313  18.527  67.921  1.00  0.00    -0.276 F  
ENDBRANCH  15  16
ENDBRANCH   2  15
TORSDOF 4
ENDMDL
MODEL      253
REMARK 921   NORMALIZED FREE ENERGY PREDICTED BY IDOCK:   -3.94 KCAL/MOL
REMARK 922        TOTAL FREE ENERGY PREDICTED BY IDOCK:   -5.93 KCAL/MOL
REMARK 923 INTER-LIGAND FREE ENERGY PREDICTED BY IDOCK:   -5.31 KCAL/MOL
REMARK 924 INTRA-LIGAND FREE ENERGY PREDICTED BY IDOCK:   -0.62 KCAL/MOL
REMARK 927      BINDING AFFINITY PREDICTED BY RF-SCORE:    0.00 PKD
ROOT
HETATM    1  N   UNL     1      -8.204  10.841  69.875  1.00  0.00    -0.261 NA 
HETATM    2  C   UNL     1      -8.588  10.837  68.447  1.00  0.00    -0.141 C  
HETATM    3  H1  UNL     1      -7.321  11.345  69.966  1.00  0.00     0.000 HD 
HETATM    4  H2  UNL     1      -8.165   9.902  70.274  1.00  0.00     0.000 HD 
ENDROOT
BRANCH   2   5
HETATM    5  C   UNL     1      -8.664  12.292  67.924  1.00  0.00    -0.177 C  
BRANCH   5   6
HETATM    6  C   UNL     1      -9.904  12.568  67.102  1.00  0.00    -0.210 A  
HETATM    7  F   UNL     1     -11.008  13.512  68.980  1.00  0.00    -0.251 F  
HETATM    8  C   UNL     1     -11.019  13.187  67.679  1.00  0.00    -0.262 A  
HETATM    9  C   UNL     1     -12.154  13.481  66.931  1.00  0.00    -0.417 A  
HETATM   10  C   UNL     1      -9.958  12.215  65.743  1.00  0.00    -0.271 A  
HETATM   11  C   UNL     1     -11.089  12.519  64.993  1.00  0.00    -0.299 A  
HETATM   12  F   UNL     1     -13.261  13.444  64.853  1.00  0.00    -0.299 F  
HETATM   13  C   UNL     1     -12.178  13.151  65.582  1.00  0.00    -0.466 A  
HETATM   14  F   UNL     1     -11.118  12.199  63.691  1.00  0.00    -0.363 F  
ENDBRANCH   5   6
ENDBRANCH   2   5
BRANCH   2  15
HETATM   15  C   UNL     1      -9.913  10.082  68.310  1.00  0.00    -0.173 C  
BRANCH  15  16
HETATM   16  C   UNL     1     -10.019   8.807  69.137  1.00  0.00    -0.191 C  
HETATM   17  N   UNL     1      -8.527   5.441  67.349  1.00  0.00    -0.107 NA 
HETATM   18  C   UNL     1      -9.948   6.339  69.153  1.00  0.00    -0.150 C  
HETATM   19  N   UNL     1      -9.847   7.616  68.439  1.00  0.00    -0.162 N  
HETATM   20  C   UNL     1      -9.011   6.412  66.513  1.00  0.00    -0.145 A  
HETATM   21  O   UNL     1     -10.212   8.828  70.349  1.00  0.00    -0.186 OA 
HETATM   22  C   UNL     1      -9.876   7.524  66.976  1.00  0.00    -0.214 C  
HETATM   23  C   UNL     1      -8.798   5.402  68.772  1.00  0.00    -0.103 C  
HETATM   24  N   UNL     1      -8.569   6.193  65.299  1.00  0.00    -0.119 NA 
HETATM   25  N   UNL     1      -7.753   5.092  65.343  1.00  0.00    -0.085 NA 
HETATM   26  C   UNL     1      -7.707   4.649  66.589  1.00  0.00    -0.091 A  
HETATM   27  C   UNL     1      -6.902   3.509  67.095  1.00  0.00    -0.050 C  
HETATM   28  F   UNL     1      -7.079   3.296  68.427  1.00  0.00    -0.047 F  
HETATM   29  F   UNL     1      -7.220   2.344  66.478  1.00  0.00    -0.052 F  
HETATM   30  F   UNL     1      -5.570   3.706  66.919  1.00  0.00    -0.018 F  
ENDBRANCH  15  16
ENDBRANCH   2  15
TORSDOF 4
ENDMDL
MODEL      254
REMARK 921   NORMALIZED FREE ENERGY PREDICTED BY IDOCK:   -3.92 KCAL/MOL
REMARK 922        TOTAL FREE ENERGY PREDICTED BY IDOCK:   -5.90 KCAL/MOL
REMARK 923 INTER-LIGAND FREE ENERGY PREDICTED BY IDOCK:   -5.45 KCAL/MOL
REMARK 924 INTRA-LIGAND FREE ENERGY PREDICTED BY IDOCK:   -0.45 KCAL/MOL
REMARK 927      BINDING AFFINITY PREDICTED BY RF-SCORE:    0.00 PKD
ROOT
HETATM    1  N   UNL     1     -11.545   9.966  70.000  1.00  0.00    -0.389 NA 
HETATM    2  C   UNL     1     -10.775   8.893  69.332  1.00  0.00    -0.181 C  
HETATM    3  H1  UNL     1     -12.081   9.547  70.760  1.00  0.00     0.000 HD 
HETATM    4  H2  UNL     1     -12.128  10.493  69.350  1.00  0.00     0.000 HD 
ENDROOT
BRANCH   2   5
HETATM    5  C   UNL     1      -9.888   8.164  70.371  1.00  0.00    -0.188 C  
BRANCH   5   6
HETATM    6  C   UNL     1      -9.184   6.950  69.806  1.00  0.00    -0.147 A  
HETATM    7  F   UNL     1      -7.079   7.749  70.562  1.00  0.00    -0.045 F  
HETATM    8  C   UNL     1      -7.799   6.797  69.950  1.00  0.00    -0.115 A  
HETATM    9  C   UNL     1      -7.139   5.671  69.469  1.00  0.00    -0.064 A  
HETATM   10  C   UNL     1      -9.905   5.949  69.136  1.00  0.00    -0.199 A  
HETATM   11  C   UNL     1      -9.247   4.817  68.665  1.00  0.00    -0.124 A  
HETATM   12  F   UNL     1      -7.249   3.585  68.382  1.00  0.00    -0.049 F  
HETATM   13  C   UNL     1      -7.874   4.679  68.834  1.00  0.00    -0.071 A  
HETATM   14  F   UNL     1      -9.952   3.857  68.048  1.00  0.00    -0.192 F  
ENDBRANCH   5   6
ENDBRANCH   2   5
BRANCH   2  15
HETATM   15  C   UNL     1      -9.970   9.521  68.191  1.00  0.00    -0.191 C  
BRANCH  15  16
HETATM   16  C   UNL     1      -8.968  10.586  68.616  1.00  0.00    -0.162 C  
HETATM   17  N   UNL     1      -9.724  14.353  67.206  1.00  0.00    -0.229 NA 
HETATM   18  C   UNL     1      -8.056  12.846  68.218  1.00  0.00    -0.151 C  
HETATM   19  N   UNL     1      -8.997  11.771  67.888  1.00  0.00    -0.172 N  
HETATM   20  C   UNL     1     -10.164  13.312  66.431  1.00  0.00    -0.292 A  
HETATM   21  O   UNL     1      -8.202  10.423  69.562  1.00  0.00    -0.164 OA 
HETATM   22  C   UNL     1      -9.695  11.916  66.607  1.00  0.00    -0.205 C  
HETATM   23  C   UNL     1      -8.767  14.201  68.283  1.00  0.00    -0.181 C  
HETATM   24  N   UNL     1     -11.043  13.759  65.569  1.00  0.00    -0.294 NA 
HETATM   25  N   UNL     1     -11.216  15.099  65.805  1.00  0.00    -0.321 NA 
HETATM   26  C   UNL     1     -10.435  15.456  66.812  1.00  0.00    -0.299 A  
HETATM   27  C   UNL     1     -10.347  16.803  67.430  1.00  0.00    -0.302 C  
HETATM   28  F   UNL     1      -9.441  16.852  68.445  1.00  0.00    -0.226 F  
HETATM   29  F   UNL     1      -9.970  17.752  66.537  1.00  0.00    -0.284 F  
HETATM   30  F   UNL     1     -11.531  17.199  67.963  1.00  0.00    -0.215 F  
ENDBRANCH  15  16
ENDBRANCH   2  15
TORSDOF 4
ENDMDL
MODEL      255
REMARK 921   NORMALIZED FREE ENERGY PREDICTED BY IDOCK:   -3.83 KCAL/MOL
REMARK 922        TOTAL FREE ENERGY PREDICTED BY IDOCK:   -5.80 KCAL/MOL
REMARK 923 INTER-LIGAND FREE ENERGY PREDICTED BY IDOCK:   -4.98 KCAL/MOL
REMARK 924 INTRA-LIGAND FREE ENERGY PREDICTED BY IDOCK:   -0.82 KCAL/MOL
REMARK 927      BINDING AFFINITY PREDICTED BY RF-SCORE:    0.00 PKD
ROOT
HETATM    1  N   UNL     1      -7.298   8.896  71.917  1.00  0.00    -0.314 NA 
HETATM    2  C   UNL     1      -8.219   7.754  71.738  1.00  0.00    -0.111 C  
HETATM    3  H1  UNL     1      -6.940   8.870  72.873  1.00  0.00     0.000 HD 
HETATM    4  H2  UNL     1      -7.729   9.790  71.682  1.00  0.00     0.000 HD 
ENDROOT
BRANCH   2   5
HETATM    5  C   UNL     1      -7.485   6.433  72.075  1.00  0.00    -0.093 C  
BRANCH   5   6
HETATM    6  C   UNL     1      -8.410   5.238  72.149  1.00  0.00    -0.125 A  
HETATM    7  F   UNL     1      -7.648   4.445  70.045  1.00  0.00    -0.048 F  
HETATM    8  C   UNL     1      -8.429   4.285  71.124  1.00  0.00    -0.089 A  
HETATM    9  C   UNL     1      -9.246   3.162  71.191  1.00  0.00    -0.197 A  
HETATM   10  C   UNL     1      -9.261   5.056  73.252  1.00  0.00    -0.131 A  
HETATM   11  C   UNL     1     -10.070   3.927  73.326  1.00  0.00    -0.141 A  
HETATM   12  F   UNL     1     -10.838   1.899  72.382  1.00  0.00    -0.231 F  
HETATM   13  C   UNL     1     -10.060   2.985  72.303  1.00  0.00    -0.148 A  
HETATM   14  F   UNL     1     -10.860   3.753  74.395  1.00  0.00    -0.252 F  
ENDBRANCH   5   6
ENDBRANCH   2   5
BRANCH   2  15
HETATM   15  C   UNL     1      -8.756   7.792  70.304  1.00  0.00    -0.143 C  
BRANCH  15  16
HETATM   16  C   UNL     1      -8.030   8.750  69.367  1.00  0.00    -0.100 C  
HETATM   17  N   UNL     1     -10.017  12.235  68.557  1.00  0.00    -0.201 NA 
HETATM   18  C   UNL     1      -8.197  10.715  67.882  1.00  0.00    -0.112 C  
HETATM   19  N   UNL     1      -8.809   9.757  68.808  1.00  0.00    -0.125 N  
HETATM   20  C   UNL     1     -10.793  11.144  68.846  1.00  0.00    -0.216 A  
HETATM   21  O   UNL     1      -6.826   8.658  69.144  1.00  0.00    -0.053 OA 
HETATM   22  C   UNL     1     -10.275   9.753  68.833  1.00  0.00    -0.200 C  
HETATM   23  C   UNL     1      -8.610  12.151  68.221  1.00  0.00    -0.175 C  
HETATM   24  N   UNL     1     -12.005  11.544  69.141  1.00  0.00    -0.330 NA 
HETATM   25  N   UNL     1     -12.018  12.914  69.086  1.00  0.00    -0.287 NA 
HETATM   26  C   UNL     1     -10.808  13.336  68.756  1.00  0.00    -0.243 A  
HETATM   27  C   UNL     1     -10.364  14.747  68.636  1.00  0.00    -0.245 C  
HETATM   28  F   UNL     1      -9.057  14.853  68.271  1.00  0.00    -0.162 F  
HETATM   29  F   UNL     1     -11.076  15.431  67.706  1.00  0.00    -0.282 F  
HETATM   30  F   UNL     1     -10.483  15.422  69.808  1.00  0.00    -0.226 F  
ENDBRANCH  15  16
ENDBRANCH   2  15
TORSDOF 4
ENDMDL
MODEL      256
REMARK 921   NORMALIZED FREE ENERGY PREDICTED BY IDOCK:   -3.74 KCAL/MOL
REMARK 922        TOTAL FREE ENERGY PREDICTED BY IDOCK:   -5.68 KCAL/MOL
REMARK 923 INTER-LIGAND FREE ENERGY PREDICTED BY IDOCK:   -5.22 KCAL/MOL
REMARK 924 INTRA-LIGAND FREE ENERGY PREDICTED BY IDOCK:   -0.46 KCAL/MOL
REMARK 927      BINDING AFFINITY PREDICTED BY RF-SCORE:    0.00 PKD
ROOT
HETATM    1  N   UNL     1      -9.142   9.179  64.663  1.00  0.00    -0.428 NA 
HETATM    2  C   UNL     1      -9.372   8.962  66.108  1.00  0.00    -0.239 C  
HETATM    3  H1  UNL     1      -9.410  10.138  64.439  1.00  0.00     0.000 HD 
HETATM    4  H2  UNL     1      -9.618   8.490  64.081  1.00  0.00     0.000 HD 
ENDROOT
BRANCH   2   5
HETATM    5  C   UNL     1      -8.589  10.019  66.925  1.00  0.00    -0.128 C  
BRANCH   5   6
HETATM    6  C   UNL     1      -9.370  11.294  67.154  1.00  0.00    -0.172 A  
HETATM    7  F   UNL     1      -7.708  12.113  68.639  1.00  0.00    -0.116 F  
HETATM    8  C   UNL     1      -8.871  12.295  67.997  1.00  0.00    -0.182 A  
HETATM    9  C   UNL     1      -9.556  13.489  68.191  1.00  0.00    -0.215 A  
HETATM   10  C   UNL     1     -10.604  11.504  66.518  1.00  0.00    -0.301 A  
HETATM   11  C   UNL     1     -11.285  12.703  66.703  1.00  0.00    -0.300 A  
HETATM   12  F   UNL     1     -11.420  14.843  67.701  1.00  0.00    -0.305 F  
HETATM   13  C   UNL     1     -10.762  13.690  67.531  1.00  0.00    -0.259 A  
HETATM   14  F   UNL     1     -12.451  12.901  66.071  1.00  0.00    -0.476 F  
ENDBRANCH   5   6
ENDBRANCH   2   5
BRANCH   2  15
HETATM   15  C   UNL     1      -8.969   7.524  66.446  1.00  0.00    -0.196 C  
BRANCH  15  16
HETATM   16  C   UNL     1     -10.094   6.645  66.978  1.00  0.00    -0.187 C  
HETATM   17  N   UNL     1      -9.905   5.804  70.979  1.00  0.00    -0.173 NA 
HETATM   18  C   UNL     1     -10.897   5.193  68.806  1.00  0.00     0.390 C  
HETATM   19  N   UNL     1      -9.874   6.067  68.223  1.00  0.00    -0.127 N  
HETATM   20  C   UNL     1      -8.711   6.031  70.346  1.00  0.00    -0.144 A  
HETATM   21  O   UNL     1     -11.143   6.481  66.361  1.00  0.00     0.002 OA 
HETATM   22  C   UNL     1      -8.559   6.017  68.871  1.00  0.00    -0.116 C  
HETATM   23  C   UNL     1     -11.145   5.538  70.277  1.00  0.00    -0.007 C  
HETATM   24  N   UNL     1      -7.788   6.271  71.244  1.00  0.00    -0.106 NA 
HETATM   25  N   UNL     1      -8.386   6.243  72.478  1.00  0.00    -0.114 NA 
HETATM   26  C   UNL     1      -9.674   5.984  72.317  1.00  0.00    -0.156 A  
HETATM   27  C   UNL     1     -10.703   5.916  73.385  1.00  0.00    -0.267 C  
HETATM   28  F   UNL     1     -11.939   5.620  72.899  1.00  0.00    -0.296 F  
HETATM   29  F   UNL     1     -10.420   4.964  74.308  1.00  0.00    -0.224 F  
HETATM   30  F   UNL     1     -10.832   7.093  74.048  1.00  0.00    -0.379 F  
ENDBRANCH  15  16
ENDBRANCH   2  15
TORSDOF 4
ENDMDL
MODEL      257
REMARK 921   NORMALIZED FREE ENERGY PREDICTED BY IDOCK:   -3.65 KCAL/MOL
REMARK 922        TOTAL FREE ENERGY PREDICTED BY IDOCK:   -5.57 KCAL/MOL
REMARK 923 INTER-LIGAND FREE ENERGY PREDICTED BY IDOCK:   -4.95 KCAL/MOL
REMARK 924 INTRA-LIGAND FREE ENERGY PREDICTED BY IDOCK:   -0.62 KCAL/MOL
REMARK 927      BINDING AFFINITY PREDICTED BY RF-SCORE:    0.00 PKD
ROOT
HETATM    1  N   UNL     1      -6.988  15.709  66.561  1.00  0.00    -0.061 NA 
HETATM    2  C   UNL     1      -7.712  15.416  67.817  1.00  0.00    -0.145 C  
HETATM    3  H1  UNL     1      -6.050  16.029  66.801  1.00  0.00     0.000 HD 
HETATM    4  H2  UNL     1      -7.488  16.368  65.964  1.00  0.00     0.000 HD 
ENDROOT
BRANCH   2   5
HETATM    5  C   UNL     1      -6.914  14.384  68.650  1.00  0.00    -0.102 C  
BRANCH   5   6
HETATM    6  C   UNL     1      -6.943  12.991  68.061  1.00  0.00    -0.112 A  
HETATM    7  F   UNL     1      -8.796  12.393  69.419  1.00  0.00     0.429 F  
HETATM    8  C   UNL     1      -7.908  12.062  68.470  1.00  0.00    -0.129 A  
HETATM    9  C   UNL     1      -7.973  10.790  67.914  1.00  0.00    -0.110 A  
HETATM   10  C   UNL     1      -6.009  12.605  67.085  1.00  0.00     0.036 A  
HETATM   11  C   UNL     1      -6.081  11.336  66.520  1.00  0.00    -0.139 A  
HETATM   12  F   UNL     1      -7.124   9.218  66.380  1.00  0.00    -0.082 F  
HETATM   13  C   UNL     1      -7.058  10.436  66.930  1.00  0.00    -0.094 A  
HETATM   14  F   UNL     1      -5.199  10.988  65.572  1.00  0.00    -0.110 F  
ENDBRANCH   5   6
ENDBRANCH   2   5
BRANCH   2  15
HETATM   15  C   UNL     1      -9.121  14.936  67.457  1.00  0.00    -0.186 C  
BRANCH  15  16
HETATM   16  C   UNL     1     -10.183  15.193  68.518  1.00  0.00    -0.231 C  
HETATM   17  N   UNL     1     -12.176  11.869  69.832  1.00  0.00    -0.238 NA 
HETATM   18  C   UNL     1     -12.162  14.332  69.716  1.00  0.00    -0.339 C  
HETATM   19  N   UNL     1     -11.095  14.164  68.725  1.00  0.00    -0.251 N  
HETATM   20  C   UNL     1     -11.700  11.827  68.548  1.00  0.00    -0.330 A  
HETATM   21  O   UNL     1     -10.215  16.232  69.173  1.00  0.00    -0.234 OA 
HETATM   22  C   UNL     1     -11.261  13.034  67.805  1.00  0.00    -0.279 C  
HETATM   23  C   UNL     1     -12.290  13.090  70.604  1.00  0.00    -0.310 C  
HETATM   24  N   UNL     1     -11.687  10.584  68.135  1.00  0.00    -0.401 NA 
HETATM   25  N   UNL     1     -12.120   9.794  69.169  1.00  0.00     0.562 NA 
HETATM   26  C   UNL     1     -12.393  10.569  70.206  1.00  0.00    -0.298 A  
HETATM   27  C   UNL     1     -12.840  10.125  71.551  1.00  0.00    -0.443 C  
HETATM   28  F   UNL     1     -13.048  11.166  72.402  1.00  0.00    -0.539 F  
HETATM   29  F   UNL     1     -14.008   9.436  71.500  1.00  0.00    -0.394 F  
HETATM   30  F   UNL     1     -11.926   9.322  72.154  1.00  0.00    -0.423 F  
ENDBRANCH  15  16
ENDBRANCH   2  15
TORSDOF 4
ENDMDL
MODEL      258
REMARK 921   NORMALIZED FREE ENERGY PREDICTED BY IDOCK:   -3.65 KCAL/MOL
REMARK 922        TOTAL FREE ENERGY PREDICTED BY IDOCK:   -5.57 KCAL/MOL
REMARK 923 INTER-LIGAND FREE ENERGY PREDICTED BY IDOCK:   -4.90 KCAL/MOL
REMARK 924 INTRA-LIGAND FREE ENERGY PREDICTED BY IDOCK:   -0.66 KCAL/MOL
REMARK 927      BINDING AFFINITY PREDICTED BY RF-SCORE:    0.00 PKD
ROOT
HETATM    1  N   UNL     1      -7.898  10.217  70.335  1.00  0.00    -0.428 NA 
HETATM    2  C   UNL     1      -8.808   9.136  70.772  1.00  0.00    -0.239 C  
HETATM    3  H1  UNL     1      -7.373  10.539  71.148  1.00  0.00     0.000 HD 
HETATM    4  H2  UNL     1      -8.388  10.973  69.856  1.00  0.00     0.000 HD 
ENDROOT
BRANCH   2   5
HETATM    5  C   UNL     1      -7.991   8.010  71.453  1.00  0.00    -0.109 C  
BRANCH   5   6
HETATM    6  C   UNL     1      -8.858   6.948  72.092  1.00  0.00    -0.136 A  
HETATM    7  F   UNL     1      -9.285   8.341  73.966  1.00  0.00    -0.273 F  
HETATM    8  C   UNL     1      -9.481   7.180  73.324  1.00  0.00    -0.179 A  
HETATM    9  C   UNL     1     -10.310   6.230  73.910  1.00  0.00    -0.318 A  
HETATM   10  C   UNL     1      -9.062   5.711  71.458  1.00  0.00    -0.151 A  
HETATM   11  C   UNL     1      -9.900   4.764  72.038  1.00  0.00    -0.176 A  
HETATM   12  F   UNL     1     -11.330   4.110  73.805  1.00  0.00    -0.311 F  
HETATM   13  C   UNL     1     -10.522   5.024  73.254  1.00  0.00    -0.213 A  
HETATM   14  F   UNL     1     -10.105   3.597  71.411  1.00  0.00    -0.249 F  
ENDBRANCH   5   6
ENDBRANCH   2   5
BRANCH   2  15
HETATM   15  C   UNL     1      -9.596   8.651  69.553  1.00  0.00    -0.170 C  
BRANCH  15  16
HETATM   16  C   UNL     1      -8.851   8.733  68.226  1.00  0.00    -0.141 C  
HETATM   17  N   UNL     1      -8.828   5.283  66.025  1.00  0.00    -0.136 NA 
HETATM   18  C   UNL     1      -7.802   7.499  66.363  1.00  0.00    -0.098 C  
HETATM   19  N   UNL     1      -8.533   7.516  67.634  1.00  0.00    -0.117 N  
HETATM   20  C   UNL     1      -8.913   5.138  67.384  1.00  0.00    -0.109 A  
HETATM   21  O   UNL     1      -8.577   9.806  67.696  1.00  0.00    -0.125 OA 
HETATM   22  C   UNL     1      -8.602   6.231  68.338  1.00  0.00    -0.114 C  
HETATM   23  C   UNL     1      -8.438   6.517  65.374  1.00  0.00    -0.115 C  
HETATM   24  N   UNL     1      -9.320   3.924  67.662  1.00  0.00    -0.175 NA 
HETATM   25  N   UNL     1      -9.545   3.276  66.475  1.00  0.00    -0.081 NA 
HETATM   26  C   UNL     1      -9.271   4.105  65.482  1.00  0.00    -0.149 A  
HETATM   27  C   UNL     1      -9.426   3.832  64.031  1.00  0.00    -0.153 C  
HETATM   28  F   UNL     1      -9.049   4.887  63.258  1.00  0.00    -0.141 F  
HETATM   29  F   UNL     1      -8.676   2.777  63.626  1.00  0.00    -0.085 F  
HETATM   30  F   UNL     1     -10.714   3.562  63.696  1.00  0.00    -0.212 F  
ENDBRANCH  15  16
ENDBRANCH   2  15
TORSDOF 4
ENDMDL
MODEL      259
REMARK 921   NORMALIZED FREE ENERGY PREDICTED BY IDOCK:   -3.59 KCAL/MOL
REMARK 922        TOTAL FREE ENERGY PREDICTED BY IDOCK:   -5.49 KCAL/MOL
REMARK 923 INTER-LIGAND FREE ENERGY PREDICTED BY IDOCK:   -5.28 KCAL/MOL
REMARK 924 INTRA-LIGAND FREE ENERGY PREDICTED BY IDOCK:   -0.21 KCAL/MOL
REMARK 927      BINDING AFFINITY PREDICTED BY RF-SCORE:    0.00 PKD
ROOT
HETATM    1  N   UNL     1     -12.031   9.908  71.287  1.00  0.00    -0.374 NA 
HETATM    2  C   UNL     1     -11.349   8.600  71.185  1.00  0.00    -0.275 C  
HETATM    3  H1  UNL     1     -12.484   9.960  72.200  1.00  0.00     0.000 HD 
HETATM    4  H2  UNL     1     -12.677  10.076  70.516  1.00  0.00     0.000 HD 
ENDROOT
BRANCH   2   5
HETATM    5  C   UNL     1     -10.360   8.433  72.364  1.00  0.00    -0.399 C  
BRANCH   5   6
HETATM    6  C   UNL     1     -10.271   7.011  72.872  1.00  0.00    -0.243 A  
HETATM    7  F   UNL     1     -12.571   6.643  72.412  1.00  0.00    -0.236 F  
HETATM    8  C   UNL     1     -11.394   6.174  72.852  1.00  0.00    -0.169 A  
HETATM    9  C   UNL     1     -11.324   4.853  73.281  1.00  0.00    -0.408 A  
HETATM   10  C   UNL     1      -9.060   6.498  73.364  1.00  0.00    -0.140 A  
HETATM   11  C   UNL     1      -8.986   5.174  73.783  1.00  0.00    -0.117 A  
HETATM   12  F   UNL     1     -10.030   3.082  74.139  1.00  0.00    -0.117 F  
HETATM   13  C   UNL     1     -10.110   4.357  73.738  1.00  0.00    -0.155 A  
HETATM   14  F   UNL     1      -7.817   4.690  74.228  1.00  0.00    -0.090 F  
ENDBRANCH   5   6
ENDBRANCH   2   5
BRANCH   2  15
HETATM   15  C   UNL     1     -10.669   8.521  69.815  1.00  0.00    -0.213 C  
BRANCH  15  16
HETATM   16  C   UNL     1     -10.902   7.224  69.051  1.00  0.00    -0.113 C  
HETATM   17  N   UNL     1      -8.754   6.832  65.589  1.00  0.00    -0.118 NA 
HETATM   18  C   UNL     1     -10.664   6.010  66.914  1.00  0.00    -0.334 C  
HETATM   19  N   UNL     1     -10.467   7.212  67.730  1.00  0.00    -0.206 N  
HETATM   20  C   UNL     1      -9.064   8.109  65.973  1.00  0.00    -0.167 A  
HETATM   21  O   UNL     1     -11.412   6.238  69.576  1.00  0.00    -0.428 OA 
HETATM   22  C   UNL     1     -10.097   8.423  66.990  1.00  0.00    -0.284 C  
HETATM   23  C   UNL     1      -9.391   5.653  66.141  1.00  0.00    -0.153 C  
HETATM   24  N   UNL     1      -8.300   8.951  65.322  1.00  0.00    -0.150 NA 
HETATM   25  N   UNL     1      -7.449   8.220  64.532  1.00  0.00    -0.095 NA 
HETATM   26  C   UNL     1      -7.707   6.935  64.711  1.00  0.00    -0.115 A  
HETATM   27  C   UNL     1      -6.987   5.793  64.093  1.00  0.00    -0.051 C  
HETATM   28  F   UNL     1      -7.498   4.589  64.470  1.00  0.00    -0.066 F  
HETATM   29  F   UNL     1      -7.047   5.823  62.738  1.00  0.00    -0.042 F  
HETATM   30  F   UNL     1      -5.674   5.769  64.437  1.00  0.00    -0.021 F  
ENDBRANCH  15  16
ENDBRANCH   2  15
TORSDOF 4
ENDMDL
MODEL      260
REMARK 921   NORMALIZED FREE ENERGY PREDICTED BY IDOCK:   -3.54 KCAL/MOL
REMARK 922        TOTAL FREE ENERGY PREDICTED BY IDOCK:   -5.43 KCAL/MOL
REMARK 923 INTER-LIGAND FREE ENERGY PREDICTED BY IDOCK:   -4.56 KCAL/MOL
REMARK 924 INTRA-LIGAND FREE ENERGY PREDICTED BY IDOCK:   -0.87 KCAL/MOL
REMARK 927      BINDING AFFINITY PREDICTED BY RF-SCORE:    0.00 PKD
ROOT
HETATM    1  N   UNL     1      -8.920   8.465  73.310  1.00  0.00    -0.280 NA 
HETATM    2  C   UNL     1      -8.494   7.620  72.174  1.00  0.00    -0.114 C  
HETATM    3  H1  UNL     1      -8.106   8.979  73.648  1.00  0.00     0.000 HD 
HETATM    4  H2  UNL     1      -9.383   7.931  74.046  1.00  0.00     0.000 HD 
ENDROOT
BRANCH   2   5
HETATM    5  C   UNL     1      -7.837   8.502  71.084  1.00  0.00    -0.133 C  
BRANCH   5   6
HETATM    6  C   UNL     1      -8.822   9.010  70.055  1.00  0.00    -0.181 A  
HETATM    7  F   UNL     1      -7.977   7.509  68.422  1.00  0.00    -0.113 F  
HETATM    8  C   UNL     1      -8.851   8.466  68.765  1.00  0.00    -0.140 A  
HETATM    9  C   UNL     1      -9.773   8.894  67.816  1.00  0.00    -0.196 A  
HETATM   10  C   UNL     1      -9.733  10.031  70.375  1.00  0.00    -0.023 A  
HETATM   11  C   UNL     1     -10.662  10.452  69.429  1.00  0.00    -0.244 A  
HETATM   12  F   UNL     1     -11.583  10.292  67.257  1.00  0.00    -0.243 F  
HETATM   13  C   UNL     1     -10.683   9.885  68.160  1.00  0.00    -0.233 A  
HETATM   14  F   UNL     1     -11.542  11.410  69.755  1.00  0.00    -0.296 F  
ENDBRANCH   5   6
ENDBRANCH   2   5
BRANCH   2  15
HETATM   15  C   UNL     1      -9.715   6.849  71.666  1.00  0.00    -0.163 C  
BRANCH  15  16
HETATM   16  C   UNL     1      -9.514   5.348  71.508  1.00  0.00    -0.149 C  
HETATM   17  N   UNL     1      -9.626   3.970  67.655  1.00  0.00    -0.179 NA 
HETATM   18  C   UNL     1      -9.741   3.372  70.045  1.00  0.00    -0.044 C  
HETATM   19  N   UNL     1      -9.886   4.812  70.279  1.00  0.00    -0.224 N  
HETATM   20  C   UNL     1     -10.361   5.094  67.923  1.00  0.00    -0.085 A  
HETATM   21  O   UNL     1      -9.024   4.657  72.397  1.00  0.00    -0.123 OA 
HETATM   22  C   UNL     1     -10.704   5.532  69.298  1.00  0.00    -0.217 C  
HETATM   23  C   UNL     1      -9.095   3.097  68.683  1.00  0.00    -0.152 C  
HETATM   24  N   UNL     1     -10.668   5.686  66.795  1.00  0.00    -0.303 NA 
HETATM   25  N   UNL     1     -10.094   4.968  65.777  1.00  0.00    -0.154 NA 
HETATM   26  C   UNL     1      -9.442   3.942  66.298  1.00  0.00    -0.188 A  
HETATM   27  C   UNL     1      -8.633   2.939  65.560  1.00  0.00    -0.115 C  
HETATM   28  F   UNL     1      -8.094   1.998  66.382  1.00  0.00    -0.072 F  
HETATM   29  F   UNL     1      -9.369   2.264  64.642  1.00  0.00    -0.125 F  
HETATM   30  F   UNL     1      -7.591   3.506  64.902  1.00  0.00    -0.071 F  
ENDBRANCH  15  16
ENDBRANCH   2  15
TORSDOF 4
ENDMDL
MODEL      261
REMARK 921   NORMALIZED FREE ENERGY PREDICTED BY IDOCK:   -3.41 KCAL/MOL
REMARK 922        TOTAL FREE ENERGY PREDICTED BY IDOCK:   -5.28 KCAL/MOL
REMARK 923 INTER-LIGAND FREE ENERGY PREDICTED BY IDOCK:   -6.04 KCAL/MOL
REMARK 924 INTRA-LIGAND FREE ENERGY PREDICTED BY IDOCK:    0.77 KCAL/MOL
REMARK 927      BINDING AFFINITY PREDICTED BY RF-SCORE:    0.00 PKD
ROOT
HETATM    1  N   UNL     1      -6.785  11.084  65.268  1.00  0.00    -0.343 NA 
HETATM    2  C   UNL     1      -7.616  10.760  66.448  1.00  0.00    -0.141 C  
HETATM    3  H1  UNL     1      -5.804  11.005  65.537  1.00  0.00     0.000 HD 
HETATM    4  H2  UNL     1      -7.012  11.994  64.866  1.00  0.00     0.000 HD 
ENDROOT
BRANCH   2   5
HETATM    5  C   UNL     1      -7.243   9.353  66.977  1.00  0.00    -0.087 C  
BRANCH   5   6
HETATM    6  C   UNL     1      -8.426   8.593  67.536  1.00  0.00    -0.124 A  
HETATM    7  F   UNL     1      -8.618   7.315  65.544  1.00  0.00    -0.141 F  
HETATM    8  C   UNL     1      -9.048   7.588  66.785  1.00  0.00    -0.148 A  
HETATM    9  C   UNL     1     -10.113   6.854  67.295  1.00  0.00    -0.256 A  
HETATM   10  C   UNL     1      -8.917   8.874  68.821  1.00  0.00    -0.134 A  
HETATM   11  C   UNL     1      -9.976   8.133  69.337  1.00  0.00    -0.188 A  
HETATM   12  F   UNL     1     -11.582   6.416  69.083  1.00  0.00    -0.425 F  
HETATM   13  C   UNL     1     -10.567   7.128  68.579  1.00  0.00    -0.187 A  
HETATM   14  F   UNL     1     -10.420   8.395  70.575  1.00  0.00    -0.195 F  
ENDBRANCH   5   6
ENDBRANCH   2   5
BRANCH   2  15
HETATM   15  C   UNL     1      -9.088  10.878  66.044  1.00  0.00    -0.208 C  
BRANCH  15  16
HETATM   16  C   UNL     1      -9.977  11.605  67.044  1.00  0.00    -0.204 C  
HETATM   17  N   UNL     1      -9.019  15.530  67.697  1.00  0.00    -0.182 NA 
HETATM   18  C   UNL     1     -10.260  13.565  68.519  1.00  0.00    -0.229 C  
HETATM   19  N   UNL     1      -9.478  12.805  67.539  1.00  0.00    -0.182 N  
HETATM   20  C   UNL     1      -7.988  14.702  67.336  1.00  0.00    -0.201 A  
HETATM   21  O   UNL     1     -11.081  11.176  67.371  1.00  0.00    -0.273 OA 
HETATM   22  C   UNL     1      -8.080  13.223  67.388  1.00  0.00    -0.175 C  
HETATM   23  C   UNL     1     -10.308  15.051  68.153  1.00  0.00    -0.239 C  
HETATM   24  N   UNL     1      -6.972  15.428  66.941  1.00  0.00    -0.149 NA 
HETATM   25  N   UNL     1      -7.350  16.745  67.000  1.00  0.00    -0.181 NA 
HETATM   26  C   UNL     1      -8.598  16.807  67.436  1.00  0.00    -0.193 A  
HETATM   27  C   UNL     1      -9.419  18.034  67.600  1.00  0.00    -0.264 C  
HETATM   28  F   UNL     1     -10.665  17.767  68.078  1.00  0.00    -0.364 F  
HETATM   29  F   UNL     1      -8.858  18.912  68.469  1.00  0.00    -0.331 F  
HETATM   30  F   UNL     1      -9.599  18.690  66.426  1.00  0.00    -0.298 F  
ENDBRANCH  15  16
ENDBRANCH   2  15
TORSDOF 4
ENDMDL
MODEL      262
REMARK 921   NORMALIZED FREE ENERGY PREDICTED BY IDOCK:   -3.14 KCAL/MOL
REMARK 922        TOTAL FREE ENERGY PREDICTED BY IDOCK:   -4.94 KCAL/MOL
REMARK 923 INTER-LIGAND FREE ENERGY PREDICTED BY IDOCK:   -4.66 KCAL/MOL
REMARK 924 INTRA-LIGAND FREE ENERGY PREDICTED BY IDOCK:   -0.28 KCAL/MOL
REMARK 927      BINDING AFFINITY PREDICTED BY RF-SCORE:    0.00 PKD
ROOT
HETATM    1  N   UNL     1      -6.405  16.809  70.038  1.00  0.00    -0.095 NA 
HETATM    2  C   UNL     1      -5.979  16.336  68.703  1.00  0.00    -0.109 C  
HETATM    3  H1  UNL     1      -5.816  17.599  70.299  1.00  0.00     0.000 HD 
HETATM    4  H2  UNL     1      -6.401  16.066  70.738  1.00  0.00     0.000 HD 
ENDROOT
BRANCH   2   5
HETATM    5  C   UNL     1      -6.048  17.505  67.690  1.00  0.00    -0.165 C  
BRANCH   5   6
HETATM    6  C   UNL     1      -7.461  17.853  67.276  1.00  0.00    -0.213 A  
HETATM    7  F   UNL     1      -7.387  19.875  68.518  1.00  0.00    -0.334 F  
HETATM    8  C   UNL     1      -8.057  19.045  67.704  1.00  0.00    -0.269 A  
HETATM    9  C   UNL     1      -9.341  19.400  67.305  1.00  0.00    -0.386 A  
HETATM   10  C   UNL     1      -8.199  16.992  66.446  1.00  0.00    -0.326 A  
HETATM   11  C   UNL     1      -9.479  17.352  66.038  1.00  0.00    -0.095 A  
HETATM   12  F   UNL     1     -11.275  18.891  66.061  1.00  0.00    -0.156 F  
HETATM   13  C   UNL     1     -10.044  18.549  66.462  1.00  0.00    -0.400 A  
HETATM   14  F   UNL     1     -10.164  16.533  65.226  1.00  0.00    -0.307 F  
ENDBRANCH   5   6
ENDBRANCH   2   5
BRANCH   2  15
HETATM   15  C   UNL     1      -6.864  15.149  68.311  1.00  0.00    -0.119 C  
BRANCH  15  16
HETATM   16  C   UNL     1      -6.551  13.844  69.030  1.00  0.00    -0.107 C  
HETATM   17  N   UNL     1      -7.670  10.447  67.040  1.00  0.00    -0.103 NA 
HETATM   18  C   UNL     1      -6.987  11.419  69.200  1.00  0.00    -0.118 C  
HETATM   19  N   UNL     1      -7.216  12.717  68.557  1.00  0.00    -0.109 N  
HETATM   20  C   UNL     1      -8.412  11.571  66.792  1.00  0.00    -0.168 A  
HETATM   21  O   UNL     1      -5.740  13.782  69.950  1.00  0.00    -0.103 OA 
HETATM   22  C   UNL     1      -8.369  12.778  67.653  1.00  0.00    -0.175 C  
HETATM   23  C   UNL     1      -6.757  10.320  68.158  1.00  0.00    -0.058 C  
HETATM   24  N   UNL     1      -9.111  11.392  65.699  1.00  0.00    -0.194 NA 
HETATM   25  N   UNL     1      -8.796  10.155  65.198  1.00  0.00    -0.170 NA 
HETATM   26  C   UNL     1      -7.905   9.591  65.996  1.00  0.00    -0.100 A  
HETATM   27  C   UNL     1      -7.250   8.272  65.801  1.00  0.00    -0.072 C  
HETATM   28  F   UNL     1      -6.384   7.967  66.805  1.00  0.00    -0.048 F  
HETATM   29  F   UNL     1      -8.149   7.257  65.753  1.00  0.00    -0.101 F  
HETATM   30  F   UNL     1      -6.527   8.225  64.653  1.00  0.00    -0.061 F  
ENDBRANCH  15  16
ENDBRANCH   2  15
TORSDOF 4
ENDMDL
MODEL      263
REMARK 921   NORMALIZED FREE ENERGY PREDICTED BY IDOCK:   -3.05 KCAL/MOL
REMARK 922        TOTAL FREE ENERGY PREDICTED BY IDOCK:   -4.83 KCAL/MOL
REMARK 923 INTER-LIGAND FREE ENERGY PREDICTED BY IDOCK:   -5.08 KCAL/MOL
REMARK 924 INTRA-LIGAND FREE ENERGY PREDICTED BY IDOCK:    0.24 KCAL/MOL
REMARK 927      BINDING AFFINITY PREDICTED BY RF-SCORE:    0.00 PKD
ROOT
HETATM    1  N   UNL     1      -6.261  10.822  64.785  1.00  0.00    -0.377 NA 
HETATM    2  C   UNL     1      -6.959   9.945  65.750  1.00  0.00    -0.109 C  
HETATM    3  H1  UNL     1      -5.278  10.874  65.056  1.00  0.00     0.000 HD 
HETATM    4  H2  UNL     1      -6.696  11.740  64.701  1.00  0.00     0.000 HD 
ENDROOT
BRANCH   2   5
HETATM    5  C   UNL     1      -6.267   8.561  65.794  1.00  0.00    -0.052 C  
BRANCH   5   6
HETATM    6  C   UNL     1      -7.038   7.485  65.064  1.00  0.00    -0.060 A  
HETATM    7  F   UNL     1      -6.294   8.298  62.961  1.00  0.00    -0.081 F  
HETATM    8  C   UNL     1      -6.995   7.399  63.667  1.00  0.00    -0.059 A  
HETATM    9  C   UNL     1      -7.668   6.395  62.980  1.00  0.00    -0.090 A  
HETATM   10  C   UNL     1      -7.805   6.545  65.772  1.00  0.00    -0.104 A  
HETATM   11  C   UNL     1      -8.469   5.533  65.086  1.00  0.00    -0.147 A  
HETATM   12  F   UNL     1      -9.037   4.479  63.046  1.00  0.00    -0.126 F  
HETATM   13  C   UNL     1      -8.398   5.458  63.700  1.00  0.00    -0.097 A  
HETATM   14  F   UNL     1      -9.178   4.628  65.776  1.00  0.00    -0.126 F  
ENDBRANCH   5   6
ENDBRANCH   2   5
BRANCH   2  15
HETATM   15  C   UNL     1      -8.433   9.866  65.345  1.00  0.00    -0.155 C  
BRANCH  15  16
HETATM   16  C   UNL     1      -9.416   9.727  66.500  1.00  0.00    -0.177 C  
HETATM   17  N   UNL     1     -10.194  13.183  68.550  1.00  0.00    -0.236 NA 
HETATM   18  C   UNL     1     -10.337  10.722  68.564  1.00  0.00    -0.185 C  
HETATM   19  N   UNL     1      -9.432  10.778  67.411  1.00  0.00    -0.154 N  
HETATM   20  C   UNL     1      -8.961  13.087  67.962  1.00  0.00    -0.199 A  
HETATM   21  O   UNL     1     -10.170   8.763  66.605  1.00  0.00    -0.277 OA 
HETATM   22  C   UNL     1      -8.389  11.807  67.478  1.00  0.00    -0.154 C  
HETATM   23  C   UNL     1     -11.075  12.051  68.751  1.00  0.00    -0.249 C  
HETATM   24  N   UNL     1      -8.423  14.280  67.894  1.00  0.00    -0.157 NA 
HETATM   25  N   UNL     1      -9.327  15.176  68.404  1.00  0.00    -0.191 NA 
HETATM   26  C   UNL     1     -10.410  14.516  68.780  1.00  0.00    -0.243 A  
HETATM   27  C   UNL     1     -11.656  15.102  69.337  1.00  0.00    -0.323 C  
HETATM   28  F   UNL     1     -12.589  14.157  69.635  1.00  0.00    -0.374 F  
HETATM   29  F   UNL     1     -11.430  15.789  70.485  1.00  0.00    -0.265 F  
HETATM   30  F   UNL     1     -12.252  15.958  68.467  1.00  0.00    -0.309 F  
ENDBRANCH  15  16
ENDBRANCH   2  15
TORSDOF 4
ENDMDL
MODEL      264
REMARK 921   NORMALIZED FREE ENERGY PREDICTED BY IDOCK:   -3.05 KCAL/MOL
REMARK 922        TOTAL FREE ENERGY PREDICTED BY IDOCK:   -4.83 KCAL/MOL
REMARK 923 INTER-LIGAND FREE ENERGY PREDICTED BY IDOCK:   -6.23 KCAL/MOL
REMARK 924 INTRA-LIGAND FREE ENERGY PREDICTED BY IDOCK:    1.40 KCAL/MOL
REMARK 927      BINDING AFFINITY PREDICTED BY RF-SCORE:    0.00 PKD
ROOT
HETATM    1  N   UNL     1      -8.108  10.854  66.947  1.00  0.00    -0.131 NA 
HETATM    2  C   UNL     1      -8.631  11.446  68.197  1.00  0.00    -0.153 C  
HETATM    3  H1  UNL     1      -7.111  10.680  67.069  1.00  0.00     0.000 HD 
HETATM    4  H2  UNL     1      -8.311  11.426  66.127  1.00  0.00     0.000 HD 
ENDROOT
BRANCH   2   5
HETATM    5  C   UNL     1      -8.321  10.507  69.388  1.00  0.00    -0.117 C  
BRANCH   5   6
HETATM    6  C   UNL     1      -9.420   9.503  69.658  1.00  0.00    -0.213 A  
HETATM    7  F   UNL     1      -8.469   7.964  68.121  1.00  0.00    -0.120 F  
HETATM    8  C   UNL     1      -9.425   8.260  69.013  1.00  0.00    -0.155 A  
HETATM    9  C   UNL     1     -10.406   7.310  69.275  1.00  0.00    -0.208 A  
HETATM   10  C   UNL     1     -10.450   9.793  70.567  1.00  0.00    -0.366 A  
HETATM   11  C   UNL     1     -11.426   8.839  70.837  1.00  0.00    -0.284 A  
HETATM   12  F   UNL     1     -12.341   6.690  70.466  1.00  0.00    -0.445 F  
HETATM   13  C   UNL     1     -11.402   7.605  70.198  1.00  0.00    -0.132 A  
HETATM   14  F   UNL     1     -12.391   9.120  71.725  1.00  0.00    -0.343 F  
ENDBRANCH   5   6
ENDBRANCH   2   5
BRANCH   2  15
HETATM   15  C   UNL     1     -10.128  11.708  68.014  1.00  0.00    -0.198 C  
BRANCH  15  16
HETATM   16  C   UNL     1     -10.603  13.086  68.457  1.00  0.00    -0.258 C  
HETATM   17  N   UNL     1      -8.001  16.153  67.698  1.00  0.00    -0.141 NA 
HETATM   18  C   UNL     1      -9.988  15.423  68.963  1.00  0.00    -0.229 C  
HETATM   19  N   UNL     1      -9.623  14.070  68.531  1.00  0.00    -0.216 N  
HETATM   20  C   UNL     1      -7.445  14.917  67.898  1.00  0.00    -0.141 A  
HETATM   21  O   UNL     1     -11.783  13.323  68.703  1.00  0.00    -0.299 OA 
HETATM   22  C   UNL     1      -8.185  13.783  68.504  1.00  0.00    -0.124 C  
HETATM   23  C   UNL     1      -9.370  16.481  68.044  1.00  0.00    -0.218 C  
HETATM   24  N   UNL     1      -6.212  14.924  67.457  1.00  0.00    -0.329 NA 
HETATM   25  N   UNL     1      -5.965  16.163  66.923  1.00  0.00    -0.309 NA 
HETATM   26  C   UNL     1      -7.056  16.901  67.047  1.00  0.00    -0.199 A  
HETATM   27  C   UNL     1      -7.247  18.289  66.556  1.00  0.00    -0.232 C  
HETATM   28  F   UNL     1      -8.483  18.780  66.846  1.00  0.00    -0.252 F  
HETATM   29  F   UNL     1      -6.356  19.153  67.104  1.00  0.00    -0.184 F  
HETATM   30  F   UNL     1      -7.115  18.378  65.207  1.00  0.00    -0.235 F  
ENDBRANCH  15  16
ENDBRANCH   2  15
TORSDOF 4
ENDMDL
MODEL      265
REMARK 921   NORMALIZED FREE ENERGY PREDICTED BY IDOCK:   -3.05 KCAL/MOL
REMARK 922        TOTAL FREE ENERGY PREDICTED BY IDOCK:   -4.83 KCAL/MOL
REMARK 923 INTER-LIGAND FREE ENERGY PREDICTED BY IDOCK:   -4.88 KCAL/MOL
REMARK 924 INTRA-LIGAND FREE ENERGY PREDICTED BY IDOCK:    0.05 KCAL/MOL
REMARK 927      BINDING AFFINITY PREDICTED BY RF-SCORE:    0.00 PKD
ROOT
HETATM    1  N   UNL     1     -11.484  16.439  67.857  1.00  0.00    -0.097 NA 
HETATM    2  C   UNL     1     -11.030  15.137  68.393  1.00  0.00    -0.271 C  
HETATM    3  H1  UNL     1     -11.368  17.141  68.588  1.00  0.00     0.000 HD 
HETATM    4  H2  UNL     1     -12.435  16.403  67.491  1.00  0.00     0.000 HD 
ENDROOT
BRANCH   2   5
HETATM    5  C   UNL     1      -9.570  15.259  68.892  1.00  0.00    -0.220 C  
BRANCH   5   6
HETATM    6  C   UNL     1      -8.798  16.369  68.214  1.00  0.00    -0.202 A  
HETATM    7  F   UNL     1      -7.619  14.806  66.870  1.00  0.00    -0.205 F  
HETATM    8  C   UNL     1      -7.863  16.080  67.212  1.00  0.00    -0.181 A  
HETATM    9  C   UNL     1      -7.170  17.089  66.552  1.00  0.00    -0.311 A  
HETATM   10  C   UNL     1      -9.010  17.711  68.568  1.00  0.00    -0.289 A  
HETATM   11  C   UNL     1      -8.326  18.722  67.900  1.00  0.00    -0.276 A  
HETATM   12  F   UNL     1      -6.763  19.389  66.256  1.00  0.00    -0.188 F  
HETATM   13  C   UNL     1      -7.415  18.412  66.897  1.00  0.00    -0.215 A  
HETATM   14  F   UNL     1      -8.555  20.001  68.232  1.00  0.00    -0.344 F  
ENDBRANCH   5   6
ENDBRANCH   2   5
BRANCH   2  15
HETATM   15  C   UNL     1     -11.203  14.082  67.296  1.00  0.00    -0.328 C  
BRANCH  15  16
HETATM   16  C   UNL     1     -11.361  12.651  67.794  1.00  0.00    -0.297 C  
HETATM   17  N   UNL     1      -7.905  10.844  69.033  1.00  0.00    -0.141 NA 
HETATM   18  C   UNL     1     -10.250  10.517  68.345  1.00  0.00    -0.172 C  
HETATM   19  N   UNL     1     -10.189  11.909  67.889  1.00  0.00    -0.189 N  
HETATM   20  C   UNL     1      -7.777  11.806  68.067  1.00  0.00    -0.123 A  
HETATM   21  O   UNL     1     -12.451  12.190  68.122  1.00  0.00    -0.077 OA 
HETATM   22  C   UNL     1      -8.922  12.316  67.274  1.00  0.00    -0.187 C  
HETATM   23  C   UNL     1      -9.168  10.231  69.392  1.00  0.00    -0.189 C  
HETATM   24  N   UNL     1      -6.524  12.182  67.998  1.00  0.00    -0.062 NA 
HETATM   25  N   UNL     1      -5.827  11.492  68.956  1.00  0.00    -0.048 NA 
HETATM   26  C   UNL     1      -6.666  10.698  69.601  1.00  0.00    -0.116 A  
HETATM   27  C   UNL     1      -6.344   9.814  70.749  1.00  0.00    -0.095 C  
HETATM   28  F   UNL     1      -7.425   9.113  71.187  1.00  0.00    -0.099 F  
HETATM   29  F   UNL     1      -5.396   8.895  70.437  1.00  0.00    -0.022 F  
HETATM   30  F   UNL     1      -5.889  10.512  71.820  1.00  0.00     0.063 F  
ENDBRANCH  15  16
ENDBRANCH   2  15
TORSDOF 4
ENDMDL
MODEL      266
REMARK 921   NORMALIZED FREE ENERGY PREDICTED BY IDOCK:   -3.00 KCAL/MOL
REMARK 922        TOTAL FREE ENERGY PREDICTED BY IDOCK:   -4.77 KCAL/MOL
REMARK 923 INTER-LIGAND FREE ENERGY PREDICTED BY IDOCK:   -4.33 KCAL/MOL
REMARK 924 INTRA-LIGAND FREE ENERGY PREDICTED BY IDOCK:   -0.44 KCAL/MOL
REMARK 927      BINDING AFFINITY PREDICTED BY RF-SCORE:    0.00 PKD
ROOT
HETATM    1  N   UNL     1      -6.286  12.025  71.291  1.00  0.00     0.016 NA 
HETATM    2  C   UNL     1      -6.902  11.649  70.000  1.00  0.00     0.275 C  
HETATM    3  H1  UNL     1      -6.315  11.212  71.907  1.00  0.00     0.000 HD 
HETATM    4  H2  UNL     1      -6.717  12.850  71.707  1.00  0.00     0.000 HD 
ENDROOT
BRANCH   2   5
HETATM    5  C   UNL     1      -6.173  10.416  69.413  1.00  0.00    -0.049 C  
BRANCH   5   6
HETATM    6  C   UNL     1      -7.114   9.298  69.021  1.00  0.00    -0.067 A  
HETATM    7  F   UNL     1      -8.152   9.346  71.156  1.00  0.00    -0.190 F  
HETATM    8  C   UNL     1      -8.078   8.828  69.921  1.00  0.00    -0.109 A  
HETATM    9  C   UNL     1      -8.975   7.826  69.567  1.00  0.00    -0.142 A  
HETATM   10  C   UNL     1      -7.044   8.715  67.745  1.00  0.00    -0.079 A  
HETATM   11  C   UNL     1      -7.948   7.721  67.386  1.00  0.00    -0.119 A  
HETATM   12  F   UNL     1      -9.778   6.327  67.937  1.00  0.00    -0.122 F  
HETATM   13  C   UNL     1      -8.908   7.282  68.290  1.00  0.00    -0.127 A  
HETATM   14  F   UNL     1      -7.886   7.189  66.156  1.00  0.00    -0.092 F  
ENDBRANCH   5   6
ENDBRANCH   2   5
BRANCH   2  15
HETATM   15  C   UNL     1      -6.858  12.869  69.076  1.00  0.00    -0.080 C  
BRANCH  15  16
HETATM   16  C   UNL     1      -8.055  13.020  68.146  1.00  0.00    -0.155 C  
HETATM   17  N   UNL     1      -9.407  16.852  67.654  1.00  0.00    -0.231 NA 
HETATM   18  C   UNL     1      -9.914  14.454  67.382  1.00  0.00    -0.242 C  
HETATM   19  N   UNL     1      -8.739  14.228  68.230  1.00  0.00    -0.173 N  
HETATM   20  C   UNL     1      -8.802  16.567  68.850  1.00  0.00    -0.244 A  
HETATM   21  O   UNL     1      -8.378  12.144  67.348  1.00  0.00    -0.157 OA 
HETATM   22  C   UNL     1      -8.560  15.184  69.328  1.00  0.00    -0.211 C  
HETATM   23  C   UNL     1      -9.862  15.837  66.725  1.00  0.00    -0.245 C  
HETATM   24  N   UNL     1      -8.479  17.688  69.446  1.00  0.00     0.305 NA 
HETATM   25  N   UNL     1      -8.835  18.721  68.617  1.00  0.00    -0.339 NA 
HETATM   26  C   UNL     1      -9.376  18.215  67.520  1.00  0.00    -0.258 A  
HETATM   27  C   UNL     1      -9.852  18.974  66.336  1.00  0.00    -0.378 C  
HETATM   28  F   UNL     1     -10.368  18.165  65.371  1.00  0.00    -0.211 F  
HETATM   29  F   UNL     1     -10.832  19.857  66.655  1.00  0.00    -0.563 F  
HETATM   30  F   UNL     1      -8.854  19.678  65.744  1.00  0.00    -0.342 F  
ENDBRANCH  15  16
ENDBRANCH   2  15
TORSDOF 4
ENDMDL
MODEL      267
REMARK 921   NORMALIZED FREE ENERGY PREDICTED BY IDOCK:   -2.89 KCAL/MOL
REMARK 922        TOTAL FREE ENERGY PREDICTED BY IDOCK:   -4.64 KCAL/MOL
REMARK 923 INTER-LIGAND FREE ENERGY PREDICTED BY IDOCK:   -3.92 KCAL/MOL
REMARK 924 INTRA-LIGAND FREE ENERGY PREDICTED BY IDOCK:   -0.72 KCAL/MOL
REMARK 927      BINDING AFFINITY PREDICTED BY RF-SCORE:    0.00 PKD
ROOT
HETATM    1  N   UNL     1      -5.321   8.627  73.200  1.00  0.00    -0.061 NA 
HETATM    2  C   UNL     1      -6.426   7.740  72.774  1.00  0.00    -0.066 C  
HETATM    3  H1  UNL     1      -4.665   8.075  73.753  1.00  0.00     0.000 HD 
HETATM    4  H2  UNL     1      -5.651   9.458  73.692  1.00  0.00     0.000 HD 
ENDROOT
BRANCH   2   5
HETATM    5  C   UNL     1      -5.853   6.526  72.004  1.00  0.00    -0.037 C  
BRANCH   5   6
HETATM    6  C   UNL     1      -6.893   5.471  71.695  1.00  0.00    -0.066 A  
HETATM    7  F   UNL     1      -7.252   5.067  74.007  1.00  0.00    -0.076 F  
HETATM    8  C   UNL     1      -7.559   4.801  72.728  1.00  0.00    -0.091 A  
HETATM    9  C   UNL     1      -8.543   3.855  72.464  1.00  0.00    -0.104 A  
HETATM   10  C   UNL     1      -7.217   5.151  70.366  1.00  0.00    -0.061 A  
HETATM   11  C   UNL     1      -8.209   4.212  70.102  1.00  0.00    -0.057 A  
HETATM   12  F   UNL     1      -9.826   2.672  70.883  1.00  0.00    -0.220 F  
HETATM   13  C   UNL     1      -8.869   3.571  71.144  1.00  0.00    -0.082 A  
HETATM   14  F   UNL     1      -8.526   3.932  68.829  1.00  0.00    -0.079 F  
ENDBRANCH   5   6
ENDBRANCH   2   5
BRANCH   2  15
HETATM   15  C   UNL     1      -7.410   8.568  71.943  1.00  0.00    -0.119 C  
BRANCH  15  16
HETATM   16  C   UNL     1      -6.771   9.503  70.925  1.00  0.00    -0.083 C  
HETATM   17  N   UNL     1      -8.771   9.835  67.369  1.00  0.00    -0.132 NA 
HETATM   18  C   UNL     1      -6.649  10.221  68.566  1.00  0.00    -0.052 C  
HETATM   19  N   UNL     1      -7.221   9.371  69.615  1.00  0.00    -0.061 N  
HETATM   20  C   UNL     1      -8.907   8.647  68.037  1.00  0.00    -0.141 A  
HETATM   21  O   UNL     1      -5.934  10.343  71.243  1.00  0.00    -0.304 OA 
HETATM   22  C   UNL     1      -8.011   8.230  69.142  1.00  0.00    -0.112 C  
HETATM   23  C   UNL     1      -7.747  10.814  67.677  1.00  0.00    -0.104 C  
HETATM   24  N   UNL     1      -9.937   7.998  67.552  1.00  0.00    -0.178 NA 
HETATM   25  N   UNL     1     -10.510   8.783  66.585  1.00  0.00    -0.230 NA 
HETATM   26  C   UNL     1      -9.819   9.908  66.489  1.00  0.00    -0.215 A  
HETATM   27  C   UNL     1     -10.121  11.061  65.605  1.00  0.00    -0.256 C  
HETATM   28  F   UNL     1      -9.214  12.067  65.731  1.00  0.00    -0.227 F  
HETATM   29  F   UNL     1     -10.123  10.713  64.293  1.00  0.00    -0.334 F  
HETATM   30  F   UNL     1     -11.333  11.610  65.876  1.00  0.00    -0.367 F  
ENDBRANCH  15  16
ENDBRANCH   2  15
TORSDOF 4
ENDMDL
MODEL      268
REMARK 921   NORMALIZED FREE ENERGY PREDICTED BY IDOCK:   -2.74 KCAL/MOL
REMARK 922        TOTAL FREE ENERGY PREDICTED BY IDOCK:   -4.45 KCAL/MOL
REMARK 923 INTER-LIGAND FREE ENERGY PREDICTED BY IDOCK:   -5.02 KCAL/MOL
REMARK 924 INTRA-LIGAND FREE ENERGY PREDICTED BY IDOCK:    0.57 KCAL/MOL
REMARK 927      BINDING AFFINITY PREDICTED BY RF-SCORE:    0.00 PKD
ROOT
HETATM    1  N   UNL     1      -8.768  16.489  65.528  1.00  0.00    -0.090 NA 
HETATM    2  C   UNL     1      -8.415  17.469  66.578  1.00  0.00    -0.268 C  
HETATM    3  H1  UNL     1      -8.213  16.698  64.698  1.00  0.00     0.000 HD 
HETATM    4  H2  UNL     1      -9.769  16.461  65.337  1.00  0.00     0.000 HD 
ENDROOT
BRANCH   2   5
HETATM    5  C   UNL     1      -6.890  17.427  66.841  1.00  0.00    -0.228 C  
BRANCH   5   6
HETATM    6  C   UNL     1      -6.501  16.472  67.947  1.00  0.00    -0.150 A  
HETATM    7  F   UNL     1      -6.713  18.184  69.578  1.00  0.00    -0.255 F  
HETATM    8  C   UNL     1      -6.450  16.903  69.278  1.00  0.00    -0.228 A  
HETATM    9  C   UNL     1      -6.130  16.031  70.313  1.00  0.00    -0.026 A  
HETATM   10  C   UNL     1      -6.193  15.131  67.662  1.00  0.00    -0.145 A  
HETATM   11  C   UNL     1      -5.884  14.255  68.698  1.00  0.00    -0.086 A  
HETATM   12  F   UNL     1      -5.562  13.853  71.006  1.00  0.00    -0.130 F  
HETATM   13  C   UNL     1      -5.856  14.702  70.014  1.00  0.00    -0.131 A  
HETATM   14  F   UNL     1      -5.616  12.972  68.415  1.00  0.00    -0.058 F  
ENDBRANCH   5   6
ENDBRANCH   2   5
BRANCH   2  15
HETATM   15  C   UNL     1      -9.247  17.155  67.825  1.00  0.00    -0.241 C  
BRANCH  15  16
HETATM   16  C   UNL     1     -10.590  16.488  67.556  1.00  0.00    -0.313 C  
HETATM   17  N   UNL     1     -10.701  12.455  68.240  1.00  0.00    -0.222 NA 
HETATM   18  C   UNL     1     -11.812  14.378  67.169  1.00  0.00    -0.410 C  
HETATM   19  N   UNL     1     -10.567  15.102  67.444  1.00  0.00    -0.266 N  
HETATM   20  C   UNL     1      -9.489  12.979  67.876  1.00  0.00    -0.219 A  
HETATM   21  O   UNL     1     -11.634  17.130  67.474  1.00  0.00     0.366 OA 
HETATM   22  C   UNL     1      -9.334  14.326  67.274  1.00  0.00    -0.213 C  
HETATM   23  C   UNL     1     -11.956  13.162  68.090  1.00  0.00    -0.294 C  
HETATM   24  N   UNL     1      -8.544  12.118  68.164  1.00  0.00    -0.172 NA 
HETATM   25  N   UNL     1      -9.134  11.034  68.763  1.00  0.00    -0.173 NA 
HETATM   26  C   UNL     1     -10.438  11.247  68.832  1.00  0.00    -0.206 A  
HETATM   27  C   UNL     1     -11.450  10.356  69.453  1.00  0.00    -0.227 C  
HETATM   28  F   UNL     1     -12.713  10.852  69.354  1.00  0.00    -0.337 F  
HETATM   29  F   UNL     1     -11.476   9.130  68.872  1.00  0.00     0.042 F  
HETATM   30  F   UNL     1     -11.222  10.168  70.778  1.00  0.00    -0.336 F  
ENDBRANCH  15  16
ENDBRANCH   2  15
TORSDOF 4
ENDMDL
MODEL      269
REMARK 921   NORMALIZED FREE ENERGY PREDICTED BY IDOCK:   -2.66 KCAL/MOL
REMARK 922        TOTAL FREE ENERGY PREDICTED BY IDOCK:   -4.35 KCAL/MOL
REMARK 923 INTER-LIGAND FREE ENERGY PREDICTED BY IDOCK:   -3.96 KCAL/MOL
REMARK 924 INTRA-LIGAND FREE ENERGY PREDICTED BY IDOCK:   -0.40 KCAL/MOL
REMARK 927      BINDING AFFINITY PREDICTED BY RF-SCORE:    0.00 PKD
ROOT
HETATM    1  N   UNL     1      -6.847   8.166  72.421  1.00  0.00    -0.080 NA 
HETATM    2  C   UNL     1      -7.907   7.228  71.991  1.00  0.00    -0.090 C  
HETATM    3  H1  UNL     1      -6.372   7.760  73.228  1.00  0.00     0.000 HD 
HETATM    4  H2  UNL     1      -7.203   9.104  72.604  1.00  0.00     0.000 HD 
ENDROOT
BRANCH   2   5
HETATM    5  C   UNL     1      -7.288   5.840  71.697  1.00  0.00    -0.092 C  
BRANCH   5   6
HETATM    6  C   UNL     1      -7.940   5.132  70.529  1.00  0.00    -0.090 A  
HETATM    7  F   UNL     1      -9.826   4.563  71.853  1.00  0.00    -0.199 F  
HETATM    8  C   UNL     1      -9.200   4.538  70.668  1.00  0.00    -0.135 A  
HETATM    9  C   UNL     1      -9.831   3.914  69.597  1.00  0.00    -0.106 A  
HETATM   10  C   UNL     1      -7.298   5.065  69.282  1.00  0.00    -0.057 A  
HETATM   11  C   UNL     1      -7.933   4.451  68.207  1.00  0.00    -0.079 A  
HETATM   12  F   UNL     1      -9.799   3.297  67.324  1.00  0.00    -0.224 F  
HETATM   13  C   UNL     1      -9.192   3.882  68.364  1.00  0.00    -0.155 A  
HETATM   14  F   UNL     1      -7.320   4.415  67.015  1.00  0.00    -0.071 F  
ENDBRANCH   5   6
ENDBRANCH   2   5
BRANCH   2  15
HETATM   15  C   UNL     1      -8.621   7.836  70.780  1.00  0.00    -0.133 C  
BRANCH  15  16
HETATM   16  C   UNL     1      -7.715   8.559  69.792  1.00  0.00    -0.092 C  
HETATM   17  N   UNL     1      -9.186  12.094  68.345  1.00  0.00    -0.183 NA 
HETATM   18  C   UNL     1      -7.526  10.295  68.046  1.00  0.00    -0.087 C  
HETATM   19  N   UNL     1      -8.319   9.557  69.034  1.00  0.00    -0.121 N  
HETATM   20  C   UNL     1     -10.111  11.152  68.709  1.00  0.00    -0.201 A  
HETATM   21  O   UNL     1      -6.519   8.300  69.690  1.00  0.00    -0.036 OA 
HETATM   22  C   UNL     1      -9.773   9.724  68.929  1.00  0.00    -0.171 C  
HETATM   23  C   UNL     1      -7.780  11.803  68.150  1.00  0.00    -0.124 C  
HETATM   24  N   UNL     1     -11.282  11.726  68.837  1.00  0.00    -0.233 NA 
HETATM   25  N   UNL     1     -11.119  13.066  68.597  1.00  0.00    -0.257 NA 
HETATM   26  C   UNL     1      -9.846  13.295  68.323  1.00  0.00    -0.231 A  
HETATM   27  C   UNL     1      -9.221  14.615  68.054  1.00  0.00    -0.197 C  
HETATM   28  F   UNL     1      -7.888  14.518  67.795  1.00  0.00    -0.114 F  
HETATM   29  F   UNL     1      -9.772  15.233  66.980  1.00  0.00    -0.216 F  
HETATM   30  F   UNL     1      -9.338  15.461  69.109  1.00  0.00    -0.184 F  
ENDBRANCH  15  16
ENDBRANCH   2  15
TORSDOF 4
ENDMDL
MODEL      270
REMARK 921   NORMALIZED FREE ENERGY PREDICTED BY IDOCK:   -2.39 KCAL/MOL
REMARK 922        TOTAL FREE ENERGY PREDICTED BY IDOCK:   -4.02 KCAL/MOL
REMARK 923 INTER-LIGAND FREE ENERGY PREDICTED BY IDOCK:   -4.57 KCAL/MOL
REMARK 924 INTRA-LIGAND FREE ENERGY PREDICTED BY IDOCK:    0.55 KCAL/MOL
REMARK 927      BINDING AFFINITY PREDICTED BY RF-SCORE:    0.00 PKD
ROOT
HETATM    1  N   UNL     1      -9.629  14.196  65.411  1.00  0.00    -0.548 NA 
HETATM    2  C   UNL     1     -10.517  15.282  65.880  1.00  0.00    -0.331 C  
HETATM    3  H1  UNL     1      -8.739  14.610  65.133  1.00  0.00     0.000 HD 
HETATM    4  H2  UNL     1     -10.051  13.635  64.671  1.00  0.00     0.000 HD 
ENDROOT
BRANCH   2   5
HETATM    5  C   UNL     1      -9.827  16.062  67.025  1.00  0.00    -0.240 C  
BRANCH   5   6
HETATM    6  C   UNL     1      -8.780  15.250  67.754  1.00  0.00    -0.168 A  
HETATM    7  F   UNL     1      -9.874  15.598  69.832  1.00  0.00    -0.267 F  
HETATM    8  C   UNL     1      -8.870  15.044  69.136  1.00  0.00    -0.184 A  
HETATM    9  C   UNL     1      -7.937  14.271  69.818  1.00  0.00     0.556 A  
HETATM   10  C   UNL     1      -7.701  14.679  67.058  1.00  0.00     0.006 A  
HETATM   11  C   UNL     1      -6.774  13.896  67.738  1.00  0.00    -0.176 A  
HETATM   12  F   UNL     1      -6.000  12.933  69.755  1.00  0.00    -0.092 F  
HETATM   13  C   UNL     1      -6.893  13.691  69.108  1.00  0.00    -0.095 A  
HETATM   14  F   UNL     1      -5.762  13.337  67.058  1.00  0.00     0.020 F  
ENDBRANCH   5   6
ENDBRANCH   2   5
BRANCH   2  15
HETATM   15  C   UNL     1     -11.853  14.661  66.297  1.00  0.00    -0.299 C  
BRANCH  15  16
HETATM   16  C   UNL     1     -11.888  14.089  67.708  1.00  0.00    -0.384 C  
HETATM   17  N   UNL     1      -9.874  10.562  68.210  1.00  0.00    -0.146 NA 
HETATM   18  C   UNL     1     -11.542  12.115  69.151  1.00  0.00    -0.319 C  
HETATM   19  N   UNL     1     -11.522  12.753  67.830  1.00  0.00    -0.295 N  
HETATM   20  C   UNL     1     -10.387  10.799  66.963  1.00  0.00    -0.228 A  
HETATM   21  O   UNL     1     -12.190  14.772  68.683  1.00  0.00    -0.206 OA 
HETATM   22  C   UNL     1     -11.410  11.838  66.690  1.00  0.00    -0.316 C  
HETATM   23  C   UNL     1     -10.264  11.305  69.391  1.00  0.00     0.051 C  
HETATM   24  N   UNL     1      -9.817   9.991  66.103  1.00  0.00    -0.230 NA 
HETATM   25  N   UNL     1      -8.889   9.243  66.782  1.00  0.00    -0.126 NA 
HETATM   26  C   UNL     1      -8.905   9.605  68.055  1.00  0.00    -0.119 A  
HETATM   27  C   UNL     1      -8.025   9.089  69.134  1.00  0.00    -0.101 C  
HETATM   28  F   UNL     1      -8.295   9.654  70.342  1.00  0.00    -0.166 F  
HETATM   29  F   UNL     1      -8.154   7.749  69.303  1.00  0.00    -0.116 F  
HETATM   30  F   UNL     1      -6.713   9.338  68.886  1.00  0.00    -0.050 F  
ENDBRANCH  15  16
ENDBRANCH   2  15
TORSDOF 4
ENDMDL
MODEL      271
REMARK 921   NORMALIZED FREE ENERGY PREDICTED BY IDOCK:   -2.38 KCAL/MOL
REMARK 922        TOTAL FREE ENERGY PREDICTED BY IDOCK:   -4.00 KCAL/MOL
REMARK 923 INTER-LIGAND FREE ENERGY PREDICTED BY IDOCK:   -5.54 KCAL/MOL
REMARK 924 INTRA-LIGAND FREE ENERGY PREDICTED BY IDOCK:    1.54 KCAL/MOL
REMARK 927      BINDING AFFINITY PREDICTED BY RF-SCORE:    0.00 PKD
ROOT
HETATM    1  N   UNL     1     -10.721  14.395  66.709  1.00  0.00    -0.289 NA 
HETATM    2  C   UNL     1      -9.980  13.242  67.265  1.00  0.00    -0.231 C  
HETATM    3  H1  UNL     1     -11.638  14.429  67.154  1.00  0.00     0.000 HD 
HETATM    4  H2  UNL     1     -10.777  14.372  65.691  1.00  0.00     0.000 HD 
ENDROOT
BRANCH   2   5
HETATM    5  C   UNL     1      -9.903  13.366  68.807  1.00  0.00    -0.030 C  
BRANCH   5   6
HETATM    6  C   UNL     1     -10.946  12.537  69.525  1.00  0.00     0.029 A  
HETATM    7  F   UNL     1     -10.021  10.527  68.665  1.00  0.00    -0.155 F  
HETATM    8  C   UNL     1     -10.938  11.140  69.428  1.00  0.00    -0.244 A  
HETATM    9  C   UNL     1     -11.865  10.360  70.109  1.00  0.00    -0.379 A  
HETATM   10  C   UNL     1     -11.935  13.152  70.309  1.00  0.00    -0.366 A  
HETATM   11  C   UNL     1     -12.856  12.371  71.000  1.00  0.00    -0.155 A  
HETATM   12  F   UNL     1     -13.706  10.239  71.573  1.00  0.00    -0.333 F  
HETATM   13  C   UNL     1     -12.819  10.985  70.903  1.00  0.00    -0.301 A  
HETATM   14  F   UNL     1     -13.782  12.969  71.765  1.00  0.00    -0.451 F  
ENDBRANCH   5   6
ENDBRANCH   2   5
BRANCH   2  15
HETATM   15  C   UNL     1      -8.603  13.191  66.599  1.00  0.00     0.042 C  
BRANCH  15  16
HETATM   16  C   UNL     1      -7.589  14.196  67.130  1.00  0.00     0.053 C  
HETATM   17  N   UNL     1      -9.006  18.003  67.631  1.00  0.00    -0.250 NA 
HETATM   18  C   UNL     1      -7.005  16.573  67.453  1.00  0.00    -0.155 C  
HETATM   19  N   UNL     1      -7.929  15.537  66.983  1.00  0.00    -0.220 N  
HETATM   20  C   UNL     1      -9.602  17.254  66.652  1.00  0.00    -0.276 A  
HETATM   21  O   UNL     1      -6.550  13.846  67.683  1.00  0.00    -0.170 OA 
HETATM   22  C   UNL     1      -9.012  16.005  66.112  1.00  0.00    -0.345 C  
HETATM   23  C   UNL     1      -7.744  17.651  68.252  1.00  0.00    -0.253 C  
HETATM   24  N   UNL     1     -10.740  17.811  66.318  1.00  0.00    -0.190 NA 
HETATM   25  N   UNL     1     -10.916  18.914  67.114  1.00  0.00    -0.336 NA 
HETATM   26  C   UNL     1      -9.877  19.018  67.927  1.00  0.00    -0.337 A  
HETATM   27  C   UNL     1      -9.682  20.037  68.989  1.00  0.00    -0.104 C  
HETATM   28  F   UNL     1      -8.503  19.882  69.650  1.00  0.00    -0.144 F  
HETATM   29  F   UNL     1      -9.677  21.299  68.493  1.00  0.00     0.279 F  
HETATM   30  F   UNL     1     -10.654  19.981  69.936  1.00  0.00    -0.229 F  
ENDBRANCH  15  16
ENDBRANCH   2  15
TORSDOF 4
ENDMDL
MODEL      272
REMARK 921   NORMALIZED FREE ENERGY PREDICTED BY IDOCK:   -2.29 KCAL/MOL
REMARK 922        TOTAL FREE ENERGY PREDICTED BY IDOCK:   -3.89 KCAL/MOL
REMARK 923 INTER-LIGAND FREE ENERGY PREDICTED BY IDOCK:   -5.03 KCAL/MOL
REMARK 924 INTRA-LIGAND FREE ENERGY PREDICTED BY IDOCK:    1.14 KCAL/MOL
REMARK 927      BINDING AFFINITY PREDICTED BY RF-SCORE:    0.00 PKD
ROOT
HETATM    1  N   UNL     1      -5.855  11.334  65.425  1.00  0.00    -0.463 NA 
HETATM    2  C   UNL     1      -6.153  11.551  66.858  1.00  0.00    -0.146 C  
HETATM    3  H1  UNL     1      -4.869  11.088  65.339  1.00  0.00     0.000 HD 
HETATM    4  H2  UNL     1      -6.115  12.131  64.844  1.00  0.00     0.000 HD 
ENDROOT
BRANCH   2   5
HETATM    5  C   UNL     1      -5.769  10.288  67.667  1.00  0.00    -0.045 C  
BRANCH   5   6
HETATM    6  C   UNL     1      -6.967   9.529  68.193  1.00  0.00    -0.078 A  
HETATM    7  F   UNL     1      -6.629  10.395  70.378  1.00  0.00    -0.111 F  
HETATM    8  C   UNL     1      -7.348   9.639  69.536  1.00  0.00    -0.084 A  
HETATM    9  C   UNL     1      -8.468   8.978  70.029  1.00  0.00    -0.149 A  
HETATM   10  C   UNL     1      -7.726   8.708  67.343  1.00  0.00    -0.098 A  
HETATM   11  C   UNL     1      -8.852   8.055  67.833  1.00  0.00    -0.130 A  
HETATM   12  F   UNL     1     -10.309   7.565  69.631  1.00  0.00    -0.201 F  
HETATM   13  C   UNL     1      -9.222   8.192  69.167  1.00  0.00    -0.151 A  
HETATM   14  F   UNL     1      -9.582   7.293  67.006  1.00  0.00    -0.155 F  
ENDBRANCH   5   6
ENDBRANCH   2   5
BRANCH   2  15
HETATM   15  C   UNL     1      -7.633  11.920  66.988  1.00  0.00    -0.134 C  
BRANCH  15  16
HETATM   16  C   UNL     1      -8.000  12.685  68.253  1.00  0.00    -0.153 C  
HETATM   17  N   UNL     1      -8.649  16.693  67.739  1.00  0.00    -0.190 NA 
HETATM   18  C   UNL     1      -8.204  14.885  69.355  1.00  0.00    -0.084 C  
HETATM   19  N   UNL     1      -7.886  14.069  68.179  1.00  0.00    -0.131 N  
HETATM   20  C   UNL     1      -7.776  16.100  66.866  1.00  0.00    -0.249 A  
HETATM   21  O   UNL     1      -8.402  12.119  69.266  1.00  0.00     0.382 OA 
HETATM   22  C   UNL     1      -7.173  14.765  67.103  1.00  0.00     0.075 C  
HETATM   23  C   UNL     1      -9.086  16.078  68.976  1.00  0.00    -0.242 C  
HETATM   24  N   UNL     1      -7.602  16.885  65.832  1.00  0.00    -0.200 NA 
HETATM   25  N   UNL     1      -8.400  17.986  66.004  1.00  0.00    -0.519 NA 
HETATM   26  C   UNL     1      -9.054  17.861  67.148  1.00  0.00    -0.251 A  
HETATM   27  C   UNL     1     -10.063  18.799  67.699  1.00  0.00    -0.367 C  
HETATM   28  F   UNL     1     -10.549  18.394  68.904  1.00  0.00    -0.298 F  
HETATM   29  F   UNL     1      -9.555  20.042  67.893  1.00  0.00    -0.420 F  
HETATM   30  F   UNL     1     -11.140  18.929  66.883  1.00  0.00    -0.433 F  
ENDBRANCH  15  16
ENDBRANCH   2  15
TORSDOF 4
ENDMDL
MODEL      273
REMARK 921   NORMALIZED FREE ENERGY PREDICTED BY IDOCK:   -1.92 KCAL/MOL
REMARK 922        TOTAL FREE ENERGY PREDICTED BY IDOCK:   -3.43 KCAL/MOL
REMARK 923 INTER-LIGAND FREE ENERGY PREDICTED BY IDOCK:   -2.57 KCAL/MOL
REMARK 924 INTRA-LIGAND FREE ENERGY PREDICTED BY IDOCK:   -0.87 KCAL/MOL
REMARK 927      BINDING AFFINITY PREDICTED BY RF-SCORE:    0.00 PKD
ROOT
HETATM    1  N   UNL     1     -11.428   5.116  74.310  1.00  0.00     0.172 NA 
HETATM    2  C   UNL     1     -10.593   5.955  73.423  1.00  0.00    -0.258 C  
HETATM    3  H1  UNL     1     -10.883   4.295  74.577  1.00  0.00     0.000 HD 
HETATM    4  H2  UNL     1     -12.326   4.873  73.891  1.00  0.00     0.000 HD 
ENDROOT
BRANCH   2   5
HETATM    5  C   UNL     1      -9.268   6.313  74.139  1.00  0.00    -0.164 C  
BRANCH   5   6
HETATM    6  C   UNL     1      -8.209   6.849  73.201  1.00  0.00    -0.118 A  
HETATM    7  F   UNL     1      -8.602   9.072  73.934  1.00  0.00     0.112 F  
HETATM    8  C   UNL     1      -7.916   8.217  73.162  1.00  0.00    -0.140 A  
HETATM    9  C   UNL     1      -6.921   8.724  72.333  1.00  0.00     0.035 A  
HETATM   10  C   UNL     1      -7.491   5.983  72.359  1.00  0.00    -0.099 A  
HETATM   11  C   UNL     1      -6.488   6.487  71.538  1.00  0.00    -0.046 A  
HETATM   12  F   UNL     1      -5.234   8.326  70.738  1.00  0.00    -0.025 F  
HETATM   13  C   UNL     1      -6.204   7.848  71.528  1.00  0.00    -0.035 A  
HETATM   14  F   UNL     1      -5.794   5.647  70.757  1.00  0.00    -0.019 F  
ENDBRANCH   5   6
ENDBRANCH   2   5
BRANCH   2  15
HETATM   15  C   UNL     1     -11.409   7.186  73.021  1.00  0.00    -0.208 C  
BRANCH  15  16
HETATM   16  C   UNL     1     -11.654   7.341  71.526  1.00  0.00    -0.275 C  
HETATM   17  N   UNL     1     -12.322  11.174  70.256  1.00  0.00    -0.318 NA 
HETATM   18  C   UNL     1     -12.501   8.777  69.705  1.00  0.00     1.702 C  
HETATM   19  N   UNL     1     -12.217   8.548  71.125  1.00  0.00    -0.271 N  
HETATM   20  C   UNL     1     -12.692  10.885  71.543  1.00  0.00    -0.428 A  
HETATM   21  O   UNL     1     -11.345   6.468  70.719  1.00  0.00    -0.299 OA 
HETATM   22  C   UNL     1     -12.836   9.499  72.054  1.00  0.00    -0.414 C  
HETATM   23  C   UNL     1     -12.021  10.163  69.263  1.00  0.00     0.167 C  
HETATM   24  N   UNL     1     -12.864  12.003  72.203  1.00  0.00    -0.161 NA 
HETATM   25  N   UNL     1     -12.564  13.039  71.356  1.00  0.00    -0.290 NA 
HETATM   26  C   UNL     1     -12.213  12.538  70.183  1.00  0.00    -0.234 A  
HETATM   27  C   UNL     1     -11.759  13.301  68.993  1.00  0.00    -0.322 C  
HETATM   28  F   UNL     1     -11.477  12.496  67.933  1.00  0.00    -0.269 F  
HETATM   29  F   UNL     1     -12.696  14.183  68.563  1.00  0.00    -0.124 F  
HETATM   30  F   UNL     1     -10.626  14.008  69.241  1.00  0.00    -0.237 F  
ENDBRANCH  15  16
ENDBRANCH   2  15
TORSDOF 4
ENDMDL
MODEL      274
REMARK 921   NORMALIZED FREE ENERGY PREDICTED BY IDOCK:   -0.93 KCAL/MOL
REMARK 922        TOTAL FREE ENERGY PREDICTED BY IDOCK:   -2.22 KCAL/MOL
REMARK 923 INTER-LIGAND FREE ENERGY PREDICTED BY IDOCK:   -3.59 KCAL/MOL
REMARK 924 INTRA-LIGAND FREE ENERGY PREDICTED BY IDOCK:    1.38 KCAL/MOL
REMARK 927      BINDING AFFINITY PREDICTED BY RF-SCORE:    0.00 PKD
ROOT
HETATM    1  N   UNL     1      -6.209  15.027  70.570  1.00  0.00    -0.100 NA 
HETATM    2  C   UNL     1      -6.696  14.994  69.174  1.00  0.00    -0.126 C  
HETATM    3  H1  UNL     1      -6.254  14.079  70.945  1.00  0.00     0.000 HD 
HETATM    4  H2  UNL     1      -6.712  15.703  71.146  1.00  0.00     0.000 HD 
ENDROOT
BRANCH   2   5
HETATM    5  C   UNL     1      -5.864  13.977  68.355  1.00  0.00    -0.103 C  
BRANCH   5   6
HETATM    6  C   UNL     1      -5.785  12.612  69.003  1.00  0.00    -0.072 A  
HETATM    7  F   UNL     1      -5.427  11.572  66.899  1.00  0.00    -0.068 F  
HETATM    8  C   UNL     1      -5.550  11.468  68.230  1.00  0.00    -0.045 A  
HETATM    9  C   UNL     1      -5.438  10.209  68.811  1.00  0.00    -0.038 A  
HETATM   10  C   UNL     1      -5.936  12.466  70.391  1.00  0.00    -0.095 A  
HETATM   11  C   UNL     1      -5.814  11.209  70.974  1.00  0.00     0.095 A  
HETATM   12  F   UNL     1      -5.442   8.883  70.757  1.00  0.00    -0.027 F  
HETATM   13  C   UNL     1      -5.563  10.089  70.189  1.00  0.00    -0.047 A  
HETATM   14  F   UNL     1      -5.937  11.087  72.304  1.00  0.00     0.662 F  
ENDBRANCH   5   6
ENDBRANCH   2   5
BRANCH   2  15
HETATM   15  C   UNL     1      -6.629  16.416  68.610  1.00  0.00    -0.142 C  
BRANCH  15  16
HETATM   16  C   UNL     1      -7.858  17.275  68.875  1.00  0.00    -0.206 C  
HETATM   17  N   UNL     1     -11.191  15.228  70.079  1.00  0.00    -0.266 NA 
HETATM   18  C   UNL     1     -10.307  17.347  69.179  1.00  0.00    -0.271 C  
HETATM   19  N   UNL     1      -9.070  16.596  68.943  1.00  0.00    -0.250 N  
HETATM   20  C   UNL     1     -10.312  14.546  69.280  1.00  0.00    -0.142 A  
HETATM   21  O   UNL     1      -7.781  18.489  69.048  1.00  0.00    -0.255 OA 
HETATM   22  C   UNL     1      -9.248  15.213  68.490  1.00  0.00    -0.192 C  
HETATM   23  C   UNL     1     -11.169  16.667  70.248  1.00  0.00     0.029 C  
HETATM   24  N   UNL     1     -10.564  13.263  69.361  1.00  0.00     0.121 NA 
HETATM   25  N   UNL     1     -11.592  13.094  70.253  1.00  0.00    -0.097 NA 
HETATM   26  C   UNL     1     -11.956  14.282  70.708  1.00  0.00    -0.320 A  
HETATM   27  C   UNL     1     -12.996  14.558  71.731  1.00  0.00    -0.341 C  
HETATM   28  F   UNL     1     -13.145  15.888  71.978  1.00  0.00    -0.466 F  
HETATM   29  F   UNL     1     -14.218  14.102  71.355  1.00  0.00    -0.408 F  
HETATM   30  F   UNL     1     -12.703  13.983  72.926  1.00  0.00    -0.423 F  
ENDBRANCH  15  16
ENDBRANCH   2  15
TORSDOF 4
ENDMDL
MODEL      275
REMARK 921   NORMALIZED FREE ENERGY PREDICTED BY IDOCK:   -0.26 KCAL/MOL
REMARK 922        TOTAL FREE ENERGY PREDICTED BY IDOCK:   -1.39 KCAL/MOL
REMARK 923 INTER-LIGAND FREE ENERGY PREDICTED BY IDOCK:   -2.72 KCAL/MOL
REMARK 924 INTRA-LIGAND FREE ENERGY PREDICTED BY IDOCK:    1.33 KCAL/MOL
REMARK 927      BINDING AFFINITY PREDICTED BY RF-SCORE:    0.00 PKD
ROOT
HETATM    1  N   UNL     1      -6.323  15.445  69.916  1.00  0.00    -0.160 NA 
HETATM    2  C   UNL     1      -7.441  15.535  68.951  1.00  0.00    -0.158 C  
HETATM    3  H1  UNL     1      -6.442  16.184  70.610  1.00  0.00     0.000 HD 
HETATM    4  H2  UNL     1      -5.410  15.472  69.463  1.00  0.00     0.000 HD 
ENDROOT
BRANCH   2   5
HETATM    5  C   UNL     1      -8.790  15.449  69.706  1.00  0.00    -0.023 C  
BRANCH   5   6
HETATM    6  C   UNL     1      -9.937  14.999  68.828  1.00  0.00    -0.228 A  
HETATM    7  F   UNL     1     -11.526  15.903  70.343  1.00  0.00    -0.274 F  
HETATM    8  C   UNL     1     -11.262  15.270  69.190  1.00  0.00    -0.278 A  
HETATM    9  C   UNL     1     -12.328  14.897  68.379  1.00  0.00     0.096 A  
HETATM   10  C   UNL     1      -9.695  14.310  67.628  1.00  0.00    -0.220 A  
HETATM   11  C   UNL     1     -10.760  13.947  66.810  1.00  0.00    -0.281 A  
HETATM   12  F   UNL     1     -13.087  13.892  66.389  1.00  0.00    -0.289 F  
HETATM   13  C   UNL     1     -12.067  14.241  67.182  1.00  0.00    -0.377 A  
HETATM   14  F   UNL     1     -10.514  13.310  65.656  1.00  0.00    -0.262 F  
ENDBRANCH   5   6
ENDBRANCH   2   5
BRANCH   2  15
HETATM   15  C   UNL     1      -7.264  14.426  67.910  1.00  0.00    -0.169 C  
BRANCH  15  16
HETATM   16  C   UNL     1      -6.336  13.292  68.324  1.00  0.00    -0.099 C  
HETATM   17  N   UNL     1      -8.196   9.760  69.229  1.00  0.00    -0.120 NA 
HETATM   18  C   UNL     1      -6.123  11.083  69.406  1.00  0.00    -0.060 C  
HETATM   19  N   UNL     1      -6.942  12.213  68.959  1.00  0.00    -0.103 N  
HETATM   20  C   UNL     1      -8.919  10.903  69.445  1.00  0.00     0.126 A  
HETATM   21  O   UNL     1      -5.132  13.312  68.084  1.00  0.00    -0.086 OA 
HETATM   22  C   UNL     1      -8.307  12.254  69.495  1.00  0.00     1.325 C  
HETATM   23  C   UNL     1      -6.763   9.748  69.013  1.00  0.00    -0.049 C  
HETATM   24  N   UNL     1     -10.186  10.593  69.572  1.00  0.00    -0.197 NA 
HETATM   25  N   UNL     1     -10.305   9.238  69.395  1.00  0.00    -0.209 NA 
HETATM   26  C   UNL     1      -9.103   8.735  69.163  1.00  0.00    -0.141 A  
HETATM   27  C   UNL     1      -8.779   7.318  68.865  1.00  0.00    -0.128 C  
HETATM   28  F   UNL     1      -7.446   7.115  68.682  1.00  0.00    -0.090 F  
HETATM   29  F   UNL     1      -9.156   6.485  69.867  1.00  0.00    -0.139 F  
HETATM   30  F   UNL     1      -9.385   6.882  67.731  1.00  0.00    -0.124 F  
ENDBRANCH  15  16
ENDBRANCH   2  15
TORSDOF 4
ENDMDL
MODEL      276
REMARK 921   NORMALIZED FREE ENERGY PREDICTED BY IDOCK:   -0.09 KCAL/MOL
REMARK 922        TOTAL FREE ENERGY PREDICTED BY IDOCK:   -1.18 KCAL/MOL
REMARK 923 INTER-LIGAND FREE ENERGY PREDICTED BY IDOCK:   -4.73 KCAL/MOL
REMARK 924 INTRA-LIGAND FREE ENERGY PREDICTED BY IDOCK:    3.56 KCAL/MOL
REMARK 927      BINDING AFFINITY PREDICTED BY RF-SCORE:    0.00 PKD
ROOT
HETATM    1  N   UNL     1      -7.925  13.814  68.092  1.00  0.00    -0.138 NA 
HETATM    2  C   UNL     1      -6.891  13.959  69.140  1.00  0.00    -0.108 C  
HETATM    3  H1  UNL     1      -8.557  14.612  68.156  1.00  0.00     0.000 HD 
HETATM    4  H2  UNL     1      -8.413  12.919  68.143  1.00  0.00     0.000 HD 
ENDROOT
BRANCH   2   5
HETATM    5  C   UNL     1      -6.170  15.319  68.976  1.00  0.00    -0.103 C  
BRANCH   5   6
HETATM    6  C   UNL     1      -7.052  16.394  68.382  1.00  0.00    -0.156 A  
HETATM    7  F   UNL     1      -8.043  14.837  66.889  1.00  0.00    -0.215 F  
HETATM    8  C   UNL     1      -7.967  16.087  67.368  1.00  0.00    -0.159 A  
HETATM    9  C   UNL     1      -8.812  17.055  66.834  1.00  0.00    -0.251 A  
HETATM   10  C   UNL     1      -6.977  17.720  68.842  1.00  0.00    -0.250 A  
HETATM   11  C   UNL     1      -7.830  18.685  68.316  1.00  0.00    -0.307 A  
HETATM   12  F   UNL     1      -9.563  19.287  66.824  1.00  0.00    -0.308 F  
HETATM   13  C   UNL     1      -8.743  18.353  67.322  1.00  0.00    -0.259 A  
HETATM   14  F   UNL     1      -7.765  19.941  68.781  1.00  0.00    -0.355 F  
ENDBRANCH   5   6
ENDBRANCH   2   5
BRANCH   2  15
HETATM   15  C   UNL     1      -5.942  12.761  69.044  1.00  0.00    -0.084 C  
BRANCH  15  16
HETATM   16  C   UNL     1      -6.391  11.653  68.101  1.00  0.00    -0.050 C  
HETATM   17  N   UNL     1      -8.939   8.899  69.738  1.00  0.00    -0.144 NA 
HETATM   18  C   UNL     1      -7.408   9.414  67.875  1.00  0.00    -0.083 C  
HETATM   19  N   UNL     1      -6.961  10.537  68.705  1.00  0.00    -0.066 N  
HETATM   20  C   UNL     1      -8.063   9.507  70.598  1.00  0.00    -0.113 A  
HETATM   21  O   UNL     1      -6.287  11.750  66.881  1.00  0.00    -0.148 OA 
HETATM   22  C   UNL     1      -6.870  10.261  70.143  1.00  0.00    -0.151 C  
HETATM   23  C   UNL     1      -8.802   8.938  68.296  1.00  0.00    -0.134 C  
HETATM   24  N   UNL     1      -8.472   9.322  71.829  1.00  0.00    -0.204 NA 
HETATM   25  N   UNL     1      -9.650   8.622  71.778  1.00  0.00    -0.264 NA 
HETATM   26  C   UNL     1      -9.947   8.386  70.511  1.00  0.00    -0.185 A  
HETATM   27  C   UNL     1     -11.162   7.704  69.998  1.00  0.00    -0.134 C  
HETATM   28  F   UNL     1     -11.172   7.607  68.640  1.00  0.00    -0.039 F  
HETATM   29  F   UNL     1     -11.276   6.437  70.470  1.00  0.00    -0.304 F  
HETATM   30  F   UNL     1     -12.300   8.363  70.336  1.00  0.00    -0.020 F  
ENDBRANCH  15  16
ENDBRANCH   2  15
TORSDOF 4
ENDMDL
MODEL      277
REMARK 921   NORMALIZED FREE ENERGY PREDICTED BY IDOCK:    0.59 KCAL/MOL
REMARK 922        TOTAL FREE ENERGY PREDICTED BY IDOCK:   -0.33 KCAL/MOL
REMARK 923 INTER-LIGAND FREE ENERGY PREDICTED BY IDOCK:   -4.10 KCAL/MOL
REMARK 924 INTRA-LIGAND FREE ENERGY PREDICTED BY IDOCK:    3.76 KCAL/MOL
REMARK 927      BINDING AFFINITY PREDICTED BY RF-SCORE:    0.00 PKD
ROOT
HETATM    1  N   UNL     1      -8.419  15.917  66.000  1.00  0.00    -0.285 NA 
HETATM    2  C   UNL     1      -9.171  14.986  66.868  1.00  0.00    -0.246 C  
HETATM    3  H1  UNL     1      -7.491  16.049  66.403  1.00  0.00     0.000 HD 
HETATM    4  H2  UNL     1      -8.911  16.798  65.849  1.00  0.00     0.000 HD 
ENDROOT
BRANCH   2   5
HETATM    5  C   UNL     1      -8.382  13.662  67.020  1.00  0.00    -0.099 C  
BRANCH   5   6
HETATM    6  C   UNL     1      -8.838  12.583  66.062  1.00  0.00     0.255 A  
HETATM    7  F   UNL     1      -7.834  10.895  67.397  1.00  0.00    -0.105 F  
HETATM    8  C   UNL     1      -8.550  11.236  66.316  1.00  0.00    -0.172 A  
HETATM    9  C   UNL     1      -8.991  10.227  65.466  1.00  0.00    -0.200 A  
HETATM   10  C   UNL     1      -9.565  12.910  64.906  1.00  0.00     0.218 A  
HETATM   11  C   UNL     1     -10.016  11.900  64.062  1.00  0.00    -0.293 A  
HETATM   12  F   UNL     1     -10.174   9.601  63.529  1.00  0.00     0.437 F  
HETATM   13  C   UNL     1      -9.733  10.568  64.343  1.00  0.00    -0.328 A  
HETATM   14  F   UNL     1     -10.731  12.223  62.975  1.00  0.00    -0.433 F  
ENDBRANCH   5   6
ENDBRANCH   2   5
BRANCH   2  15
HETATM   15  C   UNL     1     -10.564  14.788  66.264  1.00  0.00    -0.306 C  
BRANCH  15  16
HETATM   16  C   UNL     1     -11.452  13.791  66.997  1.00  0.00    -0.346 C  
HETATM   17  N   UNL     1     -12.078  14.602  70.960  1.00  0.00    -0.311 NA 
HETATM   18  C   UNL     1     -12.211  12.907  69.174  1.00  0.00    -0.037 C  
HETATM   19  N   UNL     1     -11.400  13.841  68.386  1.00  0.00    -0.274 N  
HETATM   20  C   UNL     1     -10.895  15.040  70.427  1.00  0.00    -0.149 A  
HETATM   21  O   UNL     1     -12.192  13.013  66.402  1.00  0.00    -0.387 OA 
HETATM   22  C   UNL     1     -10.359  14.556  69.131  1.00  0.00    -0.189 C  
HETATM   23  C   UNL     1     -12.937  13.632  70.312  1.00  0.00     0.146 C  
HETATM   24  N   UNL     1     -10.368  15.934  71.227  1.00  0.00     0.852 NA 
HETATM   25  N   UNL     1     -11.233  16.119  72.276  1.00  0.00     0.145 NA 
HETATM   26  C   UNL     1     -12.281  15.330  72.103  1.00  0.00    -0.380 A  
HETATM   27  C   UNL     1     -13.481  15.248  72.974  1.00  0.00    -0.481 C  
HETATM   28  F   UNL     1     -14.384  14.331  72.532  1.00  0.00    -0.533 F  
HETATM   29  F   UNL     1     -13.167  14.891  74.244  1.00  0.00    -0.034 F  
HETATM   30  F   UNL     1     -14.146  16.429  73.040  1.00  0.00    -0.566 F  
ENDBRANCH  15  16
ENDBRANCH   2  15
TORSDOF 4
ENDMDL
MODEL      278
REMARK 921   NORMALIZED FREE ENERGY PREDICTED BY IDOCK:    1.26 KCAL/MOL
REMARK 922        TOTAL FREE ENERGY PREDICTED BY IDOCK:    0.49 KCAL/MOL
REMARK 923 INTER-LIGAND FREE ENERGY PREDICTED BY IDOCK:   -0.86 KCAL/MOL
REMARK 924 INTRA-LIGAND FREE ENERGY PREDICTED BY IDOCK:    1.35 KCAL/MOL
REMARK 927      BINDING AFFINITY PREDICTED BY RF-SCORE:    0.00 PKD
ROOT
HETATM    1  N   UNL     1      -8.789  16.089  65.873  1.00  0.00    -0.324 NA 
HETATM    2  C   UNL     1      -7.625  16.570  66.648  1.00  0.00    -0.275 C  
HETATM    3  H1  UNL     1      -8.448  15.703  64.992  1.00  0.00     0.000 HD 
HETATM    4  H2  UNL     1      -9.498  16.810  65.739  1.00  0.00     0.000 HD 
ENDROOT
BRANCH   2   5
HETATM    5  C   UNL     1      -6.614  15.414  66.842  1.00  0.00     0.541 C  
BRANCH   5   6
HETATM    6  C   UNL     1      -7.253  14.142  67.355  1.00  0.00    -0.124 A  
HETATM    7  F   UNL     1      -5.942  14.212  69.333  1.00  0.00    -0.082 F  
HETATM    8  C   UNL     1      -6.890  13.611  68.599  1.00  0.00    -0.097 A  
HETATM    9  C   UNL     1      -7.493  12.463  69.102  1.00  0.00     0.166 A  
HETATM   10  C   UNL     1      -8.229  13.474  66.597  1.00  0.00     0.348 A  
HETATM   11  C   UNL     1      -8.840  12.332  67.105  1.00  0.00    -0.194 A  
HETATM   12  F   UNL     1      -9.071  10.736  68.835  1.00  0.00    -0.151 F  
HETATM   13  C   UNL     1      -8.476  11.833  68.351  1.00  0.00    -0.155 A  
HETATM   14  F   UNL     1      -9.788  11.717  66.383  1.00  0.00    -0.205 F  
ENDBRANCH   5   6
ENDBRANCH   2   5
BRANCH   2  15
HETATM   15  C   UNL     1      -8.136  17.148  67.970  1.00  0.00    -0.210 C  
BRANCH  15  16
HETATM   16  C   UNL     1      -9.620  17.491  67.996  1.00  0.00    -0.282 C  
HETATM   17  N   UNL     1     -11.967  14.916  70.144  1.00  0.00    -0.297 NA 
HETATM   18  C   UNL     1     -11.917  16.709  68.451  1.00  0.00     0.701 C  
HETATM   19  N   UNL     1     -10.471  16.472  68.411  1.00  0.00    -0.289 N  
HETATM   20  C   UNL     1     -10.833  14.387  69.587  1.00  0.00    -0.111 A  
HETATM   21  O   UNL     1     -10.038  18.607  67.699  1.00  0.00    -0.332 OA 
HETATM   22  C   UNL     1     -10.058  15.069  68.521  1.00  0.00    -0.225 C  
HETATM   23  C   UNL     1     -12.523  16.199  69.763  1.00  0.00     0.500 C  
HETATM   24  N   UNL     1     -10.569  13.239  70.159  1.00  0.00     1.149 NA 
HETATM   25  N   UNL     1     -11.513  13.029  71.131  1.00  0.00     1.350 NA 
HETATM   26  C   UNL     1     -12.347  14.056  71.140  1.00  0.00    -0.365 A  
HETATM   27  C   UNL     1     -13.487  14.263  72.068  1.00  0.00    -0.412 C  
HETATM   28  F   UNL     1     -14.162  15.417  71.814  1.00  0.00    -0.498 F  
HETATM   29  F   UNL     1     -14.399  13.263  71.990  1.00  0.00    -0.399 F  
HETATM   30  F   UNL     1     -13.084  14.340  73.363  1.00  0.00    -0.592 F  
ENDBRANCH  15  16
ENDBRANCH   2  15
TORSDOF 4
ENDMDL
MODEL      279
REMARK 921   NORMALIZED FREE ENERGY PREDICTED BY IDOCK:    2.15 KCAL/MOL
REMARK 922        TOTAL FREE ENERGY PREDICTED BY IDOCK:    1.58 KCAL/MOL
REMARK 923 INTER-LIGAND FREE ENERGY PREDICTED BY IDOCK:    0.56 KCAL/MOL
REMARK 924 INTRA-LIGAND FREE ENERGY PREDICTED BY IDOCK:    1.02 KCAL/MOL
REMARK 927      BINDING AFFINITY PREDICTED BY RF-SCORE:    0.00 PKD
ROOT
HETATM    1  N   UNL     1      -9.294  17.858  65.561  1.00  0.00     0.051 NA 
HETATM    2  C   UNL     1      -8.414  18.015  66.739  1.00  0.00    -0.257 C  
HETATM    3  H1  UNL     1      -8.725  17.530  64.780  1.00  0.00     0.000 HD 
HETATM    4  H2  UNL     1      -9.812  18.709  65.341  1.00  0.00     0.000 HD 
ENDROOT
BRANCH   2   5
HETATM    5  C   UNL     1      -7.693  16.677  67.034  1.00  0.00    -0.235 C  
BRANCH   5   6
HETATM    6  C   UNL     1      -8.464  15.466  66.556  1.00  0.00    -0.248 A  
HETATM    7  F   UNL     1      -7.092  14.016  67.840  1.00  0.00    -0.097 F  
HETATM    8  C   UNL     1      -8.128  14.183  67.006  1.00  0.00    -0.017 A  
HETATM    9  C   UNL     1      -8.847  13.062  66.607  1.00  0.00    -0.083 A  
HETATM   10  C   UNL     1      -9.537  15.606  65.661  1.00  0.00    -0.319 A  
HETATM   11  C   UNL     1     -10.264  14.486  65.270  1.00  0.00    -0.402 A  
HETATM   12  F   UNL     1     -10.629  12.151  65.366  1.00  0.00    -0.271 F  
HETATM   13  C   UNL     1      -9.923  13.224  65.743  1.00  0.00    -0.251 A  
HETATM   14  F   UNL     1     -11.301  14.636  64.433  1.00  0.00    -0.364 F  
ENDBRANCH   5   6
ENDBRANCH   2   5
BRANCH   2  15
HETATM   15  C   UNL     1      -9.267  18.508  67.911  1.00  0.00    -0.306 C  
BRANCH  15  16
HETATM   16  C   UNL     1     -10.731  18.091  67.866  1.00  0.00    -0.313 C  
HETATM   17  N   UNL     1     -11.954  15.683  70.941  1.00  0.00    -0.362 NA 
HETATM   18  C   UNL     1     -12.468  16.539  68.686  1.00  0.00     1.646 C  
HETATM   19  N   UNL     1     -11.082  17.018  68.679  1.00  0.00    -0.215 N  
HETATM   20  C   UNL     1     -10.635  15.593  70.584  1.00  0.00    -0.112 A  
HETATM   21  O   UNL     1     -11.559  18.684  67.179  1.00  0.00     0.668 OA 
HETATM   22  C   UNL     1     -10.102  16.125  69.305  1.00  0.00    -0.260 C  
HETATM   23  C   UNL     1     -12.966  16.315  70.117  1.00  0.00     1.768 C  
HETATM   24  N   UNL     1      -9.969  15.000  71.544  1.00  0.00     1.682 NA 
HETATM   25  N   UNL     1     -10.849  14.734  72.561  1.00  0.00     1.122 NA 
HETATM   26  C   UNL     1     -12.048  15.169  72.207  1.00  0.00    -0.393 A  
HETATM   27  C   UNL     1     -13.283  15.131  73.031  1.00  0.00    -0.503 C  
HETATM   28  F   UNL     1     -14.360  15.648  72.380  1.00  0.00    -0.589 F  
HETATM   29  F   UNL     1     -13.623  13.867  73.385  1.00  0.00    -0.206 F  
HETATM   30  F   UNL     1     -13.155  15.849  74.177  1.00  0.00    -0.572 F  
ENDBRANCH  15  16
ENDBRANCH   2  15
TORSDOF 4
ENDMDL
MODEL      280
REMARK 921   NORMALIZED FREE ENERGY PREDICTED BY IDOCK:    2.19 KCAL/MOL
REMARK 922        TOTAL FREE ENERGY PREDICTED BY IDOCK:    1.64 KCAL/MOL
REMARK 923 INTER-LIGAND FREE ENERGY PREDICTED BY IDOCK:   -2.61 KCAL/MOL
REMARK 924 INTRA-LIGAND FREE ENERGY PREDICTED BY IDOCK:    4.25 KCAL/MOL
REMARK 927      BINDING AFFINITY PREDICTED BY RF-SCORE:    0.00 PKD
ROOT
HETATM    1  N   UNL     1     -10.584   5.122  73.516  1.00  0.00    -0.233 NA 
HETATM    2  C   UNL     1      -9.931   6.243  72.806  1.00  0.00    -0.172 C  
HETATM    3  H1  UNL     1      -9.976   4.306  73.450  1.00  0.00     0.000 HD 
HETATM    4  H2  UNL     1     -11.528   4.939  73.177  1.00  0.00     0.000 HD 
ENDROOT
BRANCH   2   5
HETATM    5  C   UNL     1      -8.522   6.486  73.398  1.00  0.00    -0.126 C  
BRANCH   5   6
HETATM    6  C   UNL     1      -7.598   7.228  72.457  1.00  0.00    -0.088 A  
HETATM    7  F   UNL     1      -6.271   5.287  72.136  1.00  0.00    -0.026 F  
HETATM    8  C   UNL     1      -6.517   6.574  71.854  1.00  0.00    -0.050 A  
HETATM    9  C   UNL     1      -5.679   7.230  70.959  1.00  0.00    -0.031 A  
HETATM   10  C   UNL     1      -7.813   8.585  72.163  1.00  0.00    -0.136 A  
HETATM   11  C   UNL     1      -6.982   9.238  71.259  1.00  0.00    -0.009 A  
HETATM   12  F   UNL     1      -5.131   9.198  69.787  1.00  0.00    -0.032 F  
HETATM   13  C   UNL     1      -5.925   8.564  70.659  1.00  0.00    -0.032 A  
HETATM   14  F   UNL     1      -7.213  10.527  70.968  1.00  0.00     0.280 F  
ENDBRANCH   5   6
ENDBRANCH   2   5
BRANCH   2  15
HETATM   15  C   UNL     1     -10.843   7.469  72.905  1.00  0.00    -0.425 C  
BRANCH  15  16
HETATM   16  C   UNL     1     -11.223   8.103  71.573  1.00  0.00    -0.259 C  
HETATM   17  N   UNL     1      -9.887   6.115  68.254  1.00  0.00    -0.121 NA 
HETATM   18  C   UNL     1     -10.796   8.227  69.144  1.00  0.00    -0.017 C  
HETATM   19  N   UNL     1     -10.508   7.660  70.465  1.00  0.00    -0.217 N  
HETATM   20  C   UNL     1      -9.129   5.988  69.387  1.00  0.00    -0.133 A  
HETATM   21  O   UNL     1     -12.125   8.930  71.476  1.00  0.00    -0.296 OA 
HETATM   22  C   UNL     1      -9.267   6.884  70.561  1.00  0.00    -0.156 C  
HETATM   23  C   UNL     1     -10.911   7.127  68.085  1.00  0.00    -0.109 C  
HETATM   24  N   UNL     1      -8.319   4.967  69.250  1.00  0.00    -0.082 NA 
HETATM   25  N   UNL     1      -8.575   4.391  68.032  1.00  0.00    -0.101 NA 
HETATM   26  C   UNL     1      -9.542   5.070  67.438  1.00  0.00    -0.145 A  
HETATM   27  C   UNL     1     -10.166   4.760  66.127  1.00  0.00    -0.281 C  
HETATM   28  F   UNL     1     -11.131   5.656  65.783  1.00  0.00    -0.055 F  
HETATM   29  F   UNL     1      -9.263   4.767  65.115  1.00  0.00    -0.146 F  
HETATM   30  F   UNL     1     -10.765   3.541  66.122  1.00  0.00     0.584 F  
ENDBRANCH  15  16
ENDBRANCH   2  15
TORSDOF 4
ENDMDL
MODEL      281
REMARK 921   NORMALIZED FREE ENERGY PREDICTED BY IDOCK:    7.45 KCAL/MOL
REMARK 922        TOTAL FREE ENERGY PREDICTED BY IDOCK:    8.13 KCAL/MOL
REMARK 923 INTER-LIGAND FREE ENERGY PREDICTED BY IDOCK:    0.45 KCAL/MOL
REMARK 924 INTRA-LIGAND FREE ENERGY PREDICTED BY IDOCK:    7.67 KCAL/MOL
REMARK 927      BINDING AFFINITY PREDICTED BY RF-SCORE:    0.00 PKD
ROOT
HETATM    1  N   UNL     1     -10.754  15.334  63.588  1.00  0.00     1.187 NA 
HETATM    2  C   UNL     1     -11.101  15.889  64.914  1.00  0.00    -0.389 C  
HETATM    3  H1  UNL     1      -9.781  15.570  63.389  1.00  0.00     0.000 HD 
HETATM    4  H2  UNL     1     -11.392  15.641  62.854  1.00  0.00     0.000 HD 
ENDROOT
BRANCH   2   5
HETATM    5  C   UNL     1     -10.115  15.351  65.979  1.00  0.00    -0.346 C  
BRANCH   5   6
HETATM    6  C   UNL     1      -9.483  16.444  66.813  1.00  0.00    -0.265 A  
HETATM    7  F   UNL     1      -8.150  14.862  67.978  1.00  0.00    -0.120 F  
HETATM    8  C   UNL     1      -8.507  16.138  67.770  1.00  0.00    -0.158 A  
HETATM    9  C   UNL     1      -7.888  17.132  68.520  1.00  0.00    -0.257 A  
HETATM   10  C   UNL     1      -9.855  17.787  66.638  1.00  0.00    -0.322 A  
HETATM   11  C   UNL     1      -9.229  18.783  67.380  1.00  0.00    -0.282 A  
HETATM   12  F   UNL     1      -7.649  19.421  69.021  1.00  0.00    -0.369 F  
HETATM   13  C   UNL     1      -8.250  18.457  68.312  1.00  0.00    -0.299 A  
HETATM   14  F   UNL     1      -9.576  20.063  67.186  1.00  0.00    -0.407 F  
ENDBRANCH   5   6
ENDBRANCH   2   5
BRANCH   2  15
HETATM   15  C   UNL     1     -12.560  15.535  65.214  1.00  0.00     0.934 C  
BRANCH  15  16
HETATM   16  C   UNL     1     -12.889  14.048  65.162  1.00  0.00    -0.334 C  
HETATM   17  N   UNL     1      -9.759  11.542  65.983  1.00  0.00    -0.219 NA 
HETATM   18  C   UNL     1     -12.021  11.741  65.022  1.00  0.00     0.049 C  
HETATM   19  N   UNL     1     -11.798  13.188  65.092  1.00  0.00    -0.340 N  
HETATM   20  C   UNL     1      -9.441  12.754  65.432  1.00  0.00     0.177 A  
HETATM   21  O   UNL     1     -14.043  13.632  65.210  1.00  0.00     1.001 OA 
HETATM   22  C   UNL     1     -10.437  13.633  64.771  1.00  0.00    -0.418 C  
HETATM   23  C   UNL     1     -11.101  10.993  65.992  1.00  0.00     0.017 C  
HETATM   24  N   UNL     1      -8.163  12.985  65.609  1.00  0.00     1.996 NA 
HETATM   25  N   UNL     1      -7.643  11.934  66.320  1.00  0.00     0.240 NA 
HETATM   26  C   UNL     1      -8.614  11.070  66.569  1.00  0.00    -0.165 A  
HETATM   27  C   UNL     1      -8.504   9.816  67.356  1.00  0.00    -0.121 C  
HETATM   28  F   UNL     1      -9.682   9.138  67.424  1.00  0.00    -0.163 F  
HETATM   29  F   UNL     1      -7.599   8.956  66.825  1.00  0.00    -0.083 F  
HETATM   30  F   UNL     1      -8.130  10.050  68.640  1.00  0.00    -0.092 F  
ENDBRANCH  15  16
ENDBRANCH   2  15
TORSDOF 4
ENDMDL
MODEL      282
REMARK 921   NORMALIZED FREE ENERGY PREDICTED BY IDOCK:    9.08 KCAL/MOL
REMARK 922        TOTAL FREE ENERGY PREDICTED BY IDOCK:   10.14 KCAL/MOL
REMARK 923 INTER-LIGAND FREE ENERGY PREDICTED BY IDOCK:    5.40 KCAL/MOL
REMARK 924 INTRA-LIGAND FREE ENERGY PREDICTED BY IDOCK:    4.74 KCAL/MOL
REMARK 927      BINDING AFFINITY PREDICTED BY RF-SCORE:    0.00 PKD
ROOT
HETATM    1  N   UNL     1      -9.373  16.348  65.851  1.00  0.00    -0.471 NA 
HETATM    2  C   UNL     1      -8.409  15.264  66.142  1.00  0.00     0.441 C  
HETATM    3  H1  UNL     1     -10.291  16.056  66.189  1.00  0.00     0.000 HD 
HETATM    4  H2  UNL     1      -9.382  16.612  64.866  1.00  0.00     0.000 HD 
ENDROOT
BRANCH   2   5
HETATM    5  C   UNL     1      -8.424  14.945  67.657  1.00  0.00    -0.176 C  
BRANCH   5   6
HETATM    6  C   UNL     1      -9.311  13.771  68.010  1.00  0.00    -0.199 A  
HETATM    7  F   UNL     1     -10.886  15.204  69.061  1.00  0.00    -0.212 F  
HETATM    8  C   UNL     1     -10.520  13.969  68.688  1.00  0.00    -0.247 A  
HETATM    9  C   UNL     1     -11.366  12.907  68.989  1.00  0.00    -0.341 A  
HETATM   10  C   UNL     1      -8.943  12.462  67.657  1.00  0.00    -0.183 A  
HETATM   11  C   UNL     1      -9.794  11.401  67.949  1.00  0.00    -0.179 A  
HETATM   12  F   UNL     1     -11.814  10.597  68.881  1.00  0.00    -0.329 F  
HETATM   13  C   UNL     1     -10.998  11.623  68.607  1.00  0.00    -0.220 A  
HETATM   14  F   UNL     1      -9.443  10.159  67.585  1.00  0.00    -0.148 F  
ENDBRANCH   5   6
ENDBRANCH   2   5
BRANCH   2  15
HETATM   15  C   UNL     1      -7.032  15.701  65.635  1.00  0.00     5.217 C  
BRANCH  15  16
HETATM   16  C   UNL     1      -6.417  16.885  66.371  1.00  0.00    -0.048 C  
HETATM   17  N   UNL     1      -9.066  19.208  68.454  1.00  0.00    -0.345 NA 
HETATM   18  C   UNL     1      -6.801  19.052  67.490  1.00  0.00    -0.204 C  
HETATM   19  N   UNL     1      -7.308  17.869  66.787  1.00  0.00    -0.190 N  
HETATM   20  C   UNL     1      -9.557  18.562  67.350  1.00  0.00    -0.293 A  
HETATM   21  O   UNL     1      -5.214  16.953  66.610  1.00  0.00    -0.276 OA 
HETATM   22  C   UNL     1      -8.690  17.964  66.307  1.00  0.00    -0.169 C  
HETATM   23  C   UNL     1      -7.651  19.365  68.725  1.00  0.00    -0.363 C  
HETATM   24  N   UNL     1     -10.866  18.558  67.403  1.00  0.00    -0.379 NA 
HETATM   25  N   UNL     1     -11.240  19.168  68.573  1.00  0.00     0.975 NA 
HETATM   26  C   UNL     1     -10.150  19.542  69.222  1.00  0.00    -0.214 A  
HETATM   27  C   UNL     1     -10.092  20.192  70.556  1.00  0.00     1.229 C  
HETATM   28  F   UNL     1      -8.817  20.462  70.949  1.00  0.00     0.638 F  
HETATM   29  F   UNL     1     -10.755  21.376  70.577  1.00  0.00     1.035 F  
HETATM   30  F   UNL     1     -10.629  19.413  71.528  1.00  0.00     1.050 F  
ENDBRANCH  15  16
ENDBRANCH   2  15
TORSDOF 4
ENDMDL
MODEL      283
REMARK 921   NORMALIZED FREE ENERGY PREDICTED BY IDOCK:    9.57 KCAL/MOL
REMARK 922        TOTAL FREE ENERGY PREDICTED BY IDOCK:   10.74 KCAL/MOL
REMARK 923 INTER-LIGAND FREE ENERGY PREDICTED BY IDOCK:    2.92 KCAL/MOL
REMARK 924 INTRA-LIGAND FREE ENERGY PREDICTED BY IDOCK:    7.82 KCAL/MOL
REMARK 927      BINDING AFFINITY PREDICTED BY RF-SCORE:    0.00 PKD
ROOT
HETATM    1  N   UNL     1     -10.179  16.635  68.513  1.00  0.00    -0.264 NA 
HETATM    2  C   UNL     1      -9.601  17.198  67.273  1.00  0.00    -0.245 C  
HETATM    3  H1  UNL     1     -10.871  15.933  68.251  1.00  0.00     0.000 HD 
HETATM    4  H2  UNL     1     -10.560  17.353  69.130  1.00  0.00     0.000 HD 
ENDROOT
BRANCH   2   5
HETATM    5  C   UNL     1      -9.010  16.058  66.408  1.00  0.00    -0.354 C  
BRANCH   5   6
HETATM    6  C   UNL     1      -9.843  14.795  66.436  1.00  0.00    -0.297 A  
HETATM    7  F   UNL     1      -8.045  13.561  67.374  1.00  0.00    -0.149 F  
HETATM    8  C   UNL     1      -9.314  13.601  66.941  1.00  0.00    -0.257 A  
HETATM    9  C   UNL     1     -10.076  12.440  67.008  1.00  0.00    -0.223 A  
HETATM   10  C   UNL     1     -11.167  14.798  65.965  1.00  0.00    -0.341 A  
HETATM   11  C   UNL     1     -11.933  13.639  66.042  1.00  0.00    -0.413 A  
HETATM   12  F   UNL     1     -12.135  11.360  66.638  1.00  0.00    -0.036 F  
HETATM   13  C   UNL     1     -11.391  12.470  66.563  1.00  0.00    -0.334 A  
HETATM   14  F   UNL     1     -13.202  13.662  65.611  1.00  0.00    -0.479 F  
ENDBRANCH   5   6
ENDBRANCH   2   5
BRANCH   2  15
HETATM   15  C   UNL     1      -8.562  18.252  67.666  1.00  0.00    -0.261 C  
BRANCH  15  16
HETATM   16  C   UNL     1      -8.765  18.882  69.038  1.00  0.00    -0.130 C  
HETATM   17  N   UNL     1     -11.579  17.064  71.389  1.00  0.00     0.576 NA 
HETATM   18  C   UNL     1     -10.213  19.085  71.027  1.00  0.00     2.502 C  
HETATM   19  N   UNL     1      -9.928  18.515  69.707  1.00  0.00     0.400 N  
HETATM   20  C   UNL     1     -11.764  16.972  70.035  1.00  0.00     1.511 A  
HETATM   21  O   UNL     1      -7.939  19.641  69.537  1.00  0.00    -0.123 OA 
HETATM   22  C   UNL     1     -11.053  17.833  69.058  1.00  0.00     0.839 C  
HETATM   23  C   UNL     1     -10.663  18.000  72.010  1.00  0.00     3.339 C  
HETATM   24  N   UNL     1     -12.626  16.018  69.783  1.00  0.00    -0.014 NA 
HETATM   25  N   UNL     1     -12.980  15.447  70.978  1.00  0.00    -0.466 NA 
HETATM   26  C   UNL     1     -12.329  16.064  71.951  1.00  0.00    -0.450 A  
HETATM   27  C   UNL     1     -12.375  15.733  73.397  1.00  0.00    -0.528 C  
HETATM   28  F   UNL     1     -11.598  16.561  74.147  1.00  0.00    -0.194 F  
HETATM   29  F   UNL     1     -13.630  15.828  73.904  1.00  0.00    -0.368 F  
HETATM   30  F   UNL     1     -11.935  14.474  73.648  1.00  0.00    -0.323 F  
ENDBRANCH  15  16
ENDBRANCH   2  15
TORSDOF 4
ENDMDL
MODEL      284
REMARK 921   NORMALIZED FREE ENERGY PREDICTED BY IDOCK:   10.03 KCAL/MOL
REMARK 922        TOTAL FREE ENERGY PREDICTED BY IDOCK:   11.31 KCAL/MOL
REMARK 923 INTER-LIGAND FREE ENERGY PREDICTED BY IDOCK:    6.48 KCAL/MOL
REMARK 924 INTRA-LIGAND FREE ENERGY PREDICTED BY IDOCK:    4.83 KCAL/MOL
REMARK 927      BINDING AFFINITY PREDICTED BY RF-SCORE:    0.00 PKD
ROOT
HETATM    1  N   UNL     1      -9.373  16.348  65.851  1.00  0.00    -0.471 NA 
HETATM    2  C   UNL     1      -8.444  15.227  66.110  1.00  0.00     0.266 C  
HETATM    3  H1  UNL     1     -10.300  16.075  66.178  1.00  0.00     0.000 HD 
HETATM    4  H2  UNL     1      -9.371  16.643  64.875  1.00  0.00     0.000 HD 
ENDROOT
BRANCH   2   5
HETATM    5  C   UNL     1      -8.473  14.862  67.614  1.00  0.00    -0.176 C  
BRANCH   5   6
HETATM    6  C   UNL     1      -8.022  13.445  67.893  1.00  0.00    -0.155 A  
HETATM    7  F   UNL     1      -9.760  12.564  66.536  1.00  0.00    -0.220 F  
HETATM    8  C   UNL     1      -8.689  12.357  67.316  1.00  0.00    -0.191 A  
HETATM    9  C   UNL     1      -8.267  11.049  67.531  1.00  0.00    -0.117 A  
HETATM   10  C   UNL     1      -6.921  13.193  68.727  1.00  0.00    -0.103 A  
HETATM   11  C   UNL     1      -6.492  11.886  68.934  1.00  0.00    -0.082 A  
HETATM   12  F   UNL     1      -6.738   9.567  68.537  1.00  0.00    -0.052 F  
HETATM   13  C   UNL     1      -7.159  10.822  68.337  1.00  0.00    -0.075 A  
HETATM   14  F   UNL     1      -5.424  11.661  69.714  1.00  0.00    -0.058 F  
ENDBRANCH   5   6
ENDBRANCH   2   5
BRANCH   2  15
HETATM   15  C   UNL     1      -7.052  15.637  65.620  1.00  0.00     4.911 C  
BRANCH  15  16
HETATM   16  C   UNL     1      -6.404  16.779  66.393  1.00  0.00     0.124 C  
HETATM   17  N   UNL     1      -8.989  19.131  68.522  1.00  0.00    -0.353 NA 
HETATM   18  C   UNL     1      -6.725  18.925  67.569  1.00  0.00    -0.200 C  
HETATM   19  N   UNL     1      -7.264  17.780  66.831  1.00  0.00    -0.187 N  
HETATM   20  C   UNL     1      -9.494  18.533  67.398  1.00  0.00    -0.283 A  
HETATM   21  O   UNL     1      -5.202  16.800  66.642  1.00  0.00    -0.320 OA 
HETATM   22  C   UNL     1      -8.639  17.934  66.344  1.00  0.00    -0.227 C  
HETATM   23  C   UNL     1      -7.572  19.232  68.808  1.00  0.00    -0.358 C  
HETATM   24  N   UNL     1     -10.803  18.570  67.442  1.00  0.00    -0.379 NA 
HETATM   25  N   UNL     1     -11.165  19.160  68.625  1.00  0.00     1.184 NA 
HETATM   26  C   UNL     1     -10.068  19.479  69.292  1.00  0.00    -0.214 A  
HETATM   27  C   UNL     1      -9.998  20.089  70.644  1.00  0.00     1.371 C  
HETATM   28  F   UNL     1      -8.719  20.305  71.054  1.00  0.00     0.694 F  
HETATM   29  F   UNL     1     -10.622  21.293  70.694  1.00  0.00     1.028 F  
HETATM   30  F   UNL     1     -10.569  19.301  71.591  1.00  0.00     1.127 F  
ENDBRANCH  15  16
ENDBRANCH   2  15
TORSDOF 4
ENDMDL
MODEL      285
REMARK 921   NORMALIZED FREE ENERGY PREDICTED BY IDOCK:   11.62 KCAL/MOL
REMARK 922        TOTAL FREE ENERGY PREDICTED BY IDOCK:   13.27 KCAL/MOL
REMARK 923 INTER-LIGAND FREE ENERGY PREDICTED BY IDOCK:    9.93 KCAL/MOL
REMARK 924 INTRA-LIGAND FREE ENERGY PREDICTED BY IDOCK:    3.34 KCAL/MOL
REMARK 927      BINDING AFFINITY PREDICTED BY RF-SCORE:    0.00 PKD
ROOT
HETATM    1  N   UNL     1      -6.107  16.270  69.146  1.00  0.00    -0.145 NA 
HETATM    2  C   UNL     1      -7.313  17.023  68.739  1.00  0.00    -0.236 C  
HETATM    3  H1  UNL     1      -5.875  16.533  70.104  1.00  0.00     0.000 HD 
HETATM    4  H2  UNL     1      -5.326  16.399  68.502  1.00  0.00     0.000 HD 
ENDROOT
BRANCH   2   5
HETATM    5  C   UNL     1      -8.462  16.747  69.740  1.00  0.00     0.955 C  
BRANCH   5   6
HETATM    6  C   UNL     1      -9.764  16.377  69.065  1.00  0.00    -0.262 A  
HETATM    7  F   UNL     1     -11.016  17.524  70.725  1.00  0.00     0.234 F  
HETATM    8  C   UNL     1     -10.989  16.807  69.592  1.00  0.00    -0.119 A  
HETATM    9  C   UNL     1     -12.194  16.508  68.966  1.00  0.00     0.918 A  
HETATM   10  C   UNL     1      -9.771  15.604  67.892  1.00  0.00    -0.211 A  
HETATM   11  C   UNL     1     -10.976  15.315  67.259  1.00  0.00    -0.327 A  
HETATM   12  F   UNL     1     -13.333  15.487  67.175  1.00  0.00     2.282 F  
HETATM   13  C   UNL     1     -12.178  15.766  67.791  1.00  0.00     0.807 A  
HETATM   14  F   UNL     1     -10.966  14.596  66.127  1.00  0.00    -0.305 F  
ENDBRANCH   5   6
ENDBRANCH   2   5
BRANCH   2  15
HETATM   15  C   UNL     1      -7.661  16.627  67.302  1.00  0.00    -0.198 C  
BRANCH  15  16
HETATM   16  C   UNL     1      -6.735  15.595  66.672  1.00  0.00     0.826 C  
HETATM   17  N   UNL     1      -8.198  11.774  66.569  1.00  0.00    -0.117 NA 
HETATM   18  C   UNL     1      -6.198  13.203  66.378  1.00  0.00     2.899 C  
HETATM   19  N   UNL     1      -7.045  14.264  66.931  1.00  0.00     0.611 N  
HETATM   20  C   UNL     1      -8.644  12.570  67.591  1.00  0.00    -0.178 A  
HETATM   21  O   UNL     1      -5.792  15.915  65.954  1.00  0.00     2.142 OA 
HETATM   22  C   UNL     1      -7.984  13.841  67.976  1.00  0.00    -0.156 C  
HETATM   23  C   UNL     1      -7.046  12.092  65.751  1.00  0.00     1.746 C  
HETATM   24  N   UNL     1      -9.717  12.034  68.117  1.00  0.00    -0.194 NA 
HETATM   25  N   UNL     1     -10.006  10.896  67.409  1.00  0.00    -0.183 NA 
HETATM   26  C   UNL     1      -9.101  10.749  66.456  1.00  0.00    -0.165 A  
HETATM   27  C   UNL     1      -9.064   9.681  65.426  1.00  0.00    -0.215 C  
HETATM   28  F   UNL     1      -7.997   9.800  64.589  1.00  0.00    -0.117 F  
HETATM   29  F   UNL     1      -8.980   8.443  65.975  1.00  0.00    -0.160 F  
HETATM   30  F   UNL     1     -10.167   9.695  64.634  1.00  0.00    -0.205 F  
ENDBRANCH  15  16
ENDBRANCH   2  15
TORSDOF 4
ENDMDL
MODEL      286
REMARK 921   NORMALIZED FREE ENERGY PREDICTED BY IDOCK:   20.12 KCAL/MOL
REMARK 922        TOTAL FREE ENERGY PREDICTED BY IDOCK:   23.75 KCAL/MOL
REMARK 923 INTER-LIGAND FREE ENERGY PREDICTED BY IDOCK:   17.51 KCAL/MOL
REMARK 924 INTRA-LIGAND FREE ENERGY PREDICTED BY IDOCK:    6.25 KCAL/MOL
REMARK 927      BINDING AFFINITY PREDICTED BY RF-SCORE:    0.00 PKD
ROOT
HETATM    1  N   UNL     1      -6.202  16.258  68.945  1.00  0.00    -0.133 NA 
HETATM    2  C   UNL     1      -7.358  17.134  68.656  1.00  0.00    -0.238 C  
HETATM    3  H1  UNL     1      -6.016  16.296  69.948  1.00  0.00     0.000 HD 
HETATM    4  H2  UNL     1      -5.382  16.492  68.384  1.00  0.00     0.000 HD 
ENDROOT
BRANCH   2   5
HETATM    5  C   UNL     1      -8.570  16.697  69.514  1.00  0.00     0.340 C  
BRANCH   5   6
HETATM    6  C   UNL     1      -9.860  16.618  68.728  1.00  0.00    -0.252 A  
HETATM    7  F   UNL     1     -10.276  14.419  69.520  1.00  0.00    -0.182 F  
HETATM    8  C   UNL     1     -10.664  15.473  68.788  1.00  0.00    -0.249 A  
HETATM    9  C   UNL     1     -11.871  15.396  68.101  1.00  0.00    -0.178 A  
HETATM   10  C   UNL     1     -10.282  17.695  67.931  1.00  0.00    -0.357 A  
HETATM   11  C   UNL     1     -11.494  17.623  67.253  1.00  0.00     0.950 A  
HETATM   12  F   UNL     1     -13.452  16.421  66.688  1.00  0.00     4.512 F  
HETATM   13  C   UNL     1     -12.284  16.482  67.340  1.00  0.00     1.847 A  
HETATM   14  F   UNL     1     -11.897  18.667  66.514  1.00  0.00     1.089 F  
ENDBRANCH   5   6
ENDBRANCH   2   5
BRANCH   2  15
HETATM   15  C   UNL     1      -7.637  17.077  67.152  1.00  0.00    -0.205 C  
BRANCH  15  16
HETATM   16  C   UNL     1      -6.712  16.165  66.356  1.00  0.00     0.745 C  
HETATM   17  N   UNL     1      -6.563  12.283  67.644  1.00  0.00    -0.106 NA 
HETATM   18  C   UNL     1      -5.480  14.027  66.278  1.00  0.00     4.803 C  
HETATM   19  N   UNL     1      -6.378  14.960  66.965  1.00  0.00     0.563 N  
HETATM   20  C   UNL     1      -6.843  13.230  68.593  1.00  0.00    -0.099 A  
HETATM   21  O   UNL     1      -6.311  16.459  65.233  1.00  0.00     2.859 OA 
HETATM   22  C   UNL     1      -6.611  14.680  68.386  1.00  0.00    -0.102 C  
HETATM   23  C   UNL     1      -6.023  12.595  66.336  1.00  0.00     1.844 C  
HETATM   24  N   UNL     1      -7.347  12.643  69.650  1.00  0.00     0.482 NA 
HETATM   25  N   UNL     1      -7.439  11.301  69.380  1.00  0.00    -0.043 NA 
HETATM   26  C   UNL     1      -6.987  11.085  68.156  1.00  0.00    -0.069 A  
HETATM   27  C   UNL     1      -6.954   9.784  67.441  1.00  0.00    -0.084 C  
HETATM   28  F   UNL     1      -6.419   9.888  66.194  1.00  0.00    -0.068 F  
HETATM   29  F   UNL     1      -6.210   8.858  68.097  1.00  0.00    -0.048 F  
HETATM   30  F   UNL     1      -8.195   9.259  67.276  1.00  0.00    -0.115 F  
ENDBRANCH  15  16
ENDBRANCH   2  15
TORSDOF 4
ENDMDL
MODEL      287
REMARK 921   NORMALIZED FREE ENERGY PREDICTED BY IDOCK:   25.83 KCAL/MOL
REMARK 922        TOTAL FREE ENERGY PREDICTED BY IDOCK:   30.81 KCAL/MOL
REMARK 923 INTER-LIGAND FREE ENERGY PREDICTED BY IDOCK:   23.23 KCAL/MOL
REMARK 924 INTRA-LIGAND FREE ENERGY PREDICTED BY IDOCK:    7.57 KCAL/MOL
REMARK 927      BINDING AFFINITY PREDICTED BY RF-SCORE:    0.00 PKD
ROOT
HETATM    1  N   UNL     1     -10.790  17.595  69.008  1.00  0.00    -0.241 NA 
HETATM    2  C   UNL     1     -10.297  18.653  68.100  1.00  0.00    -0.359 C  
HETATM    3  H1  UNL     1     -11.047  16.785  68.443  1.00  0.00     0.000 HD 
HETATM    4  H2  UNL     1     -11.551  17.915  69.608  1.00  0.00     0.000 HD 
ENDROOT
BRANCH   2   5
HETATM    5  C   UNL     1      -9.123  18.108  67.251  1.00  0.00    -0.252 C  
BRANCH   5   6
HETATM    6  C   UNL     1      -9.555  17.086  66.222  1.00  0.00    -0.289 A  
HETATM    7  F   UNL     1      -7.595  15.799  66.595  1.00  0.00    -0.254 F  
HETATM    8  C   UNL     1      -8.764  15.961  65.959  1.00  0.00    -0.188 A  
HETATM    9  C   UNL     1      -9.161  14.992  65.043  1.00  0.00     1.381 A  
HETATM   10  C   UNL     1     -10.761  17.241  65.519  1.00  0.00    -0.105 A  
HETATM   11  C   UNL     1     -11.164  16.266  64.612  1.00  0.00    -0.254 A  
HETATM   12  F   UNL     1     -10.767  14.214  63.506  1.00  0.00     0.592 F  
HETATM   13  C   UNL     1     -10.371  15.149  64.378  1.00  0.00     0.682 A  
HETATM   14  F   UNL     1     -12.329  16.414  63.965  1.00  0.00    -0.127 F  
ENDBRANCH   5   6
ENDBRANCH   2   5
BRANCH   2  15
HETATM   15  C   UNL     1      -9.911  19.869  68.947  1.00  0.00    -0.391 C  
BRANCH  15  16
HETATM   16  C   UNL     1      -9.038  19.563  70.157  1.00  0.00     1.141 C  
HETATM   17  N   UNL     1      -7.759  15.686  70.448  1.00  0.00     0.794 NA 
HETATM   18  C   UNL     1      -8.070  17.830  71.626  1.00  0.00    10.807 C  
HETATM   19  N   UNL     1      -8.882  18.216  70.467  1.00  0.00     3.572 N  
HETATM   20  C   UNL     1      -8.953  15.888  69.809  1.00  0.00     0.134 A  
HETATM   21  O   UNL     1      -8.481  20.447  70.802  1.00  0.00     1.202 OA 
HETATM   22  C   UNL     1      -9.721  17.154  69.902  1.00  0.00     0.785 C  
HETATM   23  C   UNL     1      -7.113  16.687  71.273  1.00  0.00     4.467 C  
HETATM   24  N   UNL     1      -9.259  14.816  69.120  1.00  0.00    -0.137 NA 
HETATM   25  N   UNL     1      -8.237  13.915  69.274  1.00  0.00     0.288 NA 
HETATM   26  C   UNL     1      -7.316  14.450  70.059  1.00  0.00     0.277 A  
HETATM   27  C   UNL     1      -6.018  13.840  70.445  1.00  0.00    -0.156 C  
HETATM   28  F   UNL     1      -5.293  14.639  71.274  1.00  0.00    -0.122 F  
HETATM   29  F   UNL     1      -6.180  12.662  71.097  1.00  0.00     0.068 F  
HETATM   30  F   UNL     1      -5.227  13.598  69.368  1.00  0.00    -0.081 F  
ENDBRANCH  15  16
ENDBRANCH   2  15
TORSDOF 4
ENDMDL
MODEL      288
REMARK 921   NORMALIZED FREE ENERGY PREDICTED BY IDOCK:   26.61 KCAL/MOL
REMARK 922        TOTAL FREE ENERGY PREDICTED BY IDOCK:   31.76 KCAL/MOL
REMARK 923 INTER-LIGAND FREE ENERGY PREDICTED BY IDOCK:   24.92 KCAL/MOL
REMARK 924 INTRA-LIGAND FREE ENERGY PREDICTED BY IDOCK:    6.84 KCAL/MOL
REMARK 927      BINDING AFFINITY PREDICTED BY RF-SCORE:    0.00 PKD
ROOT
HETATM    1  N   UNL     1      -9.020  16.354  66.053  1.00  0.00    -0.442 NA 
HETATM    2  C   UNL     1      -7.870  15.466  66.330  1.00  0.00     0.760 C  
HETATM    3  H1  UNL     1      -9.873  15.866  66.327  1.00  0.00     0.000 HD 
HETATM    4  H2  UNL     1      -9.044  16.676  65.085  1.00  0.00     0.000 HD 
ENDROOT
BRANCH   2   5
HETATM    5  C   UNL     1      -7.879  15.050  67.821  1.00  0.00    -0.161 C  
BRANCH   5   6
HETATM    6  C   UNL     1      -9.119  14.280  68.218  1.00  0.00    -0.188 A  
HETATM    7  F   UNL     1      -8.460  14.285  70.499  1.00  0.00     1.125 F  
HETATM    8  C   UNL     1      -9.355  13.949  69.558  1.00  0.00     0.870 A  
HETATM    9  C   UNL     1     -10.506  13.273  69.948  1.00  0.00     1.081 A  
HETATM   10  C   UNL     1     -10.062  13.889  67.253  1.00  0.00    -0.242 A  
HETATM   11  C   UNL     1     -11.219  13.223  67.643  1.00  0.00    -0.280 A  
HETATM   12  F   UNL     1     -12.557  12.282  69.351  1.00  0.00    -0.109 F  
HETATM   13  C   UNL     1     -11.440  12.920  68.982  1.00  0.00    -0.308 A  
HETATM   14  F   UNL     1     -12.122  12.877  66.715  1.00  0.00    -0.426 F  
ENDBRANCH   5   6
ENDBRANCH   2   5
BRANCH   2  15
HETATM   15  C   UNL     1      -6.590  16.199  65.919  1.00  0.00     2.620 C  
BRANCH  15  16
HETATM   16  C   UNL     1      -6.557  17.683  66.257  1.00  0.00    -0.265 C  
HETATM   17  N   UNL     1     -10.216  19.416  66.857  1.00  0.00    -0.377 NA 
HETATM   18  C   UNL     1      -7.821  19.798  66.414  1.00  0.00    -0.312 C  
HETATM   19  N   UNL     1      -7.764  18.362  66.125  1.00  0.00    -0.244 N  
HETATM   20  C   UNL     1     -10.181  18.344  66.005  1.00  0.00    -0.336 A  
HETATM   21  O   UNL     1      -5.537  18.241  66.653  1.00  0.00    -0.135 OA 
HETATM   22  C   UNL     1      -8.926  17.814  65.418  1.00  0.00     1.440 C  
HETATM   23  C   UNL     1      -9.035  20.137  67.285  1.00  0.00    -0.356 C  
HETATM   24  N   UNL     1     -11.399  17.890  65.835  1.00  0.00     0.857 NA 
HETATM   25  N   UNL     1     -12.239  18.642  66.615  1.00  0.00     3.788 NA 
HETATM   26  C   UNL     1     -11.521  19.552  67.254  1.00  0.00     0.630 A  
HETATM   27  C   UNL     1     -12.020  20.541  68.242  1.00  0.00     3.887 C  
HETATM   28  F   UNL     1     -11.033  21.348  68.717  1.00  0.00     0.526 F  
HETATM   29  F   UNL     1     -12.962  21.362  67.714  1.00  0.00     5.808 F  
HETATM   30  F   UNL     1     -12.573  19.943  69.329  1.00  0.00     5.712 F  
ENDBRANCH  15  16
ENDBRANCH   2  15
TORSDOF 4
ENDMDL
MODEL      289
REMARK 921   NORMALIZED FREE ENERGY PREDICTED BY IDOCK:   45.77 KCAL/MOL
REMARK 922        TOTAL FREE ENERGY PREDICTED BY IDOCK:   55.41 KCAL/MOL
REMARK 923 INTER-LIGAND FREE ENERGY PREDICTED BY IDOCK:   40.06 KCAL/MOL
REMARK 924 INTRA-LIGAND FREE ENERGY PREDICTED BY IDOCK:   15.35 KCAL/MOL
REMARK 927      BINDING AFFINITY PREDICTED BY RF-SCORE:    0.00 PKD
ROOT
HETATM    1  N   UNL     1      -9.070  16.351  66.053  1.00  0.00    -0.436 NA 
HETATM    2  C   UNL     1      -7.857  15.550  66.329  1.00  0.00     0.614 C  
HETATM    3  H1  UNL     1      -9.882  15.812  66.356  1.00  0.00     0.000 HD 
HETATM    4  H2  UNL     1      -9.133  16.645  65.079  1.00  0.00     0.000 HD 
ENDROOT
BRANCH   2   5
HETATM    5  C   UNL     1      -7.811  15.174  67.830  1.00  0.00    -0.144 C  
BRANCH   5   6
HETATM    6  C   UNL     1      -8.192  16.318  68.744  1.00  0.00    -0.227 A  
HETATM    7  F   UNL     1      -7.683  15.024  70.669  1.00  0.00     0.260 F  
HETATM    8  C   UNL     1      -8.089  16.185  70.134  1.00  0.00     1.267 A  
HETATM    9  C   UNL     1      -8.400  17.237  70.989  1.00  0.00     6.854 A  
HETATM   10  C   UNL     1      -8.646  17.537  68.216  1.00  0.00    -0.266 A  
HETATM   11  C   UNL     1      -8.947  18.594  69.070  1.00  0.00    -0.081 A  
HETATM   12  F   UNL     1      -9.108  19.467  71.262  1.00  0.00     2.148 F  
HETATM   13  C   UNL     1      -8.821  18.445  70.447  1.00  0.00     3.238 A  
HETATM   14  F   UNL     1      -9.357  19.761  68.552  1.00  0.00    -0.388 F  
ENDBRANCH   5   6
ENDBRANCH   2   5
BRANCH   2  15
HETATM   15  C   UNL     1      -6.638  16.357  65.876  1.00  0.00     1.836 C  
BRANCH  15  16
HETATM   16  C   UNL     1      -6.740  17.862  66.093  1.00  0.00    -0.280 C  
HETATM   17  N   UNL     1     -10.549  19.317  66.442  1.00  0.00    -0.449 NA 
HETATM   18  C   UNL     1      -8.179  19.867  66.041  1.00  0.00    -0.289 C  
HETATM   19  N   UNL     1      -7.993  18.423  65.870  1.00  0.00    -0.100 N  
HETATM   20  C   UNL     1     -10.395  18.189  65.681  1.00  0.00    -0.032 A  
HETATM   21  O   UNL     1      -5.784  18.534  66.472  1.00  0.00    -0.147 OA 
HETATM   22  C   UNL     1      -9.079  17.724  65.176  1.00  0.00     2.484 C  
HETATM   23  C   UNL     1      -9.447  20.168  66.845  1.00  0.00    -0.412 C  
HETATM   24  N   UNL     1     -11.563  17.621  65.512  1.00  0.00     1.227 NA 
HETATM   25  N   UNL     1     -12.490  18.358  66.204  1.00  0.00     5.950 NA 
HETATM   26  C   UNL     1     -11.874  19.373  66.788  1.00  0.00     1.880 A  
HETATM   27  C   UNL     1     -12.489  20.390  67.677  1.00  0.00     4.692 C  
HETATM   28  F   UNL     1     -11.589  21.313  68.114  1.00  0.00     2.352 F  
HETATM   29  F   UNL     1     -13.475  21.084  67.056  1.00  0.00     3.265 F  
HETATM   30  F   UNL     1     -13.029  19.834  68.792  1.00  0.00     5.245 F  
ENDBRANCH  15  16
ENDBRANCH   2  15
TORSDOF 4
ENDMDL
MODEL      290
REMARK 921   NORMALIZED FREE ENERGY PREDICTED BY IDOCK:   59.60 KCAL/MOL
REMARK 922        TOTAL FREE ENERGY PREDICTED BY IDOCK:   72.47 KCAL/MOL
REMARK 923 INTER-LIGAND FREE ENERGY PREDICTED BY IDOCK:   63.25 KCAL/MOL
REMARK 924 INTRA-LIGAND FREE ENERGY PREDICTED BY IDOCK:    9.22 KCAL/MOL
REMARK 927      BINDING AFFINITY PREDICTED BY RF-SCORE:    0.00 PKD
ROOT
HETATM    1  N   UNL     1      -6.165  16.512  69.280  1.00  0.00    -0.170 NA 
HETATM    2  C   UNL     1      -7.408  17.237  69.623  1.00  0.00     0.396 C  
HETATM    3  H1  UNL     1      -5.384  16.985  69.737  1.00  0.00     0.000 HD 
HETATM    4  H2  UNL     1      -6.032  16.414  68.274  1.00  0.00     0.000 HD 
ENDROOT
BRANCH   2   5
HETATM    5  C   UNL     1      -7.560  17.314  71.161  1.00  0.00     6.140 C  
BRANCH   5   6
HETATM    6  C   UNL     1      -8.634  16.394  71.701  1.00  0.00     8.460 A  
HETATM    7  F   UNL     1      -7.250  15.754  73.521  1.00  0.00     5.500 F  
HETATM    8  C   UNL     1      -8.424  15.666  72.879  1.00  0.00    11.773 A  
HETATM    9  C   UNL     1      -9.412  14.844  73.410  1.00  0.00     8.326 A  
HETATM   10  C   UNL     1      -9.864  16.260  71.037  1.00  0.00     2.408 A  
HETATM   11  C   UNL     1     -10.857  15.446  71.573  1.00  0.00     0.073 A  
HETATM   12  F   UNL     1     -11.594  13.968  73.266  1.00  0.00     0.524 F  
HETATM   13  C   UNL     1     -10.633  14.746  72.753  1.00  0.00     2.850 A  
HETATM   14  F   UNL     1     -12.035  15.345  70.942  1.00  0.00    -0.277 F  
ENDBRANCH   5   6
ENDBRANCH   2   5
BRANCH   2  15
HETATM   15  C   UNL     1      -8.579  16.528  68.939  1.00  0.00    -0.241 C  
BRANCH  15  16
HETATM   16  C   UNL     1      -8.266  15.141  68.393  1.00  0.00    -0.145 C  
HETATM   17  N   UNL     1      -6.789  12.483  71.132  1.00  0.00     2.289 NA 
HETATM   18  C   UNL     1      -7.091  12.997  68.740  1.00  0.00    -0.097 C  
HETATM   19  N   UNL     1      -7.456  14.342  69.194  1.00  0.00    -0.120 N  
HETATM   20  C   UNL     1      -6.523  13.806  71.362  1.00  0.00     1.009 A  
HETATM   21  O   UNL     1      -8.725  14.738  67.327  1.00  0.00    -0.185 OA 
HETATM   22  C   UNL     1      -6.682  14.858  70.328  1.00  0.00    -0.046 C  
HETATM   23  C   UNL     1      -7.265  11.970  69.863  1.00  0.00     0.763 C  
HETATM   24  N   UNL     1      -6.143  13.959  72.607  1.00  0.00    -0.071 NA 
HETATM   25  N   UNL     1      -6.200  12.731  73.215  1.00  0.00     2.122 NA 
HETATM   26  C   UNL     1      -6.615  11.839  72.329  1.00  0.00     5.352 A  
HETATM   27  C   UNL     1      -6.868  10.397  72.576  1.00  0.00     3.367 C  
HETATM   28  F   UNL     1      -7.280   9.741  71.457  1.00  0.00     0.092 F  
HETATM   29  F   UNL     1      -5.758   9.750  73.010  1.00  0.00     0.005 F  
HETATM   30  F   UNL     1      -7.838  10.201  73.506  1.00  0.00     3.151 F  
ENDBRANCH  15  16
ENDBRANCH   2  15
TORSDOF 4
ENDMDL
