MODEL        1
REMARK 921   NORMALIZED FREE ENERGY PREDICTED BY IDOCK:   -5.05 KCAL/MOL
REMARK 922        TOTAL FREE ENERGY PREDICTED BY IDOCK:   -9.72 KCAL/MOL
REMARK 923 INTER-LIGAND FREE ENERGY PREDICTED BY IDOCK:   -8.29 KCAL/MOL
REMARK 924 INTRA-LIGAND FREE ENERGY PREDICTED BY IDOCK:   -1.43 KCAL/MOL
REMARK 927      BINDING AFFINITY PREDICTED BY RF-SCORE:    0.00 PKD
ROOT
HETATM    1 NA   UNL     1     -13.512  14.331  66.094  1.00  0.00    -0.540 Na 
HETATM    2  C   UNL     2     -12.601  10.323  71.479  1.00  0.00    -0.544 C  
HETATM    3  C   UNL     2     -12.284  11.286  70.346  1.00  0.00    -0.453 C  
ENDROOT
BRANCH   3   4
HETATM    4  C   UNL     2     -12.520  12.729  70.783  1.00  0.00    -0.357 C  
BRANCH   4   5
HETATM    5  C   UNL     2     -13.355  12.811  72.063  1.00  0.00    -0.565 C  
BRANCH   5   6
HETATM    6  C   UNL     2     -13.623  14.254  72.509  1.00  0.00    -0.620 C  
BRANCH   6   7
HETATM    7  C   UNL     2     -13.248  15.268  71.429  1.00  0.00    -0.555 C  
BRANCH   7   8
HETATM    8  C   UNL     2     -11.968  16.036  71.749  1.00  0.00    -0.592 C  
BRANCH   8   9
HETATM    9  C   UNL     2     -11.070  16.195  70.513  1.00  0.00    -0.338 C  
BRANCH   9  10
HETATM   10  C   UNL     2     -11.784  16.010  69.168  1.00  0.00    -0.310 C  
BRANCH  10  11
HETATM   11  C   UNL     2     -10.836  15.584  68.044  1.00  0.00    -0.300 C  
BRANCH  11  12
HETATM   12  C   UNL     2     -11.031  14.131  67.596  1.00  0.00    -0.278 C  
BRANCH  12  13
HETATM   13  C   UNL     2     -10.350  13.795  66.267  1.00  0.00    -0.294 C  
BRANCH  13  14
HETATM   14  O   UNL     2     -11.181  14.226  65.204  1.00  0.00    -0.315 OA 
HETATM   15  S   UNL     2     -11.791  13.098  64.203  1.00  0.00    -0.458 S  
HETATM   16  O   UNL     2     -12.634  13.883  63.295  1.00  0.00    -0.824 OA 
HETATM   17  O   UNL     2     -12.552  12.213  65.078  1.00  0.00    -0.514 OA 
HETATM   18  O   UNL     2     -10.624  12.502  63.577  1.00  0.00    -0.432 OA 
ENDBRANCH  13  14
ENDBRANCH  12  13
ENDBRANCH  11  12
ENDBRANCH  10  11
ENDBRANCH   9  10
ENDBRANCH   8   9
ENDBRANCH   7   8
ENDBRANCH   6   7
ENDBRANCH   5   6
ENDBRANCH   4   5
ENDBRANCH   3   4
TORSDOF 11
ENDMDL
MODEL        2
REMARK 921   NORMALIZED FREE ENERGY PREDICTED BY IDOCK:   -4.89 KCAL/MOL
REMARK 922        TOTAL FREE ENERGY PREDICTED BY IDOCK:   -9.48 KCAL/MOL
REMARK 923 INTER-LIGAND FREE ENERGY PREDICTED BY IDOCK:   -7.77 KCAL/MOL
REMARK 924 INTRA-LIGAND FREE ENERGY PREDICTED BY IDOCK:   -1.71 KCAL/MOL
REMARK 927      BINDING AFFINITY PREDICTED BY RF-SCORE:    0.00 PKD
ROOT
HETATM    1 NA   UNL     1     -14.311  15.820  70.242  1.00  0.00    -0.779 Na 
HETATM    2  C   UNL     2     -12.477   9.493  71.826  1.00  0.00    -0.484 C  
HETATM    3  C   UNL     2     -13.003  10.668  71.014  1.00  0.00    -0.456 C  
ENDROOT
BRANCH   3   4
HETATM    4  C   UNL     2     -11.856  11.404  70.327  1.00  0.00    -0.438 C  
BRANCH   4   5
HETATM    5  C   UNL     2     -10.731  10.453  69.914  1.00  0.00    -0.331 C  
BRANCH   5   6
HETATM    6  C   UNL     2     -10.156  10.776  68.528  1.00  0.00    -0.187 C  
BRANCH   6   7
HETATM    7  C   UNL     2     -11.238  10.801  67.449  1.00  0.00    -0.315 C  
BRANCH   7   8
HETATM    8  C   UNL     2     -11.077  11.960  66.469  1.00  0.00    -0.357 C  
BRANCH   8   9
HETATM    9  C   UNL     2     -11.999  13.138  66.816  1.00  0.00    -0.434 C  
BRANCH   9  10
HETATM   10  C   UNL     2     -11.306  14.320  67.506  1.00  0.00    -0.346 C  
BRANCH  10  11
HETATM   11  C   UNL     2     -11.896  14.634  68.883  1.00  0.00    -0.344 C  
BRANCH  11  12
HETATM   12  C   UNL     2     -11.039  15.600  69.711  1.00  0.00    -0.315 C  
BRANCH  12  13
HETATM   13  C   UNL     2     -11.460  15.699  71.180  1.00  0.00    -0.411 C  
BRANCH  13  14
HETATM   14  O   UNL     2     -12.332  14.624  71.481  1.00  0.00    -0.320 OA 
HETATM   15  S   UNL     2     -13.258  14.739  72.814  1.00  0.00    -0.507 S  
HETATM   16  O   UNL     2     -14.057  13.511  72.767  1.00  0.00    -0.719 OA 
HETATM   17  O   UNL     2     -14.043  15.949  72.602  1.00  0.00    -0.544 OA 
HETATM   18  O   UNL     2     -12.306  14.798  73.909  1.00  0.00    -0.481 OA 
ENDBRANCH  13  14
ENDBRANCH  12  13
ENDBRANCH  11  12
ENDBRANCH  10  11
ENDBRANCH   9  10
ENDBRANCH   8   9
ENDBRANCH   7   8
ENDBRANCH   6   7
ENDBRANCH   5   6
ENDBRANCH   4   5
ENDBRANCH   3   4
TORSDOF 11
ENDMDL
MODEL        3
REMARK 921   NORMALIZED FREE ENERGY PREDICTED BY IDOCK:   -4.83 KCAL/MOL
REMARK 922        TOTAL FREE ENERGY PREDICTED BY IDOCK:   -9.37 KCAL/MOL
REMARK 923 INTER-LIGAND FREE ENERGY PREDICTED BY IDOCK:   -8.03 KCAL/MOL
REMARK 924 INTRA-LIGAND FREE ENERGY PREDICTED BY IDOCK:   -1.34 KCAL/MOL
REMARK 927      BINDING AFFINITY PREDICTED BY RF-SCORE:    0.00 PKD
ROOT
HETATM    1 NA   UNL     1     -12.716  12.652  65.542  1.00  0.00    -0.412 Na 
HETATM    2  C   UNL     2     -11.314   9.522  71.385  1.00  0.00    -0.462 C  
HETATM    3  C   UNL     2     -11.209  10.508  70.231  1.00  0.00    -0.391 C  
ENDROOT
BRANCH   3   4
HETATM    4  C   UNL     2     -12.110  11.716  70.471  1.00  0.00    -0.458 C  
BRANCH   4   5
HETATM    5  C   UNL     2     -13.121  11.463  71.592  1.00  0.00    -0.498 C  
BRANCH   5   6
HETATM    6  C   UNL     2     -13.596  12.756  72.269  1.00  0.00    -0.563 C  
BRANCH   6   7
HETATM    7  C   UNL     2     -13.330  13.988  71.405  1.00  0.00    -0.387 C  
BRANCH   7   8
HETATM    8  C   UNL     2     -13.006  15.234  72.227  1.00  0.00    -0.459 C  
BRANCH   8   9
HETATM    9  C   UNL     2     -11.857  16.044  71.611  1.00  0.00    -0.582 C  
BRANCH   9  10
HETATM   10  C   UNL     2     -11.121  15.349  70.458  1.00  0.00    -0.361 C  
BRANCH  10  11
HETATM   11  C   UNL     2     -10.428  16.335  69.513  1.00  0.00    -0.299 C  
BRANCH  11  12
HETATM   12  C   UNL     2     -11.034  16.363  68.105  1.00  0.00    -0.339 C  
BRANCH  12  13
HETATM   13  C   UNL     2     -10.788  15.085  67.299  1.00  0.00    -0.310 C  
BRANCH  13  14
HETATM   14  O   UNL     2     -11.831  14.933  66.352  1.00  0.00    -0.272 OA 
HETATM   15  S   UNL     2     -11.443  14.974  64.772  1.00  0.00    -0.364 S  
HETATM   16  O   UNL     2     -12.727  14.722  64.110  1.00  0.00    -0.758 OA 
HETATM   17  O   UNL     2     -10.484  13.888  64.608  1.00  0.00    -0.425 OA 
HETATM   18  O   UNL     2     -10.912  16.310  64.567  1.00  0.00    -0.687 OA 
ENDBRANCH  13  14
ENDBRANCH  12  13
ENDBRANCH  11  12
ENDBRANCH  10  11
ENDBRANCH   9  10
ENDBRANCH   8   9
ENDBRANCH   7   8
ENDBRANCH   6   7
ENDBRANCH   5   6
ENDBRANCH   4   5
ENDBRANCH   3   4
TORSDOF 11
ENDMDL
MODEL        4
REMARK 921   NORMALIZED FREE ENERGY PREDICTED BY IDOCK:   -4.70 KCAL/MOL
REMARK 922        TOTAL FREE ENERGY PREDICTED BY IDOCK:   -9.16 KCAL/MOL
REMARK 923 INTER-LIGAND FREE ENERGY PREDICTED BY IDOCK:   -7.46 KCAL/MOL
REMARK 924 INTRA-LIGAND FREE ENERGY PREDICTED BY IDOCK:   -1.71 KCAL/MOL
REMARK 927      BINDING AFFINITY PREDICTED BY RF-SCORE:    0.00 PKD
ROOT
HETATM    1 NA   UNL     1     -11.992  15.806  63.092  1.00  0.00    -0.868 Na 
HETATM    2  C   UNL     2      -9.754  20.559  67.370  1.00  0.00    -0.587 C  
HETATM    3  C   UNL     2     -10.677  19.533  66.731  1.00  0.00    -0.569 C  
ENDROOT
BRANCH   3   4
HETATM    4  C   UNL     2     -10.398  18.138  67.282  1.00  0.00    -0.399 C  
BRANCH   4   5
HETATM    5  C   UNL     2     -10.207  17.108  66.166  1.00  0.00    -0.343 C  
BRANCH   5   6
HETATM    6  C   UNL     2      -9.021  16.168  66.418  1.00  0.00    -0.353 C  
BRANCH   6   7
HETATM    7  C   UNL     2      -8.179  16.613  67.614  1.00  0.00    -0.183 C  
BRANCH   7   8
HETATM    8  C   UNL     2      -8.177  15.597  68.754  1.00  0.00    -0.183 C  
BRANCH   8   9
HETATM    9  C   UNL     2      -9.395  14.664  68.693  1.00  0.00    -0.206 C  
BRANCH   9  10
HETATM   10  C   UNL     2     -10.615  15.141  69.492  1.00  0.00    -0.277 C  
BRANCH  10  11
HETATM   11  C   UNL     2     -11.929  14.985  68.722  1.00  0.00    -0.282 C  
BRANCH  11  12
HETATM   12  C   UNL     2     -11.987  13.718  67.861  1.00  0.00    -0.391 C  
BRANCH  12  13
HETATM   13  C   UNL     2     -12.360  13.978  66.399  1.00  0.00    -0.431 C  
BRANCH  13  14
HETATM   14  O   UNL     2     -12.231  12.769  65.670  1.00  0.00    -0.451 OA 
HETATM   15  S   UNL     2     -11.727  12.856  64.126  1.00  0.00    -0.440 S  
HETATM   16  O   UNL     2     -11.648  11.448  63.725  1.00  0.00    -0.319 OA 
HETATM   17  O   UNL     2     -10.425  13.508  64.208  1.00  0.00    -0.414 OA 
HETATM   18  O   UNL     2     -12.763  13.618  63.451  1.00  0.00    -0.762 OA 
ENDBRANCH  13  14
ENDBRANCH  12  13
ENDBRANCH  11  12
ENDBRANCH  10  11
ENDBRANCH   9  10
ENDBRANCH   8   9
ENDBRANCH   7   8
ENDBRANCH   6   7
ENDBRANCH   5   6
ENDBRANCH   4   5
ENDBRANCH   3   4
TORSDOF 11
ENDMDL
MODEL        5
REMARK 921   NORMALIZED FREE ENERGY PREDICTED BY IDOCK:   -4.59 KCAL/MOL
REMARK 922        TOTAL FREE ENERGY PREDICTED BY IDOCK:   -8.97 KCAL/MOL
REMARK 923 INTER-LIGAND FREE ENERGY PREDICTED BY IDOCK:   -7.79 KCAL/MOL
REMARK 924 INTRA-LIGAND FREE ENERGY PREDICTED BY IDOCK:   -1.19 KCAL/MOL
REMARK 927      BINDING AFFINITY PREDICTED BY RF-SCORE:    0.00 PKD
ROOT
HETATM    1 NA   UNL     1     -11.667  15.624  66.962  1.00  0.00    -0.304 Na 
HETATM    2  C   UNL     2     -12.565  15.806  73.674  1.00  0.00    -0.712 C  
HETATM    3  C   UNL     2     -12.888  15.689  72.192  1.00  0.00    -0.517 C  
ENDROOT
BRANCH   3   4
HETATM    4  C   UNL     2     -12.708  14.252  71.712  1.00  0.00    -0.428 C  
BRANCH   4   5
HETATM    5  C   UNL     2     -13.726  13.303  72.350  1.00  0.00    -0.678 C  
BRANCH   5   6
HETATM    6  C   UNL     2     -13.530  11.843  71.921  1.00  0.00    -0.289 C  
BRANCH   6   7
HETATM    7  C   UNL     2     -12.352  11.679  70.962  1.00  0.00    -0.405 C  
BRANCH   7   8
HETATM    8  C   UNL     2     -11.817  10.250  70.912  1.00  0.00    -0.473 C  
BRANCH   8   9
HETATM    9  C   UNL     2     -10.504  10.156  70.122  1.00  0.00    -0.311 C  
BRANCH   9  10
HETATM   10  C   UNL     2     -10.606   9.414  68.783  1.00  0.00    -0.234 C  
BRANCH  10  11
HETATM   11  C   UNL     2     -10.340  10.320  67.578  1.00  0.00    -0.276 C  
BRANCH  11  12
HETATM   12  C   UNL     2     -11.404  11.407  67.383  1.00  0.00    -0.359 C  
BRANCH  12  13
HETATM   13  C   UNL     2     -10.913  12.619  66.585  1.00  0.00    -0.258 C  
BRANCH  13  14
HETATM   14  O   UNL     2     -11.420  12.532  65.264  1.00  0.00    -0.309 OA 
HETATM   15  S   UNL     2     -12.094  13.863  64.614  1.00  0.00    -0.437 S  
HETATM   16  O   UNL     2     -12.432  13.431  63.255  1.00  0.00    -0.739 OA 
HETATM   17  O   UNL     2     -11.033  14.862  64.657  1.00  0.00    -0.370 OA 
HETATM   18  O   UNL     2     -13.241  14.136  65.462  1.00  0.00    -0.688 OA 
ENDBRANCH  13  14
ENDBRANCH  12  13
ENDBRANCH  11  12
ENDBRANCH  10  11
ENDBRANCH   9  10
ENDBRANCH   8   9
ENDBRANCH   7   8
ENDBRANCH   6   7
ENDBRANCH   5   6
ENDBRANCH   4   5
ENDBRANCH   3   4
TORSDOF 11
ENDMDL
MODEL        6
REMARK 921   NORMALIZED FREE ENERGY PREDICTED BY IDOCK:   -4.56 KCAL/MOL
REMARK 922        TOTAL FREE ENERGY PREDICTED BY IDOCK:   -8.92 KCAL/MOL
REMARK 923 INTER-LIGAND FREE ENERGY PREDICTED BY IDOCK:   -8.05 KCAL/MOL
REMARK 924 INTRA-LIGAND FREE ENERGY PREDICTED BY IDOCK:   -0.87 KCAL/MOL
REMARK 927      BINDING AFFINITY PREDICTED BY RF-SCORE:    0.00 PKD
ROOT
HETATM    1 NA   UNL     1     -10.690  20.091  70.622  1.00  0.00    -0.804 Na 
HETATM    2  C   UNL     2     -13.538  14.187  72.333  1.00  0.00    -0.632 C  
HETATM    3  C   UNL     2     -13.304  15.503  71.607  1.00  0.00    -0.585 C  
ENDROOT
BRANCH   3   4
HETATM    4  C   UNL     2     -12.328  15.314  70.450  1.00  0.00    -0.422 C  
BRANCH   4   5
HETATM    5  C   UNL     2     -12.294  13.864  69.959  1.00  0.00    -0.378 C  
BRANCH   5   6
HETATM    6  C   UNL     2     -11.536  13.700  68.636  1.00  0.00    -0.342 C  
BRANCH   6   7
HETATM    7  C   UNL     2     -11.643  12.278  68.085  1.00  0.00    -0.396 C  
BRANCH   7   8
HETATM    8  C   UNL     2     -11.424  12.205  66.576  1.00  0.00    -0.430 C  
BRANCH   8   9
HETATM    9  C   UNL     2     -12.522  12.946  65.800  1.00  0.00    -0.327 C  
BRANCH   9  10
HETATM   10  C   UNL     2     -12.026  14.105  64.925  1.00  0.00    -0.424 C  
BRANCH  10  11
HETATM   11  C   UNL     2     -10.499  14.213  64.891  1.00  0.00    -0.461 C  
BRANCH  11  12
HETATM   12  C   UNL     2      -9.944  15.333  65.778  1.00  0.00    -0.391 C  
BRANCH  12  13
HETATM   13  C   UNL     2     -10.639  16.683  65.580  1.00  0.00    -0.258 C  
BRANCH  13  14
HETATM   14  O   UNL     2      -9.679  17.717  65.712  1.00  0.00    -0.537 OA 
HETATM   15  S   UNL     2     -10.168  19.140  66.330  1.00  0.00    -0.469 S  
HETATM   16  O   UNL     2      -8.928  19.921  66.381  1.00  0.00    -0.352 OA 
HETATM   17  O   UNL     2     -10.691  18.800  67.648  1.00  0.00    -0.429 OA 
HETATM   18  O   UNL     2     -11.149  19.629  65.378  1.00  0.00    -0.412 OA 
ENDBRANCH  13  14
ENDBRANCH  12  13
ENDBRANCH  11  12
ENDBRANCH  10  11
ENDBRANCH   9  10
ENDBRANCH   8   9
ENDBRANCH   7   8
ENDBRANCH   6   7
ENDBRANCH   5   6
ENDBRANCH   4   5
ENDBRANCH   3   4
TORSDOF 11
ENDMDL
MODEL        7
REMARK 921   NORMALIZED FREE ENERGY PREDICTED BY IDOCK:   -4.53 KCAL/MOL
REMARK 922        TOTAL FREE ENERGY PREDICTED BY IDOCK:   -8.88 KCAL/MOL
REMARK 923 INTER-LIGAND FREE ENERGY PREDICTED BY IDOCK:   -8.24 KCAL/MOL
REMARK 924 INTRA-LIGAND FREE ENERGY PREDICTED BY IDOCK:   -0.64 KCAL/MOL
REMARK 927      BINDING AFFINITY PREDICTED BY RF-SCORE:    0.00 PKD
ROOT
HETATM    1 NA   UNL     1      -7.921   8.484  69.107  1.00  0.00    -0.091 Na 
HETATM    2  C   UNL     2     -14.169   8.165  71.707  1.00  0.00    -0.548 C  
HETATM    3  C   UNL     2     -12.649   8.186  71.639  1.00  0.00    -0.347 C  
ENDROOT
BRANCH   3   4
HETATM    4  C   UNL     2     -12.127   9.619  71.666  1.00  0.00    -0.481 C  
BRANCH   4   5
HETATM    5  C   UNL     2     -13.257  10.637  71.845  1.00  0.00    -0.528 C  
BRANCH   5   6
HETATM    6  C   UNL     2     -12.899  12.026  71.301  1.00  0.00    -0.364 C  
BRANCH   6   7
HETATM    7  C   UNL     2     -13.383  13.146  72.221  1.00  0.00    -0.621 C  
BRANCH   7   8
HETATM    8  C   UNL     2     -13.892  14.367  71.460  1.00  0.00    -0.455 C  
BRANCH   8   9
HETATM    9  C   UNL     2     -12.840  15.484  71.399  1.00  0.00    -0.531 C  
BRANCH   9  10
HETATM   10  C   UNL     2     -11.624  15.180  70.514  1.00  0.00    -0.340 C  
BRANCH  10  11
HETATM   11  C   UNL     2     -11.900  15.408  69.025  1.00  0.00    -0.357 C  
BRANCH  11  12
HETATM   12  C   UNL     2     -11.845  14.123  68.189  1.00  0.00    -0.387 C  
BRANCH  12  13
HETATM   13  C   UNL     2     -11.547  14.361  66.706  1.00  0.00    -0.385 C  
BRANCH  13  14
HETATM   14  O   UNL     2     -12.267  13.415  65.936  1.00  0.00    -0.416 OA 
HETATM   15  S   UNL     2     -12.084  13.444  64.320  1.00  0.00    -0.420 S  
HETATM   16  O   UNL     2     -12.904  12.313  63.874  1.00  0.00    -0.720 OA 
HETATM   17  O   UNL     2     -10.655  13.239  64.116  1.00  0.00    -0.416 OA 
HETATM   18  O   UNL     2     -12.589  14.747  63.924  1.00  0.00    -0.834 OA 
ENDBRANCH  13  14
ENDBRANCH  12  13
ENDBRANCH  11  12
ENDBRANCH  10  11
ENDBRANCH   9  10
ENDBRANCH   8   9
ENDBRANCH   7   8
ENDBRANCH   6   7
ENDBRANCH   5   6
ENDBRANCH   4   5
ENDBRANCH   3   4
TORSDOF 11
ENDMDL
MODEL        8
REMARK 921   NORMALIZED FREE ENERGY PREDICTED BY IDOCK:   -4.46 KCAL/MOL
REMARK 922        TOTAL FREE ENERGY PREDICTED BY IDOCK:   -8.77 KCAL/MOL
REMARK 923 INTER-LIGAND FREE ENERGY PREDICTED BY IDOCK:   -7.55 KCAL/MOL
REMARK 924 INTRA-LIGAND FREE ENERGY PREDICTED BY IDOCK:   -1.22 KCAL/MOL
REMARK 927      BINDING AFFINITY PREDICTED BY RF-SCORE:    0.00 PKD
ROOT
HETATM    1 NA   UNL     1     -12.034   5.141  65.161  1.00  0.00    -0.749 Na 
HETATM    2  C   UNL     2      -9.518   6.673  71.262  1.00  0.00    -0.166 C  
HETATM    3  C   UNL     2     -10.217   6.842  69.921  1.00  0.00    -0.211 C  
ENDROOT
BRANCH   3   4
HETATM    4  C   UNL     2     -11.689   6.454  70.028  1.00  0.00    -0.345 C  
BRANCH   4   5
HETATM    5  C   UNL     2     -12.235   6.665  71.442  1.00  0.00    -0.378 C  
BRANCH   5   6
HETATM    6  C   UNL     2     -13.522   7.500  71.466  1.00  0.00    -0.426 C  
BRANCH   6   7
HETATM    7  C   UNL     2     -13.317   8.851  72.151  1.00  0.00    -0.489 C  
BRANCH   7   8
HETATM    8  C   UNL     2     -13.139  10.001  71.163  1.00  0.00    -0.472 C  
BRANCH   8   9
HETATM    9  C   UNL     2     -11.717  10.579  71.205  1.00  0.00    -0.323 C  
BRANCH   9  10
HETATM   10  C   UNL     2     -10.945  10.493  69.882  1.00  0.00    -0.359 C  
BRANCH  10  11
HETATM   11  C   UNL     2     -11.827  10.765  68.660  1.00  0.00    -0.208 C  
BRANCH  11  12
HETATM   12  C   UNL     2     -11.765  12.218  68.172  1.00  0.00    -0.408 C  
BRANCH  12  13
HETATM   13  C   UNL     2     -11.025  12.395  66.844  1.00  0.00    -0.265 C  
BRANCH  13  14
HETATM   14  O   UNL     2     -11.876  11.988  65.787  1.00  0.00    -0.466 OA 
HETATM   15  S   UNL     2     -12.242  13.079  64.636  1.00  0.00    -0.430 S  
HETATM   16  O   UNL     2     -13.063  12.306  63.698  1.00  0.00    -0.780 OA 
HETATM   17  O   UNL     2     -10.950  13.470  64.087  1.00  0.00    -0.367 OA 
HETATM   18  O   UNL     2     -12.960  14.124  65.345  1.00  0.00    -0.706 OA 
ENDBRANCH  13  14
ENDBRANCH  12  13
ENDBRANCH  11  12
ENDBRANCH  10  11
ENDBRANCH   9  10
ENDBRANCH   8   9
ENDBRANCH   7   8
ENDBRANCH   6   7
ENDBRANCH   5   6
ENDBRANCH   4   5
ENDBRANCH   3   4
TORSDOF 11
ENDMDL
MODEL        9
REMARK 921   NORMALIZED FREE ENERGY PREDICTED BY IDOCK:   -4.41 KCAL/MOL
REMARK 922        TOTAL FREE ENERGY PREDICTED BY IDOCK:   -8.68 KCAL/MOL
REMARK 923 INTER-LIGAND FREE ENERGY PREDICTED BY IDOCK:   -7.79 KCAL/MOL
REMARK 924 INTRA-LIGAND FREE ENERGY PREDICTED BY IDOCK:   -0.89 KCAL/MOL
REMARK 927      BINDING AFFINITY PREDICTED BY RF-SCORE:    0.00 PKD
ROOT
HETATM    1 NA   UNL     1     -14.225   8.817  73.906  1.00  0.00    -0.800 Na 
HETATM    2  C   UNL     2      -8.658   9.812  70.176  1.00  0.00    -0.214 C  
HETATM    3  C   UNL     2     -10.038   9.314  70.578  1.00  0.00    -0.313 C  
ENDROOT
BRANCH   3   4
HETATM    4  C   UNL     2     -11.105  10.352  70.240  1.00  0.00    -0.379 C  
BRANCH   4   5
HETATM    5  C   UNL     2     -12.488   9.939  70.750  1.00  0.00    -0.344 C  
BRANCH   5   6
HETATM    6  C   UNL     2     -13.041  10.895  71.815  1.00  0.00    -0.564 C  
BRANCH   6   7
HETATM    7  C   UNL     2     -12.828  12.360  71.437  1.00  0.00    -0.360 C  
BRANCH   7   8
HETATM    8  C   UNL     2     -13.713  13.316  72.233  1.00  0.00    -0.686 C  
BRANCH   8   9
HETATM    9  C   UNL     2     -12.907  14.473  72.841  1.00  0.00    -0.534 C  
BRANCH   9  10
HETATM   10  C   UNL     2     -12.933  15.776  72.030  1.00  0.00    -0.513 C  
BRANCH  10  11
HETATM   11  C   UNL     2     -11.766  15.887  71.045  1.00  0.00    -0.473 C  
BRANCH  11  12
HETATM   12  C   UNL     2     -12.155  15.564  69.597  1.00  0.00    -0.352 C  
BRANCH  12  13
HETATM   13  C   UNL     2     -11.046  14.877  68.796  1.00  0.00    -0.264 C  
BRANCH  13  14
HETATM   14  O   UNL     2     -11.476  13.575  68.439  1.00  0.00    -0.270 OA 
HETATM   15  S   UNL     2     -11.554  13.201  66.857  1.00  0.00    -0.389 S  
HETATM   16  O   UNL     2     -11.960  11.792  66.872  1.00  0.00    -0.605 OA 
HETATM   17  O   UNL     2     -10.194  13.406  66.373  1.00  0.00    -0.280 OA 
HETATM   18  O   UNL     2     -12.550  14.111  66.320  1.00  0.00    -0.449 OA 
ENDBRANCH  13  14
ENDBRANCH  12  13
ENDBRANCH  11  12
ENDBRANCH  10  11
ENDBRANCH   9  10
ENDBRANCH   8   9
ENDBRANCH   7   8
ENDBRANCH   6   7
ENDBRANCH   5   6
ENDBRANCH   4   5
ENDBRANCH   3   4
TORSDOF 11
ENDMDL
MODEL       10
REMARK 921   NORMALIZED FREE ENERGY PREDICTED BY IDOCK:   -4.38 KCAL/MOL
REMARK 922        TOTAL FREE ENERGY PREDICTED BY IDOCK:   -8.63 KCAL/MOL
REMARK 923 INTER-LIGAND FREE ENERGY PREDICTED BY IDOCK:   -6.95 KCAL/MOL
REMARK 924 INTRA-LIGAND FREE ENERGY PREDICTED BY IDOCK:   -1.68 KCAL/MOL
REMARK 927      BINDING AFFINITY PREDICTED BY RF-SCORE:    0.00 PKD
ROOT
HETATM    1 NA   UNL     1      -9.694  14.947  70.733  1.00  0.00    -0.467 Na 
HETATM    2  C   UNL     2     -10.372  19.889  66.149  1.00  0.00    -0.604 C  
HETATM    3  C   UNL     2     -10.399  19.170  67.489  1.00  0.00    -0.524 C  
ENDROOT
BRANCH   3   4
HETATM    4  C   UNL     2      -9.038  19.254  68.174  1.00  0.00    -0.381 C  
BRANCH   4   5
HETATM    5  C   UNL     2      -8.471  17.869  68.495  1.00  0.00    -0.303 C  
BRANCH   5   6
HETATM    6  C   UNL     2      -9.507  16.749  68.332  1.00  0.00    -0.241 C  
BRANCH   6   7
HETATM    7  C   UNL     2      -9.056  15.692  67.325  1.00  0.00    -0.217 C  
BRANCH   7   8
HETATM    8  C   UNL     2      -9.724  15.844  65.961  1.00  0.00    -0.375 C  
BRANCH   8   9
HETATM    9  C   UNL     2     -10.880  14.849  65.775  1.00  0.00    -0.343 C  
BRANCH   9  10
HETATM   10  C   UNL     2     -10.619  13.443  66.331  1.00  0.00    -0.285 C  
BRANCH  10  11
HETATM   11  C   UNL     2     -11.741  12.949  67.248  1.00  0.00    -0.431 C  
BRANCH  11  12
HETATM   12  C   UNL     2     -11.448  13.153  68.739  1.00  0.00    -0.348 C  
BRANCH  12  13
HETATM   13  C   UNL     2     -12.217  14.318  69.368  1.00  0.00    -0.278 C  
BRANCH  13  14
HETATM   14  O   UNL     2     -12.334  14.091  70.762  1.00  0.00    -0.328 OA 
HETATM   15  S   UNL     2     -12.726  15.352  71.713  1.00  0.00    -0.434 S  
HETATM   16  O   UNL     2     -12.821  14.743  73.044  1.00  0.00    -0.429 OA 
HETATM   17  O   UNL     2     -14.009  15.809  71.193  1.00  0.00    -0.508 OA 
HETATM   18  O   UNL     2     -11.622  16.281  71.553  1.00  0.00    -0.457 OA 
ENDBRANCH  13  14
ENDBRANCH  12  13
ENDBRANCH  11  12
ENDBRANCH  10  11
ENDBRANCH   9  10
ENDBRANCH   8   9
ENDBRANCH   7   8
ENDBRANCH   6   7
ENDBRANCH   5   6
ENDBRANCH   4   5
ENDBRANCH   3   4
TORSDOF 11
ENDMDL
MODEL       11
REMARK 921   NORMALIZED FREE ENERGY PREDICTED BY IDOCK:   -4.37 KCAL/MOL
REMARK 922        TOTAL FREE ENERGY PREDICTED BY IDOCK:   -8.61 KCAL/MOL
REMARK 923 INTER-LIGAND FREE ENERGY PREDICTED BY IDOCK:   -7.57 KCAL/MOL
REMARK 924 INTRA-LIGAND FREE ENERGY PREDICTED BY IDOCK:   -1.04 KCAL/MOL
REMARK 927      BINDING AFFINITY PREDICTED BY RF-SCORE:    0.00 PKD
ROOT
HETATM    1 NA   UNL     1     -14.321   9.490  70.816  1.00  0.00    -0.386 Na 
HETATM    2  C   UNL     2     -10.633   5.372  66.899  1.00  0.00    -0.320 C  
HETATM    3  C   UNL     2     -10.988   6.536  67.811  1.00  0.00    -0.407 C  
ENDROOT
BRANCH   3   4
HETATM    4  C   UNL     2     -10.878   6.126  69.277  1.00  0.00    -0.418 C  
BRANCH   4   5
HETATM    5  C   UNL     2     -11.920   6.831  70.149  1.00  0.00    -0.244 C  
BRANCH   5   6
HETATM    6  C   UNL     2     -11.361   7.270  71.509  1.00  0.00    -0.280 C  
BRANCH   6   7
HETATM    7  C   UNL     2     -11.469   8.780  71.714  1.00  0.00    -0.413 C  
BRANCH   7   8
HETATM    8  C   UNL     2     -10.480   9.571  70.860  1.00  0.00    -0.382 C  
BRANCH   8   9
HETATM    9  C   UNL     2     -11.180  10.315  69.713  1.00  0.00    -0.339 C  
BRANCH   9  10
HETATM   10  C   UNL     2     -10.502  10.175  68.344  1.00  0.00    -0.237 C  
BRANCH  10  11
HETATM   11  C   UNL     2     -11.192  10.998  67.252  1.00  0.00    -0.330 C  
BRANCH  11  12
HETATM   12  C   UNL     2     -11.635  12.389  67.722  1.00  0.00    -0.413 C  
BRANCH  12  13
HETATM   13  C   UNL     2     -11.949  13.359  66.580  1.00  0.00    -0.400 C  
BRANCH  13  14
HETATM   14  O   UNL     2     -12.622  12.654  65.552  1.00  0.00    -0.634 OA 
HETATM   15  S   UNL     2     -12.153  12.908  64.015  1.00  0.00    -0.474 S  
HETATM   16  O   UNL     2     -13.002  11.985  63.254  1.00  0.00    -0.736 OA 
HETATM   17  O   UNL     2     -10.743  12.540  64.004  1.00  0.00    -0.352 OA 
HETATM   18  O   UNL     2     -12.432  14.314  63.781  1.00  0.00    -0.810 OA 
ENDBRANCH  13  14
ENDBRANCH  12  13
ENDBRANCH  11  12
ENDBRANCH  10  11
ENDBRANCH   9  10
ENDBRANCH   8   9
ENDBRANCH   7   8
ENDBRANCH   6   7
ENDBRANCH   5   6
ENDBRANCH   4   5
ENDBRANCH   3   4
TORSDOF 11
ENDMDL
MODEL       12
REMARK 921   NORMALIZED FREE ENERGY PREDICTED BY IDOCK:   -4.37 KCAL/MOL
REMARK 922        TOTAL FREE ENERGY PREDICTED BY IDOCK:   -8.61 KCAL/MOL
REMARK 923 INTER-LIGAND FREE ENERGY PREDICTED BY IDOCK:   -7.54 KCAL/MOL
REMARK 924 INTRA-LIGAND FREE ENERGY PREDICTED BY IDOCK:   -1.07 KCAL/MOL
REMARK 927      BINDING AFFINITY PREDICTED BY RF-SCORE:    0.00 PKD
ROOT
HETATM    1 NA   UNL     1     -14.352  16.002  70.184  1.00  0.00    -0.834 Na 
HETATM    2  C   UNL     2     -11.420   9.896  70.306  1.00  0.00    -0.349 C  
HETATM    3  C   UNL     2     -12.285  11.056  69.838  1.00  0.00    -0.408 C  
ENDROOT
BRANCH   3   4
HETATM    4  C   UNL     2     -11.471  12.027  68.987  1.00  0.00    -0.357 C  
BRANCH   4   5
HETATM    5  C   UNL     2     -11.195  11.471  67.588  1.00  0.00    -0.343 C  
BRANCH   5   6
HETATM    6  C   UNL     2      -9.701  11.444  67.241  1.00  0.00    -0.201 C  
BRANCH   6   7
HETATM    7  C   UNL     2      -9.461  11.488  65.732  1.00  0.00    -0.255 C  
BRANCH   7   8
HETATM    8  C   UNL     2     -10.556  10.783  64.933  1.00  0.00    -0.258 C  
BRANCH   8   9
HETATM    9  C   UNL     2     -10.974  11.592  63.696  1.00  0.00    -0.482 C  
BRANCH   9  10
HETATM   10  C   UNL     2     -12.358  12.248  63.790  1.00  0.00    -0.637 C  
BRANCH  10  11
HETATM   11  C   UNL     2     -12.445  13.296  64.903  1.00  0.00    -0.465 C  
BRANCH  11  12
HETATM   12  C   UNL     2     -11.356  14.373  64.816  1.00  0.00    -0.388 C  
BRANCH  12  13
HETATM   13  C   UNL     2     -11.018  15.023  66.160  1.00  0.00    -0.334 C  
BRANCH  13  14
HETATM   14  O   UNL     2      -9.921  15.901  65.982  1.00  0.00    -0.288 OA 
HETATM   15  S   UNL     2     -10.215  17.502  65.978  1.00  0.00    -0.232 S  
HETATM   16  O   UNL     2      -8.875  18.082  65.843  1.00  0.00    -0.504 OA 
HETATM   17  O   UNL     2     -10.828  17.758  67.276  1.00  0.00    -0.293 OA 
HETATM   18  O   UNL     2     -11.079  17.707  64.829  1.00  0.00    -0.915 OA 
ENDBRANCH  13  14
ENDBRANCH  12  13
ENDBRANCH  11  12
ENDBRANCH  10  11
ENDBRANCH   9  10
ENDBRANCH   8   9
ENDBRANCH   7   8
ENDBRANCH   6   7
ENDBRANCH   5   6
ENDBRANCH   4   5
ENDBRANCH   3   4
TORSDOF 11
ENDMDL
MODEL       13
REMARK 921   NORMALIZED FREE ENERGY PREDICTED BY IDOCK:   -4.33 KCAL/MOL
REMARK 922        TOTAL FREE ENERGY PREDICTED BY IDOCK:   -8.54 KCAL/MOL
REMARK 923 INTER-LIGAND FREE ENERGY PREDICTED BY IDOCK:   -7.38 KCAL/MOL
REMARK 924 INTRA-LIGAND FREE ENERGY PREDICTED BY IDOCK:   -1.17 KCAL/MOL
REMARK 927      BINDING AFFINITY PREDICTED BY RF-SCORE:    0.00 PKD
ROOT
HETATM    1 NA   UNL     1     -14.374  16.013  70.069  1.00  0.00    -0.739 Na 
HETATM    2  C   UNL     2     -10.140  19.935  66.521  1.00  0.00    -0.607 C  
HETATM    3  C   UNL     2     -10.715  19.138  67.683  1.00  0.00    -0.514 C  
ENDROOT
BRANCH   3   4
HETATM    4  C   UNL     2     -10.295  17.674  67.592  1.00  0.00    -0.368 C  
BRANCH   4   5
HETATM    5  C   UNL     2     -10.300  17.164  66.149  1.00  0.00    -0.327 C  
BRANCH   5   6
HETATM    6  C   UNL     2      -9.277  16.047  65.907  1.00  0.00    -0.321 C  
BRANCH   6   7
HETATM    7  C   UNL     2      -9.848  14.666  66.228  1.00  0.00    -0.320 C  
BRANCH   7   8
HETATM    8  C   UNL     2     -11.023  14.283  65.330  1.00  0.00    -0.347 C  
BRANCH   8   9
HETATM    9  C   UNL     2     -12.247  13.841  66.145  1.00  0.00    -0.499 C  
BRANCH   9  10
HETATM   10  C   UNL     2     -11.951  13.461  67.602  1.00  0.00    -0.362 C  
BRANCH  10  11
HETATM   11  C   UNL     2     -12.009  14.660  68.552  1.00  0.00    -0.298 C  
BRANCH  11  12
HETATM   12  C   UNL     2     -10.920  14.638  69.632  1.00  0.00    -0.255 C  
BRANCH  12  13
HETATM   13  C   UNL     2     -11.134  15.662  70.750  1.00  0.00    -0.352 C  
BRANCH  13  14
HETATM   14  O   UNL     2     -11.261  14.976  71.983  1.00  0.00    -0.327 OA 
HETATM   15  S   UNL     2     -12.272  15.590  73.100  1.00  0.00    -0.518 S  
HETATM   16  O   UNL     2     -12.200  14.606  74.185  1.00  0.00    -0.483 OA 
HETATM   17  O   UNL     2     -13.568  15.622  72.433  1.00  0.00    -0.475 OA 
HETATM   18  O   UNL     2     -11.705  16.887  73.424  1.00  0.00    -0.263 OA 
ENDBRANCH  13  14
ENDBRANCH  12  13
ENDBRANCH  11  12
ENDBRANCH  10  11
ENDBRANCH   9  10
ENDBRANCH   8   9
ENDBRANCH   7   8
ENDBRANCH   6   7
ENDBRANCH   5   6
ENDBRANCH   4   5
ENDBRANCH   3   4
TORSDOF 11
ENDMDL
MODEL       14
REMARK 921   NORMALIZED FREE ENERGY PREDICTED BY IDOCK:   -4.32 KCAL/MOL
REMARK 922        TOTAL FREE ENERGY PREDICTED BY IDOCK:   -8.53 KCAL/MOL
REMARK 923 INTER-LIGAND FREE ENERGY PREDICTED BY IDOCK:   -7.54 KCAL/MOL
REMARK 924 INTRA-LIGAND FREE ENERGY PREDICTED BY IDOCK:   -0.99 KCAL/MOL
REMARK 927      BINDING AFFINITY PREDICTED BY RF-SCORE:    0.00 PKD
ROOT
HETATM    1 NA   UNL     1     -10.652   9.999  65.387  1.00  0.00    -0.281 Na 
HETATM    2  C   UNL     2      -8.479   8.686  71.668  1.00  0.00    -0.230 C  
HETATM    3  C   UNL     2      -9.357   9.204  70.539  1.00  0.00    -0.287 C  
ENDROOT
BRANCH   3   4
HETATM    4  C   UNL     2     -10.323   8.121  70.066  1.00  0.00    -0.215 C  
BRANCH   4   5
HETATM    5  C   UNL     2     -11.295   7.699  71.170  1.00  0.00    -0.286 C  
BRANCH   5   6
HETATM    6  C   UNL     2     -11.790   8.882  72.013  1.00  0.00    -0.438 C  
BRANCH   6   7
HETATM    7  C   UNL     2     -12.900   9.663  71.311  1.00  0.00    -0.438 C  
BRANCH   7   8
HETATM    8  C   UNL     2     -12.824  11.167  71.565  1.00  0.00    -0.542 C  
BRANCH   8   9
HETATM    9  C   UNL     2     -12.052  11.897  70.455  1.00  0.00    -0.422 C  
BRANCH   9  10
HETATM   10  C   UNL     2     -11.934  11.125  69.134  1.00  0.00    -0.413 C  
BRANCH  10  11
HETATM   11  C   UNL     2     -11.448  12.000  67.976  1.00  0.00    -0.392 C  
BRANCH  11  12
HETATM   12  C   UNL     2     -11.902  13.461  68.080  1.00  0.00    -0.392 C  
BRANCH  12  13
HETATM   13  C   UNL     2     -12.153  14.131  66.726  1.00  0.00    -0.442 C  
BRANCH  13  14
HETATM   14  O   UNL     2     -11.434  13.429  65.727  1.00  0.00    -0.310 OA 
HETATM   15  S   UNL     2     -12.159  13.183  64.292  1.00  0.00    -0.421 S  
HETATM   16  O   UNL     2     -11.121  12.505  63.509  1.00  0.00    -0.444 OA 
HETATM   17  O   UNL     2     -12.465  14.524  63.809  1.00  0.00    -0.809 OA 
HETATM   18  O   UNL     2     -13.311  12.357  64.607  1.00  0.00    -0.778 OA 
ENDBRANCH  13  14
ENDBRANCH  12  13
ENDBRANCH  11  12
ENDBRANCH  10  11
ENDBRANCH   9  10
ENDBRANCH   8   9
ENDBRANCH   7   8
ENDBRANCH   6   7
ENDBRANCH   5   6
ENDBRANCH   4   5
ENDBRANCH   3   4
TORSDOF 11
ENDMDL
MODEL       15
REMARK 921   NORMALIZED FREE ENERGY PREDICTED BY IDOCK:   -4.29 KCAL/MOL
REMARK 922        TOTAL FREE ENERGY PREDICTED BY IDOCK:   -8.49 KCAL/MOL
REMARK 923 INTER-LIGAND FREE ENERGY PREDICTED BY IDOCK:   -7.02 KCAL/MOL
REMARK 924 INTRA-LIGAND FREE ENERGY PREDICTED BY IDOCK:   -1.47 KCAL/MOL
REMARK 927      BINDING AFFINITY PREDICTED BY RF-SCORE:    0.00 PKD
ROOT
HETATM    1 NA   UNL     1     -11.858  15.432  66.632  1.00  0.00    -0.315 Na 
HETATM    2  C   UNL     2     -12.944  10.719  71.376  1.00  0.00    -0.535 C  
HETATM    3  C   UNL     2     -12.233  11.789  70.562  1.00  0.00    -0.438 C  
ENDROOT
BRANCH   3   4
HETATM    4  C   UNL     2     -12.555  13.180  71.101  1.00  0.00    -0.403 C  
BRANCH   4   5
HETATM    5  C   UNL     2     -12.196  14.280  70.100  1.00  0.00    -0.407 C  
BRANCH   5   6
HETATM    6  C   UNL     2     -11.552  13.733  68.819  1.00  0.00    -0.363 C  
BRANCH   6   7
HETATM    7  C   UNL     2     -10.121  14.236  68.635  1.00  0.00    -0.238 C  
BRANCH   7   8
HETATM    8  C   UNL     2      -9.296  13.359  67.697  1.00  0.00    -0.217 C  
BRANCH   8   9
HETATM    9  C   UNL     2      -9.262  11.895  68.162  1.00  0.00    -0.187 C  
BRANCH   9  10
HETATM   10  C   UNL     2      -9.019  10.868  67.048  1.00  0.00    -0.148 C  
BRANCH  10  11
HETATM   11  C   UNL     2     -10.256  10.628  66.179  1.00  0.00    -0.308 C  
BRANCH  11  12
HETATM   12  C   UNL     2      -9.945  10.540  64.680  1.00  0.00    -0.415 C  
BRANCH  12  13
HETATM   13  C   UNL     2     -10.859  11.403  63.806  1.00  0.00    -0.395 C  
BRANCH  13  14
HETATM   14  O   UNL     2     -11.817  12.040  64.632  1.00  0.00    -0.330 OA 
HETATM   15  S   UNL     2     -12.157  13.605  64.345  1.00  0.00    -0.420 S  
HETATM   16  O   UNL     2     -13.210  13.898  65.322  1.00  0.00    -0.774 OA 
HETATM   17  O   UNL     2     -12.626  13.623  62.965  1.00  0.00    -0.729 OA 
HETATM   18  O   UNL     2     -10.903  14.296  64.585  1.00  0.00    -0.401 OA 
ENDBRANCH  13  14
ENDBRANCH  12  13
ENDBRANCH  11  12
ENDBRANCH  10  11
ENDBRANCH   9  10
ENDBRANCH   8   9
ENDBRANCH   7   8
ENDBRANCH   6   7
ENDBRANCH   5   6
ENDBRANCH   4   5
ENDBRANCH   3   4
TORSDOF 11
ENDMDL
MODEL       16
REMARK 921   NORMALIZED FREE ENERGY PREDICTED BY IDOCK:   -4.29 KCAL/MOL
REMARK 922        TOTAL FREE ENERGY PREDICTED BY IDOCK:   -8.49 KCAL/MOL
REMARK 923 INTER-LIGAND FREE ENERGY PREDICTED BY IDOCK:   -7.60 KCAL/MOL
REMARK 924 INTRA-LIGAND FREE ENERGY PREDICTED BY IDOCK:   -0.88 KCAL/MOL
REMARK 927      BINDING AFFINITY PREDICTED BY RF-SCORE:    0.00 PKD
ROOT
HETATM    1 NA   UNL     1     -14.259   7.635  70.419  1.00  0.00    -0.613 Na 
HETATM    2  C   UNL     2     -13.885  14.154  72.224  1.00  0.00    -0.643 C  
HETATM    3  C   UNL     2     -13.519  12.683  72.100  1.00  0.00    -0.561 C  
ENDROOT
BRANCH   3   4
HETATM    4  C   UNL     2     -12.722  12.432  70.823  1.00  0.00    -0.208 C  
BRANCH   4   5
HETATM    5  C   UNL     2     -11.840  13.626  70.453  1.00  0.00    -0.308 C  
BRANCH   5   6
HETATM    6  C   UNL     2     -12.088  14.132  69.026  1.00  0.00    -0.348 C  
BRANCH   6   7
HETATM    7  C   UNL     2     -11.857  15.638  68.902  1.00  0.00    -0.368 C  
BRANCH   7   8
HETATM    8  C   UNL     2     -10.553  16.096  69.550  1.00  0.00    -0.306 C  
BRANCH   8   9
HETATM    9  C   UNL     2      -9.484  16.446  68.504  1.00  0.00    -0.227 C  
BRANCH   9  10
HETATM   10  C   UNL     2      -9.992  17.267  67.311  1.00  0.00    -0.283 C  
BRANCH  10  11
HETATM   11  C   UNL     2      -9.690  16.606  65.963  1.00  0.00    -0.306 C  
BRANCH  11  12
HETATM   12  C   UNL     2     -10.806  15.675  65.475  1.00  0.00    -0.356 C  
BRANCH  12  13
HETATM   13  C   UNL     2     -10.400  14.200  65.411  1.00  0.00    -0.365 C  
BRANCH  13  14
HETATM   14  O   UNL     2     -11.571  13.402  65.393  1.00  0.00    -0.304 OA 
HETATM   15  S   UNL     2     -12.110  12.865  63.955  1.00  0.00    -0.474 S  
HETATM   16  O   UNL     2     -13.266  12.041  64.324  1.00  0.00    -0.710 OA 
HETATM   17  O   UNL     2     -10.996  12.092  63.420  1.00  0.00    -0.426 OA 
HETATM   18  O   UNL     2     -12.441  14.073  63.221  1.00  0.00    -0.795 OA 
ENDBRANCH  13  14
ENDBRANCH  12  13
ENDBRANCH  11  12
ENDBRANCH  10  11
ENDBRANCH   9  10
ENDBRANCH   8   9
ENDBRANCH   7   8
ENDBRANCH   6   7
ENDBRANCH   5   6
ENDBRANCH   4   5
ENDBRANCH   3   4
TORSDOF 11
ENDMDL
MODEL       17
REMARK 921   NORMALIZED FREE ENERGY PREDICTED BY IDOCK:   -4.29 KCAL/MOL
REMARK 922        TOTAL FREE ENERGY PREDICTED BY IDOCK:   -8.48 KCAL/MOL
REMARK 923 INTER-LIGAND FREE ENERGY PREDICTED BY IDOCK:   -7.50 KCAL/MOL
REMARK 924 INTRA-LIGAND FREE ENERGY PREDICTED BY IDOCK:   -0.98 KCAL/MOL
REMARK 927      BINDING AFFINITY PREDICTED BY RF-SCORE:    0.00 PKD
ROOT
HETATM    1 NA   UNL     1     -11.861   1.979  73.769  1.00  0.00    -0.156 Na 
HETATM    2  C   UNL     2     -10.566   7.201  69.652  1.00  0.00    -0.249 C  
HETATM    3  C   UNL     2     -11.338   6.250  70.554  1.00  0.00    -0.428 C  
ENDROOT
BRANCH   3   4
HETATM    4  C   UNL     2     -11.217   6.674  72.015  1.00  0.00    -0.301 C  
BRANCH   4   5
HETATM    5  C   UNL     2     -11.263   8.195  72.176  1.00  0.00    -0.393 C  
BRANCH   5   6
HETATM    6  C   UNL     2     -12.693   8.737  72.305  1.00  0.00    -0.466 C  
BRANCH   6   7
HETATM    7  C   UNL     2     -12.791  10.204  71.885  1.00  0.00    -0.526 C  
BRANCH   7   8
HETATM    8  C   UNL     2     -12.782  10.392  70.370  1.00  0.00    -0.289 C  
BRANCH   8   9
HETATM    9  C   UNL     2     -11.669  11.349  69.918  1.00  0.00    -0.424 C  
BRANCH   9  10
HETATM   10  C   UNL     2     -10.829  10.849  68.734  1.00  0.00    -0.251 C  
BRANCH  10  11
HETATM   11  C   UNL     2     -11.185  11.543  67.417  1.00  0.00    -0.367 C  
BRANCH  11  12
HETATM   12  C   UNL     2     -11.186  13.074  67.512  1.00  0.00    -0.320 C  
BRANCH  12  13
HETATM   13  C   UNL     2     -11.993  13.763  66.408  1.00  0.00    -0.438 C  
BRANCH  13  14
HETATM   14  O   UNL     2     -12.429  12.785  65.481  1.00  0.00    -0.573 OA 
HETATM   15  S   UNL     2     -11.976  12.948  63.926  1.00  0.00    -0.514 S  
HETATM   16  O   UNL     2     -12.539  11.751  63.292  1.00  0.00    -0.561 OA 
HETATM   17  O   UNL     2     -10.519  12.946  63.975  1.00  0.00    -0.415 OA 
HETATM   18  O   UNL     2     -12.584  14.196  63.503  1.00  0.00    -0.834 OA 
ENDBRANCH  13  14
ENDBRANCH  12  13
ENDBRANCH  11  12
ENDBRANCH  10  11
ENDBRANCH   9  10
ENDBRANCH   8   9
ENDBRANCH   7   8
ENDBRANCH   6   7
ENDBRANCH   5   6
ENDBRANCH   4   5
ENDBRANCH   3   4
TORSDOF 11
ENDMDL
MODEL       18
REMARK 921   NORMALIZED FREE ENERGY PREDICTED BY IDOCK:   -4.28 KCAL/MOL
REMARK 922        TOTAL FREE ENERGY PREDICTED BY IDOCK:   -8.47 KCAL/MOL
REMARK 923 INTER-LIGAND FREE ENERGY PREDICTED BY IDOCK:   -7.20 KCAL/MOL
REMARK 924 INTRA-LIGAND FREE ENERGY PREDICTED BY IDOCK:   -1.27 KCAL/MOL
REMARK 927      BINDING AFFINITY PREDICTED BY RF-SCORE:    0.00 PKD
ROOT
HETATM    1 NA   UNL     1     -13.928   8.968  73.625  1.00  0.00    -0.823 Na 
HETATM    2  C   UNL     2     -10.739  12.088  68.527  1.00  0.00    -0.261 C  
HETATM    3  C   UNL     2     -11.869  11.502  69.360  1.00  0.00    -0.417 C  
ENDROOT
BRANCH   3   4
HETATM    4  C   UNL     2     -12.367  12.517  70.384  1.00  0.00    -0.311 C  
BRANCH   4   5
HETATM    5  C   UNL     2     -12.980  11.838  71.612  1.00  0.00    -0.467 C  
BRANCH   5   6
HETATM    6  C   UNL     2     -13.785  12.806  72.488  1.00  0.00    -0.333 C  
BRANCH   6   7
HETATM    7  C   UNL     2     -13.929  14.183  71.841  1.00  0.00    -0.558 C  
BRANCH   7   8
HETATM    8  C   UNL     2     -13.446  15.318  72.741  1.00  0.00    -0.619 C  
BRANCH   8   9
HETATM    9  C   UNL     2     -12.366  16.171  72.058  1.00  0.00    -0.475 C  
BRANCH   9  10
HETATM   10  C   UNL     2     -11.110  15.400  71.628  1.00  0.00    -0.273 C  
BRANCH  10  11
HETATM   11  C   UNL     2     -10.590  15.830  70.254  1.00  0.00    -0.297 C  
BRANCH  11  12
HETATM   12  C   UNL     2     -11.669  15.831  69.164  1.00  0.00    -0.398 C  
BRANCH  12  13
HETATM   13  C   UNL     2     -11.145  16.198  67.773  1.00  0.00    -0.254 C  
BRANCH  13  14
HETATM   14  O   UNL     2     -11.149  17.609  67.639  1.00  0.00    -0.208 OA 
HETATM   15  S   UNL     2      -9.841  18.320  66.983  1.00  0.00    -0.344 S  
HETATM   16  O   UNL     2     -10.221  19.735  66.942  1.00  0.00    -0.393 OA 
HETATM   17  O   UNL     2      -9.727  17.713  65.662  1.00  0.00    -0.525 OA 
HETATM   18  O   UNL     2      -8.763  18.011  67.906  1.00  0.00    -0.248 OA 
ENDBRANCH  13  14
ENDBRANCH  12  13
ENDBRANCH  11  12
ENDBRANCH  10  11
ENDBRANCH   9  10
ENDBRANCH   8   9
ENDBRANCH   7   8
ENDBRANCH   6   7
ENDBRANCH   5   6
ENDBRANCH   4   5
ENDBRANCH   3   4
TORSDOF 11
ENDMDL
MODEL       19
REMARK 921   NORMALIZED FREE ENERGY PREDICTED BY IDOCK:   -4.28 KCAL/MOL
REMARK 922        TOTAL FREE ENERGY PREDICTED BY IDOCK:   -8.47 KCAL/MOL
REMARK 923 INTER-LIGAND FREE ENERGY PREDICTED BY IDOCK:   -7.60 KCAL/MOL
REMARK 924 INTRA-LIGAND FREE ENERGY PREDICTED BY IDOCK:   -0.87 KCAL/MOL
REMARK 927      BINDING AFFINITY PREDICTED BY RF-SCORE:    0.00 PKD
ROOT
HETATM    1 NA   UNL     1     -14.357   9.188  70.173  1.00  0.00    -0.569 Na 
HETATM    2  C   UNL     2     -14.087  15.631  72.250  1.00  0.00    -0.564 C  
HETATM    3  C   UNL     2     -13.912  14.120  72.255  1.00  0.00    -0.646 C  
ENDROOT
BRANCH   3   4
HETATM    4  C   UNL     2     -12.615  13.725  71.555  1.00  0.00    -0.405 C  
BRANCH   4   5
HETATM    5  C   UNL     2     -12.596  14.169  70.090  1.00  0.00    -0.325 C  
BRANCH   5   6
HETATM    6  C   UNL     2     -11.420  13.577  69.302  1.00  0.00    -0.345 C  
BRANCH   6   7
HETATM    7  C   UNL     2     -11.607  12.085  69.026  1.00  0.00    -0.370 C  
BRANCH   7   8
HETATM    8  C   UNL     2     -10.411  11.455  68.316  1.00  0.00    -0.209 C  
BRANCH   8   9
HETATM    9  C   UNL     2     -10.103  12.152  66.983  1.00  0.00    -0.219 C  
BRANCH   9  10
HETATM   10  C   UNL     2     -10.206  11.251  65.745  1.00  0.00    -0.301 C  
BRANCH  10  11
HETATM   11  C   UNL     2     -10.986  11.902  64.599  1.00  0.00    -0.370 C  
BRANCH  11  12
HETATM   12  C   UNL     2     -12.177  12.745  65.070  1.00  0.00    -0.527 C  
BRANCH  12  13
HETATM   13  C   UNL     2     -12.124  14.204  64.610  1.00  0.00    -0.452 C  
BRANCH  13  14
HETATM   14  O   UNL     2     -10.804  14.691  64.777  1.00  0.00    -0.399 OA 
HETATM   15  S   UNL     2     -10.609  16.162  65.443  1.00  0.00    -0.324 S  
HETATM   16  O   UNL     2      -9.151  16.299  65.519  1.00  0.00    -0.374 OA 
HETATM   17  O   UNL     2     -11.249  16.054  66.748  1.00  0.00    -0.104 OA 
HETATM   18  O   UNL     2     -11.251  17.069  64.507  1.00  0.00    -1.091 OA 
ENDBRANCH  13  14
ENDBRANCH  12  13
ENDBRANCH  11  12
ENDBRANCH  10  11
ENDBRANCH   9  10
ENDBRANCH   8   9
ENDBRANCH   7   8
ENDBRANCH   6   7
ENDBRANCH   5   6
ENDBRANCH   4   5
ENDBRANCH   3   4
TORSDOF 11
ENDMDL
MODEL       20
REMARK 921   NORMALIZED FREE ENERGY PREDICTED BY IDOCK:   -4.25 KCAL/MOL
REMARK 922        TOTAL FREE ENERGY PREDICTED BY IDOCK:   -8.41 KCAL/MOL
REMARK 923 INTER-LIGAND FREE ENERGY PREDICTED BY IDOCK:   -7.10 KCAL/MOL
REMARK 924 INTRA-LIGAND FREE ENERGY PREDICTED BY IDOCK:   -1.31 KCAL/MOL
REMARK 927      BINDING AFFINITY PREDICTED BY RF-SCORE:    0.00 PKD
ROOT
HETATM    1 NA   UNL     1     -11.899   9.647  67.670  1.00  0.00    -0.528 Na 
HETATM    2  C   UNL     2     -13.258  15.284  71.173  1.00  0.00    -0.567 C  
HETATM    3  C   UNL     2     -12.536  14.026  70.715  1.00  0.00    -0.442 C  
ENDROOT
BRANCH   3   4
HETATM    4  C   UNL     2     -11.612  14.333  69.539  1.00  0.00    -0.353 C  
BRANCH   4   5
HETATM    5  C   UNL     2     -11.852  15.734  68.972  1.00  0.00    -0.367 C  
BRANCH   5   6
HETATM    6  C   UNL     2     -10.653  16.671  69.170  1.00  0.00    -0.340 C  
BRANCH   6   7
HETATM    7  C   UNL     2     -10.738  17.908  68.277  1.00  0.00    -0.233 C  
BRANCH   7   8
HETATM    8  C   UNL     2      -9.374  18.531  67.990  1.00  0.00    -0.321 C  
BRANCH   8   9
HETATM    9  C   UNL     2      -8.831  18.117  66.615  1.00  0.00    -0.287 C  
BRANCH   9  10
HETATM   10  C   UNL     2      -8.075  16.781  66.594  1.00  0.00    -0.300 C  
BRANCH  10  11
HETATM   11  C   UNL     2      -8.912  15.634  66.022  1.00  0.00    -0.297 C  
BRANCH  11  12
HETATM   12  C   UNL     2     -10.199  16.099  65.331  1.00  0.00    -0.294 C  
BRANCH  12  13
HETATM   13  C   UNL     2     -11.088  14.954  64.838  1.00  0.00    -0.414 C  
BRANCH  13  14
HETATM   14  O   UNL     2     -11.207  13.990  65.870  1.00  0.00    -0.303 OA 
HETATM   15  S   UNL     2     -11.837  12.538  65.492  1.00  0.00    -0.432 S  
HETATM   16  O   UNL     2     -11.743  11.799  66.755  1.00  0.00    -0.555 OA 
HETATM   17  O   UNL     2     -10.954  12.022  64.453  1.00  0.00    -0.299 OA 
HETATM   18  O   UNL     2     -13.193  12.834  65.067  1.00  0.00    -0.768 OA 
ENDBRANCH  13  14
ENDBRANCH  12  13
ENDBRANCH  11  12
ENDBRANCH  10  11
ENDBRANCH   9  10
ENDBRANCH   8   9
ENDBRANCH   7   8
ENDBRANCH   6   7
ENDBRANCH   5   6
ENDBRANCH   4   5
ENDBRANCH   3   4
TORSDOF 11
ENDMDL
MODEL       21
REMARK 921   NORMALIZED FREE ENERGY PREDICTED BY IDOCK:   -4.23 KCAL/MOL
REMARK 922        TOTAL FREE ENERGY PREDICTED BY IDOCK:   -8.38 KCAL/MOL
REMARK 923 INTER-LIGAND FREE ENERGY PREDICTED BY IDOCK:   -7.38 KCAL/MOL
REMARK 924 INTRA-LIGAND FREE ENERGY PREDICTED BY IDOCK:   -0.99 KCAL/MOL
REMARK 927      BINDING AFFINITY PREDICTED BY RF-SCORE:    0.00 PKD
ROOT
HETATM    1 NA   UNL     1     -10.773  19.975  69.843  1.00  0.00    -0.601 Na 
HETATM    2  C   UNL     2     -11.970  13.754  67.443  1.00  0.00    -0.423 C  
HETATM    3  C   UNL     2     -11.219  15.028  67.797  1.00  0.00    -0.327 C  
ENDROOT
BRANCH   3   4
HETATM    4  C   UNL     2     -10.685  14.961  69.225  1.00  0.00    -0.253 C  
BRANCH   4   5
HETATM    5  C   UNL     2     -11.149  16.152  70.067  1.00  0.00    -0.363 C  
BRANCH   5   6
HETATM    6  C   UNL     2     -11.409  15.781  71.533  1.00  0.00    -0.424 C  
BRANCH   6   7
HETATM    7  C   UNL     2     -12.896  15.822  71.881  1.00  0.00    -0.514 C  
BRANCH   7   8
HETATM    8  C   UNL     2     -13.305  14.745  72.883  1.00  0.00    -0.582 C  
BRANCH   8   9
HETATM    9  C   UNL     2     -14.070  13.596  72.210  1.00  0.00    -0.602 C  
BRANCH   9  10
HETATM   10  C   UNL     2     -13.278  12.290  72.065  1.00  0.00    -0.508 C  
BRANCH  10  11
HETATM   11  C   UNL     2     -12.530  12.193  70.732  1.00  0.00    -0.362 C  
BRANCH  11  12
HETATM   12  C   UNL     2     -12.317  10.751  70.254  1.00  0.00    -0.423 C  
BRANCH  12  13
HETATM   13  C   UNL     2     -11.857   9.794  71.357  1.00  0.00    -0.408 C  
BRANCH  13  14
HETATM   14  O   UNL     2     -11.447   8.574  70.763  1.00  0.00    -0.269 OA 
HETATM   15  S   UNL     2     -12.010   7.186  71.398  1.00  0.00    -0.348 S  
HETATM   16  O   UNL     2     -11.446   6.165  70.510  1.00  0.00    -0.342 OA 
HETATM   17  O   UNL     2     -13.460   7.306  71.295  1.00  0.00    -0.369 OA 
HETATM   18  O   UNL     2     -11.481   7.168  72.750  1.00  0.00    -0.266 OA 
ENDBRANCH  13  14
ENDBRANCH  12  13
ENDBRANCH  11  12
ENDBRANCH  10  11
ENDBRANCH   9  10
ENDBRANCH   8   9
ENDBRANCH   7   8
ENDBRANCH   6   7
ENDBRANCH   5   6
ENDBRANCH   4   5
ENDBRANCH   3   4
TORSDOF 11
ENDMDL
MODEL       22
REMARK 921   NORMALIZED FREE ENERGY PREDICTED BY IDOCK:   -4.22 KCAL/MOL
REMARK 922        TOTAL FREE ENERGY PREDICTED BY IDOCK:   -8.36 KCAL/MOL
REMARK 923 INTER-LIGAND FREE ENERGY PREDICTED BY IDOCK:   -7.44 KCAL/MOL
REMARK 924 INTRA-LIGAND FREE ENERGY PREDICTED BY IDOCK:   -0.93 KCAL/MOL
REMARK 927      BINDING AFFINITY PREDICTED BY RF-SCORE:    0.00 PKD
ROOT
HETATM    1 NA   UNL     1     -10.334   1.854  67.377  1.00  0.00    -0.383 Na 
HETATM    2  C   UNL     2      -9.571   8.239  69.510  1.00  0.00    -0.171 C  
HETATM    3  C   UNL     2     -10.068   7.055  68.695  1.00  0.00    -0.168 C  
ENDROOT
BRANCH   3   4
HETATM    4  C   UNL     2     -11.270   6.401  69.371  1.00  0.00    -0.459 C  
BRANCH   4   5
HETATM    5  C   UNL     2     -11.015   6.130  70.855  1.00  0.00    -0.359 C  
BRANCH   5   6
HETATM    6  C   UNL     2     -12.169   6.596  71.754  1.00  0.00    -0.400 C  
BRANCH   6   7
HETATM    7  C   UNL     2     -11.932   7.999  72.311  1.00  0.00    -0.412 C  
BRANCH   7   8
HETATM    8  C   UNL     2     -13.222   8.797  72.486  1.00  0.00    -0.398 C  
BRANCH   8   9
HETATM    9  C   UNL     2     -13.211  10.093  71.662  1.00  0.00    -0.518 C  
BRANCH   9  10
HETATM   10  C   UNL     2     -12.054  10.212  70.661  1.00  0.00    -0.411 C  
BRANCH  10  11
HETATM   11  C   UNL     2     -12.178  11.439  69.753  1.00  0.00    -0.332 C  
BRANCH  11  12
HETATM   12  C   UNL     2     -11.730  11.179  68.309  1.00  0.00    -0.323 C  
BRANCH  12  13
HETATM   13  C   UNL     2     -11.765  12.421  67.416  1.00  0.00    -0.347 C  
BRANCH  13  14
HETATM   14  O   UNL     2     -12.229  12.048  66.130  1.00  0.00    -0.552 OA 
HETATM   15  S   UNL     2     -12.193  13.167  64.949  1.00  0.00    -0.446 S  
HETATM   16  O   UNL     2     -12.670  12.425  63.778  1.00  0.00    -0.693 OA 
HETATM   17  O   UNL     2     -10.790  13.551  64.859  1.00  0.00    -0.322 OA 
HETATM   18  O   UNL     2     -13.095  14.207  65.411  1.00  0.00    -0.743 OA 
ENDBRANCH  13  14
ENDBRANCH  12  13
ENDBRANCH  11  12
ENDBRANCH  10  11
ENDBRANCH   9  10
ENDBRANCH   8   9
ENDBRANCH   7   8
ENDBRANCH   6   7
ENDBRANCH   5   6
ENDBRANCH   4   5
ENDBRANCH   3   4
TORSDOF 11
ENDMDL
MODEL       23
REMARK 921   NORMALIZED FREE ENERGY PREDICTED BY IDOCK:   -4.22 KCAL/MOL
REMARK 922        TOTAL FREE ENERGY PREDICTED BY IDOCK:   -8.36 KCAL/MOL
REMARK 923 INTER-LIGAND FREE ENERGY PREDICTED BY IDOCK:   -7.15 KCAL/MOL
REMARK 924 INTRA-LIGAND FREE ENERGY PREDICTED BY IDOCK:   -1.21 KCAL/MOL
REMARK 927      BINDING AFFINITY PREDICTED BY RF-SCORE:    0.00 PKD
ROOT
HETATM    1 NA   UNL     1     -10.902  19.537  69.099  1.00  0.00    -0.495 Na 
HETATM    2  C   UNL     2     -14.299  14.473  72.051  1.00  0.00    -0.639 C  
HETATM    3  C   UNL     2     -13.660  15.320  70.961  1.00  0.00    -0.486 C  
ENDROOT
BRANCH   3   4
HETATM    4  C   UNL     2     -12.190  14.950  70.783  1.00  0.00    -0.387 C  
BRANCH   4   5
HETATM    5  C   UNL     2     -11.984  13.956  69.639  1.00  0.00    -0.399 C  
BRANCH   5   6
HETATM    6  C   UNL     2     -11.837  12.508  70.126  1.00  0.00    -0.336 C  
BRANCH   6   7
HETATM    7  C   UNL     2     -11.917  11.504  68.976  1.00  0.00    -0.377 C  
BRANCH   7   8
HETATM    8  C   UNL     2     -10.668  10.633  68.857  1.00  0.00    -0.254 C  
BRANCH   8   9
HETATM    9  C   UNL     2     -10.349  10.285  67.396  1.00  0.00    -0.282 C  
BRANCH   9  10
HETATM   10  C   UNL     2     -10.939  11.249  66.358  1.00  0.00    -0.285 C  
BRANCH  10  11
HETATM   11  C   UNL     2     -10.010  12.424  66.041  1.00  0.00    -0.270 C  
BRANCH  11  12
HETATM   12  C   UNL     2     -10.698  13.791  66.136  1.00  0.00    -0.283 C  
BRANCH  12  13
HETATM   13  C   UNL     2      -9.751  14.977  65.935  1.00  0.00    -0.342 C  
BRANCH  13  14
HETATM   14  O   UNL     2     -10.231  16.079  66.686  1.00  0.00    -0.274 OA 
HETATM   15  S   UNL     2     -10.211  17.549  65.987  1.00  0.00    -0.232 S  
HETATM   16  O   UNL     2     -10.826  18.406  67.004  1.00  0.00    -0.345 OA 
HETATM   17  O   UNL     2     -11.030  17.390  64.792  1.00  0.00    -0.964 OA 
HETATM   18  O   UNL     2      -8.803  17.814  65.746  1.00  0.00    -0.501 OA 
ENDBRANCH  13  14
ENDBRANCH  12  13
ENDBRANCH  11  12
ENDBRANCH  10  11
ENDBRANCH   9  10
ENDBRANCH   8   9
ENDBRANCH   7   8
ENDBRANCH   6   7
ENDBRANCH   5   6
ENDBRANCH   4   5
ENDBRANCH   3   4
TORSDOF 11
ENDMDL
MODEL       24
REMARK 921   NORMALIZED FREE ENERGY PREDICTED BY IDOCK:   -4.22 KCAL/MOL
REMARK 922        TOTAL FREE ENERGY PREDICTED BY IDOCK:   -8.36 KCAL/MOL
REMARK 923 INTER-LIGAND FREE ENERGY PREDICTED BY IDOCK:   -7.01 KCAL/MOL
REMARK 924 INTRA-LIGAND FREE ENERGY PREDICTED BY IDOCK:   -1.35 KCAL/MOL
REMARK 927      BINDING AFFINITY PREDICTED BY RF-SCORE:    0.00 PKD
ROOT
HETATM    1 NA   UNL     1     -11.552   5.458  69.499  1.00  0.00    -0.313 Na 
HETATM    2  C   UNL     2     -13.015  11.700  71.689  1.00  0.00    -0.483 C  
HETATM    3  C   UNL     2     -13.209  10.308  71.106  1.00  0.00    -0.429 C  
ENDROOT
BRANCH   3   4
HETATM    4  C   UNL     2     -13.425   9.284  72.216  1.00  0.00    -0.548 C  
BRANCH   4   5
HETATM    5  C   UNL     2     -12.728   7.956  71.914  1.00  0.00    -0.341 C  
BRANCH   5   6
HETATM    6  C   UNL     2     -11.236   7.969  72.272  1.00  0.00    -0.402 C  
BRANCH   6   7
HETATM    7  C   UNL     2     -10.347   7.953  71.030  1.00  0.00    -0.221 C  
BRANCH   7   8
HETATM    8  C   UNL     2      -9.433   9.172  70.934  1.00  0.00    -0.343 C  
BRANCH   8   9
HETATM    9  C   UNL     2      -9.787  10.062  69.733  1.00  0.00    -0.270 C  
BRANCH   9  10
HETATM   10  C   UNL     2     -10.626   9.376  68.646  1.00  0.00    -0.230 C  
BRANCH  10  11
HETATM   11  C   UNL     2     -10.903  10.286  67.446  1.00  0.00    -0.336 C  
BRANCH  11  12
HETATM   12  C   UNL     2     -11.562  11.618  67.828  1.00  0.00    -0.359 C  
BRANCH  12  13
HETATM   13  C   UNL     2     -11.107  12.802  66.970  1.00  0.00    -0.278 C  
BRANCH  13  14
HETATM   14  O   UNL     2     -11.304  12.481  65.604  1.00  0.00    -0.308 OA 
HETATM   15  S   UNL     2     -11.931  13.625  64.631  1.00  0.00    -0.429 S  
HETATM   16  O   UNL     2     -11.926  12.978  63.316  1.00  0.00    -0.562 OA 
HETATM   17  O   UNL     2     -10.993  14.737  64.733  1.00  0.00    -0.390 OA 
HETATM   18  O   UNL     2     -13.254  13.875  65.175  1.00  0.00    -0.768 OA 
ENDBRANCH  13  14
ENDBRANCH  12  13
ENDBRANCH  11  12
ENDBRANCH  10  11
ENDBRANCH   9  10
ENDBRANCH   8   9
ENDBRANCH   7   8
ENDBRANCH   6   7
ENDBRANCH   5   6
ENDBRANCH   4   5
ENDBRANCH   3   4
TORSDOF 11
ENDMDL
MODEL       25
REMARK 921   NORMALIZED FREE ENERGY PREDICTED BY IDOCK:   -4.21 KCAL/MOL
REMARK 922        TOTAL FREE ENERGY PREDICTED BY IDOCK:   -8.35 KCAL/MOL
REMARK 923 INTER-LIGAND FREE ENERGY PREDICTED BY IDOCK:   -7.61 KCAL/MOL
REMARK 924 INTRA-LIGAND FREE ENERGY PREDICTED BY IDOCK:   -0.74 KCAL/MOL
REMARK 927      BINDING AFFINITY PREDICTED BY RF-SCORE:    0.00 PKD
ROOT
HETATM    1 NA   UNL     1     -12.144  12.360  66.728  1.00  0.00    -0.323 Na 
HETATM    2  C   UNL     2     -11.921   8.430  72.242  1.00  0.00    -0.455 C  
HETATM    3  C   UNL     2     -11.791   9.663  71.360  1.00  0.00    -0.484 C  
ENDROOT
BRANCH   3   4
HETATM    4  C   UNL     2     -13.115  10.419  71.292  1.00  0.00    -0.494 C  
BRANCH   4   5
HETATM    5  C   UNL     2     -12.905  11.926  71.128  1.00  0.00    -0.346 C  
BRANCH   5   6
HETATM    6  C   UNL     2     -13.422  12.734  72.326  1.00  0.00    -0.591 C  
BRANCH   6   7
HETATM    7  C   UNL     2     -14.101  14.032  71.893  1.00  0.00    -0.537 C  
BRANCH   7   8
HETATM    8  C   UNL     2     -13.530  15.266  72.589  1.00  0.00    -0.610 C  
BRANCH   8   9
HETATM    9  C   UNL     2     -12.556  16.035  71.685  1.00  0.00    -0.360 C  
BRANCH   9  10
HETATM   10  C   UNL     2     -11.221  15.326  71.421  1.00  0.00    -0.364 C  
BRANCH  10  11
HETATM   11  C   UNL     2     -10.676  15.587  70.014  1.00  0.00    -0.331 C  
BRANCH  11  12
HETATM   12  C   UNL     2     -11.764  15.933  68.991  1.00  0.00    -0.377 C  
BRANCH  12  13
HETATM   13  C   UNL     2     -11.520  15.340  67.601  1.00  0.00    -0.280 C  
BRANCH  13  14
HETATM   14  O   UNL     2     -10.225  15.714  67.165  1.00  0.00    -0.259 OA 
HETATM   15  S   UNL     2     -10.101  16.923  66.083  1.00  0.00    -0.319 S  
HETATM   16  O   UNL     2      -8.651  17.074  65.923  1.00  0.00    -0.521 OA 
HETATM   17  O   UNL     2     -10.731  18.061  66.742  1.00  0.00    -0.299 OA 
HETATM   18  O   UNL     2     -10.789  16.425  64.905  1.00  0.00    -0.655 OA 
ENDBRANCH  13  14
ENDBRANCH  12  13
ENDBRANCH  11  12
ENDBRANCH  10  11
ENDBRANCH   9  10
ENDBRANCH   8   9
ENDBRANCH   7   8
ENDBRANCH   6   7
ENDBRANCH   5   6
ENDBRANCH   4   5
ENDBRANCH   3   4
TORSDOF 11
ENDMDL
MODEL       26
REMARK 921   NORMALIZED FREE ENERGY PREDICTED BY IDOCK:   -4.20 KCAL/MOL
REMARK 922        TOTAL FREE ENERGY PREDICTED BY IDOCK:   -8.34 KCAL/MOL
REMARK 923 INTER-LIGAND FREE ENERGY PREDICTED BY IDOCK:   -6.96 KCAL/MOL
REMARK 924 INTRA-LIGAND FREE ENERGY PREDICTED BY IDOCK:   -1.38 KCAL/MOL
REMARK 927      BINDING AFFINITY PREDICTED BY RF-SCORE:    0.00 PKD
ROOT
HETATM    1 NA   UNL     1     -13.561  10.243  69.562  1.00  0.00    -0.568 Na 
HETATM    2  C   UNL     2      -8.081   9.563  65.636  1.00  0.00    -0.112 C  
HETATM    3  C   UNL     2      -9.523   9.453  66.108  1.00  0.00    -0.287 C  
ENDROOT
BRANCH   3   4
HETATM    4  C   UNL     2     -10.316  10.695  65.714  1.00  0.00    -0.287 C  
BRANCH   4   5
HETATM    5  C   UNL     2      -9.541  11.585  64.740  1.00  0.00    -0.198 C  
BRANCH   5   6
HETATM    6  C   UNL     2     -10.335  11.907  63.467  1.00  0.00    -0.495 C  
BRANCH   6   7
HETATM    7  C   UNL     2     -11.842  11.932  63.720  1.00  0.00    -0.558 C  
BRANCH   7   8
HETATM    8  C   UNL     2     -12.387  13.342  63.933  1.00  0.00    -0.422 C  
BRANCH   8   9
HETATM    9  C   UNL     2     -12.782  13.589  65.397  1.00  0.00    -0.495 C  
BRANCH   9  10
HETATM   10  C   UNL     2     -11.701  14.262  66.253  1.00  0.00    -0.404 C  
BRANCH  10  11
HETATM   11  C   UNL     2     -10.728  15.107  65.426  1.00  0.00    -0.396 C  
BRANCH  11  12
HETATM   12  C   UNL     2      -9.314  15.163  66.016  1.00  0.00    -0.326 C  
BRANCH  12  13
HETATM   13  C   UNL     2      -8.869  16.569  66.427  1.00  0.00    -0.310 C  
BRANCH  13  14
HETATM   14  O   UNL     2      -9.690  17.520  65.771  1.00  0.00    -0.534 OA 
HETATM   15  S   UNL     2     -10.066  18.887  66.570  1.00  0.00    -0.423 S  
HETATM   16  O   UNL     2     -10.847  19.640  65.584  1.00  0.00    -0.473 OA 
HETATM   17  O   UNL     2      -8.775  19.494  66.871  1.00  0.00    -0.286 OA 
HETATM   18  O   UNL     2     -10.825  18.434  67.721  1.00  0.00    -0.384 OA 
ENDBRANCH  13  14
ENDBRANCH  12  13
ENDBRANCH  11  12
ENDBRANCH  10  11
ENDBRANCH   9  10
ENDBRANCH   8   9
ENDBRANCH   7   8
ENDBRANCH   6   7
ENDBRANCH   5   6
ENDBRANCH   4   5
ENDBRANCH   3   4
TORSDOF 11
ENDMDL
MODEL       27
REMARK 921   NORMALIZED FREE ENERGY PREDICTED BY IDOCK:   -4.19 KCAL/MOL
REMARK 922        TOTAL FREE ENERGY PREDICTED BY IDOCK:   -8.31 KCAL/MOL
REMARK 923 INTER-LIGAND FREE ENERGY PREDICTED BY IDOCK:   -7.20 KCAL/MOL
REMARK 924 INTRA-LIGAND FREE ENERGY PREDICTED BY IDOCK:   -1.11 KCAL/MOL
REMARK 927      BINDING AFFINITY PREDICTED BY RF-SCORE:    0.00 PKD
ROOT
HETATM    1 NA   UNL     1     -14.229  15.753  71.093  1.00  0.00    -0.449 Na 
HETATM    2  C   UNL     2     -11.213   9.688  71.183  1.00  0.00    -0.454 C  
HETATM    3  C   UNL     2     -12.315  10.734  71.123  1.00  0.00    -0.498 C  
ENDROOT
BRANCH   3   4
HETATM    4  C   UNL     2     -12.533  11.206  69.688  1.00  0.00    -0.195 C  
BRANCH   4   5
HETATM    5  C   UNL     2     -11.598  12.359  69.316  1.00  0.00    -0.379 C  
BRANCH   5   6
HETATM    6  C   UNL     2     -12.255  13.736  69.477  1.00  0.00    -0.344 C  
BRANCH   6   7
HETATM    7  C   UNL     2     -11.578  14.572  70.562  1.00  0.00    -0.295 C  
BRANCH   7   8
HETATM    8  C   UNL     2     -10.842  15.789  70.006  1.00  0.00    -0.348 C  
BRANCH   8   9
HETATM    9  C   UNL     2     -11.391  16.215  68.637  1.00  0.00    -0.365 C  
BRANCH   9  10
HETATM   10  C   UNL     2     -10.350  16.812  67.680  1.00  0.00    -0.309 C  
BRANCH  10  11
HETATM   11  C   UNL     2     -10.101  15.935  66.451  1.00  0.00    -0.306 C  
BRANCH  11  12
HETATM   12  C   UNL     2      -9.550  14.545  66.792  1.00  0.00    -0.274 C  
BRANCH  12  13
HETATM   13  C   UNL     2      -9.915  13.465  65.769  1.00  0.00    -0.252 C  
BRANCH  13  14
HETATM   14  O   UNL     2     -10.812  14.017  64.821  1.00  0.00    -0.382 OA 
HETATM   15  S   UNL     2     -11.856  13.012  64.080  1.00  0.00    -0.479 S  
HETATM   16  O   UNL     2     -12.649  13.918  63.244  1.00  0.00    -0.824 OA 
HETATM   17  O   UNL     2     -12.617  12.416  65.171  1.00  0.00    -0.622 OA 
HETATM   18  O   UNL     2     -11.008  12.095  63.338  1.00  0.00    -0.426 OA 
ENDBRANCH  13  14
ENDBRANCH  12  13
ENDBRANCH  11  12
ENDBRANCH  10  11
ENDBRANCH   9  10
ENDBRANCH   8   9
ENDBRANCH   7   8
ENDBRANCH   6   7
ENDBRANCH   5   6
ENDBRANCH   4   5
ENDBRANCH   3   4
TORSDOF 11
ENDMDL
MODEL       28
REMARK 921   NORMALIZED FREE ENERGY PREDICTED BY IDOCK:   -4.18 KCAL/MOL
REMARK 922        TOTAL FREE ENERGY PREDICTED BY IDOCK:   -8.30 KCAL/MOL
REMARK 923 INTER-LIGAND FREE ENERGY PREDICTED BY IDOCK:   -7.17 KCAL/MOL
REMARK 924 INTRA-LIGAND FREE ENERGY PREDICTED BY IDOCK:   -1.13 KCAL/MOL
REMARK 927      BINDING AFFINITY PREDICTED BY RF-SCORE:    0.00 PKD
ROOT
HETATM    1 NA   UNL     1      -8.268  11.806  69.431  1.00  0.00    -0.290 Na 
HETATM    2  C   UNL     2     -10.591   5.799  67.329  1.00  0.00    -0.353 C  
HETATM    3  C   UNL     2      -9.658   6.839  67.930  1.00  0.00    -0.125 C  
ENDROOT
BRANCH   3   4
HETATM    4  C   UNL     2      -9.963   7.046  69.411  1.00  0.00    -0.165 C  
BRANCH   4   5
HETATM    5  C   UNL     2     -11.261   6.351  69.830  1.00  0.00    -0.485 C  
BRANCH   5   6
HETATM    6  C   UNL     2     -11.496   6.393  71.346  1.00  0.00    -0.363 C  
BRANCH   6   7
HETATM    7  C   UNL     2     -12.567   7.412  71.733  1.00  0.00    -0.367 C  
BRANCH   7   8
HETATM    8  C   UNL     2     -12.006   8.817  71.942  1.00  0.00    -0.435 C  
BRANCH   8   9
HETATM    9  C   UNL     2     -13.064   9.901  71.690  1.00  0.00    -0.538 C  
BRANCH   9  10
HETATM   10  C   UNL     2     -12.595  11.072  70.816  1.00  0.00    -0.463 C  
BRANCH  10  11
HETATM   11  C   UNL     2     -11.211  10.839  70.203  1.00  0.00    -0.345 C  
BRANCH  11  12
HETATM   12  C   UNL     2     -11.241  10.640  68.683  1.00  0.00    -0.337 C  
BRANCH  12  13
HETATM   13  C   UNL     2     -11.206  11.947  67.886  1.00  0.00    -0.263 C  
BRANCH  13  14
HETATM   14  O   UNL     2     -12.118  11.850  66.806  1.00  0.00    -0.593 OA 
HETATM   15  S   UNL     2     -12.038  12.975  65.633  1.00  0.00    -0.468 S  
HETATM   16  O   UNL     2     -13.056  12.527  64.677  1.00  0.00    -0.845 OA 
HETATM   17  O   UNL     2     -10.677  12.865  65.122  1.00  0.00    -0.289 OA 
HETATM   18  O   UNL     2     -12.352  14.222  66.307  1.00  0.00    -0.443 OA 
ENDBRANCH  13  14
ENDBRANCH  12  13
ENDBRANCH  11  12
ENDBRANCH  10  11
ENDBRANCH   9  10
ENDBRANCH   8   9
ENDBRANCH   7   8
ENDBRANCH   6   7
ENDBRANCH   5   6
ENDBRANCH   4   5
ENDBRANCH   3   4
TORSDOF 11
ENDMDL
MODEL       29
REMARK 921   NORMALIZED FREE ENERGY PREDICTED BY IDOCK:   -4.16 KCAL/MOL
REMARK 922        TOTAL FREE ENERGY PREDICTED BY IDOCK:   -8.28 KCAL/MOL
REMARK 923 INTER-LIGAND FREE ENERGY PREDICTED BY IDOCK:   -7.39 KCAL/MOL
REMARK 924 INTRA-LIGAND FREE ENERGY PREDICTED BY IDOCK:   -0.89 KCAL/MOL
REMARK 927      BINDING AFFINITY PREDICTED BY RF-SCORE:    0.00 PKD
ROOT
HETATM    1 NA   UNL     1     -12.750  10.971  62.380  1.00  0.00    -0.979 Na 
HETATM    2  C   UNL     2     -10.529  10.587  68.769  1.00  0.00    -0.216 C  
HETATM    3  C   UNL     2     -10.833  10.180  67.335  1.00  0.00    -0.323 C  
ENDROOT
BRANCH   3   4
HETATM    4  C   UNL     2      -9.709  10.617  66.400  1.00  0.00    -0.241 C  
BRANCH   4   5
HETATM    5  C   UNL     2      -9.834   9.978  65.016  1.00  0.00    -0.374 C  
BRANCH   5   6
HETATM    6  C   UNL     2     -10.355  10.954  63.952  1.00  0.00    -0.397 C  
BRANCH   6   7
HETATM    7  C   UNL     2     -10.161  12.412  64.367  1.00  0.00    -0.293 C  
BRANCH   7   8
HETATM    8  C   UNL     2     -11.391  13.277  64.101  1.00  0.00    -0.424 C  
BRANCH   8   9
HETATM    9  C   UNL     2     -11.715  14.193  65.290  1.00  0.00    -0.353 C  
BRANCH   9  10
HETATM   10  C   UNL     2     -12.228  13.471  66.543  1.00  0.00    -0.433 C  
BRANCH  10  11
HETATM   11  C   UNL     2     -11.393  13.775  67.789  1.00  0.00    -0.331 C  
BRANCH  11  12
HETATM   12  C   UNL     2     -12.222  14.291  68.971  1.00  0.00    -0.255 C  
BRANCH  12  13
HETATM   13  C   UNL     2     -12.082  13.449  70.242  1.00  0.00    -0.349 C  
BRANCH  13  14
HETATM   14  O   UNL     2     -12.023  14.316  71.362  1.00  0.00    -0.327 OA 
HETATM   15  S   UNL     2     -13.424  14.757  72.062  1.00  0.00    -0.425 S  
HETATM   16  O   UNL     2     -12.983  15.575  73.196  1.00  0.00    -0.424 OA 
HETATM   17  O   UNL     2     -14.038  13.496  72.463  1.00  0.00    -0.731 OA 
HETATM   18  O   UNL     2     -14.129  15.491  71.027  1.00  0.00    -0.513 OA 
ENDBRANCH  13  14
ENDBRANCH  12  13
ENDBRANCH  11  12
ENDBRANCH  10  11
ENDBRANCH   9  10
ENDBRANCH   8   9
ENDBRANCH   7   8
ENDBRANCH   6   7
ENDBRANCH   5   6
ENDBRANCH   4   5
ENDBRANCH   3   4
TORSDOF 11
ENDMDL
MODEL       30
REMARK 921   NORMALIZED FREE ENERGY PREDICTED BY IDOCK:   -4.15 KCAL/MOL
REMARK 922        TOTAL FREE ENERGY PREDICTED BY IDOCK:   -8.26 KCAL/MOL
REMARK 923 INTER-LIGAND FREE ENERGY PREDICTED BY IDOCK:   -6.70 KCAL/MOL
REMARK 924 INTRA-LIGAND FREE ENERGY PREDICTED BY IDOCK:   -1.56 KCAL/MOL
REMARK 927      BINDING AFFINITY PREDICTED BY RF-SCORE:    0.00 PKD
ROOT
HETATM    1 NA   UNL     1     -11.558  10.718  62.440  1.00  0.00    -0.770 Na 
HETATM    2  C   UNL     2      -8.194   9.177  68.116  1.00  0.00    -0.116 C  
HETATM    3  C   UNL     2      -8.488   9.765  66.744  1.00  0.00    -0.125 C  
ENDROOT
BRANCH   3   4
HETATM    4  C   UNL     2      -9.168  11.125  66.874  1.00  0.00    -0.179 C  
BRANCH   4   5
HETATM    5  C   UNL     2      -9.948  11.252  68.184  1.00  0.00    -0.191 C  
BRANCH   5   6
HETATM    6  C   UNL     2     -11.383  10.718  68.079  1.00  0.00    -0.378 C  
BRANCH   6   7
HETATM    7  C   UNL     2     -12.241  11.138  69.272  1.00  0.00    -0.295 C  
BRANCH   7   8
HETATM    8  C   UNL     2     -11.569  12.192  70.149  1.00  0.00    -0.202 C  
BRANCH   8   9
HETATM    9  C   UNL     2     -12.517  13.354  70.479  1.00  0.00    -0.350 C  
BRANCH   9  10
HETATM   10  C   UNL     2     -12.063  14.726  69.963  1.00  0.00    -0.380 C  
BRANCH  10  11
HETATM   11  C   UNL     2     -10.906  14.633  68.965  1.00  0.00    -0.252 C  
BRANCH  11  12
HETATM   12  C   UNL     2     -11.285  15.070  67.545  1.00  0.00    -0.333 C  
BRANCH  12  13
HETATM   13  C   UNL     2     -12.173  14.067  66.803  1.00  0.00    -0.404 C  
BRANCH  13  14
HETATM   14  O   UNL     2     -11.400  13.420  65.807  1.00  0.00    -0.301 OA 
HETATM   15  S   UNL     2     -12.038  13.276  64.317  1.00  0.00    -0.417 S  
HETATM   16  O   UNL     2     -10.959  12.636  63.557  1.00  0.00    -0.441 OA 
HETATM   17  O   UNL     2     -12.301  14.649  63.904  1.00  0.00    -0.730 OA 
HETATM   18  O   UNL     2     -13.215  12.447  64.508  1.00  0.00    -0.834 OA 
ENDBRANCH  13  14
ENDBRANCH  12  13
ENDBRANCH  11  12
ENDBRANCH  10  11
ENDBRANCH   9  10
ENDBRANCH   8   9
ENDBRANCH   7   8
ENDBRANCH   6   7
ENDBRANCH   5   6
ENDBRANCH   4   5
ENDBRANCH   3   4
TORSDOF 11
ENDMDL
MODEL       31
REMARK 921   NORMALIZED FREE ENERGY PREDICTED BY IDOCK:   -4.15 KCAL/MOL
REMARK 922        TOTAL FREE ENERGY PREDICTED BY IDOCK:   -8.25 KCAL/MOL
REMARK 923 INTER-LIGAND FREE ENERGY PREDICTED BY IDOCK:   -7.38 KCAL/MOL
REMARK 924 INTRA-LIGAND FREE ENERGY PREDICTED BY IDOCK:   -0.87 KCAL/MOL
REMARK 927      BINDING AFFINITY PREDICTED BY RF-SCORE:    0.00 PKD
ROOT
HETATM    1 NA   UNL     1     -13.778  12.649  64.804  1.00  0.00    -0.712 Na 
HETATM    2  C   UNL     2     -10.294  10.082  70.016  1.00  0.00    -0.323 C  
HETATM    3  C   UNL     2     -10.879  11.105  69.054  1.00  0.00    -0.276 C  
ENDROOT
BRANCH   3   4
HETATM    4  C   UNL     2     -12.278  11.523  69.496  1.00  0.00    -0.287 C  
BRANCH   4   5
HETATM    5  C   UNL     2     -12.780  10.687  70.676  1.00  0.00    -0.445 C  
BRANCH   5   6
HETATM    6  C   UNL     2     -13.231  11.545  71.865  1.00  0.00    -0.479 C  
BRANCH   6   7
HETATM    7  C   UNL     2     -12.906  13.024  71.662  1.00  0.00    -0.376 C  
BRANCH   7   8
HETATM    8  C   UNL     2     -14.004  13.953  72.176  1.00  0.00    -0.639 C  
BRANCH   8   9
HETATM    9  C   UNL     2     -13.556  15.421  72.185  1.00  0.00    -0.600 C  
BRANCH   9  10
HETATM   10  C   UNL     2     -12.044  15.637  72.039  1.00  0.00    -0.529 C  
BRANCH  10  11
HETATM   11  C   UNL     2     -11.659  16.260  70.695  1.00  0.00    -0.252 C  
BRANCH  11  12
HETATM   12  C   UNL     2     -11.779  15.290  69.514  1.00  0.00    -0.359 C  
BRANCH  12  13
HETATM   13  C   UNL     2     -10.559  15.286  68.588  1.00  0.00    -0.236 C  
BRANCH  13  14
HETATM   14  O   UNL     2     -10.984  15.584  67.269  1.00  0.00    -0.317 OA 
HETATM   15  S   UNL     2     -10.088  16.621  66.392  1.00  0.00    -0.327 S  
HETATM   16  O   UNL     2     -10.773  16.635  65.096  1.00  0.00    -0.621 OA 
HETATM   17  O   UNL     2      -8.768  16.003  66.343  1.00  0.00    -0.270 OA 
HETATM   18  O   UNL     2     -10.163  17.872  67.126  1.00  0.00    -0.325 OA 
ENDBRANCH  13  14
ENDBRANCH  12  13
ENDBRANCH  11  12
ENDBRANCH  10  11
ENDBRANCH   9  10
ENDBRANCH   8   9
ENDBRANCH   7   8
ENDBRANCH   6   7
ENDBRANCH   5   6
ENDBRANCH   4   5
ENDBRANCH   3   4
TORSDOF 11
ENDMDL
MODEL       32
REMARK 921   NORMALIZED FREE ENERGY PREDICTED BY IDOCK:   -4.14 KCAL/MOL
REMARK 922        TOTAL FREE ENERGY PREDICTED BY IDOCK:   -8.24 KCAL/MOL
REMARK 923 INTER-LIGAND FREE ENERGY PREDICTED BY IDOCK:   -6.67 KCAL/MOL
REMARK 924 INTRA-LIGAND FREE ENERGY PREDICTED BY IDOCK:   -1.57 KCAL/MOL
REMARK 927      BINDING AFFINITY PREDICTED BY RF-SCORE:    0.00 PKD
ROOT
HETATM    1 NA   UNL     1     -14.236  14.446  65.331  1.00  0.00    -0.758 Na 
HETATM    2  C   UNL     2     -11.728  10.807  70.465  1.00  0.00    -0.449 C  
HETATM    3  C   UNL     2     -11.951  11.314  69.048  1.00  0.00    -0.393 C  
ENDROOT
BRANCH   3   4
HETATM    4  C   UNL     2     -11.065  12.523  68.762  1.00  0.00    -0.314 C  
BRANCH   4   5
HETATM    5  C   UNL     2     -10.101  12.265  67.601  1.00  0.00    -0.204 C  
BRANCH   5   6
HETATM    6  C   UNL     2      -8.649  12.082  68.061  1.00  0.00    -0.170 C  
BRANCH   6   7
HETATM    7  C   UNL     2      -7.781  13.292  67.717  1.00  0.00    -0.159 C  
BRANCH   7   8
HETATM    8  C   UNL     2      -7.737  14.332  68.835  1.00  0.00    -0.112 C  
BRANCH   8   9
HETATM    9  C   UNL     2      -7.792  15.766  68.288  1.00  0.00    -0.129 C  
BRANCH   9  10
HETATM   10  C   UNL     2      -7.783  15.874  66.757  1.00  0.00    -0.245 C  
BRANCH  10  11
HETATM   11  C   UNL     2      -8.952  16.699  66.212  1.00  0.00    -0.340 C  
BRANCH  11  12
HETATM   12  C   UNL     2     -10.309  15.997  66.339  1.00  0.00    -0.312 C  
BRANCH  12  13
HETATM   13  C   UNL     2     -10.880  15.507  65.005  1.00  0.00    -0.450 C  
BRANCH  13  14
HETATM   14  O   UNL     2     -11.805  14.464  65.258  1.00  0.00    -0.353 OA 
HETATM   15  S   UNL     2     -11.980  13.305  64.128  1.00  0.00    -0.462 S  
HETATM   16  O   UNL     2     -12.940  12.385  64.746  1.00  0.00    -0.786 OA 
HETATM   17  O   UNL     2     -10.644  12.738  63.985  1.00  0.00    -0.392 OA 
HETATM   18  O   UNL     2     -12.485  14.011  62.964  1.00  0.00    -0.641 OA 
ENDBRANCH  13  14
ENDBRANCH  12  13
ENDBRANCH  11  12
ENDBRANCH  10  11
ENDBRANCH   9  10
ENDBRANCH   8   9
ENDBRANCH   7   8
ENDBRANCH   6   7
ENDBRANCH   5   6
ENDBRANCH   4   5
ENDBRANCH   3   4
TORSDOF 11
ENDMDL
MODEL       33
REMARK 921   NORMALIZED FREE ENERGY PREDICTED BY IDOCK:   -4.14 KCAL/MOL
REMARK 922        TOTAL FREE ENERGY PREDICTED BY IDOCK:   -8.24 KCAL/MOL
REMARK 923 INTER-LIGAND FREE ENERGY PREDICTED BY IDOCK:   -6.70 KCAL/MOL
REMARK 924 INTRA-LIGAND FREE ENERGY PREDICTED BY IDOCK:   -1.54 KCAL/MOL
REMARK 927      BINDING AFFINITY PREDICTED BY RF-SCORE:    0.00 PKD
ROOT
HETATM    1 NA   UNL     1     -13.353  12.837  64.088  1.00  0.00    -0.617 Na 
HETATM    2  C   UNL     2      -8.902  10.524  68.641  1.00  0.00    -0.147 C  
HETATM    3  C   UNL     2      -9.611  11.481  67.696  1.00  0.00    -0.176 C  
ENDROOT
BRANCH   3   4
HETATM    4  C   UNL     2     -10.796  12.146  68.391  1.00  0.00    -0.255 C  
BRANCH   4   5
HETATM    5  C   UNL     2     -11.798  12.724  67.389  1.00  0.00    -0.404 C  
BRANCH   5   6
HETATM    6  C   UNL     2     -11.163  13.045  66.029  1.00  0.00    -0.320 C  
BRANCH   6   7
HETATM    7  C   UNL     2     -11.314  14.520  65.659  1.00  0.00    -0.336 C  
BRANCH   7   8
HETATM    8  C   UNL     2      -9.975  15.225  65.457  1.00  0.00    -0.383 C  
BRANCH   8   9
HETATM    9  C   UNL     2      -9.238  15.449  66.786  1.00  0.00    -0.273 C  
BRANCH   9  10
HETATM   10  C   UNL     2      -9.867  16.507  67.702  1.00  0.00    -0.247 C  
BRANCH  10  11
HETATM   11  C   UNL     2     -10.325  15.934  69.046  1.00  0.00    -0.231 C  
BRANCH  11  12
HETATM   12  C   UNL     2     -11.849  15.863  69.194  1.00  0.00    -0.340 C  
BRANCH  12  13
HETATM   13  C   UNL     2     -12.320  14.964  70.341  1.00  0.00    -0.345 C  
BRANCH  13  14
HETATM   14  O   UNL     2     -13.027  15.754  71.281  1.00  0.00    -0.489 OA 
HETATM   15  S   UNL     2     -13.016  15.283  72.839  1.00  0.00    -0.516 S  
HETATM   16  O   UNL     2     -13.770  16.346  73.510  1.00  0.00    -0.555 OA 
HETATM   17  O   UNL     2     -11.603  15.261  73.197  1.00  0.00    -0.402 OA 
HETATM   18  O   UNL     2     -13.676  13.990  72.829  1.00  0.00    -0.660 OA 
ENDBRANCH  13  14
ENDBRANCH  12  13
ENDBRANCH  11  12
ENDBRANCH  10  11
ENDBRANCH   9  10
ENDBRANCH   8   9
ENDBRANCH   7   8
ENDBRANCH   6   7
ENDBRANCH   5   6
ENDBRANCH   4   5
ENDBRANCH   3   4
TORSDOF 11
ENDMDL
MODEL       34
REMARK 921   NORMALIZED FREE ENERGY PREDICTED BY IDOCK:   -4.14 KCAL/MOL
REMARK 922        TOTAL FREE ENERGY PREDICTED BY IDOCK:   -8.24 KCAL/MOL
REMARK 923 INTER-LIGAND FREE ENERGY PREDICTED BY IDOCK:   -7.10 KCAL/MOL
REMARK 924 INTRA-LIGAND FREE ENERGY PREDICTED BY IDOCK:   -1.14 KCAL/MOL
REMARK 927      BINDING AFFINITY PREDICTED BY RF-SCORE:    0.00 PKD
ROOT
HETATM    1 NA   UNL     1     -12.017   9.660  67.978  1.00  0.00    -0.535 Na 
HETATM    2  C   UNL     2     -13.031  15.562  71.146  1.00  0.00    -0.560 C  
HETATM    3  C   UNL     2     -12.309  14.340  70.598  1.00  0.00    -0.431 C  
ENDROOT
BRANCH   3   4
HETATM    4  C   UNL     2     -11.876  14.572  69.154  1.00  0.00    -0.354 C  
BRANCH   4   5
HETATM    5  C   UNL     2     -10.941  13.470  68.652  1.00  0.00    -0.289 C  
BRANCH   5   6
HETATM    6  C   UNL     2     -11.552  12.642  67.513  1.00  0.00    -0.418 C  
BRANCH   6   7
HETATM    7  C   UNL     2     -10.485  11.918  66.693  1.00  0.00    -0.250 C  
BRANCH   7   8
HETATM    8  C   UNL     2     -10.874  11.748  65.226  1.00  0.00    -0.343 C  
BRANCH   8   9
HETATM    9  C   UNL     2     -10.603  13.021  64.411  1.00  0.00    -0.429 C  
BRANCH   9  10
HETATM   10  C   UNL     2     -11.817  13.943  64.229  1.00  0.00    -0.441 C  
BRANCH  10  11
HETATM   11  C   UNL     2     -11.518  15.399  64.594  1.00  0.00    -0.339 C  
BRANCH  11  12
HETATM   12  C   UNL     2     -10.266  15.568  65.463  1.00  0.00    -0.415 C  
BRANCH  12  13
HETATM   13  C   UNL     2     -10.333  16.758  66.423  1.00  0.00    -0.306 C  
BRANCH  13  14
HETATM   14  O   UNL     2      -9.282  17.657  66.113  1.00  0.00    -0.446 OA 
HETATM   15  S   UNL     2      -9.460  19.218  66.538  1.00  0.00    -0.372 S  
HETATM   16  O   UNL     2      -8.185  19.817  66.132  1.00  0.00    -0.340 OA 
HETATM   17  O   UNL     2      -9.647  19.178  67.984  1.00  0.00    -0.305 OA 
HETATM   18  O   UNL     2     -10.609  19.670  65.774  1.00  0.00    -0.522 OA 
ENDBRANCH  13  14
ENDBRANCH  12  13
ENDBRANCH  11  12
ENDBRANCH  10  11
ENDBRANCH   9  10
ENDBRANCH   8   9
ENDBRANCH   7   8
ENDBRANCH   6   7
ENDBRANCH   5   6
ENDBRANCH   4   5
ENDBRANCH   3   4
TORSDOF 11
ENDMDL
MODEL       35
REMARK 921   NORMALIZED FREE ENERGY PREDICTED BY IDOCK:   -4.14 KCAL/MOL
REMARK 922        TOTAL FREE ENERGY PREDICTED BY IDOCK:   -8.23 KCAL/MOL
REMARK 923 INTER-LIGAND FREE ENERGY PREDICTED BY IDOCK:   -6.97 KCAL/MOL
REMARK 924 INTRA-LIGAND FREE ENERGY PREDICTED BY IDOCK:   -1.26 KCAL/MOL
REMARK 927      BINDING AFFINITY PREDICTED BY RF-SCORE:    0.00 PKD
ROOT
HETATM    1 NA   UNL     1     -13.393  14.465  66.551  1.00  0.00    -0.598 Na 
HETATM    2  C   UNL     2      -9.822   8.708  66.599  1.00  0.00    -0.336 C  
HETATM    3  C   UNL     2     -10.206  10.153  66.878  1.00  0.00    -0.295 C  
ENDROOT
BRANCH   3   4
HETATM    4  C   UNL     2     -11.093  10.247  68.116  1.00  0.00    -0.324 C  
BRANCH   4   5
HETATM    5  C   UNL     2     -11.865  11.567  68.169  1.00  0.00    -0.306 C  
BRANCH   5   6
HETATM    6  C   UNL     2     -11.525  12.408  69.406  1.00  0.00    -0.336 C  
BRANCH   6   7
HETATM    7  C   UNL     2     -12.245  13.756  69.400  1.00  0.00    -0.325 C  
BRANCH   7   8
HETATM    8  C   UNL     2     -11.684  14.737  70.427  1.00  0.00    -0.350 C  
BRANCH   8   9
HETATM    9  C   UNL     2     -11.244  16.057  69.777  1.00  0.00    -0.344 C  
BRANCH   9  10
HETATM   10  C   UNL     2     -10.090  15.931  68.773  1.00  0.00    -0.221 C  
BRANCH  10  11
HETATM   11  C   UNL     2     -10.529  16.181  67.328  1.00  0.00    -0.309 C  
BRANCH  11  12
HETATM   12  C   UNL     2      -9.732  15.370  66.298  1.00  0.00    -0.325 C  
BRANCH  12  13
HETATM   13  C   UNL     2     -10.410  14.062  65.880  1.00  0.00    -0.318 C  
BRANCH  13  14
HETATM   14  O   UNL     2     -11.127  14.282  64.677  1.00  0.00    -0.379 OA 
HETATM   15  S   UNL     2     -11.981  13.043  64.058  1.00  0.00    -0.484 S  
HETATM   16  O   UNL     2     -12.628  13.641  62.886  1.00  0.00    -0.621 OA 
HETATM   17  O   UNL     2     -12.917  12.686  65.117  1.00  0.00    -0.754 OA 
HETATM   18  O   UNL     2     -10.981  12.037  63.746  1.00  0.00    -0.348 OA 
ENDBRANCH  13  14
ENDBRANCH  12  13
ENDBRANCH  11  12
ENDBRANCH  10  11
ENDBRANCH   9  10
ENDBRANCH   8   9
ENDBRANCH   7   8
ENDBRANCH   6   7
ENDBRANCH   5   6
ENDBRANCH   4   5
ENDBRANCH   3   4
TORSDOF 11
ENDMDL
MODEL       36
REMARK 921   NORMALIZED FREE ENERGY PREDICTED BY IDOCK:   -4.11 KCAL/MOL
REMARK 922        TOTAL FREE ENERGY PREDICTED BY IDOCK:   -8.18 KCAL/MOL
REMARK 923 INTER-LIGAND FREE ENERGY PREDICTED BY IDOCK:   -7.12 KCAL/MOL
REMARK 924 INTRA-LIGAND FREE ENERGY PREDICTED BY IDOCK:   -1.06 KCAL/MOL
REMARK 927      BINDING AFFINITY PREDICTED BY RF-SCORE:    0.00 PKD
ROOT
HETATM    1 NA   UNL     1     -12.983  11.063  62.473  1.00  0.00    -0.902 Na 
HETATM    2  C   UNL     2     -10.181   9.843  68.519  1.00  0.00    -0.199 C  
HETATM    3  C   UNL     2     -10.519   9.689  67.045  1.00  0.00    -0.302 C  
ENDROOT
BRANCH   3   4
HETATM    4  C   UNL     2      -9.595  10.547  66.186  1.00  0.00    -0.237 C  
BRANCH   4   5
HETATM    5  C   UNL     2      -9.625  10.127  64.715  1.00  0.00    -0.378 C  
BRANCH   5   6
HETATM    6  C   UNL     2     -10.309  11.163  63.813  1.00  0.00    -0.447 C  
BRANCH   6   7
HETATM    7  C   UNL     2     -10.435  12.525  64.496  1.00  0.00    -0.366 C  
BRANCH   7   8
HETATM    8  C   UNL     2     -11.711  13.269  64.111  1.00  0.00    -0.470 C  
BRANCH   8   9
HETATM    9  C   UNL     2     -12.660  13.438  65.307  1.00  0.00    -0.518 C  
BRANCH   9  10
HETATM   10  C   UNL     2     -12.121  12.902  66.640  1.00  0.00    -0.360 C  
BRANCH  10  11
HETATM   11  C   UNL     2     -11.751  14.016  67.623  1.00  0.00    -0.412 C  
BRANCH  11  12
HETATM   12  C   UNL     2     -10.940  15.150  66.986  1.00  0.00    -0.322 C  
BRANCH  12  13
HETATM   13  C   UNL     2     -10.248  16.064  68.002  1.00  0.00    -0.245 C  
BRANCH  13  14
HETATM   14  O   UNL     2     -10.728  17.386  67.829  1.00  0.00    -0.373 OA 
HETATM   15  S   UNL     2      -9.701  18.502  67.238  1.00  0.00    -0.311 S  
HETATM   16  O   UNL     2     -10.540  19.700  67.134  1.00  0.00    -0.458 OA 
HETATM   17  O   UNL     2      -9.295  17.966  65.944  1.00  0.00    -0.520 OA 
HETATM   18  O   UNL     2      -8.649  18.587  68.235  1.00  0.00    -0.301 OA 
ENDBRANCH  13  14
ENDBRANCH  12  13
ENDBRANCH  11  12
ENDBRANCH  10  11
ENDBRANCH   9  10
ENDBRANCH   8   9
ENDBRANCH   7   8
ENDBRANCH   6   7
ENDBRANCH   5   6
ENDBRANCH   4   5
ENDBRANCH   3   4
TORSDOF 11
ENDMDL
MODEL       37
REMARK 921   NORMALIZED FREE ENERGY PREDICTED BY IDOCK:   -4.10 KCAL/MOL
REMARK 922        TOTAL FREE ENERGY PREDICTED BY IDOCK:   -8.17 KCAL/MOL
REMARK 923 INTER-LIGAND FREE ENERGY PREDICTED BY IDOCK:   -7.63 KCAL/MOL
REMARK 924 INTRA-LIGAND FREE ENERGY PREDICTED BY IDOCK:   -0.54 KCAL/MOL
REMARK 927      BINDING AFFINITY PREDICTED BY RF-SCORE:    0.00 PKD
ROOT
HETATM    1 NA   UNL     1      -9.391  11.306  69.782  1.00  0.00    -0.381 Na 
HETATM    2  C   UNL     2     -10.154   4.593  70.284  1.00  0.00    -0.276 C  
HETATM    3  C   UNL     2     -10.152   6.063  70.673  1.00  0.00    -0.246 C  
ENDROOT
BRANCH   3   4
HETATM    4  C   UNL     2     -11.469   6.727  70.281  1.00  0.00    -0.414 C  
BRANCH   4   5
HETATM    5  C   UNL     2     -12.167   7.369  71.482  1.00  0.00    -0.368 C  
BRANCH   5   6
HETATM    6  C   UNL     2     -11.439   8.618  71.997  1.00  0.00    -0.437 C  
BRANCH   6   7
HETATM    7  C   UNL     2     -11.761   9.855  71.160  1.00  0.00    -0.478 C  
BRANCH   7   8
HETATM    8  C   UNL     2     -12.979  10.621  71.671  1.00  0.00    -0.582 C  
BRANCH   8   9
HETATM    9  C   UNL     2     -12.806  12.140  71.522  1.00  0.00    -0.394 C  
BRANCH   9  10
HETATM   10  C   UNL     2     -12.056  12.584  70.259  1.00  0.00    -0.373 C  
BRANCH  10  11
HETATM   11  C   UNL     2     -12.407  14.011  69.830  1.00  0.00    -0.367 C  
BRANCH  11  12
HETATM   12  C   UNL     2     -11.510  14.552  68.711  1.00  0.00    -0.322 C  
BRANCH  12  13
HETATM   13  C   UNL     2     -11.519  13.698  67.440  1.00  0.00    -0.336 C  
BRANCH  13  14
HETATM   14  O   UNL     2     -11.835  14.525  66.334  1.00  0.00    -0.383 OA 
HETATM   15  S   UNL     2     -12.070  13.815  64.889  1.00  0.00    -0.425 S  
HETATM   16  O   UNL     2     -12.435  14.941  64.024  1.00  0.00    -0.807 OA 
HETATM   17  O   UNL     2     -13.167  12.883  65.120  1.00  0.00    -0.702 OA 
HETATM   18  O   UNL     2     -10.790  13.204  64.576  1.00  0.00    -0.340 OA 
ENDBRANCH  13  14
ENDBRANCH  12  13
ENDBRANCH  11  12
ENDBRANCH  10  11
ENDBRANCH   9  10
ENDBRANCH   8   9
ENDBRANCH   7   8
ENDBRANCH   6   7
ENDBRANCH   5   6
ENDBRANCH   4   5
ENDBRANCH   3   4
TORSDOF 11
ENDMDL
MODEL       38
REMARK 921   NORMALIZED FREE ENERGY PREDICTED BY IDOCK:   -4.07 KCAL/MOL
REMARK 922        TOTAL FREE ENERGY PREDICTED BY IDOCK:   -8.11 KCAL/MOL
REMARK 923 INTER-LIGAND FREE ENERGY PREDICTED BY IDOCK:   -7.29 KCAL/MOL
REMARK 924 INTRA-LIGAND FREE ENERGY PREDICTED BY IDOCK:   -0.82 KCAL/MOL
REMARK 927      BINDING AFFINITY PREDICTED BY RF-SCORE:    0.00 PKD
ROOT
HETATM    1 NA   UNL     1     -11.908  16.190  63.252  1.00  0.00    -0.897 Na 
HETATM    2  C   UNL     2      -8.482  20.542  67.153  1.00  0.00    -0.357 C  
HETATM    3  C   UNL     2      -9.504  20.016  66.157  1.00  0.00    -0.447 C  
ENDROOT
BRANCH   3   4
HETATM    4  C   UNL     2     -10.751  19.513  66.879  1.00  0.00    -0.576 C  
BRANCH   4   5
HETATM    5  C   UNL     2     -10.402  18.618  68.070  1.00  0.00    -0.421 C  
BRANCH   5   6
HETATM    6  C   UNL     2     -10.432  17.124  67.723  1.00  0.00    -0.362 C  
BRANCH   6   7
HETATM    7  C   UNL     2      -9.151  16.409  68.150  1.00  0.00    -0.201 C  
BRANCH   7   8
HETATM    8  C   UNL     2      -9.416  15.086  68.866  1.00  0.00    -0.211 C  
BRANCH   8   9
HETATM    9  C   UNL     2     -10.284  14.141  68.022  1.00  0.00    -0.232 C  
BRANCH   9  10
HETATM   10  C   UNL     2     -10.017  12.647  68.245  1.00  0.00    -0.229 C  
BRANCH  10  11
HETATM   11  C   UNL     2     -10.445  11.782  67.056  1.00  0.00    -0.252 C  
BRANCH  11  12
HETATM   12  C   UNL     2      -9.500  11.884  65.853  1.00  0.00    -0.227 C  
BRANCH  12  13
HETATM   13  C   UNL     2     -10.038  12.754  64.714  1.00  0.00    -0.217 C  
BRANCH  13  14
HETATM   14  O   UNL     2     -11.050  12.038  64.028  1.00  0.00    -0.325 OA 
HETATM   15  S   UNL     2     -12.527  12.714  63.921  1.00  0.00    -0.388 S  
HETATM   16  O   UNL     2     -13.273  11.747  63.109  1.00  0.00    -0.538 OA 
HETATM   17  O   UNL     2     -12.293  13.982  63.241  1.00  0.00    -0.718 OA 
HETATM   18  O   UNL     2     -12.976  12.818  65.298  1.00  0.00    -0.690 OA 
ENDBRANCH  13  14
ENDBRANCH  12  13
ENDBRANCH  11  12
ENDBRANCH  10  11
ENDBRANCH   9  10
ENDBRANCH   8   9
ENDBRANCH   7   8
ENDBRANCH   6   7
ENDBRANCH   5   6
ENDBRANCH   4   5
ENDBRANCH   3   4
TORSDOF 11
ENDMDL
MODEL       39
REMARK 921   NORMALIZED FREE ENERGY PREDICTED BY IDOCK:   -4.06 KCAL/MOL
REMARK 922        TOTAL FREE ENERGY PREDICTED BY IDOCK:   -8.11 KCAL/MOL
REMARK 923 INTER-LIGAND FREE ENERGY PREDICTED BY IDOCK:   -7.17 KCAL/MOL
REMARK 924 INTRA-LIGAND FREE ENERGY PREDICTED BY IDOCK:   -0.94 KCAL/MOL
REMARK 927      BINDING AFFINITY PREDICTED BY RF-SCORE:    0.00 PKD
ROOT
HETATM    1 NA   UNL     1      -9.403   8.781  64.087  1.00  0.00    -0.404 Na 
HETATM    2  C   UNL     2     -12.252  14.925  64.265  1.00  0.00    -0.365 C  
HETATM    3  C   UNL     2     -12.083  13.435  64.007  1.00  0.00    -0.506 C  
ENDROOT
BRANCH   3   4
HETATM    4  C   UNL     2     -12.469  12.627  65.243  1.00  0.00    -0.483 C  
BRANCH   4   5
HETATM    5  C   UNL     2     -11.242  12.073  65.971  1.00  0.00    -0.385 C  
BRANCH   5   6
HETATM    6  C   UNL     2     -10.800  12.952  67.148  1.00  0.00    -0.278 C  
BRANCH   6   7
HETATM    7  C   UNL     2     -11.980  13.387  68.015  1.00  0.00    -0.357 C  
BRANCH   7   8
HETATM    8  C   UNL     2     -11.769  13.098  69.500  1.00  0.00    -0.382 C  
BRANCH   8   9
HETATM    9  C   UNL     2     -12.327  14.220  70.388  1.00  0.00    -0.419 C  
BRANCH   9  10
HETATM   10  C   UNL     2     -11.700  15.601  70.156  1.00  0.00    -0.374 C  
BRANCH  10  11
HETATM   11  C   UNL     2     -10.185  15.538  69.942  1.00  0.00    -0.305 C  
BRANCH  11  12
HETATM   12  C   UNL     2      -9.675  16.526  68.885  1.00  0.00    -0.257 C  
BRANCH  12  13
HETATM   13  C   UNL     2     -10.655  16.763  67.733  1.00  0.00    -0.341 C  
BRANCH  13  14
HETATM   14  O   UNL     2     -10.719  18.153  67.465  1.00  0.00    -0.412 OA 
HETATM   15  S   UNL     2     -10.217  18.675  66.007  1.00  0.00    -0.275 S  
HETATM   16  O   UNL     2     -10.487  20.115  66.063  1.00  0.00    -0.418 OA 
HETATM   17  O   UNL     2     -11.066  17.963  65.059  1.00  0.00    -0.705 OA 
HETATM   18  O   UNL     2      -8.808  18.326  65.966  1.00  0.00    -0.502 OA 
ENDBRANCH  13  14
ENDBRANCH  12  13
ENDBRANCH  11  12
ENDBRANCH  10  11
ENDBRANCH   9  10
ENDBRANCH   8   9
ENDBRANCH   7   8
ENDBRANCH   6   7
ENDBRANCH   5   6
ENDBRANCH   4   5
ENDBRANCH   3   4
TORSDOF 11
ENDMDL
MODEL       40
REMARK 921   NORMALIZED FREE ENERGY PREDICTED BY IDOCK:   -4.06 KCAL/MOL
REMARK 922        TOTAL FREE ENERGY PREDICTED BY IDOCK:   -8.11 KCAL/MOL
REMARK 923 INTER-LIGAND FREE ENERGY PREDICTED BY IDOCK:   -7.28 KCAL/MOL
REMARK 924 INTRA-LIGAND FREE ENERGY PREDICTED BY IDOCK:   -0.83 KCAL/MOL
REMARK 927      BINDING AFFINITY PREDICTED BY RF-SCORE:    0.00 PKD
ROOT
HETATM    1 NA   UNL     1     -14.393   9.377  73.165  1.00  0.00    -0.606 Na 
HETATM    2  C   UNL     2     -11.053  10.483  67.376  1.00  0.00    -0.322 C  
HETATM    3  C   UNL     2     -11.939  10.739  68.585  1.00  0.00    -0.103 C  
ENDROOT
BRANCH   3   4
HETATM    4  C   UNL     2     -11.103  11.183  69.782  1.00  0.00    -0.271 C  
BRANCH   4   5
HETATM    5  C   UNL     2     -11.818  10.920  71.110  1.00  0.00    -0.189 C  
BRANCH   5   6
HETATM    6  C   UNL     2     -12.817  12.025  71.477  1.00  0.00    -0.403 C  
BRANCH   6   7
HETATM    7  C   UNL     2     -12.490  13.348  70.786  1.00  0.00    -0.418 C  
BRANCH   7   8
HETATM    8  C   UNL     2     -12.908  14.568  71.604  1.00  0.00    -0.409 C  
BRANCH   8   9
HETATM    9  C   UNL     2     -12.002  15.778  71.333  1.00  0.00    -0.499 C  
BRANCH   9  10
HETATM   10  C   UNL     2     -11.033  15.610  70.155  1.00  0.00    -0.350 C  
BRANCH  10  11
HETATM   11  C   UNL     2     -11.689  15.893  68.800  1.00  0.00    -0.355 C  
BRANCH  11  12
HETATM   12  C   UNL     2     -11.038  15.137  67.635  1.00  0.00    -0.318 C  
BRANCH  12  13
HETATM   13  C   UNL     2     -11.948  14.088  66.991  1.00  0.00    -0.438 C  
BRANCH  13  14
HETATM   14  O   UNL     2     -11.317  13.588  65.825  1.00  0.00    -0.302 OA 
HETATM   15  S   UNL     2     -12.200  13.481  64.462  1.00  0.00    -0.384 S  
HETATM   16  O   UNL     2     -11.227  13.001  63.476  1.00  0.00    -0.373 OA 
HETATM   17  O   UNL     2     -12.648  14.847  64.216  1.00  0.00    -0.699 OA 
HETATM   18  O   UNL     2     -13.249  12.531  64.786  1.00  0.00    -0.839 OA 
ENDBRANCH  13  14
ENDBRANCH  12  13
ENDBRANCH  11  12
ENDBRANCH  10  11
ENDBRANCH   9  10
ENDBRANCH   8   9
ENDBRANCH   7   8
ENDBRANCH   6   7
ENDBRANCH   5   6
ENDBRANCH   4   5
ENDBRANCH   3   4
TORSDOF 11
ENDMDL
MODEL       41
REMARK 921   NORMALIZED FREE ENERGY PREDICTED BY IDOCK:   -4.04 KCAL/MOL
REMARK 922        TOTAL FREE ENERGY PREDICTED BY IDOCK:   -8.08 KCAL/MOL
REMARK 923 INTER-LIGAND FREE ENERGY PREDICTED BY IDOCK:   -7.12 KCAL/MOL
REMARK 924 INTRA-LIGAND FREE ENERGY PREDICTED BY IDOCK:   -0.97 KCAL/MOL
REMARK 927      BINDING AFFINITY PREDICTED BY RF-SCORE:    0.00 PKD
ROOT
HETATM    1 NA   UNL     1     -14.107  16.131  70.093  1.00  0.00    -0.789 Na 
HETATM    2  C   UNL     2      -8.661  19.811  68.452  1.00  0.00    -0.296 C  
HETATM    3  C   UNL     2      -9.640  18.648  68.491  1.00  0.00    -0.399 C  
ENDROOT
BRANCH   3   4
HETATM    4  C   UNL     2     -10.751  18.843  67.464  1.00  0.00    -0.509 C  
BRANCH   4   5
HETATM    5  C   UNL     2     -10.401  18.211  66.115  1.00  0.00    -0.394 C  
BRANCH   5   6
HETATM    6  C   UNL     2     -10.522  16.681  66.124  1.00  0.00    -0.291 C  
BRANCH   6   7
HETATM    7  C   UNL     2      -9.155  15.998  66.091  1.00  0.00    -0.387 C  
BRANCH   7   8
HETATM    8  C   UNL     2      -9.216  14.523  66.484  1.00  0.00    -0.282 C  
BRANCH   8   9
HETATM    9  C   UNL     2     -10.334  13.777  65.741  1.00  0.00    -0.315 C  
BRANCH   9  10
HETATM   10  C   UNL     2     -11.362  13.086  66.647  1.00  0.00    -0.366 C  
BRANCH  10  11
HETATM   11  C   UNL     2     -11.866  13.992  67.773  1.00  0.00    -0.419 C  
BRANCH  11  12
HETATM   12  C   UNL     2     -11.697  13.382  69.170  1.00  0.00    -0.375 C  
BRANCH  12  13
HETATM   13  C   UNL     2     -12.813  13.757  70.150  1.00  0.00     0.041 C  
BRANCH  13  14
HETATM   14  O   UNL     2     -12.234  14.362  71.294  1.00  0.00    -0.330 OA 
HETATM   15  S   UNL     2     -13.141  14.475  72.640  1.00  0.00    -0.490 S  
HETATM   16  O   UNL     2     -12.217  15.074  73.609  1.00  0.00    -0.462 OA 
HETATM   17  O   UNL     2     -13.494  13.096  72.954  1.00  0.00    -0.535 OA 
HETATM   18  O   UNL     2     -14.250  15.331  72.257  1.00  0.00    -0.518 OA 
ENDBRANCH  13  14
ENDBRANCH  12  13
ENDBRANCH  11  12
ENDBRANCH  10  11
ENDBRANCH   9  10
ENDBRANCH   8   9
ENDBRANCH   7   8
ENDBRANCH   6   7
ENDBRANCH   5   6
ENDBRANCH   4   5
ENDBRANCH   3   4
TORSDOF 11
ENDMDL
MODEL       42
REMARK 921   NORMALIZED FREE ENERGY PREDICTED BY IDOCK:   -4.04 KCAL/MOL
REMARK 922        TOTAL FREE ENERGY PREDICTED BY IDOCK:   -8.07 KCAL/MOL
REMARK 923 INTER-LIGAND FREE ENERGY PREDICTED BY IDOCK:   -7.67 KCAL/MOL
REMARK 924 INTRA-LIGAND FREE ENERGY PREDICTED BY IDOCK:   -0.40 KCAL/MOL
REMARK 927      BINDING AFFINITY PREDICTED BY RF-SCORE:    0.00 PKD
ROOT
HETATM    1 NA   UNL     1     -14.281   8.799  74.014  1.00  0.00    -0.772 Na 
HETATM    2  C   UNL     2      -9.379   4.593  71.969  1.00  0.00    -0.180 C  
HETATM    3  C   UNL     2     -10.772   5.160  72.197  1.00  0.00    -0.252 C  
ENDROOT
BRANCH   3   4
HETATM    4  C   UNL     2     -11.149   6.129  71.081  1.00  0.00    -0.360 C  
BRANCH   4   5
HETATM    5  C   UNL     2     -12.209   7.137  71.532  1.00  0.00    -0.396 C  
BRANCH   5   6
HETATM    6  C   UNL     2     -11.674   8.574  71.604  1.00  0.00    -0.369 C  
BRANCH   6   7
HETATM    7  C   UNL     2     -12.780   9.585  71.901  1.00  0.00    -0.496 C  
BRANCH   7   8
HETATM    8  C   UNL     2     -12.889  10.678  70.840  1.00  0.00    -0.473 C  
BRANCH   8   9
HETATM    9  C   UNL     2     -13.014  12.075  71.467  1.00  0.00    -0.407 C  
BRANCH   9  10
HETATM   10  C   UNL     2     -12.341  13.202  70.674  1.00  0.00    -0.405 C  
BRANCH  10  11
HETATM   11  C   UNL     2     -11.538  12.689  69.475  1.00  0.00    -0.348 C  
BRANCH  11  12
HETATM   12  C   UNL     2     -11.882  13.398  68.160  1.00  0.00    -0.396 C  
BRANCH  12  13
HETATM   13  C   UNL     2     -11.311  12.710  66.917  1.00  0.00    -0.320 C  
BRANCH  13  14
HETATM   14  O   UNL     2     -12.372  12.426  66.021  1.00  0.00    -0.627 OA 
HETATM   15  S   UNL     2     -12.067  12.503  64.425  1.00  0.00    -0.443 S  
HETATM   16  O   UNL     2     -13.341  12.093  63.826  1.00  0.00    -0.701 OA 
HETATM   17  O   UNL     2     -10.993  11.538  64.217  1.00  0.00    -0.336 OA 
HETATM   18  O   UNL     2     -11.711  13.891  64.192  1.00  0.00    -0.391 OA 
ENDBRANCH  13  14
ENDBRANCH  12  13
ENDBRANCH  11  12
ENDBRANCH  10  11
ENDBRANCH   9  10
ENDBRANCH   8   9
ENDBRANCH   7   8
ENDBRANCH   6   7
ENDBRANCH   5   6
ENDBRANCH   4   5
ENDBRANCH   3   4
TORSDOF 11
ENDMDL
MODEL       43
REMARK 921   NORMALIZED FREE ENERGY PREDICTED BY IDOCK:   -4.03 KCAL/MOL
REMARK 922        TOTAL FREE ENERGY PREDICTED BY IDOCK:   -8.06 KCAL/MOL
REMARK 923 INTER-LIGAND FREE ENERGY PREDICTED BY IDOCK:   -7.39 KCAL/MOL
REMARK 924 INTRA-LIGAND FREE ENERGY PREDICTED BY IDOCK:   -0.68 KCAL/MOL
REMARK 927      BINDING AFFINITY PREDICTED BY RF-SCORE:    0.00 PKD
ROOT
HETATM    1 NA   UNL     1     -14.352   7.044  72.584  1.00  0.00    -0.510 Na 
HETATM    2  C   UNL     2      -8.783   9.770  69.853  1.00  0.00    -0.238 C  
HETATM    3  C   UNL     2     -10.176   9.166  69.955  1.00  0.00    -0.222 C  
ENDROOT
BRANCH   3   4
HETATM    4  C   UNL     2     -11.211  10.246  70.257  1.00  0.00    -0.395 C  
BRANCH   4   5
HETATM    5  C   UNL     2     -12.053   9.903  71.488  1.00  0.00    -0.496 C  
BRANCH   5   6
HETATM    6  C   UNL     2     -13.116  10.966  71.798  1.00  0.00    -0.564 C  
BRANCH   6   7
HETATM    7  C   UNL     2     -12.710  12.349  71.291  1.00  0.00    -0.347 C  
BRANCH   7   8
HETATM    8  C   UNL     2     -13.306  13.487  72.117  1.00  0.00    -0.593 C  
BRANCH   8   9
HETATM    9  C   UNL     2     -13.501  14.761  71.281  1.00  0.00    -0.478 C  
BRANCH   9  10
HETATM   10  C   UNL     2     -12.209  15.515  70.941  1.00  0.00    -0.450 C  
BRANCH  10  11
HETATM   11  C   UNL     2     -12.003  15.692  69.434  1.00  0.00    -0.349 C  
BRANCH  11  12
HETATM   12  C   UNL     2     -10.809  14.904  68.882  1.00  0.00    -0.253 C  
BRANCH  12  13
HETATM   13  C   UNL     2      -9.933  15.704  67.914  1.00  0.00    -0.223 C  
BRANCH  13  14
HETATM   14  O   UNL     2     -10.642  15.891  66.702  1.00  0.00    -0.314 OA 
HETATM   15  S   UNL     2     -10.403  17.276  65.881  1.00  0.00    -0.193 S  
HETATM   16  O   UNL     2     -11.225  17.094  64.681  1.00  0.00    -1.003 OA 
HETATM   17  O   UNL     2      -8.971  17.288  65.605  1.00  0.00    -0.481 OA 
HETATM   18  O   UNL     2     -10.873  18.314  66.781  1.00  0.00    -0.279 OA 
ENDBRANCH  13  14
ENDBRANCH  12  13
ENDBRANCH  11  12
ENDBRANCH  10  11
ENDBRANCH   9  10
ENDBRANCH   8   9
ENDBRANCH   7   8
ENDBRANCH   6   7
ENDBRANCH   5   6
ENDBRANCH   4   5
ENDBRANCH   3   4
TORSDOF 11
ENDMDL
MODEL       44
REMARK 921   NORMALIZED FREE ENERGY PREDICTED BY IDOCK:   -4.03 KCAL/MOL
REMARK 922        TOTAL FREE ENERGY PREDICTED BY IDOCK:   -8.05 KCAL/MOL
REMARK 923 INTER-LIGAND FREE ENERGY PREDICTED BY IDOCK:   -6.88 KCAL/MOL
REMARK 924 INTRA-LIGAND FREE ENERGY PREDICTED BY IDOCK:   -1.16 KCAL/MOL
REMARK 927      BINDING AFFINITY PREDICTED BY RF-SCORE:    0.00 PKD
ROOT
HETATM    1 NA   UNL     1     -12.078   5.240  65.047  1.00  0.00    -0.737 Na 
HETATM    2  C   UNL     2     -10.263  10.657  68.687  1.00  0.00    -0.196 C  
HETATM    3  C   UNL     2     -10.181   9.518  67.682  1.00  0.00    -0.273 C  
ENDROOT
BRANCH   3   4
HETATM    4  C   UNL     2     -10.760   9.944  66.336  1.00  0.00    -0.034 C  
BRANCH   4   5
HETATM    5  C   UNL     2      -9.785  10.819  65.544  1.00  0.00    -0.290 C  
BRANCH   5   6
HETATM    6  C   UNL     2     -10.041  10.777  64.032  1.00  0.00    -0.410 C  
BRANCH   6   7
HETATM    7  C   UNL     2     -10.575  12.108  63.503  1.00  0.00    -0.501 C  
BRANCH   7   8
HETATM    8  C   UNL     2     -12.063  12.306  63.781  1.00  0.00    -0.624 C  
BRANCH   8   9
HETATM    9  C   UNL     2     -12.338  13.626  64.516  1.00  0.00    -0.402 C  
BRANCH   9  10
HETATM   10  C   UNL     2     -12.357  13.522  66.047  1.00  0.00    -0.486 C  
BRANCH  10  11
HETATM   11  C   UNL     2     -11.248  14.341  66.712  1.00  0.00    -0.337 C  
BRANCH  11  12
HETATM   12  C   UNL     2      -9.978  14.458  65.861  1.00  0.00    -0.350 C  
BRANCH  12  13
HETATM   13  C   UNL     2      -9.262  15.804  65.996  1.00  0.00    -0.344 C  
BRANCH  13  14
HETATM   14  O   UNL     2      -9.933  16.584  66.971  1.00  0.00    -0.254 OA 
HETATM   15  S   UNL     2      -9.962  18.199  66.772  1.00  0.00    -0.371 S  
HETATM   16  O   UNL     2     -10.778  18.655  67.902  1.00  0.00    -0.383 OA 
HETATM   17  O   UNL     2     -10.607  18.390  65.479  1.00  0.00    -0.627 OA 
HETATM   18  O   UNL     2      -8.567  18.595  66.837  1.00  0.00    -0.265 OA 
ENDBRANCH  13  14
ENDBRANCH  12  13
ENDBRANCH  11  12
ENDBRANCH  10  11
ENDBRANCH   9  10
ENDBRANCH   8   9
ENDBRANCH   7   8
ENDBRANCH   6   7
ENDBRANCH   5   6
ENDBRANCH   4   5
ENDBRANCH   3   4
TORSDOF 11
ENDMDL
MODEL       45
REMARK 921   NORMALIZED FREE ENERGY PREDICTED BY IDOCK:   -4.02 KCAL/MOL
REMARK 922        TOTAL FREE ENERGY PREDICTED BY IDOCK:   -8.04 KCAL/MOL
REMARK 923 INTER-LIGAND FREE ENERGY PREDICTED BY IDOCK:   -7.42 KCAL/MOL
REMARK 924 INTRA-LIGAND FREE ENERGY PREDICTED BY IDOCK:   -0.62 KCAL/MOL
REMARK 927      BINDING AFFINITY PREDICTED BY RF-SCORE:    0.00 PKD
ROOT
HETATM    1 NA   UNL     1     -10.622  14.836  72.300  1.00  0.00    -0.518 Na 
HETATM    2  C   UNL     2     -13.421   8.670  72.102  1.00  0.00    -0.434 C  
HETATM    3  C   UNL     2     -13.083  10.099  71.704  1.00  0.00    -0.550 C  
ENDROOT
BRANCH   3   4
HETATM    4  C   UNL     2     -11.808  10.138  70.867  1.00  0.00    -0.468 C  
BRANCH   4   5
HETATM    5  C   UNL     2     -11.885  11.187  69.755  1.00  0.00    -0.422 C  
BRANCH   5   6
HETATM    6  C   UNL     2     -12.028  12.617  70.294  1.00  0.00    -0.363 C  
BRANCH   6   7
HETATM    7  C   UNL     2     -11.287  13.634  69.427  1.00  0.00    -0.303 C  
BRANCH   7   8
HETATM    8  C   UNL     2     -12.069  14.931  69.228  1.00  0.00    -0.286 C  
BRANCH   8   9
HETATM    9  C   UNL     2     -11.218  16.168  69.548  1.00  0.00    -0.337 C  
BRANCH   9  10
HETATM   10  C   UNL     2     -10.757  16.971  68.324  1.00  0.00    -0.372 C  
BRANCH  10  11
HETATM   11  C   UNL     2     -10.336  16.080  67.153  1.00  0.00    -0.295 C  
BRANCH  11  12
HETATM   12  C   UNL     2     -10.552  16.729  65.780  1.00  0.00    -0.259 C  
BRANCH  12  13
HETATM   13  C   UNL     2     -11.379  15.877  64.814  1.00  0.00    -0.309 C  
BRANCH  13  14
HETATM   14  O   UNL     2     -11.019  14.516  64.980  1.00  0.00    -0.352 OA 
HETATM   15  S   UNL     2     -12.128  13.381  64.620  1.00  0.00    -0.423 S  
HETATM   16  O   UNL     2     -11.400  12.128  64.841  1.00  0.00    -0.315 OA 
HETATM   17  O   UNL     2     -12.450  13.625  63.219  1.00  0.00    -0.801 OA 
HETATM   18  O   UNL     2     -13.209  13.624  65.559  1.00  0.00    -0.608 OA 
ENDBRANCH  13  14
ENDBRANCH  12  13
ENDBRANCH  11  12
ENDBRANCH  10  11
ENDBRANCH   9  10
ENDBRANCH   8   9
ENDBRANCH   7   8
ENDBRANCH   6   7
ENDBRANCH   5   6
ENDBRANCH   4   5
ENDBRANCH   3   4
TORSDOF 11
ENDMDL
MODEL       46
REMARK 921   NORMALIZED FREE ENERGY PREDICTED BY IDOCK:   -4.02 KCAL/MOL
REMARK 922        TOTAL FREE ENERGY PREDICTED BY IDOCK:   -8.03 KCAL/MOL
REMARK 923 INTER-LIGAND FREE ENERGY PREDICTED BY IDOCK:   -6.88 KCAL/MOL
REMARK 924 INTRA-LIGAND FREE ENERGY PREDICTED BY IDOCK:   -1.15 KCAL/MOL
REMARK 927      BINDING AFFINITY PREDICTED BY RF-SCORE:    0.00 PKD
ROOT
HETATM    1 NA   UNL     1     -13.139  16.363  68.745  1.00  0.00    -0.353 Na 
HETATM    2  C   UNL     2     -12.014  12.246  63.483  1.00  0.00    -0.625 C  
HETATM    3  C   UNL     2     -12.142  13.528  64.292  1.00  0.00    -0.482 C  
ENDROOT
BRANCH   3   4
HETATM    4  C   UNL     2     -10.838  13.837  65.022  1.00  0.00    -0.377 C  
BRANCH   4   5
HETATM    5  C   UNL     2     -11.085  14.462  66.397  1.00  0.00    -0.326 C  
BRANCH   5   6
HETATM    6  C   UNL     2     -12.207  13.763  67.176  1.00  0.00    -0.352 C  
BRANCH   6   7
HETATM    7  C   UNL     2     -11.725  12.479  67.850  1.00  0.00    -0.416 C  
BRANCH   7   8
HETATM    8  C   UNL     2     -11.787  12.546  69.375  1.00  0.00    -0.368 C  
BRANCH   8   9
HETATM    9  C   UNL     2     -12.432  13.850  69.866  1.00  0.00    -0.285 C  
BRANCH   9  10
HETATM   10  C   UNL     2     -11.835  14.419  71.160  1.00  0.00    -0.316 C  
BRANCH  10  11
HETATM   11  C   UNL     2     -11.207  15.802  70.967  1.00  0.00    -0.396 C  
BRANCH  11  12
HETATM   12  C   UNL     2     -10.219  15.869  69.796  1.00  0.00    -0.268 C  
BRANCH  12  13
HETATM   13  C   UNL     2     -10.082  17.263  69.179  1.00  0.00    -0.252 C  
BRANCH  13  14
HETATM   14  O   UNL     2     -10.350  17.178  67.790  1.00  0.00    -0.319 OA 
HETATM   15  S   UNL     2     -10.145  18.517  66.888  1.00  0.00    -0.394 S  
HETATM   16  O   UNL     2     -10.440  18.047  65.530  1.00  0.00    -0.636 OA 
HETATM   17  O   UNL     2      -8.745  18.873  67.085  1.00  0.00    -0.276 OA 
HETATM   18  O   UNL     2     -11.109  19.462  67.421  1.00  0.00    -0.445 OA 
ENDBRANCH  13  14
ENDBRANCH  12  13
ENDBRANCH  11  12
ENDBRANCH  10  11
ENDBRANCH   9  10
ENDBRANCH   8   9
ENDBRANCH   7   8
ENDBRANCH   6   7
ENDBRANCH   5   6
ENDBRANCH   4   5
ENDBRANCH   3   4
TORSDOF 11
ENDMDL
MODEL       47
REMARK 921   NORMALIZED FREE ENERGY PREDICTED BY IDOCK:   -4.01 KCAL/MOL
REMARK 922        TOTAL FREE ENERGY PREDICTED BY IDOCK:   -8.03 KCAL/MOL
REMARK 923 INTER-LIGAND FREE ENERGY PREDICTED BY IDOCK:   -7.04 KCAL/MOL
REMARK 924 INTRA-LIGAND FREE ENERGY PREDICTED BY IDOCK:   -0.99 KCAL/MOL
REMARK 927      BINDING AFFINITY PREDICTED BY RF-SCORE:    0.00 PKD
ROOT
HETATM    1 NA   UNL     1     -14.088  16.028  70.317  1.00  0.00    -0.844 Na 
HETATM    2  C   UNL     2     -10.239  19.720  66.141  1.00  0.00    -0.618 C  
HETATM    3  C   UNL     2     -10.626  18.810  67.296  1.00  0.00    -0.504 C  
ENDROOT
BRANCH   3   4
HETATM    4  C   UNL     2     -10.664  17.353  66.846  1.00  0.00    -0.125 C  
BRANCH   4   5
HETATM    5  C   UNL     2     -10.898  16.397  68.018  1.00  0.00    -0.342 C  
BRANCH   5   6
HETATM    6  C   UNL     2     -10.598  14.935  67.665  1.00  0.00    -0.264 C  
BRANCH   6   7
HETATM    7  C   UNL     2     -11.794  14.244  67.011  1.00  0.00    -0.455 C  
BRANCH   7   8
HETATM    8  C   UNL     2     -11.563  12.755  66.767  1.00  0.00    -0.431 C  
BRANCH   8   9
HETATM    9  C   UNL     2     -10.883  12.076  67.964  1.00  0.00    -0.254 C  
BRANCH   9  10
HETATM   10  C   UNL     2     -11.799  11.175  68.803  1.00  0.00    -0.388 C  
BRANCH  10  11
HETATM   11  C   UNL     2     -11.764  11.516  70.296  1.00  0.00    -0.379 C  
BRANCH  11  12
HETATM   12  C   UNL     2     -13.125  11.941  70.859  1.00  0.00     0.069 C  
BRANCH  12  13
HETATM   13  C   UNL     2     -13.076  12.405  72.317  1.00  0.00    -0.197 C  
BRANCH  13  14
HETATM   14  O   UNL     2     -13.744  13.650  72.425  1.00  0.00    -0.524 OA 
HETATM   15  S   UNL     2     -12.875  14.948  72.880  1.00  0.00    -0.482 S  
HETATM   16  O   UNL     2     -13.855  16.038  72.818  1.00  0.00    -0.526 OA 
HETATM   17  O   UNL     2     -11.829  15.052  71.870  1.00  0.00    -0.357 OA 
HETATM   18  O   UNL     2     -12.418  14.625  74.219  1.00  0.00    -0.418 OA 
ENDBRANCH  13  14
ENDBRANCH  12  13
ENDBRANCH  11  12
ENDBRANCH  10  11
ENDBRANCH   9  10
ENDBRANCH   8   9
ENDBRANCH   7   8
ENDBRANCH   6   7
ENDBRANCH   5   6
ENDBRANCH   4   5
ENDBRANCH   3   4
TORSDOF 11
ENDMDL
MODEL       48
REMARK 921   NORMALIZED FREE ENERGY PREDICTED BY IDOCK:   -4.01 KCAL/MOL
REMARK 922        TOTAL FREE ENERGY PREDICTED BY IDOCK:   -8.02 KCAL/MOL
REMARK 923 INTER-LIGAND FREE ENERGY PREDICTED BY IDOCK:   -7.01 KCAL/MOL
REMARK 924 INTRA-LIGAND FREE ENERGY PREDICTED BY IDOCK:   -1.01 KCAL/MOL
REMARK 927      BINDING AFFINITY PREDICTED BY RF-SCORE:    0.00 PKD
ROOT
HETATM    1 NA   UNL     1     -14.329  15.925  70.257  1.00  0.00    -0.843 Na 
HETATM    2  C   UNL     2     -12.410  12.550  64.705  1.00  0.00    -0.544 C  
HETATM    3  C   UNL     2     -12.723  13.715  65.632  1.00  0.00    -0.505 C  
ENDROOT
BRANCH   3   4
HETATM    4  C   UNL     2     -11.515  14.053  66.500  1.00  0.00    -0.368 C  
BRANCH   4   5
HETATM    5  C   UNL     2     -11.738  13.673  67.966  1.00  0.00    -0.387 C  
BRANCH   5   6
HETATM    6  C   UNL     2     -10.739  14.346  68.916  1.00  0.00    -0.260 C  
BRANCH   6   7
HETATM    7  C   UNL     2     -11.323  15.598  69.570  1.00  0.00    -0.329 C  
BRANCH   7   8
HETATM    8  C   UNL     2     -10.435  16.829  69.400  1.00  0.00    -0.312 C  
BRANCH   8   9
HETATM    9  C   UNL     2      -9.540  16.723  68.157  1.00  0.00    -0.242 C  
BRANCH   9  10
HETATM   10  C   UNL     2     -10.101  17.396  66.897  1.00  0.00    -0.314 C  
BRANCH  10  11
HETATM   11  C   UNL     2     -10.773  18.741  67.190  1.00  0.00    -0.469 C  
BRANCH  11  12
HETATM   12  C   UNL     2     -10.130  19.920  66.451  1.00  0.00    -0.615 C  
BRANCH  12  13
HETATM   13  C   UNL     2      -8.634  20.087  66.733  1.00  0.00    -0.331 C  
BRANCH  13  14
HETATM   14  O   UNL     2      -7.912  19.823  65.543  1.00  0.00    -0.370 OA 
HETATM   15  S   UNL     2      -6.497  19.030  65.666  1.00  0.00    -0.278 S  
HETATM   16  O   UNL     2      -6.080  18.880  64.269  1.00  0.00    -0.453 OA 
HETATM   17  O   UNL     2      -6.847  17.767  66.304  1.00  0.00    -0.218 OA 
HETATM   18  O   UNL     2      -5.656  19.913  66.454  1.00  0.00    -0.171 OA 
ENDBRANCH  13  14
ENDBRANCH  12  13
ENDBRANCH  11  12
ENDBRANCH  10  11
ENDBRANCH   9  10
ENDBRANCH   8   9
ENDBRANCH   7   8
ENDBRANCH   6   7
ENDBRANCH   5   6
ENDBRANCH   4   5
ENDBRANCH   3   4
TORSDOF 11
ENDMDL
MODEL       49
REMARK 921   NORMALIZED FREE ENERGY PREDICTED BY IDOCK:   -4.00 KCAL/MOL
REMARK 922        TOTAL FREE ENERGY PREDICTED BY IDOCK:   -8.00 KCAL/MOL
REMARK 923 INTER-LIGAND FREE ENERGY PREDICTED BY IDOCK:   -6.74 KCAL/MOL
REMARK 924 INTRA-LIGAND FREE ENERGY PREDICTED BY IDOCK:   -1.26 KCAL/MOL
REMARK 927      BINDING AFFINITY PREDICTED BY RF-SCORE:    0.00 PKD
ROOT
HETATM    1 NA   UNL     1     -13.896  15.950  70.006  1.00  0.00    -0.763 Na 
HETATM    2  C   UNL     2     -11.392   9.673  70.479  1.00  0.00    -0.360 C  
HETATM    3  C   UNL     2     -12.329  10.813  70.112  1.00  0.00    -0.401 C  
ENDROOT
BRANCH   3   4
HETATM    4  C   UNL     2     -11.895  11.469  68.804  1.00  0.00    -0.394 C  
BRANCH   4   5
HETATM    5  C   UNL     2     -11.205  10.475  67.867  1.00  0.00    -0.358 C  
BRANCH   5   6
HETATM    6  C   UNL     2     -10.054  11.105  67.073  1.00  0.00    -0.235 C  
BRANCH   6   7
HETATM    7  C   UNL     2      -9.039  11.796  67.983  1.00  0.00    -0.180 C  
BRANCH   7   8
HETATM    8  C   UNL     2      -7.994  12.598  67.211  1.00  0.00    -0.166 C  
BRANCH   8   9
HETATM    9  C   UNL     2      -8.028  14.089  67.580  1.00  0.00    -0.186 C  
BRANCH   9  10
HETATM   10  C   UNL     2      -9.071  14.469  68.639  1.00  0.00    -0.187 C  
BRANCH  10  11
HETATM   11  C   UNL     2     -10.363  15.019  68.030  1.00  0.00    -0.236 C  
BRANCH  11  12
HETATM   12  C   UNL     2     -10.280  15.240  66.515  1.00  0.00    -0.282 C  
BRANCH  12  13
HETATM   13  C   UNL     2     -11.479  14.687  65.741  1.00  0.00    -0.338 C  
BRANCH  13  14
HETATM   14  O   UNL     2     -11.073  13.529  65.033  1.00  0.00    -0.306 OA 
HETATM   15  S   UNL     2     -12.125  12.862  63.986  1.00  0.00    -0.474 S  
HETATM   16  O   UNL     2     -11.357  11.756  63.406  1.00  0.00    -0.402 OA 
HETATM   17  O   UNL     2     -12.411  13.930  63.035  1.00  0.00    -0.689 OA 
HETATM   18  O   UNL     2     -13.244  12.449  64.814  1.00  0.00    -0.784 OA 
ENDBRANCH  13  14
ENDBRANCH  12  13
ENDBRANCH  11  12
ENDBRANCH  10  11
ENDBRANCH   9  10
ENDBRANCH   8   9
ENDBRANCH   7   8
ENDBRANCH   6   7
ENDBRANCH   5   6
ENDBRANCH   4   5
ENDBRANCH   3   4
TORSDOF 11
ENDMDL
MODEL       50
REMARK 921   NORMALIZED FREE ENERGY PREDICTED BY IDOCK:   -4.00 KCAL/MOL
REMARK 922        TOTAL FREE ENERGY PREDICTED BY IDOCK:   -8.00 KCAL/MOL
REMARK 923 INTER-LIGAND FREE ENERGY PREDICTED BY IDOCK:   -7.40 KCAL/MOL
REMARK 924 INTRA-LIGAND FREE ENERGY PREDICTED BY IDOCK:   -0.60 KCAL/MOL
REMARK 927      BINDING AFFINITY PREDICTED BY RF-SCORE:    0.00 PKD
ROOT
HETATM    1 NA   UNL     1     -13.932  14.844  70.156  1.00  0.00    -0.593 Na 
HETATM    2  C   UNL     2     -12.167   8.749  72.529  1.00  0.00    -0.347 C  
HETATM    3  C   UNL     2     -12.738   9.810  71.601  1.00  0.00    -0.517 C  
ENDROOT
BRANCH   3   4
HETATM    4  C   UNL     2     -11.652  10.366  70.684  1.00  0.00    -0.440 C  
BRANCH   4   5
HETATM    5  C   UNL     2     -12.106  11.638  69.964  1.00  0.00    -0.395 C  
BRANCH   5   6
HETATM    6  C   UNL     2     -11.167  12.043  68.820  1.00  0.00    -0.316 C  
BRANCH   6   7
HETATM    7  C   UNL     2     -11.893  12.839  67.736  1.00  0.00    -0.387 C  
BRANCH   7   8
HETATM    8  C   UNL     2     -11.725  12.239  66.342  1.00  0.00    -0.431 C  
BRANCH   8   9
HETATM    9  C   UNL     2     -12.346  13.129  65.256  1.00  0.00    -0.532 C  
BRANCH   9  10
HETATM   10  C   UNL     2     -11.851  14.582  65.250  1.00  0.00    -0.358 C  
BRANCH  10  11
HETATM   11  C   UNL     2     -10.341  14.694  65.020  1.00  0.00    -0.432 C  
BRANCH  11  12
HETATM   12  C   UNL     2      -9.639  15.627  66.014  1.00  0.00    -0.386 C  
BRANCH  12  13
HETATM   13  C   UNL     2     -10.192  17.055  66.021  1.00  0.00    -0.325 C  
BRANCH  13  14
HETATM   14  O   UNL     2      -9.142  17.955  65.711  1.00  0.00    -0.495 OA 
HETATM   15  S   UNL     2      -9.079  19.366  66.519  1.00  0.00    -0.367 S  
HETATM   16  O   UNL     2      -7.858  19.989  65.998  1.00  0.00    -0.328 OA 
HETATM   17  O   UNL     2      -8.976  18.974  67.919  1.00  0.00    -0.288 OA 
HETATM   18  O   UNL     2     -10.307  20.047  66.150  1.00  0.00    -0.466 OA 
ENDBRANCH  13  14
ENDBRANCH  12  13
ENDBRANCH  11  12
ENDBRANCH  10  11
ENDBRANCH   9  10
ENDBRANCH   8   9
ENDBRANCH   7   8
ENDBRANCH   6   7
ENDBRANCH   5   6
ENDBRANCH   4   5
ENDBRANCH   3   4
TORSDOF 11
ENDMDL
MODEL       51
REMARK 921   NORMALIZED FREE ENERGY PREDICTED BY IDOCK:   -3.99 KCAL/MOL
REMARK 922        TOTAL FREE ENERGY PREDICTED BY IDOCK:   -7.98 KCAL/MOL
REMARK 923 INTER-LIGAND FREE ENERGY PREDICTED BY IDOCK:   -7.31 KCAL/MOL
REMARK 924 INTRA-LIGAND FREE ENERGY PREDICTED BY IDOCK:   -0.67 KCAL/MOL
REMARK 927      BINDING AFFINITY PREDICTED BY RF-SCORE:    0.00 PKD
ROOT
HETATM    1 NA   UNL     1     -14.126   9.010  73.904  1.00  0.00    -0.834 Na 
HETATM    2  C   UNL     2     -10.455   5.011  69.851  1.00  0.00    -0.214 C  
HETATM    3  C   UNL     2     -11.247   6.218  70.330  1.00  0.00    -0.439 C  
ENDROOT
BRANCH   3   4
HETATM    4  C   UNL     2     -10.346   7.188  71.089  1.00  0.00    -0.214 C  
BRANCH   4   5
HETATM    5  C   UNL     2     -10.823   8.636  70.956  1.00  0.00    -0.302 C  
BRANCH   5   6
HETATM    6  C   UNL     2     -12.186   8.879  71.618  1.00  0.00    -0.409 C  
BRANCH   6   7
HETATM    7  C   UNL     2     -12.892  10.108  71.047  1.00  0.00    -0.474 C  
BRANCH   7   8
HETATM    8  C   UNL     2     -11.923  11.146  70.485  1.00  0.00    -0.475 C  
BRANCH   8   9
HETATM    9  C   UNL     2     -12.416  12.580  70.725  1.00  0.00    -0.357 C  
BRANCH   9  10
HETATM   10  C   UNL     2     -12.003  13.594  69.651  1.00  0.00    -0.402 C  
BRANCH  10  11
HETATM   11  C   UNL     2     -11.147  12.972  68.544  1.00  0.00    -0.298 C  
BRANCH  11  12
HETATM   12  C   UNL     2     -11.867  12.879  67.193  1.00  0.00    -0.424 C  
BRANCH  12  13
HETATM   13  C   UNL     2     -11.930  14.205  66.431  1.00  0.00    -0.436 C  
BRANCH  13  14
HETATM   14  O   UNL     2     -10.612  14.611  66.107  1.00  0.00    -0.296 OA 
HETATM   15  S   UNL     2     -10.339  16.195  65.854  1.00  0.00    -0.375 S  
HETATM   16  O   UNL     2      -8.893  16.247  65.617  1.00  0.00    -0.374 OA 
HETATM   17  O   UNL     2     -10.744  16.833  67.101  1.00  0.00    -0.287 OA 
HETATM   18  O   UNL     2     -11.151  16.520  64.695  1.00  0.00    -0.699 OA 
ENDBRANCH  13  14
ENDBRANCH  12  13
ENDBRANCH  11  12
ENDBRANCH  10  11
ENDBRANCH   9  10
ENDBRANCH   8   9
ENDBRANCH   7   8
ENDBRANCH   6   7
ENDBRANCH   5   6
ENDBRANCH   4   5
ENDBRANCH   3   4
TORSDOF 11
ENDMDL
MODEL       52
REMARK 921   NORMALIZED FREE ENERGY PREDICTED BY IDOCK:   -3.98 KCAL/MOL
REMARK 922        TOTAL FREE ENERGY PREDICTED BY IDOCK:   -7.97 KCAL/MOL
REMARK 923 INTER-LIGAND FREE ENERGY PREDICTED BY IDOCK:   -7.05 KCAL/MOL
REMARK 924 INTRA-LIGAND FREE ENERGY PREDICTED BY IDOCK:   -0.92 KCAL/MOL
REMARK 927      BINDING AFFINITY PREDICTED BY RF-SCORE:    0.00 PKD
ROOT
HETATM    1 NA   UNL     1     -12.264   9.833  67.917  1.00  0.00    -0.432 Na 
HETATM    2  C   UNL     2     -12.672  14.619  72.694  1.00  0.00    -0.464 C  
HETATM    3  C   UNL     2     -13.097  13.663  71.590  1.00  0.00    -0.455 C  
ENDROOT
BRANCH   3   4
HETATM    4  C   UNL     2     -13.451  12.296  72.166  1.00  0.00    -0.431 C  
BRANCH   4   5
HETATM    5  C   UNL     2     -12.792  11.156  71.385  1.00  0.00    -0.544 C  
BRANCH   5   6
HETATM    6  C   UNL     2     -13.201   9.769  71.896  1.00  0.00    -0.545 C  
BRANCH   6   7
HETATM    7  C   UNL     2     -12.251   8.675  71.409  1.00  0.00    -0.348 C  
BRANCH   7   8
HETATM    8  C   UNL     2     -10.952   8.613  72.209  1.00  0.00    -0.392 C  
BRANCH   8   9
HETATM    9  C   UNL     2      -9.750   9.109  71.391  1.00  0.00    -0.338 C  
BRANCH   9  10
HETATM   10  C   UNL     2     -10.054   9.419  69.919  1.00  0.00    -0.243 C  
BRANCH  10  11
HETATM   11  C   UNL     2      -9.388  10.709  69.433  1.00  0.00    -0.082 C  
BRANCH  11  12
HETATM   12  C   UNL     2      -9.898  11.184  68.067  1.00  0.00    -0.185 C  
BRANCH  12  13
HETATM   13  C   UNL     2     -10.885  12.352  68.147  1.00  0.00    -0.221 C  
BRANCH  13  14
HETATM   14  O   UNL     2     -11.854  12.203  67.124  1.00  0.00    -0.543 OA 
HETATM   15  S   UNL     2     -11.697  13.111  65.782  1.00  0.00    -0.396 S  
HETATM   16  O   UNL     2     -12.808  12.651  64.942  1.00  0.00    -0.763 OA 
HETATM   17  O   UNL     2     -10.386  12.750  65.256  1.00  0.00    -0.288 OA 
HETATM   18  O   UNL     2     -11.825  14.478  66.255  1.00  0.00    -0.380 OA 
ENDBRANCH  13  14
ENDBRANCH  12  13
ENDBRANCH  11  12
ENDBRANCH  10  11
ENDBRANCH   9  10
ENDBRANCH   8   9
ENDBRANCH   7   8
ENDBRANCH   6   7
ENDBRANCH   5   6
ENDBRANCH   4   5
ENDBRANCH   3   4
TORSDOF 11
ENDMDL
MODEL       53
REMARK 921   NORMALIZED FREE ENERGY PREDICTED BY IDOCK:   -3.98 KCAL/MOL
REMARK 922        TOTAL FREE ENERGY PREDICTED BY IDOCK:   -7.97 KCAL/MOL
REMARK 923 INTER-LIGAND FREE ENERGY PREDICTED BY IDOCK:   -6.98 KCAL/MOL
REMARK 924 INTRA-LIGAND FREE ENERGY PREDICTED BY IDOCK:   -0.99 KCAL/MOL
REMARK 927      BINDING AFFINITY PREDICTED BY RF-SCORE:    0.00 PKD
ROOT
HETATM    1 NA   UNL     1     -11.721   8.811  68.875  1.00  0.00    -0.429 Na 
HETATM    2  C   UNL     2      -8.387  10.389  63.192  1.00  0.00    -0.167 C  
HETATM    3  C   UNL     2      -9.494   9.885  64.106  1.00  0.00    -0.254 C  
ENDROOT
BRANCH   3   4
HETATM    4  C   UNL     2     -10.408  11.031  64.529  1.00  0.00    -0.420 C  
BRANCH   4   5
HETATM    5  C   UNL     2     -10.681  12.001  63.378  1.00  0.00    -0.475 C  
BRANCH   5   6
HETATM    6  C   UNL     2     -11.834  12.969  63.675  1.00  0.00    -0.580 C  
BRANCH   6   7
HETATM    7  C   UNL     2     -12.530  12.645  64.996  1.00  0.00    -0.556 C  
BRANCH   7   8
HETATM    8  C   UNL     2     -12.063  13.530  66.150  1.00  0.00    -0.482 C  
BRANCH   8   9
HETATM    9  C   UNL     2     -11.842  12.723  67.438  1.00  0.00    -0.404 C  
BRANCH   9  10
HETATM   10  C   UNL     2     -10.502  12.979  68.139  1.00  0.00    -0.252 C  
BRANCH  10  11
HETATM   11  C   UNL     2      -9.496  13.714  67.250  1.00  0.00    -0.230 C  
BRANCH  11  12
HETATM   12  C   UNL     2      -8.832  14.913  67.937  1.00  0.00    -0.165 C  
BRANCH  12  13
HETATM   13  C   UNL     2      -9.752  16.128  68.089  1.00  0.00    -0.222 C  
BRANCH  13  14
HETATM   14  O   UNL     2     -10.458  16.322  66.875  1.00  0.00    -0.306 OA 
HETATM   15  S   UNL     2     -10.134  17.659  66.007  1.00  0.00    -0.198 S  
HETATM   16  O   UNL     2     -10.977  17.493  64.819  1.00  0.00    -0.950 OA 
HETATM   17  O   UNL     2      -8.707  17.565  65.722  1.00  0.00    -0.514 OA 
HETATM   18  O   UNL     2     -10.525  18.756  66.874  1.00  0.00    -0.378 OA 
ENDBRANCH  13  14
ENDBRANCH  12  13
ENDBRANCH  11  12
ENDBRANCH  10  11
ENDBRANCH   9  10
ENDBRANCH   8   9
ENDBRANCH   7   8
ENDBRANCH   6   7
ENDBRANCH   5   6
ENDBRANCH   4   5
ENDBRANCH   3   4
TORSDOF 11
ENDMDL
MODEL       54
REMARK 921   NORMALIZED FREE ENERGY PREDICTED BY IDOCK:   -3.98 KCAL/MOL
REMARK 922        TOTAL FREE ENERGY PREDICTED BY IDOCK:   -7.97 KCAL/MOL
REMARK 923 INTER-LIGAND FREE ENERGY PREDICTED BY IDOCK:   -6.56 KCAL/MOL
REMARK 924 INTRA-LIGAND FREE ENERGY PREDICTED BY IDOCK:   -1.41 KCAL/MOL
REMARK 927      BINDING AFFINITY PREDICTED BY RF-SCORE:    0.00 PKD
ROOT
HETATM    1 NA   UNL     1     -14.031  11.996  63.483  1.00  0.00    -0.615 Na 
HETATM    2  C   UNL     2      -8.144   8.748  64.312  1.00  0.00    -0.157 C  
HETATM    3  C   UNL     2      -9.175   9.866  64.338  1.00  0.00    -0.317 C  
ENDROOT
BRANCH   3   4
HETATM    4  C   UNL     2     -10.010   9.800  65.613  1.00  0.00    -0.352 C  
BRANCH   4   5
HETATM    5  C   UNL     2      -9.800   8.486  66.368  1.00  0.00    -0.327 C  
BRANCH   5   6
HETATM    6  C   UNL     2     -10.295   8.545  67.819  1.00  0.00    -0.298 C  
BRANCH   6   7
HETATM    7  C   UNL     2     -10.726   9.955  68.221  1.00  0.00    -0.276 C  
BRANCH   7   8
HETATM    8  C   UNL     2     -10.595  10.214  69.721  1.00  0.00    -0.298 C  
BRANCH   8   9
HETATM    9  C   UNL     2     -11.372  11.465  70.157  1.00  0.00    -0.207 C  
BRANCH   9  10
HETATM   10  C   UNL     2     -11.787  12.400  69.012  1.00  0.00    -0.349 C  
BRANCH  10  11
HETATM   11  C   UNL     2     -10.868  13.617  68.876  1.00  0.00    -0.264 C  
BRANCH  11  12
HETATM   12  C   UNL     2     -10.002  13.592  67.612  1.00  0.00    -0.239 C  
BRANCH  12  13
HETATM   13  C   UNL     2     -10.545  14.455  66.470  1.00  0.00    -0.296 C  
BRANCH  13  14
HETATM   14  O   UNL     2     -10.522  13.698  65.272  1.00  0.00    -0.317 OA 
HETATM   15  S   UNL     2     -11.942  13.345  64.561  1.00  0.00    -0.428 S  
HETATM   16  O   UNL     2     -11.535  12.633  63.346  1.00  0.00    -0.487 OA 
HETATM   17  O   UNL     2     -12.544  14.646  64.295  1.00  0.00    -0.688 OA 
HETATM   18  O   UNL     2     -12.638  12.525  65.536  1.00  0.00    -0.642 OA 
ENDBRANCH  13  14
ENDBRANCH  12  13
ENDBRANCH  11  12
ENDBRANCH  10  11
ENDBRANCH   9  10
ENDBRANCH   8   9
ENDBRANCH   7   8
ENDBRANCH   6   7
ENDBRANCH   5   6
ENDBRANCH   4   5
ENDBRANCH   3   4
TORSDOF 11
ENDMDL
MODEL       55
REMARK 921   NORMALIZED FREE ENERGY PREDICTED BY IDOCK:   -3.97 KCAL/MOL
REMARK 922        TOTAL FREE ENERGY PREDICTED BY IDOCK:   -7.95 KCAL/MOL
REMARK 923 INTER-LIGAND FREE ENERGY PREDICTED BY IDOCK:   -7.51 KCAL/MOL
REMARK 924 INTRA-LIGAND FREE ENERGY PREDICTED BY IDOCK:   -0.44 KCAL/MOL
REMARK 927      BINDING AFFINITY PREDICTED BY RF-SCORE:    0.00 PKD
ROOT
HETATM    1 NA   UNL     1     -10.941   6.784  66.101  1.00  0.00    -0.454 Na 
HETATM    2  C   UNL     2     -10.955   5.227  72.694  1.00  0.00    -0.316 C  
HETATM    3  C   UNL     2     -10.583   5.915  71.390  1.00  0.00    -0.309 C  
ENDROOT
BRANCH   3   4
HETATM    4  C   UNL     2     -11.521   7.086  71.111  1.00  0.00    -0.333 C  
BRANCH   4   5
HETATM    5  C   UNL     2     -11.686   7.991  72.334  1.00  0.00    -0.444 C  
BRANCH   5   6
HETATM    6  C   UNL     2     -12.619   9.181  72.074  1.00  0.00    -0.463 C  
BRANCH   6   7
HETATM    7  C   UNL     2     -11.901  10.329  71.365  1.00  0.00    -0.371 C  
BRANCH   7   8
HETATM    8  C   UNL     2     -12.855  11.413  70.867  1.00  0.00    -0.323 C  
BRANCH   8   9
HETATM    9  C   UNL     2     -12.464  12.804  71.387  1.00  0.00    -0.224 C  
BRANCH   9  10
HETATM   10  C   UNL     2     -12.534  13.927  70.343  1.00  0.00    -0.404 C  
BRANCH  10  11
HETATM   11  C   UNL     2     -11.486  13.779  69.238  1.00  0.00    -0.344 C  
BRANCH  11  12
HETATM   12  C   UNL     2     -12.021  13.096  67.974  1.00  0.00    -0.345 C  
BRANCH  12  13
HETATM   13  C   UNL     2     -12.216  14.048  66.790  1.00  0.00    -0.404 C  
BRANCH  13  14
HETATM   14  O   UNL     2     -12.672  13.304  65.674  1.00  0.00    -0.444 OA 
HETATM   15  S   UNL     2     -12.062  13.669  64.210  1.00  0.00    -0.416 S  
HETATM   16  O   UNL     2     -12.694  12.677  63.333  1.00  0.00    -0.705 OA 
HETATM   17  O   UNL     2     -10.625  13.475  64.361  1.00  0.00    -0.419 OA 
HETATM   18  O   UNL     2     -12.485  15.038  63.975  1.00  0.00    -0.796 OA 
ENDBRANCH  13  14
ENDBRANCH  12  13
ENDBRANCH  11  12
ENDBRANCH  10  11
ENDBRANCH   9  10
ENDBRANCH   8   9
ENDBRANCH   7   8
ENDBRANCH   6   7
ENDBRANCH   5   6
ENDBRANCH   4   5
ENDBRANCH   3   4
TORSDOF 11
ENDMDL
MODEL       56
REMARK 921   NORMALIZED FREE ENERGY PREDICTED BY IDOCK:   -3.96 KCAL/MOL
REMARK 922        TOTAL FREE ENERGY PREDICTED BY IDOCK:   -7.94 KCAL/MOL
REMARK 923 INTER-LIGAND FREE ENERGY PREDICTED BY IDOCK:   -7.27 KCAL/MOL
REMARK 924 INTRA-LIGAND FREE ENERGY PREDICTED BY IDOCK:   -0.67 KCAL/MOL
REMARK 927      BINDING AFFINITY PREDICTED BY RF-SCORE:    0.00 PKD
ROOT
HETATM    1 NA   UNL     1     -14.126  14.333  71.165  1.00  0.00    -0.362 Na 
HETATM    2  C   UNL     2     -11.774   8.122  72.497  1.00  0.00    -0.457 C  
HETATM    3  C   UNL     2     -12.458   9.262  71.760  1.00  0.00    -0.458 C  
ENDROOT
BRANCH   3   4
HETATM    4  C   UNL     2     -11.448  10.054  70.935  1.00  0.00    -0.452 C  
BRANCH   4   5
HETATM    5  C   UNL     2     -10.319   9.168  70.407  1.00  0.00    -0.269 C  
BRANCH   5   6
HETATM    6  C   UNL     2      -9.192   9.970  69.741  1.00  0.00    -0.227 C  
BRANCH   6   7
HETATM    7  C   UNL     2      -9.524  10.336  68.296  1.00  0.00    -0.147 C  
BRANCH   7   8
HETATM    8  C   UNL     2     -10.424   9.309  67.611  1.00  0.00    -0.325 C  
BRANCH   8   9
HETATM    9  C   UNL     2     -10.396   9.451  66.082  1.00  0.00    -0.162 C  
BRANCH   9  10
HETATM   10  C   UNL     2     -10.388  10.896  65.567  1.00  0.00    -0.316 C  
BRANCH  10  11
HETATM   11  C   UNL     2      -9.647  11.049  64.236  1.00  0.00    -0.303 C  
BRANCH  11  12
HETATM   12  C   UNL     2     -10.497  11.690  63.132  1.00  0.00    -0.368 C  
BRANCH  12  13
HETATM   13  C   UNL     2     -11.925  12.032  63.569  1.00  0.00    -0.507 C  
BRANCH  13  14
HETATM   14  O   UNL     2     -12.187  13.389  63.255  1.00  0.00    -0.648 OA 
HETATM   15  S   UNL     2     -12.159  14.474  64.467  1.00  0.00    -0.446 S  
HETATM   16  O   UNL     2     -12.400  15.745  63.778  1.00  0.00    -0.698 OA 
HETATM   17  O   UNL     2     -10.815  14.361  65.020  1.00  0.00    -0.359 OA 
HETATM   18  O   UNL     2     -13.233  14.055  65.350  1.00  0.00    -0.761 OA 
ENDBRANCH  13  14
ENDBRANCH  12  13
ENDBRANCH  11  12
ENDBRANCH  10  11
ENDBRANCH   9  10
ENDBRANCH   8   9
ENDBRANCH   7   8
ENDBRANCH   6   7
ENDBRANCH   5   6
ENDBRANCH   4   5
ENDBRANCH   3   4
TORSDOF 11
ENDMDL
MODEL       57
REMARK 921   NORMALIZED FREE ENERGY PREDICTED BY IDOCK:   -3.96 KCAL/MOL
REMARK 922        TOTAL FREE ENERGY PREDICTED BY IDOCK:   -7.94 KCAL/MOL
REMARK 923 INTER-LIGAND FREE ENERGY PREDICTED BY IDOCK:   -6.90 KCAL/MOL
REMARK 924 INTRA-LIGAND FREE ENERGY PREDICTED BY IDOCK:   -1.04 KCAL/MOL
REMARK 927      BINDING AFFINITY PREDICTED BY RF-SCORE:    0.00 PKD
ROOT
HETATM    1 NA   UNL     1     -13.541  16.080  70.275  1.00  0.00    -0.694 Na 
HETATM    2  C   UNL     2      -9.681  20.464  66.843  1.00  0.00    -0.567 C  
HETATM    3  C   UNL     2     -10.384  19.791  68.011  1.00  0.00    -0.567 C  
ENDROOT
BRANCH   3   4
HETATM    4  C   UNL     2      -9.539  18.647  68.564  1.00  0.00    -0.399 C  
BRANCH   4   5
HETATM    5  C   UNL     2     -10.394  17.441  68.959  1.00  0.00    -0.319 C  
BRANCH   5   6
HETATM    6  C   UNL     2     -10.667  16.493  67.784  1.00  0.00    -0.329 C  
BRANCH   6   7
HETATM    7  C   UNL     2      -9.442  16.324  66.887  1.00  0.00    -0.245 C  
BRANCH   7   8
HETATM    8  C   UNL     2      -9.718  15.463  65.656  1.00  0.00    -0.366 C  
BRANCH   8   9
HETATM    9  C   UNL     2     -10.950  15.950  64.880  1.00  0.00    -0.427 C  
BRANCH   9  10
HETATM   10  C   UNL     2     -12.079  14.919  64.747  1.00  0.00    -0.335 C  
BRANCH  10  11
HETATM   11  C   UNL     2     -11.713  13.556  65.339  1.00  0.00    -0.351 C  
BRANCH  11  12
HETATM   12  C   UNL     2     -12.264  13.334  66.752  1.00  0.00    -0.340 C  
BRANCH  12  13
HETATM   13  C   UNL     2     -11.479  12.305  67.570  1.00  0.00    -0.347 C  
BRANCH  13  14
HETATM   14  O   UNL     2     -12.393  11.500  68.293  1.00  0.00    -0.468 OA 
HETATM   15  S   UNL     2     -12.126  11.278  69.883  1.00  0.00    -0.334 S  
HETATM   16  O   UNL     2     -13.278  10.473  70.302  1.00  0.00    -0.175 OA 
HETATM   17  O   UNL     2     -12.130  12.626  70.440  1.00  0.00    -0.364 OA 
HETATM   18  O   UNL     2     -10.853  10.584  69.941  1.00  0.00    -0.269 OA 
ENDBRANCH  13  14
ENDBRANCH  12  13
ENDBRANCH  11  12
ENDBRANCH  10  11
ENDBRANCH   9  10
ENDBRANCH   8   9
ENDBRANCH   7   8
ENDBRANCH   6   7
ENDBRANCH   5   6
ENDBRANCH   4   5
ENDBRANCH   3   4
TORSDOF 11
ENDMDL
MODEL       58
REMARK 921   NORMALIZED FREE ENERGY PREDICTED BY IDOCK:   -3.95 KCAL/MOL
REMARK 922        TOTAL FREE ENERGY PREDICTED BY IDOCK:   -7.92 KCAL/MOL
REMARK 923 INTER-LIGAND FREE ENERGY PREDICTED BY IDOCK:   -6.80 KCAL/MOL
REMARK 924 INTRA-LIGAND FREE ENERGY PREDICTED BY IDOCK:   -1.12 KCAL/MOL
REMARK 927      BINDING AFFINITY PREDICTED BY RF-SCORE:    0.00 PKD
ROOT
HETATM    1 NA   UNL     1     -13.409  15.755  69.517  1.00  0.00    -0.583 Na 
HETATM    2  C   UNL     2     -12.211  13.047  63.425  1.00  0.00    -0.552 C  
HETATM    3  C   UNL     2     -12.265  14.072  64.546  1.00  0.00    -0.463 C  
ENDROOT
BRANCH   3   4
HETATM    4  C   UNL     2     -11.030  13.963  65.436  1.00  0.00    -0.316 C  
BRANCH   4   5
HETATM    5  C   UNL     2     -10.176  12.743  65.084  1.00  0.00    -0.297 C  
BRANCH   5   6
HETATM    6  C   UNL     2      -9.691  11.977  66.321  1.00  0.00    -0.251 C  
BRANCH   6   7
HETATM    7  C   UNL     2     -10.765  11.043  66.876  1.00  0.00    -0.325 C  
BRANCH   7   8
HETATM    8  C   UNL     2     -11.439  11.588  68.133  1.00  0.00    -0.385 C  
BRANCH   8   9
HETATM    9  C   UNL     2     -10.576  12.647  68.833  1.00  0.00    -0.157 C  
BRANCH   9  10
HETATM   10  C   UNL     2     -11.268  13.998  69.061  1.00  0.00    -0.311 C  
BRANCH  10  11
HETATM   11  C   UNL     2     -10.366  15.018  69.759  1.00  0.00    -0.172 C  
BRANCH  11  12
HETATM   12  C   UNL     2     -10.610  16.463  69.306  1.00  0.00    -0.311 C  
BRANCH  12  13
HETATM   13  C   UNL     2     -10.540  16.657  67.789  1.00  0.00    -0.342 C  
BRANCH  13  14
HETATM   14  O   UNL     2     -10.840  18.009  67.486  1.00  0.00    -0.379 OA 
HETATM   15  S   UNL     2     -10.346  18.600  66.053  1.00  0.00    -0.311 S  
HETATM   16  O   UNL     2     -10.878  19.966  66.058  1.00  0.00    -0.400 OA 
HETATM   17  O   UNL     2     -10.984  17.734  65.068  1.00  0.00    -0.784 OA 
HETATM   18  O   UNL     2      -8.897  18.517  66.109  1.00  0.00    -0.463 OA 
ENDBRANCH  13  14
ENDBRANCH  12  13
ENDBRANCH  11  12
ENDBRANCH  10  11
ENDBRANCH   9  10
ENDBRANCH   8   9
ENDBRANCH   7   8
ENDBRANCH   6   7
ENDBRANCH   5   6
ENDBRANCH   4   5
ENDBRANCH   3   4
TORSDOF 11
ENDMDL
MODEL       59
REMARK 921   NORMALIZED FREE ENERGY PREDICTED BY IDOCK:   -3.94 KCAL/MOL
REMARK 922        TOTAL FREE ENERGY PREDICTED BY IDOCK:   -7.92 KCAL/MOL
REMARK 923 INTER-LIGAND FREE ENERGY PREDICTED BY IDOCK:   -7.01 KCAL/MOL
REMARK 924 INTRA-LIGAND FREE ENERGY PREDICTED BY IDOCK:   -0.90 KCAL/MOL
REMARK 927      BINDING AFFINITY PREDICTED BY RF-SCORE:    0.00 PKD
ROOT
HETATM    1 NA   UNL     1      -8.816   5.609  69.674  1.00  0.00    -0.105 Na 
HETATM    2  C   UNL     2     -11.191  11.529  67.391  1.00  0.00    -0.367 C  
HETATM    3  C   UNL     2     -11.128  10.212  68.150  1.00  0.00    -0.290 C  
ENDROOT
BRANCH   3   4
HETATM    4  C   UNL     2     -10.423  10.396  69.491  1.00  0.00    -0.274 C  
BRANCH   4   5
HETATM    5  C   UNL     2     -11.314   9.987  70.666  1.00  0.00    -0.425 C  
BRANCH   5   6
HETATM    6  C   UNL     2     -12.720  10.595  70.590  1.00  0.00    -0.445 C  
BRANCH   6   7
HETATM    7  C   UNL     2     -13.188  11.132  71.942  1.00  0.00    -0.488 C  
BRANCH   7   8
HETATM    8  C   UNL     2     -13.293  12.655  71.975  1.00  0.00    -0.555 C  
BRANCH   8   9
HETATM    9  C   UNL     2     -12.467  13.312  70.859  1.00  0.00    -0.424 C  
BRANCH   9  10
HETATM   10  C   UNL     2     -12.054  14.765  71.130  1.00  0.00    -0.391 C  
BRANCH  10  11
HETATM   11  C   UNL     2     -12.022  15.620  69.861  1.00  0.00    -0.376 C  
BRANCH  11  12
HETATM   12  C   UNL     2     -11.899  14.799  68.571  1.00  0.00    -0.340 C  
BRANCH  12  13
HETATM   13  C   UNL     2     -10.713  15.201  67.691  1.00  0.00    -0.285 C  
BRANCH  13  14
HETATM   14  O   UNL     2     -11.198  15.589  66.417  1.00  0.00    -0.240 OA 
HETATM   15  S   UNL     2     -10.469  16.835  65.666  1.00  0.00    -0.180 S  
HETATM   16  O   UNL     2     -11.173  16.903  64.382  1.00  0.00    -1.159 OA 
HETATM   17  O   UNL     2      -9.078  16.416  65.542  1.00  0.00    -0.390 OA 
HETATM   18  O   UNL     2     -10.702  17.969  66.542  1.00  0.00    -0.280 OA 
ENDBRANCH  13  14
ENDBRANCH  12  13
ENDBRANCH  11  12
ENDBRANCH  10  11
ENDBRANCH   9  10
ENDBRANCH   8   9
ENDBRANCH   7   8
ENDBRANCH   6   7
ENDBRANCH   5   6
ENDBRANCH   4   5
ENDBRANCH   3   4
TORSDOF 11
ENDMDL
MODEL       60
REMARK 921   NORMALIZED FREE ENERGY PREDICTED BY IDOCK:   -3.94 KCAL/MOL
REMARK 922        TOTAL FREE ENERGY PREDICTED BY IDOCK:   -7.91 KCAL/MOL
REMARK 923 INTER-LIGAND FREE ENERGY PREDICTED BY IDOCK:   -6.61 KCAL/MOL
REMARK 924 INTRA-LIGAND FREE ENERGY PREDICTED BY IDOCK:   -1.31 KCAL/MOL
REMARK 927      BINDING AFFINITY PREDICTED BY RF-SCORE:    0.00 PKD
ROOT
HETATM    1 NA   UNL     1     -13.406  14.832  69.622  1.00  0.00    -0.563 Na 
HETATM    2  C   UNL     2     -11.654  12.011  63.718  1.00  0.00    -0.565 C  
HETATM    3  C   UNL     2     -12.497  12.715  64.770  1.00  0.00    -0.555 C  
ENDROOT
BRANCH   3   4
HETATM    4  C   UNL     2     -12.246  14.220  64.743  1.00  0.00    -0.456 C  
BRANCH   4   5
HETATM    5  C   UNL     2     -11.444  14.690  65.958  1.00  0.00    -0.332 C  
BRANCH   5   6
HETATM    6  C   UNL     2     -11.965  14.106  67.278  1.00  0.00    -0.449 C  
BRANCH   6   7
HETATM    7  C   UNL     2     -10.859  13.420  68.079  1.00  0.00    -0.264 C  
BRANCH   7   8
HETATM    8  C   UNL     2      -9.652  13.039  67.225  1.00  0.00    -0.225 C  
BRANCH   8   9
HETATM    9  C   UNL     2      -9.646  11.544  66.873  1.00  0.00    -0.203 C  
BRANCH   9  10
HETATM   10  C   UNL     2     -10.894  10.771  67.319  1.00  0.00    -0.344 C  
BRANCH  10  11
HETATM   11  C   UNL     2     -10.572   9.630  68.288  1.00  0.00    -0.268 C  
BRANCH  11  12
HETATM   12  C   UNL     2      -9.998  10.108  69.627  1.00  0.00    -0.262 C  
BRANCH  12  13
HETATM   13  C   UNL     2     -10.955   9.936  70.809  1.00  0.00    -0.337 C  
BRANCH  13  14
HETATM   14  O   UNL     2     -11.491   8.625  70.778  1.00  0.00    -0.271 OA 
HETATM   15  S   UNL     2     -12.092   8.010  72.160  1.00  0.00    -0.343 S  
HETATM   16  O   UNL     2     -12.605   6.701  71.742  1.00  0.00    -0.354 OA 
HETATM   17  O   UNL     2     -13.140   8.947  72.545  1.00  0.00    -0.422 OA 
HETATM   18  O   UNL     2     -10.949   7.951  73.054  1.00  0.00    -0.393 OA 
ENDBRANCH  13  14
ENDBRANCH  12  13
ENDBRANCH  11  12
ENDBRANCH  10  11
ENDBRANCH   9  10
ENDBRANCH   8   9
ENDBRANCH   7   8
ENDBRANCH   6   7
ENDBRANCH   5   6
ENDBRANCH   4   5
ENDBRANCH   3   4
TORSDOF 11
ENDMDL
MODEL       61
REMARK 921   NORMALIZED FREE ENERGY PREDICTED BY IDOCK:   -3.94 KCAL/MOL
REMARK 922        TOTAL FREE ENERGY PREDICTED BY IDOCK:   -7.91 KCAL/MOL
REMARK 923 INTER-LIGAND FREE ENERGY PREDICTED BY IDOCK:   -7.56 KCAL/MOL
REMARK 924 INTRA-LIGAND FREE ENERGY PREDICTED BY IDOCK:   -0.35 KCAL/MOL
REMARK 927      BINDING AFFINITY PREDICTED BY RF-SCORE:    0.00 PKD
ROOT
HETATM    1 NA   UNL     1     -13.916  14.119  65.280  1.00  0.00    -0.783 Na 
HETATM    2  C   UNL     2     -11.573  15.958  71.365  1.00  0.00    -0.529 C  
HETATM    3  C   UNL     2     -12.513  15.410  70.302  1.00  0.00    -0.413 C  
ENDROOT
BRANCH   3   4
HETATM    4  C   UNL     2     -12.228  13.934  70.039  1.00  0.00    -0.408 C  
BRANCH   4   5
HETATM    5  C   UNL     2     -12.472  13.074  71.281  1.00  0.00    -0.315 C  
BRANCH   5   6
HETATM    6  C   UNL     2     -12.213  11.582  71.033  1.00  0.00    -0.368 C  
BRANCH   6   7
HETATM    7  C   UNL     2     -12.007  11.274  69.551  1.00  0.00    -0.421 C  
BRANCH   7   8
HETATM    8  C   UNL     2     -10.800  10.376  69.290  1.00  0.00    -0.280 C  
BRANCH   8   9
HETATM    9  C   UNL     2     -10.026  10.805  68.034  1.00  0.00    -0.183 C  
BRANCH   9  10
HETATM   10  C   UNL     2     -10.862  10.861  66.748  1.00  0.00    -0.283 C  
BRANCH  10  11
HETATM   11  C   UNL     2     -10.755  12.208  66.028  1.00  0.00    -0.308 C  
BRANCH  11  12
HETATM   12  C   UNL     2     -11.886  12.456  65.023  1.00  0.00    -0.440 C  
BRANCH  12  13
HETATM   13  C   UNL     2     -11.774  13.790  64.281  1.00  0.00    -0.395 C  
BRANCH  13  14
HETATM   14  O   UNL     2     -10.557  14.418  64.646  1.00  0.00    -0.415 OA 
HETATM   15  S   UNL     2     -10.635  15.839  65.434  1.00  0.00    -0.423 S  
HETATM   16  O   UNL     2      -9.226  16.145  65.701  1.00  0.00    -0.407 OA 
HETATM   17  O   UNL     2     -11.401  15.542  66.638  1.00  0.00    -0.197 OA 
HETATM   18  O   UNL     2     -11.279  16.738  64.492  1.00  0.00    -0.997 OA 
ENDBRANCH  13  14
ENDBRANCH  12  13
ENDBRANCH  11  12
ENDBRANCH  10  11
ENDBRANCH   9  10
ENDBRANCH   8   9
ENDBRANCH   7   8
ENDBRANCH   6   7
ENDBRANCH   5   6
ENDBRANCH   4   5
ENDBRANCH   3   4
TORSDOF 11
ENDMDL
MODEL       62
REMARK 921   NORMALIZED FREE ENERGY PREDICTED BY IDOCK:   -3.94 KCAL/MOL
REMARK 922        TOTAL FREE ENERGY PREDICTED BY IDOCK:   -7.91 KCAL/MOL
REMARK 923 INTER-LIGAND FREE ENERGY PREDICTED BY IDOCK:   -6.65 KCAL/MOL
REMARK 924 INTRA-LIGAND FREE ENERGY PREDICTED BY IDOCK:   -1.26 KCAL/MOL
REMARK 927      BINDING AFFINITY PREDICTED BY RF-SCORE:    0.00 PKD
ROOT
HETATM    1 NA   UNL     1     -12.963  14.168  67.897  1.00  0.00    -0.519 Na 
HETATM    2  C   UNL     2     -13.426   9.183  72.462  1.00  0.00    -0.490 C  
HETATM    3  C   UNL     2     -13.242   9.882  71.123  1.00  0.00    -0.424 C  
ENDROOT
BRANCH   3   4
HETATM    4  C   UNL     2     -11.787  10.300  70.929  1.00  0.00    -0.473 C  
BRANCH   4   5
HETATM    5  C   UNL     2     -10.918   9.141  70.437  1.00  0.00    -0.290 C  
BRANCH   5   6
HETATM    6  C   UNL     2     -10.231   9.437  69.098  1.00  0.00    -0.209 C  
BRANCH   6   7
HETATM    7  C   UNL     2     -11.238   9.605  67.960  1.00  0.00     0.015 C  
BRANCH   7   8
HETATM    8  C   UNL     2     -11.220  11.004  67.349  1.00  0.00    -0.355 C  
BRANCH   8   9
HETATM    9  C   UNL     2      -9.858  11.340  66.724  1.00  0.00    -0.227 C  
BRANCH   9  10
HETATM   10  C   UNL     2      -9.091  12.474  67.417  1.00  0.00    -0.185 C  
BRANCH  10  11
HETATM   11  C   UNL     2      -9.988  13.658  67.790  1.00  0.00    -0.235 C  
BRANCH  11  12
HETATM   12  C   UNL     2      -9.586  14.970  67.105  1.00  0.00    -0.222 C  
BRANCH  12  13
HETATM   13  C   UNL     2     -10.615  15.482  66.093  1.00  0.00    -0.315 C  
BRANCH  13  14
HETATM   14  O   UNL     2     -10.790  14.504  65.083  1.00  0.00    -0.345 OA 
HETATM   15  S   UNL     2     -12.247  14.397  64.366  1.00  0.00    -0.392 S  
HETATM   16  O   UNL     2     -12.041  13.354  63.356  1.00  0.00    -0.549 OA 
HETATM   17  O   UNL     2     -12.465  15.721  63.794  1.00  0.00    -0.674 OA 
HETATM   18  O   UNL     2     -13.151  14.026  65.440  1.00  0.00    -0.763 OA 
ENDBRANCH  13  14
ENDBRANCH  12  13
ENDBRANCH  11  12
ENDBRANCH  10  11
ENDBRANCH   9  10
ENDBRANCH   8   9
ENDBRANCH   7   8
ENDBRANCH   6   7
ENDBRANCH   5   6
ENDBRANCH   4   5
ENDBRANCH   3   4
TORSDOF 11
ENDMDL
MODEL       63
REMARK 921   NORMALIZED FREE ENERGY PREDICTED BY IDOCK:   -3.94 KCAL/MOL
REMARK 922        TOTAL FREE ENERGY PREDICTED BY IDOCK:   -7.91 KCAL/MOL
REMARK 923 INTER-LIGAND FREE ENERGY PREDICTED BY IDOCK:   -6.39 KCAL/MOL
REMARK 924 INTRA-LIGAND FREE ENERGY PREDICTED BY IDOCK:   -1.52 KCAL/MOL
REMARK 927      BINDING AFFINITY PREDICTED BY RF-SCORE:    0.00 PKD
ROOT
HETATM    1 NA   UNL     1     -14.152  16.117  70.817  1.00  0.00    -0.603 Na 
HETATM    2  C   UNL     2      -9.785  15.077  65.744  1.00  0.00    -0.375 C  
HETATM    3  C   UNL     2     -10.638  14.803  66.973  1.00  0.00    -0.290 C  
ENDROOT
BRANCH   3   4
HETATM    4  C   UNL     2     -12.045  14.372  66.569  1.00  0.00    -0.395 C  
BRANCH   4   5
HETATM    5  C   UNL     2     -12.157  14.122  65.063  1.00  0.00    -0.428 C  
BRANCH   5   6
HETATM    6  C   UNL     2     -12.802  12.770  64.730  1.00  0.00    -0.374 C  
BRANCH   6   7
HETATM    7  C   UNL     2     -12.192  12.135  63.482  1.00  0.00    -0.670 C  
BRANCH   7   8
HETATM    8  C   UNL     2     -10.669  12.242  63.441  1.00  0.00    -0.438 C  
BRANCH   8   9
HETATM    9  C   UNL     2      -9.998  10.861  63.402  1.00  0.00    -0.414 C  
BRANCH   9  10
HETATM   10  C   UNL     2      -9.758  10.220  64.775  1.00  0.00    -0.397 C  
BRANCH  10  11
HETATM   11  C   UNL     2      -9.732  11.243  65.913  1.00  0.00    -0.258 C  
BRANCH  11  12
HETATM   12  C   UNL     2     -10.687  10.904  67.063  1.00  0.00    -0.323 C  
BRANCH  12  13
HETATM   13  C   UNL     2     -10.224   9.728  67.928  1.00  0.00    -0.194 C  
BRANCH  13  14
HETATM   14  O   UNL     2     -10.890   9.788  69.178  1.00  0.00    -0.219 OA 
HETATM   15  S   UNL     2     -10.204   9.036  70.447  1.00  0.00    -0.227 S  
HETATM   16  O   UNL     2     -11.112   9.360  71.552  1.00  0.00    -0.355 OA 
HETATM   17  O   UNL     2      -8.894   9.663  70.572  1.00  0.00    -0.225 OA 
HETATM   18  O   UNL     2     -10.191   7.633  70.071  1.00  0.00    -0.204 OA 
ENDBRANCH  13  14
ENDBRANCH  12  13
ENDBRANCH  11  12
ENDBRANCH  10  11
ENDBRANCH   9  10
ENDBRANCH   8   9
ENDBRANCH   7   8
ENDBRANCH   6   7
ENDBRANCH   5   6
ENDBRANCH   4   5
ENDBRANCH   3   4
TORSDOF 11
ENDMDL
MODEL       64
REMARK 921   NORMALIZED FREE ENERGY PREDICTED BY IDOCK:   -3.94 KCAL/MOL
REMARK 922        TOTAL FREE ENERGY PREDICTED BY IDOCK:   -7.90 KCAL/MOL
REMARK 923 INTER-LIGAND FREE ENERGY PREDICTED BY IDOCK:   -6.40 KCAL/MOL
REMARK 924 INTRA-LIGAND FREE ENERGY PREDICTED BY IDOCK:   -1.50 KCAL/MOL
REMARK 927      BINDING AFFINITY PREDICTED BY RF-SCORE:    0.00 PKD
ROOT
HETATM    1 NA   UNL     1      -7.601  15.838  69.920  1.00  0.00    -0.191 Na 
HETATM    2  C   UNL     2      -9.398  10.348  66.381  1.00  0.00    -0.197 C  
HETATM    3  C   UNL     2      -8.525  11.337  67.137  1.00  0.00    -0.149 C  
ENDROOT
BRANCH   3   4
HETATM    4  C   UNL     2      -8.552  11.045  68.635  1.00  0.00    -0.157 C  
BRANCH   4   5
HETATM    5  C   UNL     2      -8.709   9.550  68.924  1.00  0.00    -0.133 C  
BRANCH   5   6
HETATM    6  C   UNL     2      -9.282   9.269  70.319  1.00  0.00    -0.273 C  
BRANCH   6   7
HETATM    7  C   UNL     2     -10.793   9.042  70.284  1.00  0.00    -0.269 C  
BRANCH   7   8
HETATM    8  C   UNL     2     -11.544   9.857  71.335  1.00  0.00    -0.428 C  
BRANCH   8   9
HETATM    9  C   UNL     2     -12.626  10.745  70.705  1.00  0.00    -0.476 C  
BRANCH   9  10
HETATM   10  C   UNL     2     -12.203  11.467  69.419  1.00  0.00    -0.273 C  
BRANCH  10  11
HETATM   11  C   UNL     2     -11.576  12.838  69.685  1.00  0.00    -0.322 C  
BRANCH  11  12
HETATM   12  C   UNL     2     -11.371  13.674  68.416  1.00  0.00    -0.329 C  
BRANCH  12  13
HETATM   13  C   UNL     2     -11.817  12.971  67.131  1.00  0.00    -0.373 C  
BRANCH  13  14
HETATM   14  O   UNL     2     -12.182  13.951  66.175  1.00  0.00    -0.423 OA 
HETATM   15  S   UNL     2     -12.115  13.546  64.600  1.00  0.00    -0.419 S  
HETATM   16  O   UNL     2     -12.614  14.750  63.929  1.00  0.00    -0.834 OA 
HETATM   17  O   UNL     2     -13.014  12.404  64.484  1.00  0.00    -0.770 OA 
HETATM   18  O   UNL     2     -10.711  13.261  64.361  1.00  0.00    -0.382 OA 
ENDBRANCH  13  14
ENDBRANCH  12  13
ENDBRANCH  11  12
ENDBRANCH  10  11
ENDBRANCH   9  10
ENDBRANCH   8   9
ENDBRANCH   7   8
ENDBRANCH   6   7
ENDBRANCH   5   6
ENDBRANCH   4   5
ENDBRANCH   3   4
TORSDOF 11
ENDMDL
MODEL       65
REMARK 921   NORMALIZED FREE ENERGY PREDICTED BY IDOCK:   -3.93 KCAL/MOL
REMARK 922        TOTAL FREE ENERGY PREDICTED BY IDOCK:   -7.89 KCAL/MOL
REMARK 923 INTER-LIGAND FREE ENERGY PREDICTED BY IDOCK:   -6.53 KCAL/MOL
REMARK 924 INTRA-LIGAND FREE ENERGY PREDICTED BY IDOCK:   -1.35 KCAL/MOL
REMARK 927      BINDING AFFINITY PREDICTED BY RF-SCORE:    0.00 PKD
ROOT
HETATM    1 NA   UNL     1     -14.377  15.883  70.218  1.00  0.00    -0.843 Na 
HETATM    2  C   UNL     2     -11.484   9.857  71.324  1.00  0.00    -0.435 C  
HETATM    3  C   UNL     2     -12.531  10.889  70.933  1.00  0.00    -0.507 C  
ENDROOT
BRANCH   3   4
HETATM    4  C   UNL     2     -12.354  11.312  69.477  1.00  0.00    -0.243 C  
BRANCH   4   5
HETATM    5  C   UNL     2     -10.986  10.907  68.925  1.00  0.00    -0.278 C  
BRANCH   5   6
HETATM    6  C   UNL     2     -11.006  10.646  67.413  1.00  0.00    -0.361 C  
BRANCH   6   7
HETATM    7  C   UNL     2      -9.815  11.289  66.703  1.00  0.00    -0.235 C  
BRANCH   7   8
HETATM    8  C   UNL     2     -10.178  12.584  65.981  1.00  0.00    -0.269 C  
BRANCH   8   9
HETATM    9  C   UNL     2     -11.698  12.772  65.870  1.00  0.00    -0.464 C  
BRANCH   9  10
HETATM   10  C   UNL     2     -12.261  13.970  66.646  1.00  0.00    -0.463 C  
BRANCH  10  11
HETATM   11  C   UNL     2     -11.199  14.688  67.483  1.00  0.00    -0.343 C  
BRANCH  11  12
HETATM   12  C   UNL     2     -11.693  15.104  68.874  1.00  0.00    -0.357 C  
BRANCH  12  13
HETATM   13  C   UNL     2     -11.054  16.393  69.399  1.00  0.00    -0.300 C  
BRANCH  13  14
HETATM   14  O   UNL     2      -9.919  16.698  68.607  1.00  0.00    -0.237 OA 
HETATM   15  S   UNL     2      -9.845  18.166  67.909  1.00  0.00    -0.330 S  
HETATM   16  O   UNL     2      -8.537  18.149  67.246  1.00  0.00    -0.235 OA 
HETATM   17  O   UNL     2      -9.915  19.099  69.027  1.00  0.00    -0.416 OA 
HETATM   18  O   UNL     2     -10.980  18.192  67.004  1.00  0.00    -0.219 OA 
ENDBRANCH  13  14
ENDBRANCH  12  13
ENDBRANCH  11  12
ENDBRANCH  10  11
ENDBRANCH   9  10
ENDBRANCH   8   9
ENDBRANCH   7   8
ENDBRANCH   6   7
ENDBRANCH   5   6
ENDBRANCH   4   5
ENDBRANCH   3   4
TORSDOF 11
ENDMDL
MODEL       66
REMARK 921   NORMALIZED FREE ENERGY PREDICTED BY IDOCK:   -3.93 KCAL/MOL
REMARK 922        TOTAL FREE ENERGY PREDICTED BY IDOCK:   -7.89 KCAL/MOL
REMARK 923 INTER-LIGAND FREE ENERGY PREDICTED BY IDOCK:   -6.50 KCAL/MOL
REMARK 924 INTRA-LIGAND FREE ENERGY PREDICTED BY IDOCK:   -1.39 KCAL/MOL
REMARK 927      BINDING AFFINITY PREDICTED BY RF-SCORE:    0.00 PKD
ROOT
HETATM    1 NA   UNL     1     -12.721  16.102  70.833  1.00  0.00    -0.414 Na 
HETATM    2  C   UNL     2     -12.103   9.371  71.294  1.00  0.00    -0.424 C  
HETATM    3  C   UNL     2     -12.656  10.731  70.895  1.00  0.00    -0.498 C  
ENDROOT
BRANCH   3   4
HETATM    4  C   UNL     2     -11.957  11.251  69.642  1.00  0.00    -0.423 C  
BRANCH   4   5
HETATM    5  C   UNL     2     -11.142  10.159  68.946  1.00  0.00    -0.251 C  
BRANCH   5   6
HETATM    6  C   UNL     2     -10.909  10.445  67.457  1.00  0.00    -0.358 C  
BRANCH   6   7
HETATM    7  C   UNL     2      -9.489  10.937  67.181  1.00  0.00    -0.178 C  
BRANCH   7   8
HETATM    8  C   UNL     2      -9.306  11.465  65.760  1.00  0.00    -0.247 C  
BRANCH   8   9
HETATM    9  C   UNL     2     -10.228  10.753  64.760  1.00  0.00    -0.403 C  
BRANCH   9  10
HETATM   10  C   UNL     2     -10.918  11.676  63.747  1.00  0.00    -0.495 C  
BRANCH  10  11
HETATM   11  C   UNL     2     -11.221  13.064  64.317  1.00  0.00    -0.411 C  
BRANCH  11  12
HETATM   12  C   UNL     2     -12.531  13.127  65.111  1.00  0.00    -0.539 C  
BRANCH  12  13
HETATM   13  C   UNL     2     -12.405  13.845  66.458  1.00  0.00    -0.404 C  
BRANCH  13  14
HETATM   14  O   UNL     2     -11.456  14.889  66.334  1.00  0.00    -0.344 OA 
HETATM   15  S   UNL     2     -10.753  15.450  67.690  1.00  0.00    -0.298 S  
HETATM   16  O   UNL     2      -9.805  16.447  67.182  1.00  0.00    -0.240 OA 
HETATM   17  O   UNL     2     -10.105  14.279  68.270  1.00  0.00    -0.225 OA 
HETATM   18  O   UNL     2     -11.851  16.001  68.464  1.00  0.00    -0.343 OA 
ENDBRANCH  13  14
ENDBRANCH  12  13
ENDBRANCH  11  12
ENDBRANCH  10  11
ENDBRANCH   9  10
ENDBRANCH   8   9
ENDBRANCH   7   8
ENDBRANCH   6   7
ENDBRANCH   5   6
ENDBRANCH   4   5
ENDBRANCH   3   4
TORSDOF 11
ENDMDL
MODEL       67
REMARK 921   NORMALIZED FREE ENERGY PREDICTED BY IDOCK:   -3.92 KCAL/MOL
REMARK 922        TOTAL FREE ENERGY PREDICTED BY IDOCK:   -7.87 KCAL/MOL
REMARK 923 INTER-LIGAND FREE ENERGY PREDICTED BY IDOCK:   -6.93 KCAL/MOL
REMARK 924 INTRA-LIGAND FREE ENERGY PREDICTED BY IDOCK:   -0.94 KCAL/MOL
REMARK 927      BINDING AFFINITY PREDICTED BY RF-SCORE:    0.00 PKD
ROOT
HETATM    1 NA   UNL     1     -12.316  16.376  73.928  1.00  0.00    -0.364 Na 
HETATM    2  C   UNL     2     -13.056  10.024  71.691  1.00  0.00    -0.547 C  
HETATM    3  C   UNL     2     -13.278  11.521  71.838  1.00  0.00    -0.479 C  
ENDROOT
BRANCH   3   4
HETATM    4  C   UNL     2     -12.321  12.300  70.941  1.00  0.00    -0.363 C  
BRANCH   4   5
HETATM    5  C   UNL     2     -11.860  11.471  69.740  1.00  0.00    -0.429 C  
BRANCH   5   6
HETATM    6  C   UNL     2     -11.646  12.318  68.478  1.00  0.00    -0.359 C  
BRANCH   6   7
HETATM    7  C   UNL     2     -11.175  11.474  67.294  1.00  0.00    -0.365 C  
BRANCH   7   8
HETATM    8  C   UNL     2      -9.659  11.495  67.111  1.00  0.00    -0.189 C  
BRANCH   8   9
HETATM    9  C   UNL     2      -9.232  10.853  65.783  1.00  0.00    -0.224 C  
BRANCH   9  10
HETATM   10  C   UNL     2     -10.386  10.514  64.829  1.00  0.00    -0.300 C  
BRANCH  10  11
HETATM   11  C   UNL     2     -10.641  11.609  63.791  1.00  0.00    -0.473 C  
BRANCH  11  12
HETATM   12  C   UNL     2     -12.044  12.220  63.878  1.00  0.00    -0.598 C  
BRANCH  12  13
HETATM   13  C   UNL     2     -12.054  13.751  63.904  1.00  0.00    -0.376 C  
BRANCH  13  14
HETATM   14  O   UNL     2     -12.057  14.187  65.252  1.00  0.00    -0.370 OA 
HETATM   15  S   UNL     2     -10.873  15.193  65.735  1.00  0.00    -0.365 S  
HETATM   16  O   UNL     2     -11.229  15.477  67.129  1.00  0.00    -0.299 OA 
HETATM   17  O   UNL     2     -11.005  16.350  64.857  1.00  0.00    -0.600 OA 
HETATM   18  O   UNL     2      -9.655  14.422  65.569  1.00  0.00    -0.233 OA 
ENDBRANCH  13  14
ENDBRANCH  12  13
ENDBRANCH  11  12
ENDBRANCH  10  11
ENDBRANCH   9  10
ENDBRANCH   8   9
ENDBRANCH   7   8
ENDBRANCH   6   7
ENDBRANCH   5   6
ENDBRANCH   4   5
ENDBRANCH   3   4
TORSDOF 11
ENDMDL
MODEL       68
REMARK 921   NORMALIZED FREE ENERGY PREDICTED BY IDOCK:   -3.92 KCAL/MOL
REMARK 922        TOTAL FREE ENERGY PREDICTED BY IDOCK:   -7.87 KCAL/MOL
REMARK 923 INTER-LIGAND FREE ENERGY PREDICTED BY IDOCK:   -6.50 KCAL/MOL
REMARK 924 INTRA-LIGAND FREE ENERGY PREDICTED BY IDOCK:   -1.37 KCAL/MOL
REMARK 927      BINDING AFFINITY PREDICTED BY RF-SCORE:    0.00 PKD
ROOT
HETATM    1 NA   UNL     1     -11.752   4.698  65.483  1.00  0.00    -0.555 Na 
HETATM    2  C   UNL     2     -11.815   7.915  71.444  1.00  0.00    -0.328 C  
HETATM    3  C   UNL     2     -12.020   6.818  70.411  1.00  0.00    -0.343 C  
ENDROOT
BRANCH   3   4
HETATM    4  C   UNL     2     -10.762   5.966  70.273  1.00  0.00    -0.383 C  
BRANCH   4   5
HETATM    5  C   UNL     2     -10.222   5.968  68.841  1.00  0.00    -0.246 C  
BRANCH   5   6
HETATM    6  C   UNL     2     -11.269   6.413  67.810  1.00  0.00    -0.258 C  
BRANCH   6   7
HETATM    7  C   UNL     2     -10.767   7.566  66.942  1.00  0.00    -0.299 C  
BRANCH   7   8
HETATM    8  C   UNL     2      -9.257   7.770  67.037  1.00  0.00    -0.176 C  
BRANCH   8   9
HETATM    9  C   UNL     2      -8.899   9.176  67.541  1.00  0.00    -0.124 C  
BRANCH   9  10
HETATM   10  C   UNL     2      -9.571   9.581  68.860  1.00  0.00    -0.156 C  
BRANCH  10  11
HETATM   11  C   UNL     2     -10.214  10.969  68.798  1.00  0.00    -0.211 C  
BRANCH  11  12
HETATM   12  C   UNL     2     -11.480  11.020  67.935  1.00  0.00    -0.358 C  
BRANCH  12  13
HETATM   13  C   UNL     2     -11.503  12.179  66.934  1.00  0.00    -0.351 C  
BRANCH  13  14
HETATM   14  O   UNL     2     -12.156  11.751  65.752  1.00  0.00    -0.357 OA 
HETATM   15  S   UNL     2     -12.381  12.840  64.564  1.00  0.00    -0.439 S  
HETATM   16  O   UNL     2     -13.007  12.046  63.503  1.00  0.00    -0.774 OA 
HETATM   17  O   UNL     2     -11.035  13.292  64.231  1.00  0.00    -0.378 OA 
HETATM   18  O   UNL     2     -13.247  13.845  65.156  1.00  0.00    -0.768 OA 
ENDBRANCH  13  14
ENDBRANCH  12  13
ENDBRANCH  11  12
ENDBRANCH  10  11
ENDBRANCH   9  10
ENDBRANCH   8   9
ENDBRANCH   7   8
ENDBRANCH   6   7
ENDBRANCH   5   6
ENDBRANCH   4   5
ENDBRANCH   3   4
TORSDOF 11
ENDMDL
MODEL       69
REMARK 921   NORMALIZED FREE ENERGY PREDICTED BY IDOCK:   -3.92 KCAL/MOL
REMARK 922        TOTAL FREE ENERGY PREDICTED BY IDOCK:   -7.87 KCAL/MOL
REMARK 923 INTER-LIGAND FREE ENERGY PREDICTED BY IDOCK:   -7.17 KCAL/MOL
REMARK 924 INTRA-LIGAND FREE ENERGY PREDICTED BY IDOCK:   -0.70 KCAL/MOL
REMARK 927      BINDING AFFINITY PREDICTED BY RF-SCORE:    0.00 PKD
ROOT
HETATM    1 NA   UNL     1     -13.588  16.380  71.107  1.00  0.00    -0.507 Na 
HETATM    2  C   UNL     2     -10.376  19.955  66.332  1.00  0.00    -0.611 C  
HETATM    3  C   UNL     2     -10.608  19.161  67.608  1.00  0.00    -0.546 C  
ENDROOT
BRANCH   3   4
HETATM    4  C   UNL     2     -10.467  17.665  67.346  1.00  0.00    -0.356 C  
BRANCH   4   5
HETATM    5  C   UNL     2     -10.546  16.847  68.637  1.00  0.00    -0.360 C  
BRANCH   5   6
HETATM    6  C   UNL     2     -11.174  15.462  68.429  1.00  0.00    -0.318 C  
BRANCH   6   7
HETATM    7  C   UNL     2     -11.266  15.090  66.950  1.00  0.00    -0.323 C  
BRANCH   7   8
HETATM    8  C   UNL     2     -12.207  13.917  66.687  1.00  0.00    -0.465 C  
BRANCH   8   9
HETATM    9  C   UNL     2     -12.602  13.818  65.206  1.00  0.00    -0.510 C  
BRANCH   9  10
HETATM   10  C   UNL     2     -12.527  12.407  64.609  1.00  0.00    -0.500 C  
BRANCH  10  11
HETATM   11  C   UNL     2     -11.625  12.330  63.374  1.00  0.00    -0.530 C  
BRANCH  11  12
HETATM   12  C   UNL     2     -10.388  11.445  63.573  1.00  0.00    -0.476 C  
BRANCH  12  13
HETATM   13  C   UNL     2      -9.951  11.309  65.034  1.00  0.00    -0.274 C  
BRANCH  13  14
HETATM   14  O   UNL     2     -10.169   9.974  65.455  1.00  0.00    -0.280 OA 
HETATM   15  S   UNL     2     -10.297   9.686  67.051  1.00  0.00    -0.236 S  
HETATM   16  O   UNL     2     -10.579   8.248  67.105  1.00  0.00    -0.317 OA 
HETATM   17  O   UNL     2     -11.422  10.511  67.476  1.00  0.00    -0.431 OA 
HETATM   18  O   UNL     2      -9.005  10.068  67.592  1.00  0.00    -0.131 OA 
ENDBRANCH  13  14
ENDBRANCH  12  13
ENDBRANCH  11  12
ENDBRANCH  10  11
ENDBRANCH   9  10
ENDBRANCH   8   9
ENDBRANCH   7   8
ENDBRANCH   6   7
ENDBRANCH   5   6
ENDBRANCH   4   5
ENDBRANCH   3   4
TORSDOF 11
ENDMDL
MODEL       70
REMARK 921   NORMALIZED FREE ENERGY PREDICTED BY IDOCK:   -3.91 KCAL/MOL
REMARK 922        TOTAL FREE ENERGY PREDICTED BY IDOCK:   -7.86 KCAL/MOL
REMARK 923 INTER-LIGAND FREE ENERGY PREDICTED BY IDOCK:   -6.72 KCAL/MOL
REMARK 924 INTRA-LIGAND FREE ENERGY PREDICTED BY IDOCK:   -1.14 KCAL/MOL
REMARK 927      BINDING AFFINITY PREDICTED BY RF-SCORE:    0.00 PKD
ROOT
HETATM    1 NA   UNL     1     -13.051  13.096  63.572  1.00  0.00    -0.635 Na 
HETATM    2  C   UNL     2     -10.164   8.523  67.651  1.00  0.00    -0.297 C  
HETATM    3  C   UNL     2     -10.365   9.806  66.860  1.00  0.00    -0.301 C  
ENDROOT
BRANCH   3   4
HETATM    4  C   UNL     2     -11.169  10.819  67.671  1.00  0.00    -0.370 C  
BRANCH   4   5
HETATM    5  C   UNL     2     -10.749  10.838  69.142  1.00  0.00    -0.265 C  
BRANCH   5   6
HETATM    6  C   UNL     2     -11.744  11.589  70.037  1.00  0.00    -0.414 C  
BRANCH   6   7
HETATM    7  C   UNL     2     -12.711  10.640  70.744  1.00  0.00    -0.468 C  
BRANCH   7   8
HETATM    8  C   UNL     2     -13.380  11.270  71.963  1.00  0.00    -0.386 C  
BRANCH   8   9
HETATM    9  C   UNL     2     -12.979  12.741  72.142  1.00  0.00    -0.344 C  
BRANCH   9  10
HETATM   10  C   UNL     2     -14.143  13.739  72.095  1.00  0.00    -0.604 C  
BRANCH  10  11
HETATM   11  C   UNL     2     -13.720  15.123  71.594  1.00  0.00    -0.578 C  
BRANCH  11  12
HETATM   12  C   UNL     2     -12.214  15.383  71.712  1.00  0.00    -0.450 C  
BRANCH  12  13
HETATM   13  C   UNL     2     -11.582  15.958  70.442  1.00  0.00    -0.371 C  
BRANCH  13  14
HETATM   14  O   UNL     2     -10.636  15.030  69.940  1.00  0.00    -0.239 OA 
HETATM   15  S   UNL     2     -10.462  14.911  68.326  1.00  0.00    -0.244 S  
HETATM   16  O   UNL     2      -9.381  13.931  68.182  1.00  0.00    -0.191 OA 
HETATM   17  O   UNL     2     -10.085  16.255  67.905  1.00  0.00    -0.238 OA 
HETATM   18  O   UNL     2     -11.757  14.452  67.857  1.00  0.00    -0.325 OA 
ENDBRANCH  13  14
ENDBRANCH  12  13
ENDBRANCH  11  12
ENDBRANCH  10  11
ENDBRANCH   9  10
ENDBRANCH   8   9
ENDBRANCH   7   8
ENDBRANCH   6   7
ENDBRANCH   5   6
ENDBRANCH   4   5
ENDBRANCH   3   4
TORSDOF 11
ENDMDL
MODEL       71
REMARK 921   NORMALIZED FREE ENERGY PREDICTED BY IDOCK:   -3.91 KCAL/MOL
REMARK 922        TOTAL FREE ENERGY PREDICTED BY IDOCK:   -7.85 KCAL/MOL
REMARK 923 INTER-LIGAND FREE ENERGY PREDICTED BY IDOCK:   -7.19 KCAL/MOL
REMARK 924 INTRA-LIGAND FREE ENERGY PREDICTED BY IDOCK:   -0.67 KCAL/MOL
REMARK 927      BINDING AFFINITY PREDICTED BY RF-SCORE:    0.00 PKD
ROOT
HETATM    1 NA   UNL     1      -7.749   8.893  69.284  1.00  0.00    -0.076 Na 
HETATM    2  C   UNL     2     -14.046   8.204  71.685  1.00  0.00    -0.504 C  
HETATM    3  C   UNL     2     -12.531   8.327  71.665  1.00  0.00    -0.351 C  
ENDROOT
BRANCH   3   4
HETATM    4  C   UNL     2     -12.108   9.793  71.676  1.00  0.00    -0.475 C  
BRANCH   4   5
HETATM    5  C   UNL     2     -13.281  10.725  71.987  1.00  0.00    -0.466 C  
BRANCH   5   6
HETATM    6  C   UNL     2     -13.101  12.129  71.395  1.00  0.00    -0.284 C  
BRANCH   6   7
HETATM    7  C   UNL     2     -13.338  13.225  72.433  1.00  0.00    -0.616 C  
BRANCH   7   8
HETATM    8  C   UNL     2     -14.173  14.385  71.895  1.00  0.00    -0.610 C  
BRANCH   8   9
HETATM    9  C   UNL     2     -13.331  15.653  71.696  1.00  0.00    -0.543 C  
BRANCH   9  10
HETATM   10  C   UNL     2     -12.043  15.453  70.886  1.00  0.00    -0.413 C  
BRANCH  10  11
HETATM   11  C   UNL     2     -12.297  15.351  69.380  1.00  0.00    -0.161 C  
BRANCH  11  12
HETATM   12  C   UNL     2     -11.866  14.009  68.776  1.00  0.00    -0.396 C  
BRANCH  12  13
HETATM   13  C   UNL     2     -11.144  14.137  67.432  1.00  0.00    -0.306 C  
BRANCH  13  14
HETATM   14  O   UNL     2     -11.064  15.508  67.083  1.00  0.00    -0.317 OA 
HETATM   15  S   UNL     2     -10.193  15.914  65.770  1.00  0.00    -0.384 S  
HETATM   16  O   UNL     2     -10.389  17.365  65.681  1.00  0.00    -0.589 OA 
HETATM   17  O   UNL     2     -10.821  15.178  64.680  1.00  0.00    -0.377 OA 
HETATM   18  O   UNL     2      -8.838  15.508  66.097  1.00  0.00    -0.320 OA 
ENDBRANCH  13  14
ENDBRANCH  12  13
ENDBRANCH  11  12
ENDBRANCH  10  11
ENDBRANCH   9  10
ENDBRANCH   8   9
ENDBRANCH   7   8
ENDBRANCH   6   7
ENDBRANCH   5   6
ENDBRANCH   4   5
ENDBRANCH   3   4
TORSDOF 11
ENDMDL
MODEL       72
REMARK 921   NORMALIZED FREE ENERGY PREDICTED BY IDOCK:   -3.91 KCAL/MOL
REMARK 922        TOTAL FREE ENERGY PREDICTED BY IDOCK:   -7.85 KCAL/MOL
REMARK 923 INTER-LIGAND FREE ENERGY PREDICTED BY IDOCK:   -7.17 KCAL/MOL
REMARK 924 INTRA-LIGAND FREE ENERGY PREDICTED BY IDOCK:   -0.69 KCAL/MOL
REMARK 927      BINDING AFFINITY PREDICTED BY RF-SCORE:    0.00 PKD
ROOT
HETATM    1 NA   UNL     1     -13.539  11.523  72.804  1.00  0.00    -0.607 Na 
HETATM    2  C   UNL     2      -8.303   7.245  73.227  1.00  0.00    -0.146 C  
HETATM    3  C   UNL     2      -9.735   7.757  73.252  1.00  0.00    -0.357 C  
ENDROOT
BRANCH   3   4
HETATM    4  C   UNL     2     -10.344   7.725  71.854  1.00  0.00    -0.256 C  
BRANCH   4   5
HETATM    5  C   UNL     2     -11.806   8.178  71.856  1.00  0.00    -0.366 C  
BRANCH   5   6
HETATM    6  C   UNL     2     -11.960   9.695  71.685  1.00  0.00    -0.470 C  
BRANCH   6   7
HETATM    7  C   UNL     2     -12.114  10.095  70.218  1.00  0.00    -0.282 C  
BRANCH   7   8
HETATM    8  C   UNL     2     -11.984  11.600  69.993  1.00  0.00    -0.429 C  
BRANCH   8   9
HETATM    9  C   UNL     2     -11.001  11.927  68.859  1.00  0.00    -0.285 C  
BRANCH   9  10
HETATM   10  C   UNL     2     -10.893  13.417  68.507  1.00  0.00    -0.285 C  
BRANCH  10  11
HETATM   11  C   UNL     2     -11.908  14.281  69.261  1.00  0.00    -0.372 C  
BRANCH  11  12
HETATM   12  C   UNL     2     -11.306  15.568  69.839  1.00  0.00    -0.323 C  
BRANCH  12  13
HETATM   13  C   UNL     2     -11.313  15.623  71.369  1.00  0.00    -0.381 C  
BRANCH  13  14
HETATM   14  O   UNL     2     -12.153  14.594  71.861  1.00  0.00    -0.345 OA 
HETATM   15  S   UNL     2     -13.627  15.007  72.412  1.00  0.00    -0.504 S  
HETATM   16  O   UNL     2     -14.222  13.714  72.765  1.00  0.00    -0.676 OA 
HETATM   17  O   UNL     2     -14.271  15.648  71.272  1.00  0.00    -0.540 OA 
HETATM   18  O   UNL     2     -13.358  15.876  73.544  1.00  0.00    -0.542 OA 
ENDBRANCH  13  14
ENDBRANCH  12  13
ENDBRANCH  11  12
ENDBRANCH  10  11
ENDBRANCH   9  10
ENDBRANCH   8   9
ENDBRANCH   7   8
ENDBRANCH   6   7
ENDBRANCH   5   6
ENDBRANCH   4   5
ENDBRANCH   3   4
TORSDOF 11
ENDMDL
MODEL       73
REMARK 921   NORMALIZED FREE ENERGY PREDICTED BY IDOCK:   -3.91 KCAL/MOL
REMARK 922        TOTAL FREE ENERGY PREDICTED BY IDOCK:   -7.85 KCAL/MOL
REMARK 923 INTER-LIGAND FREE ENERGY PREDICTED BY IDOCK:   -6.88 KCAL/MOL
REMARK 924 INTRA-LIGAND FREE ENERGY PREDICTED BY IDOCK:   -0.97 KCAL/MOL
REMARK 927      BINDING AFFINITY PREDICTED BY RF-SCORE:    0.00 PKD
ROOT
HETATM    1 NA   UNL     1      -7.684  20.861  71.992  1.00  0.00    -0.795 Na 
HETATM    2  C   UNL     2      -8.562  17.091  66.432  1.00  0.00    -0.311 C  
HETATM    3  C   UNL     2      -8.336  17.452  67.893  1.00  0.00    -0.230 C  
ENDROOT
BRANCH   3   4
HETATM    4  C   UNL     2      -9.667  17.680  68.604  1.00  0.00    -0.332 C  
BRANCH   4   5
HETATM    5  C   UNL     2     -10.799  16.865  67.975  1.00  0.00    -0.338 C  
BRANCH   5   6
HETATM    6  C   UNL     2     -11.283  15.721  68.877  1.00  0.00    -0.332 C  
BRANCH   6   7
HETATM    7  C   UNL     2     -11.857  14.557  68.070  1.00  0.00    -0.350 C  
BRANCH   7   8
HETATM    8  C   UNL     2     -11.475  14.610  66.592  1.00  0.00    -0.363 C  
BRANCH   8   9
HETATM    9  C   UNL     2     -12.513  13.906  65.707  1.00  0.00    -0.530 C  
BRANCH   9  10
HETATM   10  C   UNL     2     -12.081  13.691  64.250  1.00  0.00    -0.480 C  
BRANCH  10  11
HETATM   11  C   UNL     2     -12.224  12.236  63.796  1.00  0.00    -0.642 C  
BRANCH  11  12
HETATM   12  C   UNL     2     -10.881  11.535  63.554  1.00  0.00    -0.473 C  
BRANCH  12  13
HETATM   13  C   UNL     2      -9.999  11.436  64.801  1.00  0.00    -0.267 C  
BRANCH  13  14
HETATM   14  O   UNL     2     -10.181  10.160  65.391  1.00  0.00    -0.298 OA 
HETATM   15  S   UNL     2     -10.385  10.084  67.003  1.00  0.00    -0.238 S  
HETATM   16  O   UNL     2     -10.605   8.653  67.240  1.00  0.00    -0.291 OA 
HETATM   17  O   UNL     2     -11.565  10.901  67.256  1.00  0.00    -0.475 OA 
HETATM   18  O   UNL     2      -9.141  10.600  67.548  1.00  0.00    -0.139 OA 
ENDBRANCH  13  14
ENDBRANCH  12  13
ENDBRANCH  11  12
ENDBRANCH  10  11
ENDBRANCH   9  10
ENDBRANCH   8   9
ENDBRANCH   7   8
ENDBRANCH   6   7
ENDBRANCH   5   6
ENDBRANCH   4   5
ENDBRANCH   3   4
TORSDOF 11
ENDMDL
MODEL       74
REMARK 921   NORMALIZED FREE ENERGY PREDICTED BY IDOCK:   -3.90 KCAL/MOL
REMARK 922        TOTAL FREE ENERGY PREDICTED BY IDOCK:   -7.85 KCAL/MOL
REMARK 923 INTER-LIGAND FREE ENERGY PREDICTED BY IDOCK:   -7.00 KCAL/MOL
REMARK 924 INTRA-LIGAND FREE ENERGY PREDICTED BY IDOCK:   -0.84 KCAL/MOL
REMARK 927      BINDING AFFINITY PREDICTED BY RF-SCORE:    0.00 PKD
ROOT
HETATM    1 NA   UNL     1     -14.101  15.996  70.020  1.00  0.00    -0.809 Na 
HETATM    2  C   UNL     2     -12.330  12.685  64.381  1.00  0.00    -0.523 C  
HETATM    3  C   UNL     2     -12.526  13.829  65.363  1.00  0.00    -0.532 C  
ENDROOT
BRANCH   3   4
HETATM    4  C   UNL     2     -11.346  13.921  66.327  1.00  0.00    -0.329 C  
BRANCH   4   5
HETATM    5  C   UNL     2     -11.694  14.720  67.584  1.00  0.00    -0.364 C  
BRANCH   5   6
HETATM    6  C   UNL     2     -11.911  13.831  68.815  1.00  0.00    -0.400 C  
BRANCH   6   7
HETATM    7  C   UNL     2     -11.289  12.446  68.640  1.00  0.00    -0.332 C  
BRANCH   7   8
HETATM    8  C   UNL     2     -11.808  11.426  69.651  1.00  0.00    -0.431 C  
BRANCH   8   9
HETATM    9  C   UNL     2     -12.407  12.103  70.892  1.00  0.00    -0.370 C  
BRANCH   9  10
HETATM   10  C   UNL     2     -13.138  11.157  71.855  1.00  0.00    -0.513 C  
BRANCH  10  11
HETATM   11  C   UNL     2     -13.512   9.821  71.207  1.00  0.00    -0.362 C  
BRANCH  11  12
HETATM   12  C   UNL     2     -13.512   8.643  72.188  1.00  0.00    -0.434 C  
BRANCH  12  13
HETATM   13  C   UNL     2     -13.124   7.306  71.552  1.00  0.00    -0.384 C  
BRANCH  13  14
HETATM   14  O   UNL     2     -11.807   6.971  71.955  1.00  0.00    -0.282 OA 
HETATM   15  S   UNL     2     -10.679   6.773  70.799  1.00  0.00    -0.243 S  
HETATM   16  O   UNL     2      -9.460   6.510  71.570  1.00  0.00    -0.158 OA 
HETATM   17  O   UNL     2     -10.655   8.052  70.099  1.00  0.00    -0.228 OA 
HETATM   18  O   UNL     2     -11.155   5.645  70.020  1.00  0.00    -0.310 OA 
ENDBRANCH  13  14
ENDBRANCH  12  13
ENDBRANCH  11  12
ENDBRANCH  10  11
ENDBRANCH   9  10
ENDBRANCH   8   9
ENDBRANCH   7   8
ENDBRANCH   6   7
ENDBRANCH   5   6
ENDBRANCH   4   5
ENDBRANCH   3   4
TORSDOF 11
ENDMDL
MODEL       75
REMARK 921   NORMALIZED FREE ENERGY PREDICTED BY IDOCK:   -3.90 KCAL/MOL
REMARK 922        TOTAL FREE ENERGY PREDICTED BY IDOCK:   -7.85 KCAL/MOL
REMARK 923 INTER-LIGAND FREE ENERGY PREDICTED BY IDOCK:   -5.93 KCAL/MOL
REMARK 924 INTRA-LIGAND FREE ENERGY PREDICTED BY IDOCK:   -1.92 KCAL/MOL
REMARK 927      BINDING AFFINITY PREDICTED BY RF-SCORE:    0.00 PKD
ROOT
HETATM    1 NA   UNL     1      -7.704  17.032  65.535  1.00  0.00    -0.283 Na 
HETATM    2  C   UNL     2     -12.882  12.787  64.496  1.00  0.00    -0.323 C  
HETATM    3  C   UNL     2     -11.672  13.662  64.207  1.00  0.00    -0.438 C  
ENDROOT
BRANCH   3   4
HETATM    4  C   UNL     2     -10.378  12.887  64.437  1.00  0.00    -0.393 C  
BRANCH   4   5
HETATM    5  C   UNL     2     -10.630  11.544  65.125  1.00  0.00    -0.350 C  
BRANCH   5   6
HETATM    6  C   UNL     2      -9.831  11.381  66.425  1.00  0.00    -0.242 C  
BRANCH   6   7
HETATM    7  C   UNL     2     -10.718  10.957  67.595  1.00  0.00    -0.288 C  
BRANCH   7   8
HETATM    8  C   UNL     2     -11.772  12.002  67.954  1.00  0.00    -0.393 C  
BRANCH   8   9
HETATM    9  C   UNL     2     -11.468  12.685  69.296  1.00  0.00    -0.354 C  
BRANCH   9  10
HETATM   10  C   UNL     2     -11.098  14.171  69.196  1.00  0.00    -0.295 C  
BRANCH  10  11
HETATM   11  C   UNL     2     -11.570  14.814  67.890  1.00  0.00    -0.373 C  
BRANCH  11  12
HETATM   12  C   UNL     2     -10.462  15.569  67.144  1.00  0.00    -0.286 C  
BRANCH  12  13
HETATM   13  C   UNL     2     -10.536  17.091  67.300  1.00  0.00    -0.267 C  
BRANCH  13  14
HETATM   14  O   UNL     2      -9.267  17.572  67.705  1.00  0.00    -0.240 OA 
HETATM   15  S   UNL     2      -8.895  19.122  67.375  1.00  0.00    -0.298 S  
HETATM   16  O   UNL     2      -7.570  19.280  67.984  1.00  0.00    -0.267 OA 
HETATM   17  O   UNL     2      -9.936  19.892  68.045  1.00  0.00    -0.388 OA 
HETATM   18  O   UNL     2      -8.903  19.193  65.924  1.00  0.00    -0.450 OA 
ENDBRANCH  13  14
ENDBRANCH  12  13
ENDBRANCH  11  12
ENDBRANCH  10  11
ENDBRANCH   9  10
ENDBRANCH   8   9
ENDBRANCH   7   8
ENDBRANCH   6   7
ENDBRANCH   5   6
ENDBRANCH   4   5
ENDBRANCH   3   4
TORSDOF 11
ENDMDL
MODEL       76
REMARK 921   NORMALIZED FREE ENERGY PREDICTED BY IDOCK:   -3.90 KCAL/MOL
REMARK 922        TOTAL FREE ENERGY PREDICTED BY IDOCK:   -7.85 KCAL/MOL
REMARK 923 INTER-LIGAND FREE ENERGY PREDICTED BY IDOCK:   -7.15 KCAL/MOL
REMARK 924 INTRA-LIGAND FREE ENERGY PREDICTED BY IDOCK:   -0.70 KCAL/MOL
REMARK 927      BINDING AFFINITY PREDICTED BY RF-SCORE:    0.00 PKD
ROOT
HETATM    1 NA   UNL     1     -11.306  20.959  70.279  1.00  0.00    -0.893 Na 
HETATM    2  C   UNL     2      -6.254  20.718  65.771  1.00  0.00    -0.276 C  
HETATM    3  C   UNL     2      -7.262  20.257  66.813  1.00  0.00    -0.311 C  
ENDROOT
BRANCH   3   4
HETATM    4  C   UNL     2      -8.589  19.890  66.155  1.00  0.00    -0.348 C  
BRANCH   4   5
HETATM    5  C   UNL     2      -9.777  20.125  67.090  1.00  0.00    -0.576 C  
BRANCH   5   6
HETATM    6  C   UNL     2     -10.685  18.895  67.223  1.00  0.00    -0.523 C  
BRANCH   6   7
HETATM    7  C   UNL     2      -9.923  17.591  66.986  1.00  0.00    -0.311 C  
BRANCH   7   8
HETATM    8  C   UNL     2     -10.434  16.813  65.775  1.00  0.00    -0.305 C  
BRANCH   8   9
HETATM    9  C   UNL     2     -10.427  15.298  66.023  1.00  0.00    -0.328 C  
BRANCH   9  10
HETATM   10  C   UNL     2     -11.754  14.588  65.721  1.00  0.00    -0.344 C  
BRANCH  10  11
HETATM   11  C   UNL     2     -12.262  13.750  66.898  1.00  0.00    -0.408 C  
BRANCH  11  12
HETATM   12  C   UNL     2     -11.141  13.066  67.690  1.00  0.00    -0.296 C  
BRANCH  12  13
HETATM   13  C   UNL     2     -11.198  13.329  69.197  1.00  0.00    -0.251 C  
BRANCH  13  14
HETATM   14  O   UNL     2     -12.233  14.260  69.462  1.00  0.00    -0.323 OA 
HETATM   15  S   UNL     2     -12.604  14.571  71.015  1.00  0.00    -0.365 S  
HETATM   16  O   UNL     2     -13.642  15.601  70.906  1.00  0.00    -0.568 OA 
HETATM   17  O   UNL     2     -11.359  15.063  71.591  1.00  0.00    -0.360 OA 
HETATM   18  O   UNL     2     -13.071  13.299  71.536  1.00  0.00    -0.363 OA 
ENDBRANCH  13  14
ENDBRANCH  12  13
ENDBRANCH  11  12
ENDBRANCH  10  11
ENDBRANCH   9  10
ENDBRANCH   8   9
ENDBRANCH   7   8
ENDBRANCH   6   7
ENDBRANCH   5   6
ENDBRANCH   4   5
ENDBRANCH   3   4
TORSDOF 11
ENDMDL
MODEL       77
REMARK 921   NORMALIZED FREE ENERGY PREDICTED BY IDOCK:   -3.90 KCAL/MOL
REMARK 922        TOTAL FREE ENERGY PREDICTED BY IDOCK:   -7.85 KCAL/MOL
REMARK 923 INTER-LIGAND FREE ENERGY PREDICTED BY IDOCK:   -6.36 KCAL/MOL
REMARK 924 INTRA-LIGAND FREE ENERGY PREDICTED BY IDOCK:   -1.49 KCAL/MOL
REMARK 927      BINDING AFFINITY PREDICTED BY RF-SCORE:    0.00 PKD
ROOT
HETATM    1 NA   UNL     1     -10.117  14.102  69.957  1.00  0.00    -0.412 Na 
HETATM    2  C   UNL     2     -10.628  19.451  65.831  1.00  0.00    -0.551 C  
HETATM    3  C   UNL     2     -10.499  18.643  67.114  1.00  0.00    -0.461 C  
ENDROOT
BRANCH   3   4
HETATM    4  C   UNL     2      -9.035  18.329  67.408  1.00  0.00    -0.257 C  
BRANCH   4   5
HETATM    5  C   UNL     2      -8.674  16.888  67.040  1.00  0.00    -0.230 C  
BRANCH   5   6
HETATM    6  C   UNL     2      -9.891  15.953  67.023  1.00  0.00    -0.236 C  
BRANCH   6   7
HETATM    7  C   UNL     2      -9.973  15.142  65.730  1.00  0.00    -0.375 C  
BRANCH   7   8
HETATM    8  C   UNL     2     -11.193  15.494  64.882  1.00  0.00    -0.396 C  
BRANCH   8   9
HETATM    9  C   UNL     2     -12.183  14.323  64.786  1.00  0.00    -0.456 C  
BRANCH   9  10
HETATM   10  C   UNL     2     -12.055  13.471  63.517  1.00  0.00    -0.425 C  
BRANCH  10  11
HETATM   11  C   UNL     2     -11.962  11.972  63.814  1.00  0.00    -0.588 C  
BRANCH  11  12
HETATM   12  C   UNL     2     -10.521  11.453  63.901  1.00  0.00    -0.444 C  
BRANCH  12  13
HETATM   13  C   UNL     2     -10.200  10.732  65.213  1.00  0.00    -0.285 C  
BRANCH  13  14
HETATM   14  O   UNL     2      -9.683  11.672  66.138  1.00  0.00    -0.216 OA 
HETATM   15  S   UNL     2     -10.307  11.690  67.641  1.00  0.00    -0.193 S  
HETATM   16  O   UNL     2      -9.504  12.713  68.319  1.00  0.00    -0.213 OA 
HETATM   17  O   UNL     2     -10.071  10.343  68.144  1.00  0.00    -0.149 OA 
HETATM   18  O   UNL     2     -11.701  12.048  67.448  1.00  0.00    -0.470 OA 
ENDBRANCH  13  14
ENDBRANCH  12  13
ENDBRANCH  11  12
ENDBRANCH  10  11
ENDBRANCH   9  10
ENDBRANCH   8   9
ENDBRANCH   7   8
ENDBRANCH   6   7
ENDBRANCH   5   6
ENDBRANCH   4   5
ENDBRANCH   3   4
TORSDOF 11
ENDMDL
MODEL       78
REMARK 921   NORMALIZED FREE ENERGY PREDICTED BY IDOCK:   -3.89 KCAL/MOL
REMARK 922        TOTAL FREE ENERGY PREDICTED BY IDOCK:   -7.83 KCAL/MOL
REMARK 923 INTER-LIGAND FREE ENERGY PREDICTED BY IDOCK:   -6.79 KCAL/MOL
REMARK 924 INTRA-LIGAND FREE ENERGY PREDICTED BY IDOCK:   -1.05 KCAL/MOL
REMARK 927      BINDING AFFINITY PREDICTED BY RF-SCORE:    0.00 PKD
ROOT
HETATM    1 NA   UNL     1     -13.029  14.165  67.631  1.00  0.00    -0.513 Na 
HETATM    2  C   UNL     2     -12.696   8.912  71.895  1.00  0.00    -0.436 C  
HETATM    3  C   UNL     2     -12.387  10.260  71.263  1.00  0.00    -0.506 C  
ENDROOT
BRANCH   3   4
HETATM    4  C   UNL     2     -13.317  11.339  71.810  1.00  0.00    -0.371 C  
BRANCH   4   5
HETATM    5  C   UNL     2     -12.843  12.746  71.436  1.00  0.00    -0.371 C  
BRANCH   5   6
HETATM    6  C   UNL     2     -13.748  13.849  72.002  1.00  0.00    -0.577 C  
BRANCH   6   7
HETATM    7  C   UNL     2     -13.441  15.214  71.387  1.00  0.00    -0.561 C  
BRANCH   7   8
HETATM    8  C   UNL     2     -12.141  15.823  71.905  1.00  0.00    -0.548 C  
BRANCH   8   9
HETATM    9  C   UNL     2     -11.042  15.826  70.833  1.00  0.00    -0.354 C  
BRANCH   9  10
HETATM   10  C   UNL     2     -11.516  16.200  69.422  1.00  0.00    -0.296 C  
BRANCH  10  11
HETATM   11  C   UNL     2     -10.606  15.647  68.322  1.00  0.00    -0.262 C  
BRANCH  11  12
HETATM   12  C   UNL     2      -9.930  14.323  68.696  1.00  0.00    -0.234 C  
BRANCH  12  13
HETATM   13  C   UNL     2      -9.949  13.279  67.576  1.00  0.00    -0.223 C  
BRANCH  13  14
HETATM   14  O   UNL     2      -9.857  11.987  68.151  1.00  0.00    -0.190 OA 
HETATM   15  S   UNL     2     -10.776  10.802  67.521  1.00  0.00    -0.284 S  
HETATM   16  O   UNL     2     -10.378   9.626  68.301  1.00  0.00    -0.186 OA 
HETATM   17  O   UNL     2     -10.368  10.734  66.123  1.00  0.00    -0.243 OA 
HETATM   18  O   UNL     2     -12.140  11.243  67.751  1.00  0.00    -0.631 OA 
ENDBRANCH  13  14
ENDBRANCH  12  13
ENDBRANCH  11  12
ENDBRANCH  10  11
ENDBRANCH   9  10
ENDBRANCH   8   9
ENDBRANCH   7   8
ENDBRANCH   6   7
ENDBRANCH   5   6
ENDBRANCH   4   5
ENDBRANCH   3   4
TORSDOF 11
ENDMDL
MODEL       79
REMARK 921   NORMALIZED FREE ENERGY PREDICTED BY IDOCK:   -3.89 KCAL/MOL
REMARK 922        TOTAL FREE ENERGY PREDICTED BY IDOCK:   -7.83 KCAL/MOL
REMARK 923 INTER-LIGAND FREE ENERGY PREDICTED BY IDOCK:   -6.35 KCAL/MOL
REMARK 924 INTRA-LIGAND FREE ENERGY PREDICTED BY IDOCK:   -1.48 KCAL/MOL
REMARK 927      BINDING AFFINITY PREDICTED BY RF-SCORE:    0.00 PKD
ROOT
HETATM    1 NA   UNL     1     -12.093   6.516  67.908  1.00  0.00    -0.567 Na 
HETATM    2  C   UNL     2     -12.017  12.839  70.339  1.00  0.00    -0.331 C  
HETATM    3  C   UNL     2     -11.515  11.523  69.766  1.00  0.00    -0.362 C  
ENDROOT
BRANCH   3   4
HETATM    4  C   UNL     2     -11.595  11.533  68.242  1.00  0.00    -0.378 C  
BRANCH   4   5
HETATM    5  C   UNL     2     -10.788  10.392  67.618  1.00  0.00    -0.361 C  
BRANCH   5   6
HETATM    6  C   UNL     2      -9.843  10.867  66.507  1.00  0.00    -0.245 C  
BRANCH   6   7
HETATM    7  C   UNL     2      -8.375  10.765  66.919  1.00  0.00    -0.132 C  
BRANCH   7   8
HETATM    8  C   UNL     2      -7.691  12.126  67.031  1.00  0.00    -0.112 C  
BRANCH   8   9
HETATM    9  C   UNL     2      -8.016  12.824  68.360  1.00  0.00    -0.137 C  
BRANCH   9  10
HETATM   10  C   UNL     2      -8.531  14.263  68.225  1.00  0.00    -0.167 C  
BRANCH  10  11
HETATM   11  C   UNL     2      -9.935  14.337  67.619  1.00  0.00    -0.225 C  
BRANCH  11  12
HETATM   12  C   UNL     2      -9.988  15.094  66.286  1.00  0.00    -0.307 C  
BRANCH  12  13
HETATM   13  C   UNL     2     -10.221  14.193  65.070  1.00  0.00    -0.370 C  
BRANCH  13  14
HETATM   14  O   UNL     2     -11.435  13.486  65.250  1.00  0.00    -0.294 OA 
HETATM   15  S   UNL     2     -12.232  12.983  63.923  1.00  0.00    -0.427 S  
HETATM   16  O   UNL     2     -13.372  12.250  64.482  1.00  0.00    -0.769 OA 
HETATM   17  O   UNL     2     -11.275  12.126  63.233  1.00  0.00    -0.402 OA 
HETATM   18  O   UNL     2     -12.585  14.208  63.229  1.00  0.00    -0.766 OA 
ENDBRANCH  13  14
ENDBRANCH  12  13
ENDBRANCH  11  12
ENDBRANCH  10  11
ENDBRANCH   9  10
ENDBRANCH   8   9
ENDBRANCH   7   8
ENDBRANCH   6   7
ENDBRANCH   5   6
ENDBRANCH   4   5
ENDBRANCH   3   4
TORSDOF 11
ENDMDL
MODEL       80
REMARK 921   NORMALIZED FREE ENERGY PREDICTED BY IDOCK:   -3.89 KCAL/MOL
REMARK 922        TOTAL FREE ENERGY PREDICTED BY IDOCK:   -7.83 KCAL/MOL
REMARK 923 INTER-LIGAND FREE ENERGY PREDICTED BY IDOCK:   -6.89 KCAL/MOL
REMARK 924 INTRA-LIGAND FREE ENERGY PREDICTED BY IDOCK:   -0.94 KCAL/MOL
REMARK 927      BINDING AFFINITY PREDICTED BY RF-SCORE:    0.00 PKD
ROOT
HETATM    1 NA   UNL     1     -10.654  11.759  69.310  1.00  0.00    -0.196 Na 
HETATM    2  C   UNL     2     -12.506  16.089  74.180  1.00  0.00    -0.748 C  
HETATM    3  C   UNL     2     -12.030  15.577  72.829  1.00  0.00    -0.573 C  
ENDROOT
BRANCH   3   4
HETATM    4  C   UNL     2     -13.218  15.234  71.934  1.00  0.00    -0.506 C  
BRANCH   4   5
HETATM    5  C   UNL     2     -12.772  14.752  70.552  1.00  0.00    -0.397 C  
BRANCH   5   6
HETATM    6  C   UNL     2     -11.293  15.043  70.266  1.00  0.00    -0.300 C  
BRANCH   6   7
HETATM    7  C   UNL     2     -10.919  14.743  68.815  1.00  0.00    -0.267 C  
BRANCH   7   8
HETATM    8  C   UNL     2     -12.135  14.573  67.908  1.00  0.00    -0.261 C  
BRANCH   8   9
HETATM    9  C   UNL     2     -12.035  13.305  67.046  1.00  0.00    -0.419 C  
BRANCH   9  10
HETATM   10  C   UNL     2     -11.799  13.557  65.551  1.00  0.00    -0.388 C  
BRANCH  10  11
HETATM   11  C   UNL     2     -11.266  14.963  65.262  1.00  0.00    -0.369 C  
BRANCH  11  12
HETATM   12  C   UNL     2      -9.737  15.065  65.334  1.00  0.00    -0.227 C  
BRANCH  12  13
HETATM   13  C   UNL     2      -9.231  16.378  65.937  1.00  0.00    -0.199 C  
BRANCH  13  14
HETATM   14  O   UNL     2      -9.999  17.449  65.415  1.00  0.00    -0.479 OA 
HETATM   15  S   UNL     2     -10.154  18.792  66.319  1.00  0.00    -0.400 S  
HETATM   16  O   UNL     2     -10.933  19.684  65.454  1.00  0.00    -0.438 OA 
HETATM   17  O   UNL     2      -8.784  19.244  66.530  1.00  0.00    -0.317 OA 
HETATM   18  O   UNL     2     -10.854  18.346  67.511  1.00  0.00    -0.408 OA 
ENDBRANCH  13  14
ENDBRANCH  12  13
ENDBRANCH  11  12
ENDBRANCH  10  11
ENDBRANCH   9  10
ENDBRANCH   8   9
ENDBRANCH   7   8
ENDBRANCH   6   7
ENDBRANCH   5   6
ENDBRANCH   4   5
ENDBRANCH   3   4
TORSDOF 11
ENDMDL
MODEL       81
REMARK 921   NORMALIZED FREE ENERGY PREDICTED BY IDOCK:   -3.89 KCAL/MOL
REMARK 922        TOTAL FREE ENERGY PREDICTED BY IDOCK:   -7.82 KCAL/MOL
REMARK 923 INTER-LIGAND FREE ENERGY PREDICTED BY IDOCK:   -6.53 KCAL/MOL
REMARK 924 INTRA-LIGAND FREE ENERGY PREDICTED BY IDOCK:   -1.29 KCAL/MOL
REMARK 927      BINDING AFFINITY PREDICTED BY RF-SCORE:    0.00 PKD
ROOT
HETATM    1 NA   UNL     1     -11.939   5.273  65.248  1.00  0.00    -0.740 Na 
HETATM    2  C   UNL     2      -9.207   9.251  70.003  1.00  0.00    -0.231 C  
HETATM    3  C   UNL     2     -10.199   8.333  69.306  1.00  0.00    -0.207 C  
ENDROOT
BRANCH   3   4
HETATM    4  C   UNL     2      -9.856   6.869  69.566  1.00  0.00    -0.163 C  
BRANCH   4   5
HETATM    5  C   UNL     2     -11.048   6.093  70.130  1.00  0.00    -0.448 C  
BRANCH   5   6
HETATM    6  C   UNL     2     -11.021   5.987  71.661  1.00  0.00    -0.328 C  
BRANCH   6   7
HETATM    7  C   UNL     2     -11.821   7.105  72.327  1.00  0.00    -0.278 C  
BRANCH   7   8
HETATM    8  C   UNL     2     -13.196   7.314  71.695  1.00  0.00    -0.421 C  
BRANCH   8   9
HETATM    9  C   UNL     2     -13.619   8.790  71.717  1.00  0.00    -0.453 C  
BRANCH   9  10
HETATM   10  C   UNL     2     -12.482   9.784  71.987  1.00  0.00    -0.390 C  
BRANCH  10  11
HETATM   11  C   UNL     2     -12.821  11.210  71.543  1.00  0.00    -0.542 C  
BRANCH  11  12
HETATM   12  C   UNL     2     -11.954  11.712  70.382  1.00  0.00    -0.448 C  
BRANCH  12  13
HETATM   13  C   UNL     2     -12.125  13.204  70.081  1.00  0.00    -0.321 C  
BRANCH  13  14
HETATM   14  O   UNL     2     -12.083  13.395  68.678  1.00  0.00    -0.346 OA 
HETATM   15  S   UNL     2     -11.148  14.594  68.096  1.00  0.00    -0.286 S  
HETATM   16  O   UNL     2     -11.296  14.452  66.644  1.00  0.00    -0.332 OA 
HETATM   17  O   UNL     2      -9.810  14.270  68.576  1.00  0.00    -0.223 OA 
HETATM   18  O   UNL     2     -11.732  15.804  68.646  1.00  0.00    -0.375 OA 
ENDBRANCH  13  14
ENDBRANCH  12  13
ENDBRANCH  11  12
ENDBRANCH  10  11
ENDBRANCH   9  10
ENDBRANCH   8   9
ENDBRANCH   7   8
ENDBRANCH   6   7
ENDBRANCH   5   6
ENDBRANCH   4   5
ENDBRANCH   3   4
TORSDOF 11
ENDMDL
MODEL       82
REMARK 921   NORMALIZED FREE ENERGY PREDICTED BY IDOCK:   -3.88 KCAL/MOL
REMARK 922        TOTAL FREE ENERGY PREDICTED BY IDOCK:   -7.82 KCAL/MOL
REMARK 923 INTER-LIGAND FREE ENERGY PREDICTED BY IDOCK:   -6.36 KCAL/MOL
REMARK 924 INTRA-LIGAND FREE ENERGY PREDICTED BY IDOCK:   -1.45 KCAL/MOL
REMARK 927      BINDING AFFINITY PREDICTED BY RF-SCORE:    0.00 PKD
ROOT
HETATM    1 NA   UNL     1     -10.592   3.603  71.705  1.00  0.00    -0.162 Na 
HETATM    2  C   UNL     2     -10.227   8.306  66.842  1.00  0.00    -0.388 C  
HETATM    3  C   UNL     2     -10.635   7.617  68.135  1.00  0.00    -0.187 C  
ENDROOT
BRANCH   3   4
HETATM    4  C   UNL     2      -9.626   7.909  69.243  1.00  0.00    -0.157 C  
BRANCH   4   5
HETATM    5  C   UNL     2     -10.001   7.216  70.555  1.00  0.00    -0.191 C  
BRANCH   5   6
HETATM    6  C   UNL     2     -11.287   6.387  70.447  1.00  0.00    -0.453 C  
BRANCH   6   7
HETATM    7  C   UNL     2     -12.193   6.570  71.664  1.00  0.00    -0.353 C  
BRANCH   7   8
HETATM    8  C   UNL     2     -13.185   7.719  71.503  1.00  0.00    -0.356 C  
BRANCH   8   9
HETATM    9  C   UNL     2     -12.896   8.868  72.480  1.00  0.00    -0.401 C  
BRANCH   9  10
HETATM   10  C   UNL     2     -12.934  10.270  71.858  1.00  0.00    -0.554 C  
BRANCH  10  11
HETATM   11  C   UNL     2     -11.873  10.468  70.772  1.00  0.00    -0.465 C  
BRANCH  11  12
HETATM   12  C   UNL     2     -12.410  11.155  69.510  1.00  0.00    -0.262 C  
BRANCH  12  13
HETATM   13  C   UNL     2     -11.359  11.346  68.413  1.00  0.00    -0.281 C  
BRANCH  13  14
HETATM   14  O   UNL     2     -12.017  11.638  67.193  1.00  0.00    -0.614 OA 
HETATM   15  S   UNL     2     -11.693  13.059  66.469  1.00  0.00    -0.396 S  
HETATM   16  O   UNL     2     -12.479  12.986  65.234  1.00  0.00    -0.468 OA 
HETATM   17  O   UNL     2     -10.253  13.025  66.241  1.00  0.00    -0.274 OA 
HETATM   18  O   UNL     2     -12.150  14.059  67.417  1.00  0.00    -0.402 OA 
ENDBRANCH  13  14
ENDBRANCH  12  13
ENDBRANCH  11  12
ENDBRANCH  10  11
ENDBRANCH   9  10
ENDBRANCH   8   9
ENDBRANCH   7   8
ENDBRANCH   6   7
ENDBRANCH   5   6
ENDBRANCH   4   5
ENDBRANCH   3   4
TORSDOF 11
ENDMDL
MODEL       83
REMARK 921   NORMALIZED FREE ENERGY PREDICTED BY IDOCK:   -3.88 KCAL/MOL
REMARK 922        TOTAL FREE ENERGY PREDICTED BY IDOCK:   -7.81 KCAL/MOL
REMARK 923 INTER-LIGAND FREE ENERGY PREDICTED BY IDOCK:   -6.58 KCAL/MOL
REMARK 924 INTRA-LIGAND FREE ENERGY PREDICTED BY IDOCK:   -1.24 KCAL/MOL
REMARK 927      BINDING AFFINITY PREDICTED BY RF-SCORE:    0.00 PKD
ROOT
HETATM    1 NA   UNL     1     -14.055  11.759  64.077  1.00  0.00    -0.698 Na 
HETATM    2  C   UNL     2     -12.096  11.563  70.559  1.00  0.00    -0.472 C  
HETATM    3  C   UNL     2     -12.158  11.236  69.075  1.00  0.00    -0.325 C  
ENDROOT
BRANCH   3   4
HETATM    4  C   UNL     2     -11.276  12.190  68.275  1.00  0.00    -0.319 C  
BRANCH   4   5
HETATM    5  C   UNL     2      -9.905  11.582  67.969  1.00  0.00    -0.192 C  
BRANCH   5   6
HETATM    6  C   UNL     2      -9.932  10.049  67.914  1.00  0.00    -0.183 C  
BRANCH   6   7
HETATM    7  C   UNL     2     -10.004   9.526  66.479  1.00  0.00    -0.329 C  
BRANCH   7   8
HETATM    8  C   UNL     2      -9.090  10.287  65.521  1.00  0.00    -0.211 C  
BRANCH   8   9
HETATM    9  C   UNL     2      -9.664  10.333  64.097  1.00  0.00    -0.357 C  
BRANCH   9  10
HETATM   10  C   UNL     2     -10.894  11.234  63.925  1.00  0.00    -0.427 C  
BRANCH  10  11
HETATM   11  C   UNL     2     -10.530  12.710  63.744  1.00  0.00    -0.411 C  
BRANCH  11  12
HETATM   12  C   UNL     2     -11.385  13.660  64.592  1.00  0.00    -0.380 C  
BRANCH  12  13
HETATM   13  C   UNL     2     -10.575  14.520  65.566  1.00  0.00    -0.351 C  
BRANCH  13  14
HETATM   14  O   UNL     2     -10.754  15.885  65.230  1.00  0.00    -0.397 OA 
HETATM   15  S   UNL     2     -10.148  17.008  66.240  1.00  0.00    -0.316 S  
HETATM   16  O   UNL     2     -10.454  18.267  65.554  1.00  0.00    -0.616 OA 
HETATM   17  O   UNL     2      -8.722  16.711  66.295  1.00  0.00    -0.287 OA 
HETATM   18  O   UNL     2     -10.875  16.805  67.481  1.00  0.00    -0.307 OA 
ENDBRANCH  13  14
ENDBRANCH  12  13
ENDBRANCH  11  12
ENDBRANCH  10  11
ENDBRANCH   9  10
ENDBRANCH   8   9
ENDBRANCH   7   8
ENDBRANCH   6   7
ENDBRANCH   5   6
ENDBRANCH   4   5
ENDBRANCH   3   4
TORSDOF 11
ENDMDL
MODEL       84
REMARK 921   NORMALIZED FREE ENERGY PREDICTED BY IDOCK:   -3.87 KCAL/MOL
REMARK 922        TOTAL FREE ENERGY PREDICTED BY IDOCK:   -7.80 KCAL/MOL
REMARK 923 INTER-LIGAND FREE ENERGY PREDICTED BY IDOCK:   -7.00 KCAL/MOL
REMARK 924 INTRA-LIGAND FREE ENERGY PREDICTED BY IDOCK:   -0.80 KCAL/MOL
REMARK 927      BINDING AFFINITY PREDICTED BY RF-SCORE:    0.00 PKD
ROOT
HETATM    1 NA   UNL     1     -12.277   6.780  67.246  1.00  0.00    -0.647 Na 
HETATM    2  C   UNL     2     -10.480   7.331  73.754  1.00  0.00    -0.335 C  
HETATM    3  C   UNL     2     -10.657   7.687  72.286  1.00  0.00    -0.298 C  
ENDROOT
BRANCH   3   4
HETATM    4  C   UNL     2     -12.019   8.332  72.048  1.00  0.00    -0.405 C  
BRANCH   4   5
HETATM    5  C   UNL     2     -11.942   9.479  71.037  1.00  0.00    -0.407 C  
BRANCH   5   6
HETATM    6  C   UNL     2     -10.502   9.816  70.628  1.00  0.00    -0.358 C  
BRANCH   6   7
HETATM    7  C   UNL     2     -10.329   9.846  69.110  1.00  0.00    -0.225 C  
BRANCH   7   8
HETATM    8  C   UNL     2     -11.434  10.623  68.398  1.00  0.00    -0.330 C  
BRANCH   8   9
HETATM    9  C   UNL     2     -10.887  11.464  67.236  1.00  0.00    -0.311 C  
BRANCH   9  10
HETATM   10  C   UNL     2     -11.552  12.836  67.061  1.00  0.00    -0.422 C  
BRANCH  10  11
HETATM   11  C   UNL     2     -10.926  13.918  67.945  1.00  0.00    -0.265 C  
BRANCH  11  12
HETATM   12  C   UNL     2     -11.909  14.531  68.950  1.00  0.00    -0.359 C  
BRANCH  12  13
HETATM   13  C   UNL     2     -12.301  13.587  70.089  1.00  0.00    -0.275 C  
BRANCH  13  14
HETATM   14  O   UNL     2     -11.920  14.173  71.322  1.00  0.00    -0.325 OA 
HETATM   15  S   UNL     2     -13.092  14.546  72.387  1.00  0.00    -0.437 S  
HETATM   16  O   UNL     2     -12.341  15.055  73.539  1.00  0.00    -0.446 OA 
HETATM   17  O   UNL     2     -13.760  13.276  72.647  1.00  0.00    -0.674 OA 
HETATM   18  O   UNL     2     -13.896  15.544  71.704  1.00  0.00    -0.484 OA 
ENDBRANCH  13  14
ENDBRANCH  12  13
ENDBRANCH  11  12
ENDBRANCH  10  11
ENDBRANCH   9  10
ENDBRANCH   8   9
ENDBRANCH   7   8
ENDBRANCH   6   7
ENDBRANCH   5   6
ENDBRANCH   4   5
ENDBRANCH   3   4
TORSDOF 11
ENDMDL
MODEL       85
REMARK 921   NORMALIZED FREE ENERGY PREDICTED BY IDOCK:   -3.87 KCAL/MOL
REMARK 922        TOTAL FREE ENERGY PREDICTED BY IDOCK:   -7.80 KCAL/MOL
REMARK 923 INTER-LIGAND FREE ENERGY PREDICTED BY IDOCK:   -7.00 KCAL/MOL
REMARK 924 INTRA-LIGAND FREE ENERGY PREDICTED BY IDOCK:   -0.80 KCAL/MOL
REMARK 927      BINDING AFFINITY PREDICTED BY RF-SCORE:    0.00 PKD
ROOT
HETATM    1 NA   UNL     1     -11.019  19.598  71.617  1.00  0.00    -0.708 Na 
HETATM    2  C   UNL     2      -5.933  20.003  67.160  1.00  0.00    -0.197 C  
HETATM    3  C   UNL     2      -7.179  19.486  67.863  1.00  0.00    -0.306 C  
ENDROOT
BRANCH   3   4
HETATM    4  C   UNL     2      -8.429  20.170  67.316  1.00  0.00    -0.403 C  
BRANCH   4   5
HETATM    5  C   UNL     2      -9.689  19.754  68.079  1.00  0.00    -0.505 C  
BRANCH   5   6
HETATM    6  C   UNL     2     -10.709  19.027  67.194  1.00  0.00    -0.541 C  
BRANCH   6   7
HETATM    7  C   UNL     2     -10.552  17.508  67.265  1.00  0.00    -0.287 C  
BRANCH   7   8
HETATM    8  C   UNL     2     -10.034  17.025  68.618  1.00  0.00    -0.294 C  
BRANCH   8   9
HETATM    9  C   UNL     2     -11.138  16.356  69.450  1.00  0.00    -0.300 C  
BRANCH   9  10
HETATM   10  C   UNL     2     -10.888  14.882  69.791  1.00  0.00    -0.255 C  
BRANCH  10  11
HETATM   11  C   UNL     2     -11.759  13.925  68.973  1.00  0.00    -0.378 C  
BRANCH  11  12
HETATM   12  C   UNL     2     -11.041  13.335  67.753  1.00  0.00    -0.289 C  
BRANCH  12  13
HETATM   13  C   UNL     2     -11.987  12.751  66.699  1.00  0.00    -0.341 C  
BRANCH  13  14
HETATM   14  O   UNL     2     -11.215  12.203  65.645  1.00  0.00    -0.312 OA 
HETATM   15  S   UNL     2     -11.477  12.756  64.137  1.00  0.00    -0.427 S  
HETATM   16  O   UNL     2     -10.480  12.032  63.343  1.00  0.00    -0.427 OA 
HETATM   17  O   UNL     2     -11.215  14.188  64.229  1.00  0.00    -0.312 OA 
HETATM   18  O   UNL     2     -12.853  12.392  63.854  1.00  0.00    -0.718 OA 
ENDBRANCH  13  14
ENDBRANCH  12  13
ENDBRANCH  11  12
ENDBRANCH  10  11
ENDBRANCH   9  10
ENDBRANCH   8   9
ENDBRANCH   7   8
ENDBRANCH   6   7
ENDBRANCH   5   6
ENDBRANCH   4   5
ENDBRANCH   3   4
TORSDOF 11
ENDMDL
MODEL       86
REMARK 921   NORMALIZED FREE ENERGY PREDICTED BY IDOCK:   -3.86 KCAL/MOL
REMARK 922        TOTAL FREE ENERGY PREDICTED BY IDOCK:   -7.78 KCAL/MOL
REMARK 923 INTER-LIGAND FREE ENERGY PREDICTED BY IDOCK:   -6.82 KCAL/MOL
REMARK 924 INTRA-LIGAND FREE ENERGY PREDICTED BY IDOCK:   -0.96 KCAL/MOL
REMARK 927      BINDING AFFINITY PREDICTED BY RF-SCORE:    0.00 PKD
ROOT
HETATM    1 NA   UNL     1     -14.272  15.883  70.235  1.00  0.00    -0.834 Na 
HETATM    2  C   UNL     2     -12.305   9.582  71.758  1.00  0.00    -0.474 C  
HETATM    3  C   UNL     2     -12.858  10.751  70.959  1.00  0.00    -0.480 C  
ENDROOT
BRANCH   3   4
HETATM    4  C   UNL     2     -11.732  11.515  70.269  1.00  0.00    -0.379 C  
BRANCH   4   5
HETATM    5  C   UNL     2     -11.844  11.448  68.744  1.00  0.00    -0.388 C  
BRANCH   5   6
HETATM    6  C   UNL     2     -11.860  12.834  68.086  1.00  0.00    -0.372 C  
BRANCH   6   7
HETATM    7  C   UNL     2     -12.128  13.947  69.098  1.00  0.00    -0.377 C  
BRANCH   7   8
HETATM    8  C   UNL     2     -11.289  15.198  68.844  1.00  0.00    -0.314 C  
BRANCH   8   9
HETATM    9  C   UNL     2     -10.236  14.970  67.750  1.00  0.00    -0.236 C  
BRANCH   9  10
HETATM   10  C   UNL     2      -8.820  14.683  68.266  1.00  0.00    -0.176 C  
BRANCH  10  11
HETATM   11  C   UNL     2      -7.897  15.901  68.180  1.00  0.00    -0.134 C  
BRANCH  11  12
HETATM   12  C   UNL     2      -7.572  16.323  66.742  1.00  0.00    -0.285 C  
BRANCH  12  13
HETATM   13  C   UNL     2      -7.808  17.810  66.464  1.00  0.00    -0.266 C  
BRANCH  13  14
HETATM   14  O   UNL     2      -8.906  18.254  67.243  1.00  0.00    -0.250 OA 
HETATM   15  S   UNL     2     -10.149  18.970  66.475  1.00  0.00    -0.432 S  
HETATM   16  O   UNL     2     -11.102  19.226  67.559  1.00  0.00    -0.423 OA 
HETATM   17  O   UNL     2     -10.610  17.967  65.523  1.00  0.00    -0.639 OA 
HETATM   18  O   UNL     2      -9.569  20.165  65.888  1.00  0.00    -0.365 OA 
ENDBRANCH  13  14
ENDBRANCH  12  13
ENDBRANCH  11  12
ENDBRANCH  10  11
ENDBRANCH   9  10
ENDBRANCH   8   9
ENDBRANCH   7   8
ENDBRANCH   6   7
ENDBRANCH   5   6
ENDBRANCH   4   5
ENDBRANCH   3   4
TORSDOF 11
ENDMDL
MODEL       87
REMARK 921   NORMALIZED FREE ENERGY PREDICTED BY IDOCK:   -3.86 KCAL/MOL
REMARK 922        TOTAL FREE ENERGY PREDICTED BY IDOCK:   -7.78 KCAL/MOL
REMARK 923 INTER-LIGAND FREE ENERGY PREDICTED BY IDOCK:   -7.10 KCAL/MOL
REMARK 924 INTRA-LIGAND FREE ENERGY PREDICTED BY IDOCK:   -0.69 KCAL/MOL
REMARK 927      BINDING AFFINITY PREDICTED BY RF-SCORE:    0.00 PKD
ROOT
HETATM    1 NA   UNL     1     -13.058   6.850  69.787  1.00  0.00    -0.614 Na 
HETATM    2  C   UNL     2      -8.754   2.979  73.306  1.00  0.00    -0.080 C  
HETATM    3  C   UNL     2      -9.409   4.223  72.726  1.00  0.00    -0.146 C  
ENDROOT
BRANCH   3   4
HETATM    4  C   UNL     2     -10.561   4.688  73.611  1.00  0.00    -0.313 C  
BRANCH   4   5
HETATM    5  C   UNL     2     -11.375   5.804  72.952  1.00  0.00    -0.298 C  
BRANCH   5   6
HETATM    6  C   UNL     2     -10.729   6.334  71.665  1.00  0.00    -0.284 C  
BRANCH   6   7
HETATM    7  C   UNL     2     -10.678   7.861  71.635  1.00  0.00    -0.268 C  
BRANCH   7   8
HETATM    8  C   UNL     2     -11.957   8.511  72.158  1.00  0.00    -0.451 C  
BRANCH   8   9
HETATM    9  C   UNL     2     -12.378   9.717  71.305  1.00  0.00    -0.449 C  
BRANCH   9  10
HETATM   10  C   UNL     2     -11.284  10.266  70.379  1.00  0.00    -0.407 C  
BRANCH  10  11
HETATM   11  C   UNL     2     -11.850  10.942  69.127  1.00  0.00    -0.389 C  
BRANCH  11  12
HETATM   12  C   UNL     2     -10.775  11.569  68.231  1.00  0.00    -0.247 C  
BRANCH  12  13
HETATM   13  C   UNL     2     -11.292  12.705  67.344  1.00  0.00    -0.313 C  
BRANCH  13  14
HETATM   14  O   UNL     2     -12.054  12.150  66.287  1.00  0.00    -0.626 OA 
HETATM   15  S   UNL     2     -12.378  13.092  65.000  1.00  0.00    -0.478 S  
HETATM   16  O   UNL     2     -13.105  12.187  64.104  1.00  0.00    -0.694 OA 
HETATM   17  O   UNL     2     -11.065  13.473  64.495  1.00  0.00    -0.351 OA 
HETATM   18  O   UNL     2     -13.177  14.177  65.540  1.00  0.00    -0.688 OA 
ENDBRANCH  13  14
ENDBRANCH  12  13
ENDBRANCH  11  12
ENDBRANCH  10  11
ENDBRANCH   9  10
ENDBRANCH   8   9
ENDBRANCH   7   8
ENDBRANCH   6   7
ENDBRANCH   5   6
ENDBRANCH   4   5
ENDBRANCH   3   4
TORSDOF 11
ENDMDL
MODEL       88
REMARK 921   NORMALIZED FREE ENERGY PREDICTED BY IDOCK:   -3.86 KCAL/MOL
REMARK 922        TOTAL FREE ENERGY PREDICTED BY IDOCK:   -7.78 KCAL/MOL
REMARK 923 INTER-LIGAND FREE ENERGY PREDICTED BY IDOCK:   -6.74 KCAL/MOL
REMARK 924 INTRA-LIGAND FREE ENERGY PREDICTED BY IDOCK:   -1.03 KCAL/MOL
REMARK 927      BINDING AFFINITY PREDICTED BY RF-SCORE:    0.00 PKD
ROOT
HETATM    1 NA   UNL     1     -10.764   4.951  70.227  1.00  0.00    -0.233 Na 
HETATM    2  C   UNL     2     -12.985  11.232  71.460  1.00  0.00    -0.520 C  
HETATM    3  C   UNL     2     -12.151   9.964  71.569  1.00  0.00    -0.496 C  
ENDROOT
BRANCH   3   4
HETATM    4  C   UNL     2     -11.001   9.987  70.566  1.00  0.00    -0.392 C  
BRANCH   4   5
HETATM    5  C   UNL     2     -10.708   8.597  69.998  1.00  0.00    -0.233 C  
BRANCH   5   6
HETATM    6  C   UNL     2      -9.977   8.645  68.650  1.00  0.00    -0.197 C  
BRANCH   6   7
HETATM    7  C   UNL     2     -10.575   9.690  67.709  1.00  0.00    -0.320 C  
BRANCH   7   8
HETATM    8  C   UNL     2      -9.515  10.480  66.945  1.00  0.00    -0.191 C  
BRANCH   8   9
HETATM    9  C   UNL     2      -8.934  11.625  67.788  1.00  0.00    -0.170 C  
BRANCH   9  10
HETATM   10  C   UNL     2      -9.274  13.035  67.286  1.00  0.00    -0.213 C  
BRANCH  10  11
HETATM   11  C   UNL     2     -10.456  13.662  68.029  1.00  0.00    -0.251 C  
BRANCH  11  12
HETATM   12  C   UNL     2     -11.821  13.257  67.460  1.00  0.00    -0.403 C  
BRANCH  12  13
HETATM   13  C   UNL     2     -12.161  13.928  66.127  1.00  0.00    -0.464 C  
BRANCH  13  14
HETATM   14  O   UNL     2     -12.840  12.995  65.304  1.00  0.00    -0.642 OA 
HETATM   15  S   UNL     2     -12.339  12.824  63.766  1.00  0.00    -0.432 S  
HETATM   16  O   UNL     2     -13.204  11.756  63.254  1.00  0.00    -0.555 OA 
HETATM   17  O   UNL     2     -10.941  12.430  63.885  1.00  0.00    -0.346 OA 
HETATM   18  O   UNL     2     -12.570  14.126  63.165  1.00  0.00    -0.686 OA 
ENDBRANCH  13  14
ENDBRANCH  12  13
ENDBRANCH  11  12
ENDBRANCH  10  11
ENDBRANCH   9  10
ENDBRANCH   8   9
ENDBRANCH   7   8
ENDBRANCH   6   7
ENDBRANCH   5   6
ENDBRANCH   4   5
ENDBRANCH   3   4
TORSDOF 11
ENDMDL
MODEL       89
REMARK 921   NORMALIZED FREE ENERGY PREDICTED BY IDOCK:   -3.84 KCAL/MOL
REMARK 922        TOTAL FREE ENERGY PREDICTED BY IDOCK:   -7.75 KCAL/MOL
REMARK 923 INTER-LIGAND FREE ENERGY PREDICTED BY IDOCK:   -7.06 KCAL/MOL
REMARK 924 INTRA-LIGAND FREE ENERGY PREDICTED BY IDOCK:   -0.69 KCAL/MOL
REMARK 927      BINDING AFFINITY PREDICTED BY RF-SCORE:    0.00 PKD
ROOT
HETATM    1 NA   UNL     1     -13.355  11.863  72.489  1.00  0.00    -0.447 Na 
HETATM    2  C   UNL     2      -9.029   6.791  73.695  1.00  0.00    -0.163 C  
HETATM    3  C   UNL     2     -10.341   7.547  73.560  1.00  0.00    -0.373 C  
ENDROOT
BRANCH   3   4
HETATM    4  C   UNL     2     -10.853   7.488  72.124  1.00  0.00    -0.282 C  
BRANCH   4   5
HETATM    5  C   UNL     2     -12.302   7.970  72.012  1.00  0.00    -0.366 C  
BRANCH   5   6
HETATM    6  C   UNL     2     -12.443   9.240  71.162  1.00  0.00    -0.341 C  
BRANCH   6   7
HETATM    7  C   UNL     2     -11.088   9.792  70.723  1.00  0.00    -0.415 C  
BRANCH   7   8
HETATM    8  C   UNL     2     -11.068  10.235  69.262  1.00  0.00    -0.293 C  
BRANCH   8   9
HETATM    9  C   UNL     2     -11.903  11.504  69.036  1.00  0.00    -0.408 C  
BRANCH   9  10
HETATM   10  C   UNL     2     -11.466  12.360  67.840  1.00  0.00    -0.385 C  
BRANCH  10  11
HETATM   11  C   UNL     2      -9.954  12.599  67.800  1.00  0.00    -0.218 C  
BRANCH  11  12
HETATM   12  C   UNL     2      -9.422  12.916  66.397  1.00  0.00    -0.228 C  
BRANCH  12  13
HETATM   13  C   UNL     2     -10.484  12.833  65.297  1.00  0.00    -0.292 C  
BRANCH  13  14
HETATM   14  O   UNL     2     -10.782  14.143  64.848  1.00  0.00    -0.382 OA 
HETATM   15  S   UNL     2     -12.267  14.428  64.247  1.00  0.00    -0.323 S  
HETATM   16  O   UNL     2     -12.236  15.864  63.956  1.00  0.00    -0.719 OA 
HETATM   17  O   UNL     2     -13.169  14.078  65.338  1.00  0.00    -0.761 OA 
HETATM   18  O   UNL     2     -12.350  13.577  63.074  1.00  0.00    -0.661 OA 
ENDBRANCH  13  14
ENDBRANCH  12  13
ENDBRANCH  11  12
ENDBRANCH  10  11
ENDBRANCH   9  10
ENDBRANCH   8   9
ENDBRANCH   7   8
ENDBRANCH   6   7
ENDBRANCH   5   6
ENDBRANCH   4   5
ENDBRANCH   3   4
TORSDOF 11
ENDMDL
MODEL       90
REMARK 921   NORMALIZED FREE ENERGY PREDICTED BY IDOCK:   -3.84 KCAL/MOL
REMARK 922        TOTAL FREE ENERGY PREDICTED BY IDOCK:   -7.75 KCAL/MOL
REMARK 923 INTER-LIGAND FREE ENERGY PREDICTED BY IDOCK:   -7.15 KCAL/MOL
REMARK 924 INTRA-LIGAND FREE ENERGY PREDICTED BY IDOCK:   -0.60 KCAL/MOL
REMARK 927      BINDING AFFINITY PREDICTED BY RF-SCORE:    0.00 PKD
ROOT
HETATM    1 NA   UNL     1     -12.090   6.609  67.025  1.00  0.00    -0.715 Na 
HETATM    2  C   UNL     2     -10.186   7.559  73.457  1.00  0.00    -0.380 C  
HETATM    3  C   UNL     2     -10.585   7.875  72.024  1.00  0.00    -0.296 C  
ENDROOT
BRANCH   3   4
HETATM    4  C   UNL     2     -12.103   7.964  71.893  1.00  0.00    -0.352 C  
BRANCH   4   5
HETATM    5  C   UNL     2     -12.582   9.410  71.751  1.00  0.00    -0.470 C  
BRANCH   5   6
HETATM    6  C   UNL     2     -11.574  10.303  71.016  1.00  0.00    -0.430 C  
BRANCH   6   7
HETATM    7  C   UNL     2     -12.262  11.408  70.215  1.00  0.00    -0.433 C  
BRANCH   7   8
HETATM    8  C   UNL     2     -11.677  11.582  68.815  1.00  0.00    -0.397 C  
BRANCH   8   9
HETATM    9  C   UNL     2     -11.802  13.029  68.317  1.00  0.00    -0.381 C  
BRANCH   9  10
HETATM   10  C   UNL     2     -12.120  14.062  69.406  1.00  0.00    -0.386 C  
BRANCH  10  11
HETATM   11  C   UNL     2     -12.011  15.505  68.907  1.00  0.00    -0.306 C  
BRANCH  11  12
HETATM   12  C   UNL     2     -10.877  16.297  69.569  1.00  0.00    -0.342 C  
BRANCH  12  13
HETATM   13  C   UNL     2      -9.730  16.651  68.617  1.00  0.00    -0.248 C  
BRANCH  13  14
HETATM   14  O   UNL     2     -10.267  16.923  67.334  1.00  0.00    -0.283 OA 
HETATM   15  S   UNL     2     -10.112  18.430  66.743  1.00  0.00    -0.395 S  
HETATM   16  O   UNL     2     -10.706  18.323  65.407  1.00  0.00    -0.610 OA 
HETATM   17  O   UNL     2      -8.672  18.660  66.719  1.00  0.00    -0.274 OA 
HETATM   18  O   UNL     2     -10.860  19.260  67.670  1.00  0.00    -0.458 OA 
ENDBRANCH  13  14
ENDBRANCH  12  13
ENDBRANCH  11  12
ENDBRANCH  10  11
ENDBRANCH   9  10
ENDBRANCH   8   9
ENDBRANCH   7   8
ENDBRANCH   6   7
ENDBRANCH   5   6
ENDBRANCH   4   5
ENDBRANCH   3   4
TORSDOF 11
ENDMDL
MODEL       91
REMARK 921   NORMALIZED FREE ENERGY PREDICTED BY IDOCK:   -3.84 KCAL/MOL
REMARK 922        TOTAL FREE ENERGY PREDICTED BY IDOCK:   -7.75 KCAL/MOL
REMARK 923 INTER-LIGAND FREE ENERGY PREDICTED BY IDOCK:   -6.48 KCAL/MOL
REMARK 924 INTRA-LIGAND FREE ENERGY PREDICTED BY IDOCK:   -1.26 KCAL/MOL
REMARK 927      BINDING AFFINITY PREDICTED BY RF-SCORE:    0.00 PKD
ROOT
HETATM    1 NA   UNL     1     -13.774  13.493  65.448  1.00  0.00    -0.661 Na 
HETATM    2  C   UNL     2     -11.478  15.733  71.415  1.00  0.00    -0.496 C  
HETATM    3  C   UNL     2     -12.445  15.415  70.284  1.00  0.00    -0.413 C  
ENDROOT
BRANCH   3   4
HETATM    4  C   UNL     2     -12.973  13.989  70.412  1.00  0.00    -0.124 C  
BRANCH   4   5
HETATM    5  C   UNL     2     -13.262  13.613  71.867  1.00  0.00    -0.497 C  
BRANCH   5   6
HETATM    6  C   UNL     2     -13.102  12.111  72.138  1.00  0.00    -0.380 C  
BRANCH   6   7
HETATM    7  C   UNL     2     -12.761  11.332  70.869  1.00  0.00    -0.412 C  
BRANCH   7   8
HETATM    8  C   UNL     2     -11.646  10.309  71.079  1.00  0.00    -0.430 C  
BRANCH   8   9
HETATM    9  C   UNL     2     -10.649  10.300  69.911  1.00  0.00    -0.324 C  
BRANCH   9  10
HETATM   10  C   UNL     2     -11.284  10.406  68.518  1.00  0.00    -0.308 C  
BRANCH  10  11
HETATM   11  C   UNL     2     -10.683  11.534  67.675  1.00  0.00    -0.255 C  
BRANCH  11  12
HETATM   12  C   UNL     2     -11.718  12.560  67.198  1.00  0.00    -0.425 C  
BRANCH  12  13
HETATM   13  C   UNL     2     -11.153  13.611  66.239  1.00  0.00    -0.301 C  
BRANCH  13  14
HETATM   14  O   UNL     2     -11.353  14.898  66.799  1.00  0.00    -0.344 OA 
HETATM   15  S   UNL     2     -10.042  15.752  67.244  1.00  0.00    -0.252 S  
HETATM   16  O   UNL     2     -10.616  17.021  67.702  1.00  0.00    -0.339 OA 
HETATM   17  O   UNL     2      -9.263  15.879  66.018  1.00  0.00    -0.322 OA 
HETATM   18  O   UNL     2      -9.430  14.954  68.291  1.00  0.00    -0.199 OA 
ENDBRANCH  13  14
ENDBRANCH  12  13
ENDBRANCH  11  12
ENDBRANCH  10  11
ENDBRANCH   9  10
ENDBRANCH   8   9
ENDBRANCH   7   8
ENDBRANCH   6   7
ENDBRANCH   5   6
ENDBRANCH   4   5
ENDBRANCH   3   4
TORSDOF 11
ENDMDL
MODEL       92
REMARK 921   NORMALIZED FREE ENERGY PREDICTED BY IDOCK:   -3.84 KCAL/MOL
REMARK 922        TOTAL FREE ENERGY PREDICTED BY IDOCK:   -7.74 KCAL/MOL
REMARK 923 INTER-LIGAND FREE ENERGY PREDICTED BY IDOCK:   -6.78 KCAL/MOL
REMARK 924 INTRA-LIGAND FREE ENERGY PREDICTED BY IDOCK:   -0.96 KCAL/MOL
REMARK 927      BINDING AFFINITY PREDICTED BY RF-SCORE:    0.00 PKD
ROOT
HETATM    1 NA   UNL     1      -7.330  14.221  71.015  1.00  0.00    -0.398 Na 
HETATM    2  C   UNL     2     -14.018  14.344  72.088  1.00  0.00    -0.607 C  
HETATM    3  C   UNL     2     -12.563  14.789  72.084  1.00  0.00    -0.410 C  
ENDROOT
BRANCH   3   4
HETATM    4  C   UNL     2     -12.216  15.487  70.772  1.00  0.00    -0.450 C  
BRANCH   4   5
HETATM    5  C   UNL     2     -12.099  14.497  69.611  1.00  0.00    -0.369 C  
BRANCH   5   6
HETATM    6  C   UNL     2     -11.650  15.163  68.303  1.00  0.00    -0.357 C  
BRANCH   6   7
HETATM    7  C   UNL     2     -12.008  14.323  67.078  1.00  0.00    -0.463 C  
BRANCH   7   8
HETATM    8  C   UNL     2     -10.824  13.526  66.534  1.00  0.00    -0.283 C  
BRANCH   8   9
HETATM    9  C   UNL     2     -11.117  12.019  66.493  1.00  0.00    -0.362 C  
BRANCH   9  10
HETATM   10  C   UNL     2     -10.715  11.248  67.757  1.00  0.00    -0.265 C  
BRANCH  10  11
HETATM   11  C   UNL     2     -11.909  10.919  68.658  1.00  0.00    -0.269 C  
BRANCH  11  12
HETATM   12  C   UNL     2     -11.618  11.106  70.152  1.00  0.00    -0.410 C  
BRANCH  12  13
HETATM   13  C   UNL     2     -10.912   9.912  70.801  1.00  0.00    -0.337 C  
BRANCH  13  14
HETATM   14  O   UNL     2     -11.720   8.759  70.639  1.00  0.00    -0.260 OA 
HETATM   15  S   UNL     2     -12.552   8.220  71.930  1.00  0.00    -0.357 S  
HETATM   16  O   UNL     2     -13.306   7.086  71.385  1.00  0.00    -0.354 OA 
HETATM   17  O   UNL     2     -13.395   9.347  72.310  1.00  0.00    -0.430 OA 
HETATM   18  O   UNL     2     -11.528   7.855  72.892  1.00  0.00    -0.403 OA 
ENDBRANCH  13  14
ENDBRANCH  12  13
ENDBRANCH  11  12
ENDBRANCH  10  11
ENDBRANCH   9  10
ENDBRANCH   8   9
ENDBRANCH   7   8
ENDBRANCH   6   7
ENDBRANCH   5   6
ENDBRANCH   4   5
ENDBRANCH   3   4
TORSDOF 11
ENDMDL
MODEL       93
REMARK 921   NORMALIZED FREE ENERGY PREDICTED BY IDOCK:   -3.84 KCAL/MOL
REMARK 922        TOTAL FREE ENERGY PREDICTED BY IDOCK:   -7.74 KCAL/MOL
REMARK 923 INTER-LIGAND FREE ENERGY PREDICTED BY IDOCK:   -6.44 KCAL/MOL
REMARK 924 INTRA-LIGAND FREE ENERGY PREDICTED BY IDOCK:   -1.29 KCAL/MOL
REMARK 927      BINDING AFFINITY PREDICTED BY RF-SCORE:    0.00 PKD
ROOT
HETATM    1 NA   UNL     1      -8.955  12.324  64.172  1.00  0.00    -0.420 Na 
HETATM    2  C   UNL     2     -10.827   6.442  66.963  1.00  0.00    -0.464 C  
HETATM    3  C   UNL     2      -9.970   7.650  66.616  1.00  0.00    -0.284 C  
ENDROOT
BRANCH   3   4
HETATM    4  C   UNL     2     -10.271   8.812  67.558  1.00  0.00    -0.309 C  
BRANCH   4   5
HETATM    5  C   UNL     2      -9.870   8.499  69.001  1.00  0.00    -0.184 C  
BRANCH   5   6
HETATM    6  C   UNL     2     -10.125   9.670  69.959  1.00  0.00    -0.293 C  
BRANCH   6   7
HETATM    7  C   UNL     2     -10.781   9.215  71.262  1.00  0.00    -0.401 C  
BRANCH   7   8
HETATM    8  C   UNL     2     -11.968  10.085  71.667  1.00  0.00    -0.369 C  
BRANCH   8   9
HETATM    9  C   UNL     2     -12.294  11.144  70.604  1.00  0.00    -0.482 C  
BRANCH   9  10
HETATM   10  C   UNL     2     -12.590  12.545  71.155  1.00  0.00    -0.349 C  
BRANCH  10  11
HETATM   11  C   UNL     2     -12.069  13.664  70.250  1.00  0.00    -0.427 C  
BRANCH  11  12
HETATM   12  C   UNL     2     -11.445  13.154  68.945  1.00  0.00    -0.343 C  
BRANCH  12  13
HETATM   13  C   UNL     2     -12.238  13.531  67.690  1.00  0.00    -0.175 C  
BRANCH  13  14
HETATM   14  O   UNL     2     -11.360  14.142  66.760  1.00  0.00    -0.319 OA 
HETATM   15  S   UNL     2     -11.464  13.691  65.200  1.00  0.00    -0.328 S  
HETATM   16  O   UNL     2     -10.481  14.556  64.541  1.00  0.00    -0.317 OA 
HETATM   17  O   UNL     2     -12.841  13.993  64.830  1.00  0.00    -0.681 OA 
HETATM   18  O   UNL     2     -11.116  12.281  65.209  1.00  0.00    -0.298 OA 
ENDBRANCH  13  14
ENDBRANCH  12  13
ENDBRANCH  11  12
ENDBRANCH  10  11
ENDBRANCH   9  10
ENDBRANCH   8   9
ENDBRANCH   7   8
ENDBRANCH   6   7
ENDBRANCH   5   6
ENDBRANCH   4   5
ENDBRANCH   3   4
TORSDOF 11
ENDMDL
MODEL       94
REMARK 921   NORMALIZED FREE ENERGY PREDICTED BY IDOCK:   -3.83 KCAL/MOL
REMARK 922        TOTAL FREE ENERGY PREDICTED BY IDOCK:   -7.73 KCAL/MOL
REMARK 923 INTER-LIGAND FREE ENERGY PREDICTED BY IDOCK:   -6.45 KCAL/MOL
REMARK 924 INTRA-LIGAND FREE ENERGY PREDICTED BY IDOCK:   -1.28 KCAL/MOL
REMARK 927      BINDING AFFINITY PREDICTED BY RF-SCORE:    0.00 PKD
ROOT
HETATM    1 NA   UNL     1     -12.915  15.977  69.217  1.00  0.00    -0.561 Na 
HETATM    2  C   UNL     2     -12.463  11.791  63.910  1.00  0.00    -0.380 C  
HETATM    3  C   UNL     2     -12.140  12.936  64.858  1.00  0.00    -0.479 C  
ENDROOT
BRANCH   3   4
HETATM    4  C   UNL     2     -11.248  12.456  66.000  1.00  0.00    -0.374 C  
BRANCH   4   5
HETATM    5  C   UNL     2     -10.117  11.553  65.502  1.00  0.00    -0.286 C  
BRANCH   5   6
HETATM    6  C   UNL     2      -9.086  11.234  66.592  1.00  0.00    -0.187 C  
BRANCH   6   7
HETATM    7  C   UNL     2      -8.950   9.731  66.833  1.00  0.00    -0.154 C  
BRANCH   7   8
HETATM    8  C   UNL     2     -10.140   9.138  67.584  1.00  0.00    -0.273 C  
BRANCH   8   9
HETATM    9  C   UNL     2     -10.058   9.409  69.094  1.00  0.00    -0.200 C  
BRANCH   9  10
HETATM   10  C   UNL     2     -11.389   9.793  69.754  1.00  0.00    -0.201 C  
BRANCH  10  11
HETATM   11  C   UNL     2     -11.791  11.245  69.483  1.00  0.00    -0.427 C  
BRANCH  11  12
HETATM   12  C   UNL     2     -12.487  11.920  70.672  1.00  0.00    -0.347 C  
BRANCH  12  13
HETATM   13  C   UNL     2     -12.494  13.449  70.600  1.00  0.00    -0.311 C  
BRANCH  13  14
HETATM   14  O   UNL     2     -12.647  13.968  71.910  1.00  0.00    -0.317 OA 
HETATM   15  S   UNL     2     -13.064  15.533  72.069  1.00  0.00    -0.473 S  
HETATM   16  O   UNL     2     -13.194  15.694  73.520  1.00  0.00    -0.513 OA 
HETATM   17  O   UNL     2     -14.333  15.641  71.359  1.00  0.00    -0.524 OA 
HETATM   18  O   UNL     2     -11.956  16.263  71.479  1.00  0.00    -0.445 OA 
ENDBRANCH  13  14
ENDBRANCH  12  13
ENDBRANCH  11  12
ENDBRANCH  10  11
ENDBRANCH   9  10
ENDBRANCH   8   9
ENDBRANCH   7   8
ENDBRANCH   6   7
ENDBRANCH   5   6
ENDBRANCH   4   5
ENDBRANCH   3   4
TORSDOF 11
ENDMDL
MODEL       95
REMARK 921   NORMALIZED FREE ENERGY PREDICTED BY IDOCK:   -3.83 KCAL/MOL
REMARK 922        TOTAL FREE ENERGY PREDICTED BY IDOCK:   -7.72 KCAL/MOL
REMARK 923 INTER-LIGAND FREE ENERGY PREDICTED BY IDOCK:   -6.43 KCAL/MOL
REMARK 924 INTRA-LIGAND FREE ENERGY PREDICTED BY IDOCK:   -1.29 KCAL/MOL
REMARK 927      BINDING AFFINITY PREDICTED BY RF-SCORE:    0.00 PKD
ROOT
HETATM    1 NA   UNL     1     -12.748  16.542  70.941  1.00  0.00    -0.529 Na 
HETATM    2  C   UNL     2      -6.962  15.923  67.471  1.00  0.00    -0.209 C  
HETATM    3  C   UNL     2      -7.919  15.999  68.651  1.00  0.00    -0.174 C  
ENDROOT
BRANCH   3   4
HETATM    4  C   UNL     2      -8.517  14.627  68.950  1.00  0.00    -0.136 C  
BRANCH   4   5
HETATM    5  C   UNL     2     -10.036  14.611  68.764  1.00  0.00    -0.235 C  
BRANCH   5   6
HETATM    6  C   UNL     2     -10.553  13.281  68.200  1.00  0.00    -0.259 C  
BRANCH   6   7
HETATM    7  C   UNL     2      -9.542  12.622  67.264  1.00  0.00    -0.203 C  
BRANCH   7   8
HETATM    8  C   UNL     2     -10.181  12.051  66.000  1.00  0.00    -0.256 C  
BRANCH   8   9
HETATM    9  C   UNL     2     -11.712  11.985  66.112  1.00  0.00    -0.313 C  
BRANCH   9  10
HETATM   10  C   UNL     2     -12.473  12.770  65.036  1.00  0.00    -0.572 C  
BRANCH  10  11
HETATM   11  C   UNL     2     -12.481  14.279  65.296  1.00  0.00    -0.428 C  
BRANCH  11  12
HETATM   12  C   UNL     2     -11.456  15.050  64.457  1.00  0.00    -0.320 C  
BRANCH  12  13
HETATM   13  C   UNL     2     -10.483  15.892  65.287  1.00  0.00    -0.377 C  
BRANCH  13  14
HETATM   14  O   UNL     2     -10.863  17.254  65.196  1.00  0.00    -0.640 OA 
HETATM   15  S   UNL     2     -10.177  18.311  66.227  1.00  0.00    -0.377 S  
HETATM   16  O   UNL     2     -10.743  19.596  65.806  1.00  0.00    -0.516 OA 
HETATM   17  O   UNL     2      -8.748  18.194  65.963  1.00  0.00    -0.498 OA 
HETATM   18  O   UNL     2     -10.607  17.864  67.540  1.00  0.00    -0.388 OA 
ENDBRANCH  13  14
ENDBRANCH  12  13
ENDBRANCH  11  12
ENDBRANCH  10  11
ENDBRANCH   9  10
ENDBRANCH   8   9
ENDBRANCH   7   8
ENDBRANCH   6   7
ENDBRANCH   5   6
ENDBRANCH   4   5
ENDBRANCH   3   4
TORSDOF 11
ENDMDL
MODEL       96
REMARK 921   NORMALIZED FREE ENERGY PREDICTED BY IDOCK:   -3.81 KCAL/MOL
REMARK 922        TOTAL FREE ENERGY PREDICTED BY IDOCK:   -7.70 KCAL/MOL
REMARK 923 INTER-LIGAND FREE ENERGY PREDICTED BY IDOCK:   -6.52 KCAL/MOL
REMARK 924 INTRA-LIGAND FREE ENERGY PREDICTED BY IDOCK:   -1.17 KCAL/MOL
REMARK 927      BINDING AFFINITY PREDICTED BY RF-SCORE:    0.00 PKD
ROOT
HETATM    1 NA   UNL     1      -7.067   8.815  74.331  1.00  0.00    -0.141 Na 
HETATM    2  C   UNL     2     -12.395  10.488  70.495  1.00  0.00    -0.432 C  
HETATM    3  C   UNL     2     -11.206   9.700  71.024  1.00  0.00    -0.445 C  
ENDROOT
BRANCH   3   4
HETATM    4  C   UNL     2     -11.633   8.782  72.166  1.00  0.00    -0.434 C  
BRANCH   4   5
HETATM    5  C   UNL     2     -10.908   7.435  72.120  1.00  0.00    -0.273 C  
BRANCH   5   6
HETATM    6  C   UNL     2     -10.200   7.184  70.781  1.00  0.00    -0.208 C  
BRANCH   6   7
HETATM    7  C   UNL     2     -10.905   6.111  69.952  1.00  0.00    -0.420 C  
BRANCH   7   8
HETATM    8  C   UNL     2     -11.275   6.589  68.549  1.00  0.00    -0.287 C  
BRANCH   8   9
HETATM    9  C   UNL     2     -10.073   6.547  67.594  1.00  0.00    -0.180 C  
BRANCH   9  10
HETATM   10  C   UNL     2      -9.805   7.854  66.836  1.00  0.00    -0.309 C  
BRANCH  10  11
HETATM   11  C   UNL     2     -10.640   9.027  67.357  1.00  0.00    -0.309 C  
BRANCH  11  12
HETATM   12  C   UNL     2     -10.450  10.318  66.552  1.00  0.00    -0.241 C  
BRANCH  12  13
HETATM   13  C   UNL     2     -11.045  11.559  67.223  1.00  0.00    -0.293 C  
BRANCH  13  14
HETATM   14  O   UNL     2     -12.102  12.053  66.418  1.00  0.00    -0.610 OA 
HETATM   15  S   UNL     2     -12.039  13.607  65.940  1.00  0.00    -0.464 S  
HETATM   16  O   UNL     2     -13.227  13.740  65.092  1.00  0.00    -0.757 OA 
HETATM   17  O   UNL     2     -10.786  13.705  65.200  1.00  0.00    -0.304 OA 
HETATM   18  O   UNL     2     -12.093  14.366  67.177  1.00  0.00    -0.414 OA 
ENDBRANCH  13  14
ENDBRANCH  12  13
ENDBRANCH  11  12
ENDBRANCH  10  11
ENDBRANCH   9  10
ENDBRANCH   8   9
ENDBRANCH   7   8
ENDBRANCH   6   7
ENDBRANCH   5   6
ENDBRANCH   4   5
ENDBRANCH   3   4
TORSDOF 11
ENDMDL
MODEL       97
REMARK 921   NORMALIZED FREE ENERGY PREDICTED BY IDOCK:   -3.81 KCAL/MOL
REMARK 922        TOTAL FREE ENERGY PREDICTED BY IDOCK:   -7.69 KCAL/MOL
REMARK 923 INTER-LIGAND FREE ENERGY PREDICTED BY IDOCK:   -6.23 KCAL/MOL
REMARK 924 INTRA-LIGAND FREE ENERGY PREDICTED BY IDOCK:   -1.47 KCAL/MOL
REMARK 927      BINDING AFFINITY PREDICTED BY RF-SCORE:    0.00 PKD
ROOT
HETATM    1 NA   UNL     1     -11.940   4.704  65.424  1.00  0.00    -0.604 Na 
HETATM    2  C   UNL     2      -8.610  10.577  65.979  1.00  0.00    -0.166 C  
HETATM    3  C   UNL     2      -9.766   9.597  65.855  1.00  0.00    -0.343 C  
ENDROOT
BRANCH   3   4
HETATM    4  C   UNL     2     -10.192   9.088  67.229  1.00  0.00    -0.323 C  
BRANCH   4   5
HETATM    5  C   UNL     2      -9.397   9.750  68.357  1.00  0.00    -0.135 C  
BRANCH   5   6
HETATM    6  C   UNL     2     -10.290  10.268  69.492  1.00  0.00    -0.267 C  
BRANCH   6   7
HETATM    7  C   UNL     2     -11.477  11.074  68.966  1.00  0.00    -0.368 C  
BRANCH   7   8
HETATM    8  C   UNL     2     -11.216  12.579  68.949  1.00  0.00    -0.330 C  
BRANCH   8   9
HETATM    9  C   UNL     2     -11.821  13.252  67.708  1.00  0.00    -0.394 C  
BRANCH   9  10
HETATM   10  C   UNL     2     -11.911  12.355  66.466  1.00  0.00    -0.407 C  
BRANCH  10  11
HETATM   11  C   UNL     2     -11.369  13.032  65.203  1.00  0.00    -0.320 C  
BRANCH  11  12
HETATM   12  C   UNL     2     -10.190  13.975  65.472  1.00  0.00    -0.362 C  
BRANCH  12  13
HETATM   13  C   UNL     2     -10.466  15.434  65.098  1.00  0.00    -0.411 C  
BRANCH  13  14
HETATM   14  O   UNL     2     -10.798  16.154  66.273  1.00  0.00    -0.257 OA 
HETATM   15  S   UNL     2     -10.151  17.633  66.473  1.00  0.00    -0.361 S  
HETATM   16  O   UNL     2     -10.755  18.090  67.728  1.00  0.00    -0.410 OA 
HETATM   17  O   UNL     2     -10.602  18.384  65.307  1.00  0.00    -0.527 OA 
HETATM   18  O   UNL     2      -8.721  17.394  66.544  1.00  0.00    -0.241 OA 
ENDBRANCH  13  14
ENDBRANCH  12  13
ENDBRANCH  11  12
ENDBRANCH  10  11
ENDBRANCH   9  10
ENDBRANCH   8   9
ENDBRANCH   7   8
ENDBRANCH   6   7
ENDBRANCH   5   6
ENDBRANCH   4   5
ENDBRANCH   3   4
TORSDOF 11
ENDMDL
MODEL       98
REMARK 921   NORMALIZED FREE ENERGY PREDICTED BY IDOCK:   -3.81 KCAL/MOL
REMARK 922        TOTAL FREE ENERGY PREDICTED BY IDOCK:   -7.69 KCAL/MOL
REMARK 923 INTER-LIGAND FREE ENERGY PREDICTED BY IDOCK:   -6.41 KCAL/MOL
REMARK 924 INTRA-LIGAND FREE ENERGY PREDICTED BY IDOCK:   -1.28 KCAL/MOL
REMARK 927      BINDING AFFINITY PREDICTED BY RF-SCORE:    0.00 PKD
ROOT
HETATM    1 NA   UNL     1     -13.659  12.345  64.591  1.00  0.00    -0.692 Na 
HETATM    2  C   UNL     2     -12.566  10.796  71.095  1.00  0.00    -0.532 C  
HETATM    3  C   UNL     2     -12.388  10.828  69.585  1.00  0.00    -0.262 C  
ENDROOT
BRANCH   3   4
HETATM    4  C   UNL     2     -11.540  12.027  69.168  1.00  0.00    -0.370 C  
BRANCH   4   5
HETATM    5  C   UNL     2     -10.515  11.657  68.093  1.00  0.00    -0.217 C  
BRANCH   5   6
HETATM    6  C   UNL     2     -11.102  10.765  66.992  1.00  0.00    -0.245 C  
BRANCH   6   7
HETATM    7  C   UNL     2     -10.321  10.880  65.683  1.00  0.00    -0.305 C  
BRANCH   7   8
HETATM    8  C   UNL     2      -9.847  12.302  65.394  1.00  0.00    -0.209 C  
BRANCH   8   9
HETATM    9  C   UNL     2     -10.705  12.985  64.318  1.00  0.00    -0.430 C  
BRANCH   9  10
HETATM   10  C   UNL     2     -11.278  14.351  64.718  1.00  0.00    -0.391 C  
BRANCH  10  11
HETATM   11  C   UNL     2     -11.916  14.344  66.110  1.00  0.00    -0.381 C  
BRANCH  11  12
HETATM   12  C   UNL     2     -11.257  15.322  67.090  1.00  0.00    -0.291 C  
BRANCH  12  13
HETATM   13  C   UNL     2     -10.361  16.366  66.418  1.00  0.00    -0.313 C  
BRANCH  13  14
HETATM   14  O   UNL     2      -9.723  17.137  67.420  1.00  0.00    -0.245 OA 
HETATM   15  S   UNL     2      -9.602  18.743  67.191  1.00  0.00    -0.310 S  
HETATM   16  O   UNL     2      -8.965  19.206  68.428  1.00  0.00    -0.323 OA 
HETATM   17  O   UNL     2     -10.983  19.190  67.049  1.00  0.00    -0.426 OA 
HETATM   18  O   UNL     2      -8.779  18.876  66.002  1.00  0.00    -0.466 OA 
ENDBRANCH  13  14
ENDBRANCH  12  13
ENDBRANCH  11  12
ENDBRANCH  10  11
ENDBRANCH   9  10
ENDBRANCH   8   9
ENDBRANCH   7   8
ENDBRANCH   6   7
ENDBRANCH   5   6
ENDBRANCH   4   5
ENDBRANCH   3   4
TORSDOF 11
ENDMDL
MODEL       99
REMARK 921   NORMALIZED FREE ENERGY PREDICTED BY IDOCK:   -3.81 KCAL/MOL
REMARK 922        TOTAL FREE ENERGY PREDICTED BY IDOCK:   -7.69 KCAL/MOL
REMARK 923 INTER-LIGAND FREE ENERGY PREDICTED BY IDOCK:   -6.46 KCAL/MOL
REMARK 924 INTRA-LIGAND FREE ENERGY PREDICTED BY IDOCK:   -1.23 KCAL/MOL
REMARK 927      BINDING AFFINITY PREDICTED BY RF-SCORE:    0.00 PKD
ROOT
HETATM    1 NA   UNL     1      -8.814  11.935  63.406  1.00  0.00    -0.413 Na 
HETATM    2  C   UNL     2     -11.052  15.930  68.399  1.00  0.00    -0.345 C  
HETATM    3  C   UNL     2     -10.164  15.398  67.285  1.00  0.00    -0.254 C  
ENDROOT
BRANCH   3   4
HETATM    4  C   UNL     2     -10.628  15.920  65.929  1.00  0.00    -0.348 C  
BRANCH   4   5
HETATM    5  C   UNL     2     -10.876  14.786  64.932  1.00  0.00    -0.433 C  
BRANCH   5   6
HETATM    6  C   UNL     2     -12.292  14.204  65.031  1.00  0.00    -0.452 C  
BRANCH   6   7
HETATM    7  C   UNL     2     -12.277  12.702  65.313  1.00  0.00    -0.532 C  
BRANCH   7   8
HETATM    8  C   UNL     2     -10.875  12.158  65.574  1.00  0.00    -0.324 C  
BRANCH   8   9
HETATM    9  C   UNL     2     -10.685  11.738  67.039  1.00  0.00    -0.286 C  
BRANCH   9  10
HETATM   10  C   UNL     2     -11.830  12.139  67.979  1.00  0.00    -0.351 C  
BRANCH  10  11
HETATM   11  C   UNL     2     -11.336  12.629  69.343  1.00  0.00    -0.273 C  
BRANCH  11  12
HETATM   12  C   UNL     2     -12.080  11.999  70.527  1.00  0.00    -0.402 C  
BRANCH  12  13
HETATM   13  C   UNL     2     -12.326  10.496  70.374  1.00  0.00    -0.324 C  
BRANCH  13  14
HETATM   14  O   UNL     2     -11.817   9.830  71.517  1.00  0.00    -0.379 OA 
HETATM   15  S   UNL     2     -12.445   8.379  71.900  1.00  0.00    -0.367 S  
HETATM   16  O   UNL     2     -11.651   7.973  73.064  1.00  0.00    -0.346 OA 
HETATM   17  O   UNL     2     -12.202   7.559  70.720  1.00  0.00    -0.236 OA 
HETATM   18  O   UNL     2     -13.841   8.655  72.190  1.00  0.00    -0.396 OA 
ENDBRANCH  13  14
ENDBRANCH  12  13
ENDBRANCH  11  12
ENDBRANCH  10  11
ENDBRANCH   9  10
ENDBRANCH   8   9
ENDBRANCH   7   8
ENDBRANCH   6   7
ENDBRANCH   5   6
ENDBRANCH   4   5
ENDBRANCH   3   4
TORSDOF 11
ENDMDL
MODEL      100
REMARK 921   NORMALIZED FREE ENERGY PREDICTED BY IDOCK:   -3.80 KCAL/MOL
REMARK 922        TOTAL FREE ENERGY PREDICTED BY IDOCK:   -7.69 KCAL/MOL
REMARK 923 INTER-LIGAND FREE ENERGY PREDICTED BY IDOCK:   -6.22 KCAL/MOL
REMARK 924 INTRA-LIGAND FREE ENERGY PREDICTED BY IDOCK:   -1.47 KCAL/MOL
REMARK 927      BINDING AFFINITY PREDICTED BY RF-SCORE:    0.00 PKD
ROOT
HETATM    1 NA   UNL     1     -12.798  16.057  63.450  1.00  0.00    -0.721 Na 
HETATM    2  C   UNL     2      -9.473  20.598  67.221  1.00  0.00    -0.520 C  
HETATM    3  C   UNL     2     -10.601  19.709  66.719  1.00  0.00    -0.602 C  
ENDROOT
BRANCH   3   4
HETATM    4  C   UNL     2     -10.514  18.321  67.347  1.00  0.00    -0.430 C  
BRANCH   4   5
HETATM    5  C   UNL     2      -9.879  17.302  66.399  1.00  0.00    -0.310 C  
BRANCH   5   6
HETATM    6  C   UNL     2      -8.474  16.870  66.840  1.00  0.00    -0.243 C  
BRANCH   6   7
HETATM    7  C   UNL     2      -8.194  17.234  68.298  1.00  0.00    -0.237 C  
BRANCH   7   8
HETATM    8  C   UNL     2      -7.935  16.013  69.178  1.00  0.00    -0.238 C  
BRANCH   8   9
HETATM    9  C   UNL     2      -9.167  15.101  69.272  1.00  0.00    -0.205 C  
BRANCH   9  10
HETATM   10  C   UNL     2     -10.414  15.761  69.876  1.00  0.00    -0.324 C  
BRANCH  10  11
HETATM   11  C   UNL     2     -11.720  15.182  69.325  1.00  0.00    -0.352 C  
BRANCH  11  12
HETATM   12  C   UNL     2     -11.643  14.805  67.840  1.00  0.00    -0.373 C  
BRANCH  12  13
HETATM   13  C   UNL     2     -12.074  13.366  67.543  1.00  0.00    -0.279 C  
BRANCH  13  14
HETATM   14  O   UNL     2     -11.976  12.603  68.732  1.00  0.00    -0.307 OA 
HETATM   15  S   UNL     2     -11.077  11.247  68.700  1.00  0.00    -0.258 S  
HETATM   16  O   UNL     2     -11.149  10.771  70.085  1.00  0.00    -0.281 OA 
HETATM   17  O   UNL     2      -9.748  11.705  68.314  1.00  0.00    -0.186 OA 
HETATM   18  O   UNL     2     -11.747  10.394  67.735  1.00  0.00    -0.353 OA 
ENDBRANCH  13  14
ENDBRANCH  12  13
ENDBRANCH  11  12
ENDBRANCH  10  11
ENDBRANCH   9  10
ENDBRANCH   8   9
ENDBRANCH   7   8
ENDBRANCH   6   7
ENDBRANCH   5   6
ENDBRANCH   4   5
ENDBRANCH   3   4
TORSDOF 11
ENDMDL
MODEL      101
REMARK 921   NORMALIZED FREE ENERGY PREDICTED BY IDOCK:   -3.80 KCAL/MOL
REMARK 922        TOTAL FREE ENERGY PREDICTED BY IDOCK:   -7.68 KCAL/MOL
REMARK 923 INTER-LIGAND FREE ENERGY PREDICTED BY IDOCK:   -6.89 KCAL/MOL
REMARK 924 INTRA-LIGAND FREE ENERGY PREDICTED BY IDOCK:   -0.80 KCAL/MOL
REMARK 927      BINDING AFFINITY PREDICTED BY RF-SCORE:    0.00 PKD
ROOT
HETATM    1 NA   UNL     1      -9.007   7.011  68.161  1.00  0.00    -0.124 Na 
HETATM    2  C   UNL     2     -13.971   9.030  72.305  1.00  0.00    -0.522 C  
HETATM    3  C   UNL     2     -12.619   8.507  71.844  1.00  0.00    -0.400 C  
ENDROOT
BRANCH   3   4
HETATM    4  C   UNL     2     -11.669   9.662  71.540  1.00  0.00    -0.472 C  
BRANCH   4   5
HETATM    5  C   UNL     2     -10.712   9.329  70.393  1.00  0.00    -0.300 C  
BRANCH   5   6
HETATM    6  C   UNL     2     -10.821  10.314  69.221  1.00  0.00    -0.275 C  
BRANCH   6   7
HETATM    7  C   UNL     2     -11.990  11.283  69.391  1.00  0.00    -0.410 C  
BRANCH   7   8
HETATM    8  C   UNL     2     -11.625  12.725  69.048  1.00  0.00    -0.366 C  
BRANCH   8   9
HETATM    9  C   UNL     2     -12.195  13.720  70.069  1.00  0.00    -0.407 C  
BRANCH   9  10
HETATM   10  C   UNL     2     -11.586  15.127  70.010  1.00  0.00    -0.326 C  
BRANCH  10  11
HETATM   11  C   UNL     2     -11.774  15.800  68.648  1.00  0.00    -0.353 C  
BRANCH  11  12
HETATM   12  C   UNL     2     -10.455  16.103  67.927  1.00  0.00    -0.290 C  
BRANCH  12  13
HETATM   13  C   UNL     2     -10.328  15.429  66.559  1.00  0.00    -0.289 C  
BRANCH  13  14
HETATM   14  O   UNL     2     -11.527  14.726  66.280  1.00  0.00    -0.350 OA 
HETATM   15  S   UNL     2     -11.916  14.464  64.722  1.00  0.00    -0.464 S  
HETATM   16  O   UNL     2     -13.147  13.674  64.819  1.00  0.00    -0.658 OA 
HETATM   17  O   UNL     2     -10.786  13.713  64.190  1.00  0.00    -0.333 OA 
HETATM   18  O   UNL     2     -12.096  15.794  64.167  1.00  0.00    -0.547 OA 
ENDBRANCH  13  14
ENDBRANCH  12  13
ENDBRANCH  11  12
ENDBRANCH  10  11
ENDBRANCH   9  10
ENDBRANCH   8   9
ENDBRANCH   7   8
ENDBRANCH   6   7
ENDBRANCH   5   6
ENDBRANCH   4   5
ENDBRANCH   3   4
TORSDOF 11
ENDMDL
MODEL      102
REMARK 921   NORMALIZED FREE ENERGY PREDICTED BY IDOCK:   -3.79 KCAL/MOL
REMARK 922        TOTAL FREE ENERGY PREDICTED BY IDOCK:   -7.66 KCAL/MOL
REMARK 923 INTER-LIGAND FREE ENERGY PREDICTED BY IDOCK:   -6.84 KCAL/MOL
REMARK 924 INTRA-LIGAND FREE ENERGY PREDICTED BY IDOCK:   -0.82 KCAL/MOL
REMARK 927      BINDING AFFINITY PREDICTED BY RF-SCORE:    0.00 PKD
ROOT
HETATM    1 NA   UNL     1     -11.508  10.835  69.784  1.00  0.00    -0.192 Na 
HETATM    2  C   UNL     2     -12.199  12.641  63.292  1.00  0.00    -0.512 C  
HETATM    3  C   UNL     2     -12.526  12.457  64.766  1.00  0.00    -0.480 C  
ENDROOT
BRANCH   3   4
HETATM    4  C   UNL     2     -11.971  13.615  65.590  1.00  0.00    -0.422 C  
BRANCH   4   5
HETATM    5  C   UNL     2     -10.896  14.395  64.831  1.00  0.00    -0.430 C  
BRANCH   5   6
HETATM    6  C   UNL     2     -11.425  15.701  64.223  1.00  0.00    -0.199 C  
BRANCH   6   7
HETATM    7  C   UNL     2     -11.013  16.924  65.042  1.00  0.00    -0.055 C  
BRANCH   7   8
HETATM    8  C   UNL     2     -10.283  16.559  66.333  1.00  0.00    -0.324 C  
BRANCH   8   9
HETATM    9  C   UNL     2     -10.641  17.512  67.483  1.00  0.00    -0.333 C  
BRANCH   9  10
HETATM   10  C   UNL     2     -10.814  16.838  68.851  1.00  0.00    -0.301 C  
BRANCH  10  11
HETATM   11  C   UNL     2     -11.900  15.759  68.849  1.00  0.00    -0.354 C  
BRANCH  11  12
HETATM   12  C   UNL     2     -11.412  14.399  69.362  1.00  0.00    -0.330 C  
BRANCH  12  13
HETATM   13  C   UNL     2     -12.362  13.736  70.363  1.00  0.00    -0.353 C  
BRANCH  13  14
HETATM   14  O   UNL     2     -12.210  14.364  71.624  1.00  0.00    -0.344 OA 
HETATM   15  S   UNL     2     -13.555  14.792  72.433  1.00  0.00    -0.483 S  
HETATM   16  O   UNL     2     -13.025  15.335  73.689  1.00  0.00    -0.508 OA 
HETATM   17  O   UNL     2     -14.284  13.542  72.606  1.00  0.00    -0.751 OA 
HETATM   18  O   UNL     2     -14.194  15.774  71.575  1.00  0.00    -0.467 OA 
ENDBRANCH  13  14
ENDBRANCH  12  13
ENDBRANCH  11  12
ENDBRANCH  10  11
ENDBRANCH   9  10
ENDBRANCH   8   9
ENDBRANCH   7   8
ENDBRANCH   6   7
ENDBRANCH   5   6
ENDBRANCH   4   5
ENDBRANCH   3   4
TORSDOF 11
ENDMDL
MODEL      103
REMARK 921   NORMALIZED FREE ENERGY PREDICTED BY IDOCK:   -3.78 KCAL/MOL
REMARK 922        TOTAL FREE ENERGY PREDICTED BY IDOCK:   -7.65 KCAL/MOL
REMARK 923 INTER-LIGAND FREE ENERGY PREDICTED BY IDOCK:   -6.86 KCAL/MOL
REMARK 924 INTRA-LIGAND FREE ENERGY PREDICTED BY IDOCK:   -0.78 KCAL/MOL
REMARK 927      BINDING AFFINITY PREDICTED BY RF-SCORE:    0.00 PKD
ROOT
HETATM    1 NA   UNL     1     -11.050  11.901  70.607  1.00  0.00    -0.481 Na 
HETATM    2  C   UNL     2      -9.828   6.584  66.591  1.00  0.00    -0.203 C  
HETATM    3  C   UNL     2     -10.514   7.817  67.160  1.00  0.00    -0.413 C  
ENDROOT
BRANCH   3   4
HETATM    4  C   UNL     2      -9.918   9.089  66.565  1.00  0.00    -0.355 C  
BRANCH   4   5
HETATM    5  C   UNL     2     -10.709  10.335  66.967  1.00  0.00    -0.281 C  
BRANCH   5   6
HETATM    6  C   UNL     2     -10.807  11.370  65.838  1.00  0.00    -0.292 C  
BRANCH   6   7
HETATM    7  C   UNL     2     -11.870  12.431  66.122  1.00  0.00    -0.442 C  
BRANCH   7   8
HETATM    8  C   UNL     2     -11.565  13.773  65.460  1.00  0.00    -0.335 C  
BRANCH   8   9
HETATM    9  C   UNL     2     -11.410  14.899  66.492  1.00  0.00    -0.319 C  
BRANCH   9  10
HETATM   10  C   UNL     2     -10.163  14.795  67.380  1.00  0.00    -0.236 C  
BRANCH  10  11
HETATM   11  C   UNL     2     -10.502  14.629  68.864  1.00  0.00    -0.248 C  
BRANCH  11  12
HETATM   12  C   UNL     2     -11.715  15.454  69.311  1.00  0.00    -0.367 C  
BRANCH  12  13
HETATM   13  C   UNL     2     -12.676  14.696  70.230  1.00  0.00    -0.273 C  
BRANCH  13  14
HETATM   14  O   UNL     2     -12.160  14.713  71.549  1.00  0.00    -0.332 OA 
HETATM   15  S   UNL     2     -13.216  14.675  72.786  1.00  0.00    -0.512 S  
HETATM   16  O   UNL     2     -12.344  14.637  73.963  1.00  0.00    -0.474 OA 
HETATM   17  O   UNL     2     -13.965  13.441  72.580  1.00  0.00    -0.755 OA 
HETATM   18  O   UNL     2     -13.983  15.900  72.642  1.00  0.00    -0.547 OA 
ENDBRANCH  13  14
ENDBRANCH  12  13
ENDBRANCH  11  12
ENDBRANCH  10  11
ENDBRANCH   9  10
ENDBRANCH   8   9
ENDBRANCH   7   8
ENDBRANCH   6   7
ENDBRANCH   5   6
ENDBRANCH   4   5
ENDBRANCH   3   4
TORSDOF 11
ENDMDL
MODEL      104
REMARK 921   NORMALIZED FREE ENERGY PREDICTED BY IDOCK:   -3.78 KCAL/MOL
REMARK 922        TOTAL FREE ENERGY PREDICTED BY IDOCK:   -7.64 KCAL/MOL
REMARK 923 INTER-LIGAND FREE ENERGY PREDICTED BY IDOCK:   -6.47 KCAL/MOL
REMARK 924 INTRA-LIGAND FREE ENERGY PREDICTED BY IDOCK:   -1.18 KCAL/MOL
REMARK 927      BINDING AFFINITY PREDICTED BY RF-SCORE:    0.00 PKD
ROOT
HETATM    1 NA   UNL     1     -11.546   8.742  68.918  1.00  0.00    -0.439 Na 
HETATM    2  C   UNL     2     -11.217  14.940  66.203  1.00  0.00    -0.325 C  
HETATM    3  C   UNL     2     -11.791  13.708  66.886  1.00  0.00    -0.451 C  
ENDROOT
BRANCH   3   4
HETATM    4  C   UNL     2     -11.553  13.767  68.393  1.00  0.00    -0.369 C  
BRANCH   4   5
HETATM    5  C   UNL     2     -10.696  14.971  68.790  1.00  0.00    -0.241 C  
BRANCH   5   6
HETATM    6  C   UNL     2     -11.043  15.517  70.182  1.00  0.00    -0.337 C  
BRANCH   6   7
HETATM    7  C   UNL     2     -12.543  15.450  70.467  1.00  0.00    -0.471 C  
BRANCH   7   8
HETATM    8  C   UNL     2     -12.866  15.419  71.959  1.00  0.00    -0.468 C  
BRANCH   8   9
HETATM    9  C   UNL     2     -13.447  14.065  72.393  1.00  0.00    -0.639 C  
BRANCH   9  10
HETATM   10  C   UNL     2     -13.263  12.928  71.379  1.00  0.00    -0.262 C  
BRANCH  10  11
HETATM   11  C   UNL     2     -13.405  11.540  72.009  1.00  0.00    -0.397 C  
BRANCH  11  12
HETATM   12  C   UNL     2     -12.698  10.433  71.218  1.00  0.00    -0.536 C  
BRANCH  12  13
HETATM   13  C   UNL     2     -12.539   9.122  71.992  1.00  0.00    -0.390 C  
BRANCH  13  14
HETATM   14  O   UNL     2     -12.040   8.129  71.114  1.00  0.00    -0.299 OA 
HETATM   15  S   UNL     2     -10.800   7.207  71.626  1.00  0.00    -0.226 S  
HETATM   16  O   UNL     2     -10.603   6.273  70.514  1.00  0.00    -0.221 OA 
HETATM   17  O   UNL     2     -11.304   6.568  72.836  1.00  0.00    -0.230 OA 
HETATM   18  O   UNL     2      -9.711   8.146  71.826  1.00  0.00    -0.164 OA 
ENDBRANCH  13  14
ENDBRANCH  12  13
ENDBRANCH  11  12
ENDBRANCH  10  11
ENDBRANCH   9  10
ENDBRANCH   8   9
ENDBRANCH   7   8
ENDBRANCH   6   7
ENDBRANCH   5   6
ENDBRANCH   4   5
ENDBRANCH   3   4
TORSDOF 11
ENDMDL
MODEL      105
REMARK 921   NORMALIZED FREE ENERGY PREDICTED BY IDOCK:   -3.78 KCAL/MOL
REMARK 922        TOTAL FREE ENERGY PREDICTED BY IDOCK:   -7.64 KCAL/MOL
REMARK 923 INTER-LIGAND FREE ENERGY PREDICTED BY IDOCK:   -6.89 KCAL/MOL
REMARK 924 INTRA-LIGAND FREE ENERGY PREDICTED BY IDOCK:   -0.75 KCAL/MOL
REMARK 927      BINDING AFFINITY PREDICTED BY RF-SCORE:    0.00 PKD
ROOT
HETATM    1 NA   UNL     1     -13.458  15.560  69.926  1.00  0.00    -0.587 Na 
HETATM    2  C   UNL     2     -10.202  20.011  65.991  1.00  0.00    -0.568 C  
HETATM    3  C   UNL     2     -10.825  19.389  67.231  1.00  0.00    -0.561 C  
ENDROOT
BRANCH   3   4
HETATM    4  C   UNL     2      -9.834  18.456  67.922  1.00  0.00    -0.348 C  
BRANCH   4   5
HETATM    5  C   UNL     2     -10.532  17.261  68.576  1.00  0.00    -0.375 C  
BRANCH   5   6
HETATM    6  C   UNL     2      -9.657  16.001  68.605  1.00  0.00    -0.222 C  
BRANCH   6   7
HETATM    7  C   UNL     2     -10.490  14.725  68.714  1.00  0.00    -0.250 C  
BRANCH   7   8
HETATM    8  C   UNL     2     -11.496  14.570  67.575  1.00  0.00    -0.375 C  
BRANCH   8   9
HETATM    9  C   UNL     2     -11.809  13.095  67.284  1.00  0.00    -0.420 C  
BRANCH   9  10
HETATM   10  C   UNL     2     -11.123  12.091  68.219  1.00  0.00    -0.290 C  
BRANCH  10  11
HETATM   11  C   UNL     2     -12.110  11.353  69.127  1.00  0.00    -0.331 C  
BRANCH  11  12
HETATM   12  C   UNL     2     -12.038  11.792  70.595  1.00  0.00    -0.407 C  
BRANCH  12  13
HETATM   13  C   UNL     2     -13.130  11.183  71.479  1.00  0.00    -0.385 C  
BRANCH  13  14
HETATM   14  O   UNL     2     -13.442   9.888  70.995  1.00  0.00    -0.363 OA 
HETATM   15  S   UNL     2     -13.259   8.628  72.008  1.00  0.00    -0.401 S  
HETATM   16  O   UNL     2     -13.728   7.492  71.209  1.00  0.00    -0.339 OA 
HETATM   17  O   UNL     2     -14.130   8.942  73.134  1.00  0.00    -0.302 OA 
HETATM   18  O   UNL     2     -11.838   8.609  72.307  1.00  0.00    -0.367 OA 
ENDBRANCH  13  14
ENDBRANCH  12  13
ENDBRANCH  11  12
ENDBRANCH  10  11
ENDBRANCH   9  10
ENDBRANCH   8   9
ENDBRANCH   7   8
ENDBRANCH   6   7
ENDBRANCH   5   6
ENDBRANCH   4   5
ENDBRANCH   3   4
TORSDOF 11
ENDMDL
MODEL      106
REMARK 921   NORMALIZED FREE ENERGY PREDICTED BY IDOCK:   -3.78 KCAL/MOL
REMARK 922        TOTAL FREE ENERGY PREDICTED BY IDOCK:   -7.64 KCAL/MOL
REMARK 923 INTER-LIGAND FREE ENERGY PREDICTED BY IDOCK:   -7.10 KCAL/MOL
REMARK 924 INTRA-LIGAND FREE ENERGY PREDICTED BY IDOCK:   -0.54 KCAL/MOL
REMARK 927      BINDING AFFINITY PREDICTED BY RF-SCORE:    0.00 PKD
ROOT
HETATM    1 NA   UNL     1     -13.902  10.061  69.767  1.00  0.00    -0.626 Na 
HETATM    2  C   UNL     2     -10.904   5.351  73.604  1.00  0.00    -0.321 C  
HETATM    3  C   UNL     2     -11.093   6.407  72.526  1.00  0.00    -0.298 C  
ENDROOT
BRANCH   3   4
HETATM    4  C   UNL     2     -10.835   7.803  73.087  1.00  0.00    -0.401 C  
BRANCH   4   5
HETATM    5  C   UNL     2     -11.423   8.897  72.194  1.00  0.00    -0.387 C  
BRANCH   5   6
HETATM    6  C   UNL     2     -10.592   9.145  70.928  1.00  0.00    -0.341 C  
BRANCH   6   7
HETATM    7  C   UNL     2     -11.123  10.324  70.114  1.00  0.00    -0.385 C  
BRANCH   7   8
HETATM    8  C   UNL     2     -10.805  10.211  68.624  1.00  0.00    -0.272 C  
BRANCH   8   9
HETATM    9  C   UNL     2     -11.302  11.434  67.838  1.00  0.00    -0.371 C  
BRANCH   9  10
HETATM   10  C   UNL     2     -12.001  12.506  68.684  1.00  0.00    -0.268 C  
BRANCH  10  11
HETATM   11  C   UNL     2     -12.113  13.853  67.965  1.00  0.00    -0.318 C  
BRANCH  11  12
HETATM   12  C   UNL     2     -12.069  13.735  66.436  1.00  0.00    -0.483 C  
BRANCH  12  13
HETATM   13  C   UNL     2     -11.187  14.787  65.759  1.00  0.00    -0.337 C  
BRANCH  13  14
HETATM   14  O   UNL     2     -11.096  15.922  66.602  1.00  0.00    -0.205 OA 
HETATM   15  S   UNL     2     -10.266  17.213  66.061  1.00  0.00    -0.268 S  
HETATM   16  O   UNL     2     -10.440  18.191  67.140  1.00  0.00    -0.371 OA 
HETATM   17  O   UNL     2     -10.946  17.586  64.827  1.00  0.00    -0.950 OA 
HETATM   18  O   UNL     2      -8.907  16.727  65.902  1.00  0.00    -0.499 OA 
ENDBRANCH  13  14
ENDBRANCH  12  13
ENDBRANCH  11  12
ENDBRANCH  10  11
ENDBRANCH   9  10
ENDBRANCH   8   9
ENDBRANCH   7   8
ENDBRANCH   6   7
ENDBRANCH   5   6
ENDBRANCH   4   5
ENDBRANCH   3   4
TORSDOF 11
ENDMDL
MODEL      107
REMARK 921   NORMALIZED FREE ENERGY PREDICTED BY IDOCK:   -3.77 KCAL/MOL
REMARK 922        TOTAL FREE ENERGY PREDICTED BY IDOCK:   -7.63 KCAL/MOL
REMARK 923 INTER-LIGAND FREE ENERGY PREDICTED BY IDOCK:   -6.63 KCAL/MOL
REMARK 924 INTRA-LIGAND FREE ENERGY PREDICTED BY IDOCK:   -1.00 KCAL/MOL
REMARK 927      BINDING AFFINITY PREDICTED BY RF-SCORE:    0.00 PKD
ROOT
HETATM    1 NA   UNL     1     -11.890   6.221  66.125  1.00  0.00    -0.578 Na 
HETATM    2  C   UNL     2     -11.105   5.515  72.817  1.00  0.00    -0.340 C  
HETATM    3  C   UNL     2     -10.915   6.046  71.405  1.00  0.00    -0.336 C  
ENDROOT
BRANCH   3   4
HETATM    4  C   UNL     2     -11.940   7.133  71.095  1.00  0.00    -0.381 C  
BRANCH   4   5
HETATM    5  C   UNL     2     -11.668   8.417  71.882  1.00  0.00    -0.398 C  
BRANCH   5   6
HETATM    6  C   UNL     2     -12.946   9.209  72.190  1.00  0.00    -0.498 C  
BRANCH   6   7
HETATM    7  C   UNL     2     -13.256  10.243  71.108  1.00  0.00    -0.429 C  
BRANCH   7   8
HETATM    8  C   UNL     2     -12.031  11.049  70.684  1.00  0.00    -0.464 C  
BRANCH   8   9
HETATM    9  C   UNL     2     -11.985  11.266  69.164  1.00  0.00    -0.405 C  
BRANCH   9  10
HETATM   10  C   UNL     2     -11.044  10.321  68.405  1.00  0.00    -0.302 C  
BRANCH  10  11
HETATM   11  C   UNL     2      -9.568  10.557  68.738  1.00  0.00    -0.181 C  
BRANCH  11  12
HETATM   12  C   UNL     2      -8.869  11.520  67.771  1.00  0.00    -0.153 C  
BRANCH  12  13
HETATM   13  C   UNL     2      -9.587  11.681  66.428  1.00  0.00    -0.217 C  
BRANCH  13  14
HETATM   14  O   UNL     2     -10.073  13.007  66.324  1.00  0.00    -0.270 OA 
HETATM   15  S   UNL     2     -11.246  13.310  65.237  1.00  0.00    -0.302 S  
HETATM   16  O   UNL     2     -11.538  14.730  65.454  1.00  0.00    -0.343 OA 
HETATM   17  O   UNL     2     -12.338  12.428  65.631  1.00  0.00    -0.639 OA 
HETATM   18  O   UNL     2     -10.634  13.010  63.955  1.00  0.00    -0.396 OA 
ENDBRANCH  13  14
ENDBRANCH  12  13
ENDBRANCH  11  12
ENDBRANCH  10  11
ENDBRANCH   9  10
ENDBRANCH   8   9
ENDBRANCH   7   8
ENDBRANCH   6   7
ENDBRANCH   5   6
ENDBRANCH   4   5
ENDBRANCH   3   4
TORSDOF 11
ENDMDL
MODEL      108
REMARK 921   NORMALIZED FREE ENERGY PREDICTED BY IDOCK:   -3.76 KCAL/MOL
REMARK 922        TOTAL FREE ENERGY PREDICTED BY IDOCK:   -7.62 KCAL/MOL
REMARK 923 INTER-LIGAND FREE ENERGY PREDICTED BY IDOCK:   -6.53 KCAL/MOL
REMARK 924 INTRA-LIGAND FREE ENERGY PREDICTED BY IDOCK:   -1.09 KCAL/MOL
REMARK 927      BINDING AFFINITY PREDICTED BY RF-SCORE:    0.00 PKD
ROOT
HETATM    1 NA   UNL     1     -11.957   5.575  65.145  1.00  0.00    -0.606 Na 
HETATM    2  C   UNL     2      -9.607   9.825  69.868  1.00  0.00    -0.269 C  
HETATM    3  C   UNL     2     -10.453   8.744  69.213  1.00  0.00    -0.228 C  
ENDROOT
BRANCH   3   4
HETATM    4  C   UNL     2      -9.772   7.383  69.327  1.00  0.00    -0.165 C  
BRANCH   4   5
HETATM    5  C   UNL     2     -10.747   6.291  69.773  1.00  0.00    -0.358 C  
BRANCH   5   6
HETATM    6  C   UNL     2     -10.644   5.975  71.271  1.00  0.00    -0.302 C  
BRANCH   6   7
HETATM    7  C   UNL     2     -11.691   6.728  72.090  1.00  0.00    -0.332 C  
BRANCH   7   8
HETATM    8  C   UNL     2     -13.031   6.859  71.370  1.00  0.00    -0.339 C  
BRANCH   8   9
HETATM    9  C   UNL     2     -13.704   8.211  71.651  1.00  0.00    -0.403 C  
BRANCH   9  10
HETATM   10  C   UNL     2     -12.807   9.248  72.342  1.00  0.00    -0.418 C  
BRANCH  10  11
HETATM   11  C   UNL     2     -13.189  10.689  71.997  1.00  0.00    -0.473 C  
BRANCH  11  12
HETATM   12  C   UNL     2     -12.263  11.336  70.960  1.00  0.00    -0.417 C  
BRANCH  12  13
HETATM   13  C   UNL     2     -12.580  12.808  70.678  1.00  0.00    -0.168 C  
BRANCH  13  14
HETATM   14  O   UNL     2     -12.170  13.586  71.789  1.00  0.00    -0.061 OA 
HETATM   15  S   UNL     2     -13.237  14.639  72.421  1.00  0.00    -0.446 S  
HETATM   16  O   UNL     2     -12.510  15.199  73.564  1.00  0.00    -0.452 OA 
HETATM   17  O   UNL     2     -14.373  13.811  72.808  1.00  0.00    -0.596 OA 
HETATM   18  O   UNL     2     -13.491  15.582  71.347  1.00  0.00    -0.496 OA 
ENDBRANCH  13  14
ENDBRANCH  12  13
ENDBRANCH  11  12
ENDBRANCH  10  11
ENDBRANCH   9  10
ENDBRANCH   8   9
ENDBRANCH   7   8
ENDBRANCH   6   7
ENDBRANCH   5   6
ENDBRANCH   4   5
ENDBRANCH   3   4
TORSDOF 11
ENDMDL
MODEL      109
REMARK 921   NORMALIZED FREE ENERGY PREDICTED BY IDOCK:   -3.76 KCAL/MOL
REMARK 922        TOTAL FREE ENERGY PREDICTED BY IDOCK:   -7.61 KCAL/MOL
REMARK 923 INTER-LIGAND FREE ENERGY PREDICTED BY IDOCK:   -7.05 KCAL/MOL
REMARK 924 INTRA-LIGAND FREE ENERGY PREDICTED BY IDOCK:   -0.57 KCAL/MOL
REMARK 927      BINDING AFFINITY PREDICTED BY RF-SCORE:    0.00 PKD
ROOT
HETATM    1 NA   UNL     1     -14.351  10.301  73.008  1.00  0.00    -0.637 Na 
HETATM    2  C   UNL     2     -10.860   4.525  73.597  1.00  0.00    -0.371 C  
HETATM    3  C   UNL     2     -11.371   5.832  73.010  1.00  0.00    -0.254 C  
ENDROOT
BRANCH   3   4
HETATM    4  C   UNL     2     -10.550   7.012  73.522  1.00  0.00    -0.405 C  
BRANCH   4   5
HETATM    5  C   UNL     2      -9.845   7.756  72.386  1.00  0.00    -0.264 C  
BRANCH   5   6
HETATM    6  C   UNL     2     -10.809   8.214  71.284  1.00  0.00    -0.278 C  
BRANCH   6   7
HETATM    7  C   UNL     2     -11.886   9.157  71.819  1.00  0.00    -0.453 C  
BRANCH   7   8
HETATM    8  C   UNL     2     -12.069  10.404  70.957  1.00  0.00    -0.488 C  
BRANCH   8   9
HETATM    9  C   UNL     2     -10.848  10.667  70.063  1.00  0.00    -0.280 C  
BRANCH   9  10
HETATM   10  C   UNL     2     -11.153  11.410  68.755  1.00  0.00    -0.290 C  
BRANCH  10  11
HETATM   11  C   UNL     2     -10.416  12.748  68.646  1.00  0.00    -0.230 C  
BRANCH  11  12
HETATM   12  C   UNL     2     -10.860  13.595  67.447  1.00  0.00    -0.282 C  
BRANCH  12  13
HETATM   13  C   UNL     2     -12.154  13.108  66.789  1.00  0.00    -0.327 C  
BRANCH  13  14
HETATM   14  O   UNL     2     -12.344  13.812  65.574  1.00  0.00    -0.415 OA 
HETATM   15  S   UNL     2     -12.227  12.980  64.181  1.00  0.00    -0.397 S  
HETATM   16  O   UNL     2     -12.541  13.991  63.166  1.00  0.00    -0.733 OA 
HETATM   17  O   UNL     2     -13.243  11.941  64.296  1.00  0.00    -0.618 OA 
HETATM   18  O   UNL     2     -10.854  12.509  64.157  1.00  0.00    -0.326 OA 
ENDBRANCH  13  14
ENDBRANCH  12  13
ENDBRANCH  11  12
ENDBRANCH  10  11
ENDBRANCH   9  10
ENDBRANCH   8   9
ENDBRANCH   7   8
ENDBRANCH   6   7
ENDBRANCH   5   6
ENDBRANCH   4   5
ENDBRANCH   3   4
TORSDOF 11
ENDMDL
MODEL      110
REMARK 921   NORMALIZED FREE ENERGY PREDICTED BY IDOCK:   -3.76 KCAL/MOL
REMARK 922        TOTAL FREE ENERGY PREDICTED BY IDOCK:   -7.61 KCAL/MOL
REMARK 923 INTER-LIGAND FREE ENERGY PREDICTED BY IDOCK:   -6.47 KCAL/MOL
REMARK 924 INTRA-LIGAND FREE ENERGY PREDICTED BY IDOCK:   -1.14 KCAL/MOL
REMARK 927      BINDING AFFINITY PREDICTED BY RF-SCORE:    0.00 PKD
ROOT
HETATM    1 NA   UNL     1     -14.024   8.109  73.146  1.00  0.00    -0.549 Na 
HETATM    2  C   UNL     2     -10.782   5.735  67.692  1.00  0.00    -0.313 C  
HETATM    3  C   UNL     2     -11.058   6.543  68.951  1.00  0.00    -0.371 C  
ENDROOT
BRANCH   3   4
HETATM    4  C   UNL     2     -10.666   5.753  70.196  1.00  0.00    -0.390 C  
BRANCH   4   5
HETATM    5  C   UNL     2     -11.607   6.031  71.370  1.00  0.00    -0.211 C  
BRANCH   5   6
HETATM    6  C   UNL     2     -10.862   6.448  72.645  1.00  0.00    -0.270 C  
BRANCH   6   7
HETATM    7  C   UNL     2     -10.797   7.967  72.802  1.00  0.00    -0.438 C  
BRANCH   7   8
HETATM    8  C   UNL     2      -9.599   8.590  72.088  1.00  0.00    -0.382 C  
BRANCH   8   9
HETATM    9  C   UNL     2     -10.024   9.407  70.860  1.00  0.00    -0.353 C  
BRANCH   9  10
HETATM   10  C   UNL     2     -11.517   9.756  70.800  1.00  0.00    -0.417 C  
BRANCH  10  11
HETATM   11  C   UNL     2     -11.834  10.841  69.768  1.00  0.00    -0.409 C  
BRANCH  11  12
HETATM   12  C   UNL     2     -11.214  10.575  68.391  1.00  0.00    -0.339 C  
BRANCH  12  13
HETATM   13  C   UNL     2     -11.411  11.718  67.391  1.00  0.00    -0.311 C  
BRANCH  13  14
HETATM   14  O   UNL     2     -11.643  12.918  68.107  1.00  0.00    -0.293 OA 
HETATM   15  S   UNL     2     -11.532  14.326  67.298  1.00  0.00    -0.369 S  
HETATM   16  O   UNL     2     -11.893  15.319  68.314  1.00  0.00    -0.336 OA 
HETATM   17  O   UNL     2     -12.518  14.206  66.231  1.00  0.00    -0.466 OA 
HETATM   18  O   UNL     2     -10.147  14.383  66.864  1.00  0.00    -0.252 OA 
ENDBRANCH  13  14
ENDBRANCH  12  13
ENDBRANCH  11  12
ENDBRANCH  10  11
ENDBRANCH   9  10
ENDBRANCH   8   9
ENDBRANCH   7   8
ENDBRANCH   6   7
ENDBRANCH   5   6
ENDBRANCH   4   5
ENDBRANCH   3   4
TORSDOF 11
ENDMDL
MODEL      111
REMARK 921   NORMALIZED FREE ENERGY PREDICTED BY IDOCK:   -3.75 KCAL/MOL
REMARK 922        TOTAL FREE ENERGY PREDICTED BY IDOCK:   -7.59 KCAL/MOL
REMARK 923 INTER-LIGAND FREE ENERGY PREDICTED BY IDOCK:   -6.55 KCAL/MOL
REMARK 924 INTRA-LIGAND FREE ENERGY PREDICTED BY IDOCK:   -1.04 KCAL/MOL
REMARK 927      BINDING AFFINITY PREDICTED BY RF-SCORE:    0.00 PKD
ROOT
HETATM    1 NA   UNL     1     -14.299  10.621  72.899  1.00  0.00    -0.585 Na 
HETATM    2  C   UNL     2      -8.419   8.636  70.181  1.00  0.00    -0.135 C  
HETATM    3  C   UNL     2      -9.503   8.879  71.221  1.00  0.00    -0.343 C  
ENDROOT
BRANCH   3   4
HETATM    4  C   UNL     2     -10.505   7.728  71.234  1.00  0.00    -0.230 C  
BRANCH   4   5
HETATM    5  C   UNL     2     -10.059   6.569  70.340  1.00  0.00    -0.213 C  
BRANCH   5   6
HETATM    6  C   UNL     2     -11.141   6.135  69.343  1.00  0.00    -0.479 C  
BRANCH   6   7
HETATM    7  C   UNL     2     -10.551   5.747  67.987  1.00  0.00    -0.295 C  
BRANCH   7   8
HETATM    8  C   UNL     2     -10.934   6.717  66.871  1.00  0.00    -0.396 C  
BRANCH   8   9
HETATM    9  C   UNL     2      -9.984   7.922  66.808  1.00  0.00    -0.333 C  
BRANCH   9  10
HETATM   10  C   UNL     2     -10.647   9.247  66.408  1.00  0.00    -0.037 C  
BRANCH  10  11
HETATM   11  C   UNL     2      -9.822  10.471  66.815  1.00  0.00    -0.237 C  
BRANCH  11  12
HETATM   12  C   UNL     2     -10.479  11.314  67.915  1.00  0.00    -0.218 C  
BRANCH  12  13
HETATM   13  C   UNL     2     -11.294  12.497  67.387  1.00  0.00    -0.313 C  
BRANCH  13  14
HETATM   14  O   UNL     2     -12.224  12.022  66.429  1.00  0.00    -0.551 OA 
HETATM   15  S   UNL     2     -12.457  12.906  65.084  1.00  0.00    -0.453 S  
HETATM   16  O   UNL     2     -13.407  12.095  64.316  1.00  0.00    -0.761 OA 
HETATM   17  O   UNL     2     -11.136  12.984  64.472  1.00  0.00    -0.317 OA 
HETATM   18  O   UNL     2     -12.994  14.165  65.568  1.00  0.00    -0.657 OA 
ENDBRANCH  13  14
ENDBRANCH  12  13
ENDBRANCH  11  12
ENDBRANCH  10  11
ENDBRANCH   9  10
ENDBRANCH   8   9
ENDBRANCH   7   8
ENDBRANCH   6   7
ENDBRANCH   5   6
ENDBRANCH   4   5
ENDBRANCH   3   4
TORSDOF 11
ENDMDL
MODEL      112
REMARK 921   NORMALIZED FREE ENERGY PREDICTED BY IDOCK:   -3.74 KCAL/MOL
REMARK 922        TOTAL FREE ENERGY PREDICTED BY IDOCK:   -7.58 KCAL/MOL
REMARK 923 INTER-LIGAND FREE ENERGY PREDICTED BY IDOCK:   -6.30 KCAL/MOL
REMARK 924 INTRA-LIGAND FREE ENERGY PREDICTED BY IDOCK:   -1.28 KCAL/MOL
REMARK 927      BINDING AFFINITY PREDICTED BY RF-SCORE:    0.00 PKD
ROOT
HETATM    1 NA   UNL     1     -10.224   2.317  67.703  1.00  0.00    -0.396 Na 
HETATM    2  C   UNL     2      -8.789   8.528  69.996  1.00  0.00    -0.141 C  
HETATM    3  C   UNL     2      -9.567   7.381  69.370  1.00  0.00    -0.155 C  
ENDROOT
BRANCH   3   4
HETATM    4  C   UNL     2     -10.277   6.561  70.444  1.00  0.00    -0.227 C  
BRANCH   4   5
HETATM    5  C   UNL     2     -11.797   6.585  70.271  1.00  0.00    -0.361 C  
BRANCH   5   6
HETATM    6  C   UNL     2     -12.536   7.010  71.547  1.00  0.00    -0.426 C  
BRANCH   6   7
HETATM    7  C   UNL     2     -12.028   8.346  72.087  1.00  0.00    -0.438 C  
BRANCH   7   8
HETATM    8  C   UNL     2     -13.128   9.399  72.204  1.00  0.00    -0.526 C  
BRANCH   8   9
HETATM    9  C   UNL     2     -12.736  10.717  71.520  1.00  0.00    -0.549 C  
BRANCH   9  10
HETATM   10  C   UNL     2     -11.646  10.589  70.448  1.00  0.00    -0.430 C  
BRANCH  10  11
HETATM   11  C   UNL     2     -12.121  11.028  69.060  1.00  0.00    -0.285 C  
BRANCH  11  12
HETATM   12  C   UNL     2     -11.173  10.614  67.929  1.00  0.00    -0.376 C  
BRANCH  12  13
HETATM   13  C   UNL     2     -10.945  11.706  66.880  1.00  0.00    -0.292 C  
BRANCH  13  14
HETATM   14  O   UNL     2     -11.009  12.971  67.514  1.00  0.00    -0.248 OA 
HETATM   15  S   UNL     2     -11.182  14.290  66.576  1.00  0.00    -0.341 S  
HETATM   16  O   UNL     2     -11.277  15.379  67.553  1.00  0.00    -0.327 OA 
HETATM   17  O   UNL     2     -12.423  14.054  65.849  1.00  0.00    -0.470 OA 
HETATM   18  O   UNL     2      -9.979  14.313  65.763  1.00  0.00    -0.313 OA 
ENDBRANCH  13  14
ENDBRANCH  12  13
ENDBRANCH  11  12
ENDBRANCH  10  11
ENDBRANCH   9  10
ENDBRANCH   8   9
ENDBRANCH   7   8
ENDBRANCH   6   7
ENDBRANCH   5   6
ENDBRANCH   4   5
ENDBRANCH   3   4
TORSDOF 11
ENDMDL
MODEL      113
REMARK 921   NORMALIZED FREE ENERGY PREDICTED BY IDOCK:   -3.74 KCAL/MOL
REMARK 922        TOTAL FREE ENERGY PREDICTED BY IDOCK:   -7.58 KCAL/MOL
REMARK 923 INTER-LIGAND FREE ENERGY PREDICTED BY IDOCK:   -6.36 KCAL/MOL
REMARK 924 INTRA-LIGAND FREE ENERGY PREDICTED BY IDOCK:   -1.22 KCAL/MOL
REMARK 927      BINDING AFFINITY PREDICTED BY RF-SCORE:    0.00 PKD
ROOT
HETATM    1 NA   UNL     1     -12.390  15.169  63.422  1.00  0.00    -0.778 Na 
HETATM    2  C   UNL     2      -9.206  15.297  69.400  1.00  0.00    -0.233 C  
HETATM    3  C   UNL     2     -10.298  15.487  68.360  1.00  0.00    -0.230 C  
ENDROOT
BRANCH   3   4
HETATM    4  C   UNL     2     -11.142  14.223  68.226  1.00  0.00    -0.276 C  
BRANCH   4   5
HETATM    5  C   UNL     2     -12.188  14.112  69.338  1.00  0.00    -0.329 C  
BRANCH   5   6
HETATM    6  C   UNL     2     -12.047  12.827  70.164  1.00  0.00    -0.370 C  
BRANCH   6   7
HETATM    7  C   UNL     2     -12.112  11.574  69.293  1.00  0.00    -0.344 C  
BRANCH   7   8
HETATM    8  C   UNL     2     -11.358  10.390  69.893  1.00  0.00    -0.370 C  
BRANCH   8   9
HETATM    9  C   UNL     2      -9.872  10.400  69.505  1.00  0.00    -0.211 C  
BRANCH   9  10
HETATM   10  C   UNL     2      -9.455   9.304  68.516  1.00  0.00    -0.150 C  
BRANCH  10  11
HETATM   11  C   UNL     2     -10.195   9.396  67.179  1.00  0.00    -0.319 C  
BRANCH  11  12
HETATM   12  C   UNL     2      -9.434  10.190  66.111  1.00  0.00    -0.238 C  
BRANCH  12  13
HETATM   13  C   UNL     2     -10.295  10.607  64.916  1.00  0.00    -0.277 C  
BRANCH  13  14
HETATM   14  O   UNL     2     -11.322  11.471  65.371  1.00  0.00    -0.207 OA 
HETATM   15  S   UNL     2     -11.940  12.547  64.318  1.00  0.00    -0.441 S  
HETATM   16  O   UNL     2     -12.994  13.203  65.097  1.00  0.00    -0.695 OA 
HETATM   17  O   UNL     2     -12.452  11.728  63.226  1.00  0.00    -0.543 OA 
HETATM   18  O   UNL     2     -10.818  13.405  63.980  1.00  0.00    -0.352 OA 
ENDBRANCH  13  14
ENDBRANCH  12  13
ENDBRANCH  11  12
ENDBRANCH  10  11
ENDBRANCH   9  10
ENDBRANCH   8   9
ENDBRANCH   7   8
ENDBRANCH   6   7
ENDBRANCH   5   6
ENDBRANCH   4   5
ENDBRANCH   3   4
TORSDOF 11
ENDMDL
MODEL      114
REMARK 921   NORMALIZED FREE ENERGY PREDICTED BY IDOCK:   -3.72 KCAL/MOL
REMARK 922        TOTAL FREE ENERGY PREDICTED BY IDOCK:   -7.55 KCAL/MOL
REMARK 923 INTER-LIGAND FREE ENERGY PREDICTED BY IDOCK:   -5.98 KCAL/MOL
REMARK 924 INTRA-LIGAND FREE ENERGY PREDICTED BY IDOCK:   -1.57 KCAL/MOL
REMARK 927      BINDING AFFINITY PREDICTED BY RF-SCORE:    0.00 PKD
ROOT
HETATM    1 NA   UNL     1      -8.338  17.123  65.690  1.00  0.00    -0.249 Na 
HETATM    2  C   UNL     2     -12.784  12.229  64.216  1.00  0.00    -0.413 C  
HETATM    3  C   UNL     2     -11.788  13.361  64.017  1.00  0.00    -0.498 C  
ENDROOT
BRANCH   3   4
HETATM    4  C   UNL     2     -10.361  12.822  63.974  1.00  0.00    -0.392 C  
BRANCH   4   5
HETATM    5  C   UNL     2     -10.327  11.294  63.894  1.00  0.00    -0.439 C  
BRANCH   5   6
HETATM    6  C   UNL     2      -9.356  10.666  64.902  1.00  0.00    -0.271 C  
BRANCH   6   7
HETATM    7  C   UNL     2     -10.069   9.734  65.882  1.00  0.00    -0.314 C  
BRANCH   7   8
HETATM    8  C   UNL     2     -10.798  10.484  66.995  1.00  0.00    -0.288 C  
BRANCH   8   9
HETATM    9  C   UNL     2      -9.835  10.963  68.090  1.00  0.00    -0.187 C  
BRANCH   9  10
HETATM   10  C   UNL     2      -9.778  12.485  68.280  1.00  0.00    -0.220 C  
BRANCH  10  11
HETATM   11  C   UNL     2     -10.897  13.219  67.537  1.00  0.00    -0.276 C  
BRANCH  11  12
HETATM   12  C   UNL     2     -10.833  14.744  67.686  1.00  0.00    -0.285 C  
BRANCH  12  13
HETATM   13  C   UNL     2     -12.027  15.345  68.434  1.00  0.00    -0.132 C  
BRANCH  13  14
HETATM   14  O   UNL     2     -11.580  15.850  69.680  1.00  0.00    -0.326 OA 
HETATM   15  S   UNL     2     -12.300  15.300  71.031  1.00  0.00    -0.408 S  
HETATM   16  O   UNL     2     -11.553  15.973  72.099  1.00  0.00    -0.443 OA 
HETATM   17  O   UNL     2     -12.083  13.859  70.993  1.00  0.00    -0.340 OA 
HETATM   18  O   UNL     2     -13.682  15.726  70.902  1.00  0.00    -0.496 OA 
ENDBRANCH  13  14
ENDBRANCH  12  13
ENDBRANCH  11  12
ENDBRANCH  10  11
ENDBRANCH   9  10
ENDBRANCH   8   9
ENDBRANCH   7   8
ENDBRANCH   6   7
ENDBRANCH   5   6
ENDBRANCH   4   5
ENDBRANCH   3   4
TORSDOF 11
ENDMDL
MODEL      115
REMARK 921   NORMALIZED FREE ENERGY PREDICTED BY IDOCK:   -3.72 KCAL/MOL
REMARK 922        TOTAL FREE ENERGY PREDICTED BY IDOCK:   -7.55 KCAL/MOL
REMARK 923 INTER-LIGAND FREE ENERGY PREDICTED BY IDOCK:   -6.87 KCAL/MOL
REMARK 924 INTRA-LIGAND FREE ENERGY PREDICTED BY IDOCK:   -0.68 KCAL/MOL
REMARK 927      BINDING AFFINITY PREDICTED BY RF-SCORE:    0.00 PKD
ROOT
HETATM    1 NA   UNL     1     -12.050   6.682  67.307  1.00  0.00    -0.689 Na 
HETATM    2  C   UNL     2     -10.813   4.612  73.639  1.00  0.00    -0.375 C  
HETATM    3  C   UNL     2     -10.578   5.207  72.259  1.00  0.00    -0.278 C  
ENDROOT
BRANCH   3   4
HETATM    4  C   UNL     2     -10.948   6.687  72.239  1.00  0.00    -0.278 C  
BRANCH   4   5
HETATM    5  C   UNL     2      -9.712   7.586  72.161  1.00  0.00    -0.204 C  
BRANCH   5   6
HETATM    6  C   UNL     2      -9.254   7.847  70.720  1.00  0.00    -0.159 C  
BRANCH   6   7
HETATM    7  C   UNL     2      -9.704   9.217  70.214  1.00  0.00    -0.274 C  
BRANCH   7   8
HETATM    8  C   UNL     2     -10.860   9.135  69.219  1.00  0.00    -0.150 C  
BRANCH   8   9
HETATM    9  C   UNL     2     -10.374   9.250  67.766  1.00  0.00    -0.292 C  
BRANCH   9  10
HETATM   10  C   UNL     2     -10.972  10.422  66.975  1.00  0.00    -0.222 C  
BRANCH  10  11
HETATM   11  C   UNL     2     -10.502  11.786  67.486  1.00  0.00    -0.228 C  
BRANCH  11  12
HETATM   12  C   UNL     2     -11.652  12.743  67.823  1.00  0.00    -0.405 C  
BRANCH  12  13
HETATM   13  C   UNL     2     -12.083  13.631  66.652  1.00  0.00    -0.411 C  
BRANCH  13  14
HETATM   14  O   UNL     2     -12.692  12.820  65.662  1.00  0.00    -0.549 OA 
HETATM   15  S   UNL     2     -12.236  13.030  64.114  1.00  0.00    -0.397 S  
HETATM   16  O   UNL     2     -13.003  12.002  63.403  1.00  0.00    -0.772 OA 
HETATM   17  O   UNL     2     -10.801  12.777  64.124  1.00  0.00    -0.354 OA 
HETATM   18  O   UNL     2     -12.626  14.394  63.806  1.00  0.00    -0.829 OA 
ENDBRANCH  13  14
ENDBRANCH  12  13
ENDBRANCH  11  12
ENDBRANCH  10  11
ENDBRANCH   9  10
ENDBRANCH   8   9
ENDBRANCH   7   8
ENDBRANCH   6   7
ENDBRANCH   5   6
ENDBRANCH   4   5
ENDBRANCH   3   4
TORSDOF 11
ENDMDL
MODEL      116
REMARK 921   NORMALIZED FREE ENERGY PREDICTED BY IDOCK:   -3.72 KCAL/MOL
REMARK 922        TOTAL FREE ENERGY PREDICTED BY IDOCK:   -7.54 KCAL/MOL
REMARK 923 INTER-LIGAND FREE ENERGY PREDICTED BY IDOCK:   -6.30 KCAL/MOL
REMARK 924 INTRA-LIGAND FREE ENERGY PREDICTED BY IDOCK:   -1.24 KCAL/MOL
REMARK 927      BINDING AFFINITY PREDICTED BY RF-SCORE:    0.00 PKD
ROOT
HETATM    1 NA   UNL     1     -14.380   7.950  70.340  1.00  0.00    -0.609 Na 
HETATM    2  C   UNL     2     -13.972  14.415  72.322  1.00  0.00    -0.610 C  
HETATM    3  C   UNL     2     -13.651  12.933  72.209  1.00  0.00    -0.611 C  
ENDROOT
BRANCH   3   4
HETATM    4  C   UNL     2     -12.718  12.671  71.031  1.00  0.00    -0.316 C  
BRANCH   4   5
HETATM    5  C   UNL     2     -12.353  13.961  70.292  1.00  0.00    -0.413 C  
BRANCH   5   6
HETATM    6  C   UNL     2     -11.921  13.715  68.840  1.00  0.00    -0.392 C  
BRANCH   6   7
HETATM    7  C   UNL     2     -11.900  12.227  68.492  1.00  0.00    -0.359 C  
BRANCH   7   8
HETATM    8  C   UNL     2     -11.045  11.914  67.266  1.00  0.00    -0.344 C  
BRANCH   8   9
HETATM    9  C   UNL     2     -10.437  10.505  67.334  1.00  0.00    -0.291 C  
BRANCH   9  10
HETATM   10  C   UNL     2      -9.047  10.432  67.979  1.00  0.00    -0.136 C  
BRANCH  10  11
HETATM   11  C   UNL     2      -9.079   9.860  69.399  1.00  0.00    -0.216 C  
BRANCH  11  12
HETATM   12  C   UNL     2      -8.924   8.336  69.449  1.00  0.00    -0.147 C  
BRANCH  12  13
HETATM   13  C   UNL     2     -10.203   7.595  69.849  1.00  0.00    -0.215 C  
BRANCH  13  14
HETATM   14  O   UNL     2     -11.170   8.544  70.265  1.00  0.00    -0.248 OA 
HETATM   15  S   UNL     2     -11.850   8.352  71.731  1.00  0.00    -0.341 S  
HETATM   16  O   UNL     2     -12.724   9.524  71.844  1.00  0.00    -0.364 OA 
HETATM   17  O   UNL     2     -10.723   8.380  72.655  1.00  0.00    -0.339 OA 
HETATM   18  O   UNL     2     -12.550   7.084  71.640  1.00  0.00    -0.352 OA 
ENDBRANCH  13  14
ENDBRANCH  12  13
ENDBRANCH  11  12
ENDBRANCH  10  11
ENDBRANCH   9  10
ENDBRANCH   8   9
ENDBRANCH   7   8
ENDBRANCH   6   7
ENDBRANCH   5   6
ENDBRANCH   4   5
ENDBRANCH   3   4
TORSDOF 11
ENDMDL
MODEL      117
REMARK 921   NORMALIZED FREE ENERGY PREDICTED BY IDOCK:   -3.72 KCAL/MOL
REMARK 922        TOTAL FREE ENERGY PREDICTED BY IDOCK:   -7.54 KCAL/MOL
REMARK 923 INTER-LIGAND FREE ENERGY PREDICTED BY IDOCK:   -6.32 KCAL/MOL
REMARK 924 INTRA-LIGAND FREE ENERGY PREDICTED BY IDOCK:   -1.22 KCAL/MOL
REMARK 927      BINDING AFFINITY PREDICTED BY RF-SCORE:    0.00 PKD
ROOT
HETATM    1 NA   UNL     1     -11.264  11.693  70.820  1.00  0.00    -0.443 Na 
HETATM    2  C   UNL     2      -9.035   7.473  66.011  1.00  0.00    -0.164 C  
HETATM    3  C   UNL     2      -9.945   8.440  66.754  1.00  0.00    -0.354 C  
ENDROOT
BRANCH   3   4
HETATM    4  C   UNL     2      -9.596   9.884  66.406  1.00  0.00    -0.255 C  
BRANCH   4   5
HETATM    5  C   UNL     2     -10.453  10.421  65.258  1.00  0.00    -0.178 C  
BRANCH   5   6
HETATM    6  C   UNL     2      -9.636  10.727  63.996  1.00  0.00    -0.339 C  
BRANCH   6   7
HETATM    7  C   UNL     2     -10.200  11.917  63.221  1.00  0.00    -0.428 C  
BRANCH   7   8
HETATM    8  C   UNL     2     -11.661  12.211  63.558  1.00  0.00    -0.562 C  
BRANCH   8   9
HETATM    9  C   UNL     2     -11.817  13.525  64.337  1.00  0.00    -0.455 C  
BRANCH   9  10
HETATM   10  C   UNL     2     -10.502  14.141  64.835  1.00  0.00    -0.461 C  
BRANCH  10  11
HETATM   11  C   UNL     2     -10.360  14.087  66.359  1.00  0.00    -0.289 C  
BRANCH  11  12
HETATM   12  C   UNL     2     -11.625  14.524  67.107  1.00  0.00    -0.406 C  
BRANCH  12  13
HETATM   13  C   UNL     2     -11.769  13.901  68.499  1.00  0.00    -0.355 C  
BRANCH  13  14
HETATM   14  O   UNL     2     -12.786  14.589  69.206  1.00  0.00    -0.006 OA 
HETATM   15  S   UNL     2     -12.510  14.971  70.764  1.00  0.00    -0.385 S  
HETATM   16  O   UNL     2     -13.717  15.714  71.139  1.00  0.00    -0.591 OA 
HETATM   17  O   UNL     2     -11.310  15.798  70.725  1.00  0.00    -0.329 OA 
HETATM   18  O   UNL     2     -12.362  13.688  71.428  1.00  0.00    -0.320 OA 
ENDBRANCH  13  14
ENDBRANCH  12  13
ENDBRANCH  11  12
ENDBRANCH  10  11
ENDBRANCH   9  10
ENDBRANCH   8   9
ENDBRANCH   7   8
ENDBRANCH   6   7
ENDBRANCH   5   6
ENDBRANCH   4   5
ENDBRANCH   3   4
TORSDOF 11
ENDMDL
MODEL      118
REMARK 921   NORMALIZED FREE ENERGY PREDICTED BY IDOCK:   -3.71 KCAL/MOL
REMARK 922        TOTAL FREE ENERGY PREDICTED BY IDOCK:   -7.53 KCAL/MOL
REMARK 923 INTER-LIGAND FREE ENERGY PREDICTED BY IDOCK:   -6.98 KCAL/MOL
REMARK 924 INTRA-LIGAND FREE ENERGY PREDICTED BY IDOCK:   -0.55 KCAL/MOL
REMARK 927      BINDING AFFINITY PREDICTED BY RF-SCORE:    0.00 PKD
ROOT
HETATM    1 NA   UNL     1     -13.826   8.850  73.754  1.00  0.00    -0.842 Na 
HETATM    2  C   UNL     2      -8.141   6.855  70.658  1.00  0.00    -0.118 C  
HETATM    3  C   UNL     2      -9.572   6.830  71.170  1.00  0.00    -0.177 C  
ENDROOT
BRANCH   3   4
HETATM    4  C   UNL     2     -10.511   7.515  70.182  1.00  0.00    -0.226 C  
BRANCH   4   5
HETATM    5  C   UNL     2     -11.689   8.192  70.886  1.00  0.00    -0.259 C  
BRANCH   5   6
HETATM    6  C   UNL     2     -11.427   9.671  71.199  1.00  0.00    -0.456 C  
BRANCH   6   7
HETATM    7  C   UNL     2     -12.710  10.420  71.555  1.00  0.00    -0.564 C  
BRANCH   7   8
HETATM    8  C   UNL     2     -12.597  11.929  71.354  1.00  0.00    -0.346 C  
BRANCH   8   9
HETATM    9  C   UNL     2     -13.633  12.699  72.186  1.00  0.00    -0.510 C  
BRANCH   9  10
HETATM   10  C   UNL     2     -13.268  14.160  72.482  1.00  0.00    -0.596 C  
BRANCH  10  11
HETATM   11  C   UNL     2     -13.008  14.976  71.213  1.00  0.00    -0.448 C  
BRANCH  11  12
HETATM   12  C   UNL     2     -11.611  15.608  71.168  1.00  0.00    -0.462 C  
BRANCH  12  13
HETATM   13  C   UNL     2     -11.187  16.076  69.773  1.00  0.00    -0.344 C  
BRANCH  13  14
HETATM   14  O   UNL     2     -11.917  15.346  68.803  1.00  0.00    -0.331 OA 
HETATM   15  S   UNL     2     -11.126  14.829  67.478  1.00  0.00    -0.330 S  
HETATM   16  O   UNL     2     -12.154  14.074  66.754  1.00  0.00    -0.428 OA 
HETATM   17  O   UNL     2     -10.056  13.990  68.003  1.00  0.00    -0.227 OA 
HETATM   18  O   UNL     2     -10.696  16.048  66.817  1.00  0.00    -0.317 OA 
ENDBRANCH  13  14
ENDBRANCH  12  13
ENDBRANCH  11  12
ENDBRANCH  10  11
ENDBRANCH   9  10
ENDBRANCH   8   9
ENDBRANCH   7   8
ENDBRANCH   6   7
ENDBRANCH   5   6
ENDBRANCH   4   5
ENDBRANCH   3   4
TORSDOF 11
ENDMDL
MODEL      119
REMARK 921   NORMALIZED FREE ENERGY PREDICTED BY IDOCK:   -3.71 KCAL/MOL
REMARK 922        TOTAL FREE ENERGY PREDICTED BY IDOCK:   -7.53 KCAL/MOL
REMARK 923 INTER-LIGAND FREE ENERGY PREDICTED BY IDOCK:   -6.50 KCAL/MOL
REMARK 924 INTRA-LIGAND FREE ENERGY PREDICTED BY IDOCK:   -1.03 KCAL/MOL
REMARK 927      BINDING AFFINITY PREDICTED BY RF-SCORE:    0.00 PKD
ROOT
HETATM    1 NA   UNL     1     -14.408  16.299  70.328  1.00  0.00    -0.661 Na 
HETATM    2  C   UNL     2     -12.023  10.086  71.598  1.00  0.00    -0.369 C  
HETATM    3  C   UNL     2     -12.672  11.243  70.853  1.00  0.00    -0.412 C  
ENDROOT
BRANCH   3   4
HETATM    4  C   UNL     2     -11.617  12.090  70.147  1.00  0.00    -0.228 C  
BRANCH   4   5
HETATM    5  C   UNL     2     -11.552  11.791  68.648  1.00  0.00    -0.367 C  
BRANCH   5   6
HETATM    6  C   UNL     2     -10.433  10.806  68.284  1.00  0.00    -0.207 C  
BRANCH   6   7
HETATM    7  C   UNL     2      -9.060  11.476  68.271  1.00  0.00    -0.185 C  
BRANCH   7   8
HETATM    8  C   UNL     2      -8.057  10.763  67.366  1.00  0.00    -0.112 C  
BRANCH   8   9
HETATM    9  C   UNL     2      -8.535   9.356  66.978  1.00  0.00    -0.127 C  
BRANCH   9  10
HETATM   10  C   UNL     2      -8.669   9.112  65.469  1.00  0.00    -0.210 C  
BRANCH  10  11
HETATM   11  C   UNL     2      -8.780  10.410  64.665  1.00  0.00    -0.198 C  
BRANCH  11  12
HETATM   12  C   UNL     2     -10.210  10.729  64.211  1.00  0.00    -0.422 C  
BRANCH  12  13
HETATM   13  C   UNL     2     -10.401  12.168  63.725  1.00  0.00    -0.437 C  
BRANCH  13  14
HETATM   14  O   UNL     2     -10.943  12.940  64.783  1.00  0.00    -0.294 OA 
HETATM   15  S   UNL     2     -12.461  13.502  64.620  1.00  0.00    -0.284 S  
HETATM   16  O   UNL     2     -12.702  14.177  65.899  1.00  0.00    -0.487 OA 
HETATM   17  O   UNL     2     -13.270  12.302  64.438  1.00  0.00    -0.806 OA 
HETATM   18  O   UNL     2     -12.396  14.389  63.473  1.00  0.00    -0.689 OA 
ENDBRANCH  13  14
ENDBRANCH  12  13
ENDBRANCH  11  12
ENDBRANCH  10  11
ENDBRANCH   9  10
ENDBRANCH   8   9
ENDBRANCH   7   8
ENDBRANCH   6   7
ENDBRANCH   5   6
ENDBRANCH   4   5
ENDBRANCH   3   4
TORSDOF 11
ENDMDL
MODEL      120
REMARK 921   NORMALIZED FREE ENERGY PREDICTED BY IDOCK:   -3.71 KCAL/MOL
REMARK 922        TOTAL FREE ENERGY PREDICTED BY IDOCK:   -7.53 KCAL/MOL
REMARK 923 INTER-LIGAND FREE ENERGY PREDICTED BY IDOCK:   -6.46 KCAL/MOL
REMARK 924 INTRA-LIGAND FREE ENERGY PREDICTED BY IDOCK:   -1.07 KCAL/MOL
REMARK 927      BINDING AFFINITY PREDICTED BY RF-SCORE:    0.00 PKD
ROOT
HETATM    1 NA   UNL     1     -11.845   5.887  68.067  1.00  0.00    -0.303 Na 
HETATM    2  C   UNL     2     -12.920  11.558  71.613  1.00  0.00    -0.499 C  
HETATM    3  C   UNL     2     -12.761  10.079  71.299  1.00  0.00    -0.500 C  
ENDROOT
BRANCH   3   4
HETATM    4  C   UNL     2     -11.294   9.666  71.376  1.00  0.00    -0.444 C  
BRANCH   4   5
HETATM    5  C   UNL     2     -10.820   8.992  70.086  1.00  0.00    -0.261 C  
BRANCH   5   6
HETATM    6  C   UNL     2     -10.252   9.988  69.067  1.00  0.00    -0.216 C  
BRANCH   6   7
HETATM    7  C   UNL     2     -11.260  10.323  67.969  1.00  0.00    -0.303 C  
BRANCH   7   8
HETATM    8  C   UNL     2     -11.525  11.821  67.839  1.00  0.00    -0.387 C  
BRANCH   8   9
HETATM    9  C   UNL     2     -10.475  12.657  68.586  1.00  0.00    -0.224 C  
BRANCH   9  10
HETATM   10  C   UNL     2     -10.909  14.089  68.924  1.00  0.00    -0.278 C  
BRANCH  10  11
HETATM   11  C   UNL     2      -9.794  15.115  68.707  1.00  0.00    -0.223 C  
BRANCH  11  12
HETATM   12  C   UNL     2      -8.984  14.878  67.427  1.00  0.00    -0.198 C  
BRANCH  12  13
HETATM   13  C   UNL     2      -9.604  15.504  66.175  1.00  0.00    -0.330 C  
BRANCH  13  14
HETATM   14  O   UNL     2      -9.119  16.828  66.036  1.00  0.00    -0.428 OA 
HETATM   15  S   UNL     2     -10.199  18.045  66.049  1.00  0.00    -0.230 S  
HETATM   16  O   UNL     2      -9.353  19.238  65.955  1.00  0.00    -0.429 OA 
HETATM   17  O   UNL     2     -10.873  17.913  67.335  1.00  0.00    -0.339 OA 
HETATM   18  O   UNL     2     -11.029  17.801  64.883  1.00  0.00    -0.866 OA 
ENDBRANCH  13  14
ENDBRANCH  12  13
ENDBRANCH  11  12
ENDBRANCH  10  11
ENDBRANCH   9  10
ENDBRANCH   8   9
ENDBRANCH   7   8
ENDBRANCH   6   7
ENDBRANCH   5   6
ENDBRANCH   4   5
ENDBRANCH   3   4
TORSDOF 11
ENDMDL
MODEL      121
REMARK 921   NORMALIZED FREE ENERGY PREDICTED BY IDOCK:   -3.71 KCAL/MOL
REMARK 922        TOTAL FREE ENERGY PREDICTED BY IDOCK:   -7.52 KCAL/MOL
REMARK 923 INTER-LIGAND FREE ENERGY PREDICTED BY IDOCK:   -6.35 KCAL/MOL
REMARK 924 INTRA-LIGAND FREE ENERGY PREDICTED BY IDOCK:   -1.18 KCAL/MOL
REMARK 927      BINDING AFFINITY PREDICTED BY RF-SCORE:    0.00 PKD
ROOT
HETATM    1 NA   UNL     1     -14.359  16.060  70.260  1.00  0.00    -0.851 Na 
HETATM    2  C   UNL     2     -12.527  12.638  64.707  1.00  0.00    -0.555 C  
HETATM    3  C   UNL     2     -12.673  13.786  65.694  1.00  0.00    -0.523 C  
ENDROOT
BRANCH   3   4
HETATM    4  C   UNL     2     -11.568  13.738  66.745  1.00  0.00    -0.394 C  
BRANCH   4   5
HETATM    5  C   UNL     2     -11.842  12.681  67.817  1.00  0.00    -0.381 C  
BRANCH   5   6
HETATM    6  C   UNL     2     -10.829  11.528  67.791  1.00  0.00    -0.270 C  
BRANCH   6   7
HETATM    7  C   UNL     2      -9.630  11.838  66.896  1.00  0.00    -0.204 C  
BRANCH   7   8
HETATM    8  C   UNL     2      -8.293  11.712  67.625  1.00  0.00    -0.142 C  
BRANCH   8   9
HETATM    9  C   UNL     2      -7.460  12.998  67.520  1.00  0.00    -0.158 C  
BRANCH   9  10
HETATM   10  C   UNL     2      -8.178  14.273  67.981  1.00  0.00    -0.153 C  
BRANCH  10  11
HETATM   11  C   UNL     2      -8.324  15.310  66.864  1.00  0.00    -0.278 C  
BRANCH  11  12
HETATM   12  C   UNL     2      -7.595  16.628  67.153  1.00  0.00    -0.218 C  
BRANCH  12  13
HETATM   13  C   UNL     2      -8.209  17.843  66.454  1.00  0.00    -0.255 C  
BRANCH  13  14
HETATM   14  O   UNL     2      -8.669  18.754  67.437  1.00  0.00    -0.270 OA 
HETATM   15  S   UNL     2     -10.264  19.070  67.501  1.00  0.00    -0.421 S  
HETATM   16  O   UNL     2     -10.375  19.975  68.649  1.00  0.00    -0.437 OA 
HETATM   17  O   UNL     2     -10.880  17.769  67.727  1.00  0.00    -0.371 OA 
HETATM   18  O   UNL     2     -10.561  19.685  66.219  1.00  0.00    -0.464 OA 
ENDBRANCH  13  14
ENDBRANCH  12  13
ENDBRANCH  11  12
ENDBRANCH  10  11
ENDBRANCH   9  10
ENDBRANCH   8   9
ENDBRANCH   7   8
ENDBRANCH   6   7
ENDBRANCH   5   6
ENDBRANCH   4   5
ENDBRANCH   3   4
TORSDOF 11
ENDMDL
MODEL      122
REMARK 921   NORMALIZED FREE ENERGY PREDICTED BY IDOCK:   -3.70 KCAL/MOL
REMARK 922        TOTAL FREE ENERGY PREDICTED BY IDOCK:   -7.51 KCAL/MOL
REMARK 923 INTER-LIGAND FREE ENERGY PREDICTED BY IDOCK:   -6.98 KCAL/MOL
REMARK 924 INTRA-LIGAND FREE ENERGY PREDICTED BY IDOCK:   -0.54 KCAL/MOL
REMARK 927      BINDING AFFINITY PREDICTED BY RF-SCORE:    0.00 PKD
ROOT
HETATM    1 NA   UNL     1     -11.702   7.680  67.014  1.00  0.00    -0.489 Na 
HETATM    2  C   UNL     2     -11.163   5.212  73.300  1.00  0.00    -0.389 C  
HETATM    3  C   UNL     2     -11.171   6.211  72.153  1.00  0.00    -0.335 C  
ENDROOT
BRANCH   3   4
HETATM    4  C   UNL     2     -12.584   6.727  71.897  1.00  0.00    -0.328 C  
BRANCH   4   5
HETATM    5  C   UNL     2     -12.707   8.226  72.180  1.00  0.00    -0.366 C  
BRANCH   5   6
HETATM    6  C   UNL     2     -13.654   8.940  71.206  1.00  0.00    -0.215 C  
BRANCH   6   7
HETATM    7  C   UNL     2     -13.150  10.334  70.834  1.00  0.00    -0.423 C  
BRANCH   7   8
HETATM    8  C   UNL     2     -11.649  10.371  70.555  1.00  0.00    -0.433 C  
BRANCH   8   9
HETATM    9  C   UNL     2     -11.286  11.433  69.506  1.00  0.00    -0.357 C  
BRANCH   9  10
HETATM   10  C   UNL     2     -11.810  12.844  69.808  1.00  0.00    -0.380 C  
BRANCH  10  11
HETATM   11  C   UNL     2     -10.844  13.944  69.361  1.00  0.00    -0.109 C  
BRANCH  11  12
HETATM   12  C   UNL     2     -11.148  15.314  69.980  1.00  0.00    -0.303 C  
BRANCH  12  13
HETATM   13  C   UNL     2     -12.307  15.299  70.980  1.00  0.00    -0.367 C  
BRANCH  13  14
HETATM   14  O   UNL     2     -11.988  16.153  72.065  1.00  0.00    -0.479 OA 
HETATM   15  S   UNL     2     -12.763  15.920  73.476  1.00  0.00    -0.636 S  
HETATM   16  O   UNL     2     -12.144  16.913  74.360  1.00  0.00    -0.515 OA 
HETATM   17  O   UNL     2     -12.443  14.544  73.839  1.00  0.00    -0.415 OA 
HETATM   18  O   UNL     2     -14.158  16.174  73.168  1.00  0.00    -0.435 OA 
ENDBRANCH  13  14
ENDBRANCH  12  13
ENDBRANCH  11  12
ENDBRANCH  10  11
ENDBRANCH   9  10
ENDBRANCH   8   9
ENDBRANCH   7   8
ENDBRANCH   6   7
ENDBRANCH   5   6
ENDBRANCH   4   5
ENDBRANCH   3   4
TORSDOF 11
ENDMDL
MODEL      123
REMARK 921   NORMALIZED FREE ENERGY PREDICTED BY IDOCK:   -3.69 KCAL/MOL
REMARK 922        TOTAL FREE ENERGY PREDICTED BY IDOCK:   -7.50 KCAL/MOL
REMARK 923 INTER-LIGAND FREE ENERGY PREDICTED BY IDOCK:   -6.85 KCAL/MOL
REMARK 924 INTRA-LIGAND FREE ENERGY PREDICTED BY IDOCK:   -0.66 KCAL/MOL
REMARK 927      BINDING AFFINITY PREDICTED BY RF-SCORE:    0.00 PKD
ROOT
HETATM    1 NA   UNL     1     -12.388  14.700  62.727  1.00  0.00    -0.885 Na 
HETATM    2  C   UNL     2      -9.314  19.535  66.342  1.00  0.00    -0.443 C  
HETATM    3  C   UNL     2     -10.352  18.505  65.927  1.00  0.00    -0.344 C  
ENDROOT
BRANCH   3   4
HETATM    4  C   UNL     2      -9.980  17.121  66.452  1.00  0.00    -0.315 C  
BRANCH   4   5
HETATM    5  C   UNL     2     -10.894  16.030  65.890  1.00  0.00    -0.210 C  
BRANCH   5   6
HETATM    6  C   UNL     2     -10.118  14.887  65.223  1.00  0.00    -0.380 C  
BRANCH   6   7
HETATM    7  C   UNL     2     -10.990  13.650  65.007  1.00  0.00    -0.350 C  
BRANCH   7   8
HETATM    8  C   UNL     2     -12.136  13.546  66.011  1.00  0.00    -0.489 C  
BRANCH   8   9
HETATM    9  C   UNL     2     -11.725  12.770  67.271  1.00  0.00    -0.440 C  
BRANCH   9  10
HETATM   10  C   UNL     2     -11.879  13.546  68.586  1.00  0.00    -0.404 C  
BRANCH  10  11
HETATM   11  C   UNL     2     -12.143  12.634  69.788  1.00  0.00    -0.301 C  
BRANCH  11  12
HETATM   12  C   UNL     2     -12.065  11.140  69.450  1.00  0.00    -0.396 C  
BRANCH  12  13
HETATM   13  C   UNL     2     -12.275  10.220  70.657  1.00  0.00    -0.329 C  
BRANCH  13  14
HETATM   14  O   UNL     2     -11.038  10.052  71.326  1.00  0.00    -0.309 OA 
HETATM   15  S   UNL     2     -10.659   8.568  71.874  1.00  0.00    -0.349 S  
HETATM   16  O   UNL     2      -9.317   8.755  72.433  1.00  0.00    -0.331 OA 
HETATM   17  O   UNL     2     -10.678   7.728  70.682  1.00  0.00    -0.223 OA 
HETATM   18  O   UNL     2     -11.686   8.275  72.858  1.00  0.00    -0.348 OA 
ENDBRANCH  13  14
ENDBRANCH  12  13
ENDBRANCH  11  12
ENDBRANCH  10  11
ENDBRANCH   9  10
ENDBRANCH   8   9
ENDBRANCH   7   8
ENDBRANCH   6   7
ENDBRANCH   5   6
ENDBRANCH   4   5
ENDBRANCH   3   4
TORSDOF 11
ENDMDL
MODEL      124
REMARK 921   NORMALIZED FREE ENERGY PREDICTED BY IDOCK:   -3.69 KCAL/MOL
REMARK 922        TOTAL FREE ENERGY PREDICTED BY IDOCK:   -7.50 KCAL/MOL
REMARK 923 INTER-LIGAND FREE ENERGY PREDICTED BY IDOCK:   -6.76 KCAL/MOL
REMARK 924 INTRA-LIGAND FREE ENERGY PREDICTED BY IDOCK:   -0.74 KCAL/MOL
REMARK 927      BINDING AFFINITY PREDICTED BY RF-SCORE:    0.00 PKD
ROOT
HETATM    1 NA   UNL     1      -7.676  11.947  69.736  1.00  0.00    -0.327 Na 
HETATM    2  C   UNL     2      -8.983   6.516  73.568  1.00  0.00    -0.137 C  
HETATM    3  C   UNL     2      -8.923   7.969  73.123  1.00  0.00    -0.333 C  
ENDROOT
BRANCH   3   4
HETATM    4  C   UNL     2     -10.129   8.318  72.256  1.00  0.00    -0.370 C  
BRANCH   4   5
HETATM    5  C   UNL     2     -11.426   7.730  72.815  1.00  0.00    -0.415 C  
BRANCH   5   6
HETATM    6  C   UNL     2     -12.459   7.419  71.724  1.00  0.00    -0.367 C  
BRANCH   6   7
HETATM    7  C   UNL     2     -13.677   8.338  71.807  1.00  0.00    -0.420 C  
BRANCH   7   8
HETATM    8  C   UNL     2     -13.306   9.800  72.043  1.00  0.00    -0.547 C  
BRANCH   8   9
HETATM    9  C   UNL     2     -13.200  10.585  70.727  1.00  0.00    -0.221 C  
BRANCH   9  10
HETATM   10  C   UNL     2     -11.770  10.940  70.301  1.00  0.00    -0.437 C  
BRANCH  10  11
HETATM   11  C   UNL     2     -11.706  11.588  68.915  1.00  0.00    -0.403 C  
BRANCH  11  12
HETATM   12  C   UNL     2     -11.784  13.119  68.951  1.00  0.00    -0.368 C  
BRANCH  12  13
HETATM   13  C   UNL     2     -11.868  13.769  67.567  1.00  0.00    -0.387 C  
BRANCH  13  14
HETATM   14  O   UNL     2     -11.593  12.787  66.583  1.00  0.00    -0.330 OA 
HETATM   15  S   UNL     2     -11.895  13.157  65.028  1.00  0.00    -0.379 S  
HETATM   16  O   UNL     2     -11.437  11.963  64.310  1.00  0.00    -0.350 OA 
HETATM   17  O   UNL     2     -11.076  14.335  64.772  1.00  0.00    -0.368 OA 
HETATM   18  O   UNL     2     -13.330  13.374  64.982  1.00  0.00    -0.599 OA 
ENDBRANCH  13  14
ENDBRANCH  12  13
ENDBRANCH  11  12
ENDBRANCH  10  11
ENDBRANCH   9  10
ENDBRANCH   8   9
ENDBRANCH   7   8
ENDBRANCH   6   7
ENDBRANCH   5   6
ENDBRANCH   4   5
ENDBRANCH   3   4
TORSDOF 11
ENDMDL
MODEL      125
REMARK 921   NORMALIZED FREE ENERGY PREDICTED BY IDOCK:   -3.69 KCAL/MOL
REMARK 922        TOTAL FREE ENERGY PREDICTED BY IDOCK:   -7.50 KCAL/MOL
REMARK 923 INTER-LIGAND FREE ENERGY PREDICTED BY IDOCK:   -6.44 KCAL/MOL
REMARK 924 INTRA-LIGAND FREE ENERGY PREDICTED BY IDOCK:   -1.06 KCAL/MOL
REMARK 927      BINDING AFFINITY PREDICTED BY RF-SCORE:    0.00 PKD
ROOT
HETATM    1 NA   UNL     1     -13.714  12.220  64.476  1.00  0.00    -0.728 Na 
HETATM    2  C   UNL     2     -11.365   9.997  70.428  1.00  0.00    -0.392 C  
HETATM    3  C   UNL     2     -11.392  10.670  69.065  1.00  0.00    -0.340 C  
ENDROOT
BRANCH   3   4
HETATM    4  C   UNL     2     -11.882  12.110  69.184  1.00  0.00    -0.361 C  
BRANCH   4   5
HETATM    5  C   UNL     2     -12.375  12.433  70.596  1.00  0.00    -0.367 C  
BRANCH   5   6
HETATM    6  C   UNL     2     -12.529  13.939  70.844  1.00  0.00    -0.447 C  
BRANCH   6   7
HETATM    7  C   UNL     2     -11.850  14.772  69.758  1.00  0.00    -0.362 C  
BRANCH   7   8
HETATM    8  C   UNL     2     -10.747  15.677  70.303  1.00  0.00    -0.354 C  
BRANCH   8   9
HETATM    9  C   UNL     2      -9.522  15.708  69.378  1.00  0.00    -0.279 C  
BRANCH   9  10
HETATM   10  C   UNL     2      -9.598  14.762  68.172  1.00  0.00    -0.209 C  
BRANCH  10  11
HETATM   11  C   UNL     2      -9.473  15.493  66.833  1.00  0.00    -0.244 C  
BRANCH  11  12
HETATM   12  C   UNL     2      -8.159  16.270  66.680  1.00  0.00    -0.323 C  
BRANCH  12  13
HETATM   13  C   UNL     2      -8.350  17.773  66.458  1.00  0.00    -0.265 C  
BRANCH  13  14
HETATM   14  O   UNL     2      -8.659  18.384  67.698  1.00  0.00    -0.255 OA 
HETATM   15  S   UNL     2      -9.990  19.316  67.781  1.00  0.00    -0.391 S  
HETATM   16  O   UNL     2     -10.028  19.712  69.192  1.00  0.00    -0.441 OA 
HETATM   17  O   UNL     2     -11.079  18.423  67.402  1.00  0.00    -0.257 OA 
HETATM   18  O   UNL     2      -9.727  20.404  66.856  1.00  0.00    -0.428 OA 
ENDBRANCH  13  14
ENDBRANCH  12  13
ENDBRANCH  11  12
ENDBRANCH  10  11
ENDBRANCH   9  10
ENDBRANCH   8   9
ENDBRANCH   7   8
ENDBRANCH   6   7
ENDBRANCH   5   6
ENDBRANCH   4   5
ENDBRANCH   3   4
TORSDOF 11
ENDMDL
MODEL      126
REMARK 921   NORMALIZED FREE ENERGY PREDICTED BY IDOCK:   -3.69 KCAL/MOL
REMARK 922        TOTAL FREE ENERGY PREDICTED BY IDOCK:   -7.49 KCAL/MOL
REMARK 923 INTER-LIGAND FREE ENERGY PREDICTED BY IDOCK:   -6.28 KCAL/MOL
REMARK 924 INTRA-LIGAND FREE ENERGY PREDICTED BY IDOCK:   -1.21 KCAL/MOL
REMARK 927      BINDING AFFINITY PREDICTED BY RF-SCORE:    0.00 PKD
ROOT
HETATM    1 NA   UNL     1      -6.257  14.845  68.490  1.00  0.00    -0.078 Na 
HETATM    2  C   UNL     2      -9.993  20.292  66.983  1.00  0.00    -0.601 C  
HETATM    3  C   UNL     2      -8.911  19.434  67.620  1.00  0.00    -0.355 C  
ENDROOT
BRANCH   3   4
HETATM    4  C   UNL     2      -7.682  19.357  66.717  1.00  0.00    -0.272 C  
BRANCH   4   5
HETATM    5  C   UNL     2      -7.412  17.929  66.239  1.00  0.00    -0.321 C  
BRANCH   5   6
HETATM    6  C   UNL     2      -8.148  16.871  67.071  1.00  0.00    -0.228 C  
BRANCH   6   7
HETATM    7  C   UNL     2      -9.010  15.955  66.204  1.00  0.00    -0.376 C  
BRANCH   7   8
HETATM    8  C   UNL     2     -10.369  16.563  65.862  1.00  0.00    -0.365 C  
BRANCH   8   9
HETATM    9  C   UNL     2     -11.121  15.731  64.813  1.00  0.00    -0.413 C  
BRANCH   9  10
HETATM   10  C   UNL     2     -11.142  14.220  65.080  1.00  0.00    -0.377 C  
BRANCH  10  11
HETATM   11  C   UNL     2     -12.201  13.812  66.107  1.00  0.00    -0.499 C  
BRANCH  11  12
HETATM   12  C   UNL     2     -11.677  12.843  67.174  1.00  0.00    -0.437 C  
BRANCH  12  13
HETATM   13  C   UNL     2     -11.197  13.532  68.455  1.00  0.00    -0.278 C  
BRANCH  13  14
HETATM   14  O   UNL     2     -12.321  14.052  69.144  1.00  0.00    -0.313 OA 
HETATM   15  S   UNL     2     -12.099  15.351  70.099  1.00  0.00    -0.381 S  
HETATM   16  O   UNL     2     -13.453  15.642  70.580  1.00  0.00    -0.476 OA 
HETATM   17  O   UNL     2     -11.571  16.372  69.202  1.00  0.00    -0.256 OA 
HETATM   18  O   UNL     2     -11.181  14.889  71.126  1.00  0.00    -0.257 OA 
ENDBRANCH  13  14
ENDBRANCH  12  13
ENDBRANCH  11  12
ENDBRANCH  10  11
ENDBRANCH   9  10
ENDBRANCH   8   9
ENDBRANCH   7   8
ENDBRANCH   6   7
ENDBRANCH   5   6
ENDBRANCH   4   5
ENDBRANCH   3   4
TORSDOF 11
ENDMDL
MODEL      127
REMARK 921   NORMALIZED FREE ENERGY PREDICTED BY IDOCK:   -3.68 KCAL/MOL
REMARK 922        TOTAL FREE ENERGY PREDICTED BY IDOCK:   -7.49 KCAL/MOL
REMARK 923 INTER-LIGAND FREE ENERGY PREDICTED BY IDOCK:   -6.12 KCAL/MOL
REMARK 924 INTRA-LIGAND FREE ENERGY PREDICTED BY IDOCK:   -1.37 KCAL/MOL
REMARK 927      BINDING AFFINITY PREDICTED BY RF-SCORE:    0.00 PKD
ROOT
HETATM    1 NA   UNL     1     -13.130  15.549  69.250  1.00  0.00    -0.544 Na 
HETATM    2  C   UNL     2     -11.881  11.870  63.700  1.00  0.00    -0.573 C  
HETATM    3  C   UNL     2     -12.613  12.774  64.679  1.00  0.00    -0.491 C  
ENDROOT
BRANCH   3   4
HETATM    4  C   UNL     2     -12.232  14.234  64.454  1.00  0.00    -0.471 C  
BRANCH   4   5
HETATM    5  C   UNL     2     -11.400  14.794  65.610  1.00  0.00    -0.343 C  
BRANCH   5   6
HETATM    6  C   UNL     2     -11.905  14.336  66.985  1.00  0.00    -0.455 C  
BRANCH   6   7
HETATM    7  C   UNL     2     -10.795  13.700  67.821  1.00  0.00    -0.266 C  
BRANCH   7   8
HETATM    8  C   UNL     2      -9.956  12.696  67.034  1.00  0.00    -0.220 C  
BRANCH   8   9
HETATM    9  C   UNL     2      -8.451  12.960  67.188  1.00  0.00    -0.179 C  
BRANCH   9  10
HETATM   10  C   UNL     2      -8.091  14.122  68.124  1.00  0.00    -0.148 C  
BRANCH  10  11
HETATM   11  C   UNL     2      -7.304  15.231  67.420  1.00  0.00    -0.241 C  
BRANCH  11  12
HETATM   12  C   UNL     2      -8.165  16.101  66.496  1.00  0.00    -0.343 C  
BRANCH  12  13
HETATM   13  C   UNL     2      -8.982  17.167  67.231  1.00  0.00    -0.221 C  
BRANCH  13  14
HETATM   14  O   UNL     2      -8.138  17.834  68.154  1.00  0.00    -0.247 OA 
HETATM   15  S   UNL     2      -8.395  19.419  68.419  1.00  0.00    -0.349 S  
HETATM   16  O   UNL     2      -7.408  19.745  69.452  1.00  0.00    -0.318 OA 
HETATM   17  O   UNL     2      -9.773  19.486  68.892  1.00  0.00    -0.412 OA 
HETATM   18  O   UNL     2      -8.148  20.043  67.131  1.00  0.00    -0.294 OA 
ENDBRANCH  13  14
ENDBRANCH  12  13
ENDBRANCH  11  12
ENDBRANCH  10  11
ENDBRANCH   9  10
ENDBRANCH   8   9
ENDBRANCH   7   8
ENDBRANCH   6   7
ENDBRANCH   5   6
ENDBRANCH   4   5
ENDBRANCH   3   4
TORSDOF 11
ENDMDL
MODEL      128
REMARK 921   NORMALIZED FREE ENERGY PREDICTED BY IDOCK:   -3.68 KCAL/MOL
REMARK 922        TOTAL FREE ENERGY PREDICTED BY IDOCK:   -7.48 KCAL/MOL
REMARK 923 INTER-LIGAND FREE ENERGY PREDICTED BY IDOCK:   -6.13 KCAL/MOL
REMARK 924 INTRA-LIGAND FREE ENERGY PREDICTED BY IDOCK:   -1.35 KCAL/MOL
REMARK 927      BINDING AFFINITY PREDICTED BY RF-SCORE:    0.00 PKD
ROOT
HETATM    1 NA   UNL     1     -11.425  15.593  65.541  1.00  0.00    -0.324 Na 
HETATM    2  C   UNL     2     -12.379  11.068  70.492  1.00  0.00    -0.462 C  
HETATM    3  C   UNL     2     -11.698  12.119  69.630  1.00  0.00    -0.396 C  
ENDROOT
BRANCH   3   4
HETATM    4  C   UNL     2     -12.055  13.523  70.108  1.00  0.00    -0.425 C  
BRANCH   4   5
HETATM    5  C   UNL     2     -12.024  14.542  68.967  1.00  0.00    -0.334 C  
BRANCH   5   6
HETATM    6  C   UNL     2     -11.465  15.905  69.398  1.00  0.00    -0.351 C  
BRANCH   6   7
HETATM    7  C   UNL     2     -10.985  16.732  68.206  1.00  0.00    -0.327 C  
BRANCH   7   8
HETATM    8  C   UNL     2      -9.492  17.050  68.263  1.00  0.00    -0.265 C  
BRANCH   8   9
HETATM    9  C   UNL     2      -8.631  15.792  68.076  1.00  0.00    -0.163 C  
BRANCH   9  10
HETATM   10  C   UNL     2      -8.802  15.086  66.725  1.00  0.00    -0.299 C  
BRANCH  10  11
HETATM   11  C   UNL     2      -9.436  13.699  66.854  1.00  0.00    -0.263 C  
BRANCH  11  12
HETATM   12  C   UNL     2      -8.956  12.705  65.790  1.00  0.00     0.397 C  
BRANCH  12  13
HETATM   13  C   UNL     2      -9.926  12.535  64.618  1.00  0.00    -0.151 C  
BRANCH  13  14
HETATM   14  O   UNL     2     -10.961  13.494  64.737  1.00  0.00    -0.334 OA 
HETATM   15  S   UNL     2     -12.476  12.959  64.997  1.00  0.00    -0.462 S  
HETATM   16  O   UNL     2     -13.246  14.199  65.131  1.00  0.00    -0.743 OA 
HETATM   17  O   UNL     2     -12.380  12.200  66.239  1.00  0.00    -0.507 OA 
HETATM   18  O   UNL     2     -12.790  12.179  63.814  1.00  0.00    -0.718 OA 
ENDBRANCH  13  14
ENDBRANCH  12  13
ENDBRANCH  11  12
ENDBRANCH  10  11
ENDBRANCH   9  10
ENDBRANCH   8   9
ENDBRANCH   7   8
ENDBRANCH   6   7
ENDBRANCH   5   6
ENDBRANCH   4   5
ENDBRANCH   3   4
TORSDOF 11
ENDMDL
MODEL      129
REMARK 921   NORMALIZED FREE ENERGY PREDICTED BY IDOCK:   -3.67 KCAL/MOL
REMARK 922        TOTAL FREE ENERGY PREDICTED BY IDOCK:   -7.46 KCAL/MOL
REMARK 923 INTER-LIGAND FREE ENERGY PREDICTED BY IDOCK:   -6.73 KCAL/MOL
REMARK 924 INTRA-LIGAND FREE ENERGY PREDICTED BY IDOCK:   -0.73 KCAL/MOL
REMARK 927      BINDING AFFINITY PREDICTED BY RF-SCORE:    0.00 PKD
ROOT
HETATM    1 NA   UNL     1     -14.363   9.621  69.777  1.00  0.00    -0.557 Na 
HETATM    2  C   UNL     2      -9.950   4.805  71.574  1.00  0.00    -0.263 C  
HETATM    3  C   UNL     2     -10.737   5.766  70.696  1.00  0.00    -0.351 C  
ENDROOT
BRANCH   3   4
HETATM    4  C   UNL     2     -10.053   7.129  70.640  1.00  0.00    -0.198 C  
BRANCH   4   5
HETATM    5  C   UNL     2     -10.970   8.206  70.057  1.00  0.00    -0.199 C  
BRANCH   5   6
HETATM    6  C   UNL     2     -11.499   9.179  71.120  1.00  0.00    -0.388 C  
BRANCH   6   7
HETATM    7  C   UNL     2     -11.651  10.598  70.575  1.00  0.00    -0.444 C  
BRANCH   7   8
HETATM    8  C   UNL     2     -11.780  10.643  69.054  1.00  0.00    -0.305 C  
BRANCH   8   9
HETATM    9  C   UNL     2     -11.780  12.083  68.520  1.00  0.00    -0.387 C  
BRANCH   9  10
HETATM   10  C   UNL     2     -10.447  12.827  68.669  1.00  0.00    -0.230 C  
BRANCH  10  11
HETATM   11  C   UNL     2     -10.194  13.827  67.537  1.00  0.00    -0.241 C  
BRANCH  11  12
HETATM   12  C   UNL     2     -11.404  14.715  67.224  1.00  0.00    -0.364 C  
BRANCH  12  13
HETATM   13  C   UNL     2     -11.598  14.995  65.731  1.00  0.00    -0.171 C  
BRANCH  13  14
HETATM   14  O   UNL     2     -10.926  13.994  64.986  1.00  0.00    -0.335 OA 
HETATM   15  S   UNL     2     -11.826  12.941  64.132  1.00  0.00    -0.450 S  
HETATM   16  O   UNL     2     -10.817  12.120  63.455  1.00  0.00    -0.431 OA 
HETATM   17  O   UNL     2     -12.595  13.781  63.222  1.00  0.00    -0.830 OA 
HETATM   18  O   UNL     2     -12.603  12.235  65.135  1.00  0.00    -0.585 OA 
ENDBRANCH  13  14
ENDBRANCH  12  13
ENDBRANCH  11  12
ENDBRANCH  10  11
ENDBRANCH   9  10
ENDBRANCH   8   9
ENDBRANCH   7   8
ENDBRANCH   6   7
ENDBRANCH   5   6
ENDBRANCH   4   5
ENDBRANCH   3   4
TORSDOF 11
ENDMDL
MODEL      130
REMARK 921   NORMALIZED FREE ENERGY PREDICTED BY IDOCK:   -3.65 KCAL/MOL
REMARK 922        TOTAL FREE ENERGY PREDICTED BY IDOCK:   -7.44 KCAL/MOL
REMARK 923 INTER-LIGAND FREE ENERGY PREDICTED BY IDOCK:   -6.56 KCAL/MOL
REMARK 924 INTRA-LIGAND FREE ENERGY PREDICTED BY IDOCK:   -0.88 KCAL/MOL
REMARK 927      BINDING AFFINITY PREDICTED BY RF-SCORE:    0.00 PKD
ROOT
HETATM    1 NA   UNL     1     -10.477   8.737  65.418  1.00  0.00    -0.427 Na 
HETATM    2  C   UNL     2      -9.901   4.262  70.471  1.00  0.00    -0.269 C  
HETATM    3  C   UNL     2      -9.849   5.584  69.721  1.00  0.00    -0.258 C  
ENDROOT
BRANCH   3   4
HETATM    4  C   UNL     2     -11.201   6.290  69.779  1.00  0.00    -0.499 C  
BRANCH   4   5
HETATM    5  C   UNL     2     -11.558   6.729  71.201  1.00  0.00    -0.377 C  
BRANCH   5   6
HETATM    6  C   UNL     2     -10.514   7.670  71.815  1.00  0.00    -0.241 C  
BRANCH   6   7
HETATM    7  C   UNL     2     -10.805   9.136  71.497  1.00  0.00    -0.436 C  
BRANCH   7   8
HETATM    8  C   UNL     2      -9.912   9.696  70.392  1.00  0.00    -0.330 C  
BRANCH   8   9
HETATM    9  C   UNL     2     -10.663   9.826  69.059  1.00  0.00    -0.238 C  
BRANCH   9  10
HETATM   10  C   UNL     2     -11.528  11.086  68.924  1.00  0.00    -0.364 C  
BRANCH  10  11
HETATM   11  C   UNL     2     -11.054  12.016  67.804  1.00  0.00    -0.303 C  
BRANCH  11  12
HETATM   12  C   UNL     2     -10.141  13.147  68.293  1.00  0.00    -0.247 C  
BRANCH  12  13
HETATM   13  C   UNL     2     -10.165  14.393  67.403  1.00  0.00    -0.247 C  
BRANCH  13  14
HETATM   14  O   UNL     2     -11.318  14.346  66.580  1.00  0.00    -0.332 OA 
HETATM   15  S   UNL     2     -11.159  14.760  65.015  1.00  0.00    -0.419 S  
HETATM   16  O   UNL     2     -12.503  14.532  64.476  1.00  0.00    -0.600 OA 
HETATM   17  O   UNL     2     -10.163  13.830  64.497  1.00  0.00    -0.414 OA 
HETATM   18  O   UNL     2     -10.753  16.153  65.050  1.00  0.00    -0.558 OA 
ENDBRANCH  13  14
ENDBRANCH  12  13
ENDBRANCH  11  12
ENDBRANCH  10  11
ENDBRANCH   9  10
ENDBRANCH   8   9
ENDBRANCH   7   8
ENDBRANCH   6   7
ENDBRANCH   5   6
ENDBRANCH   4   5
ENDBRANCH   3   4
TORSDOF 11
ENDMDL
MODEL      131
REMARK 921   NORMALIZED FREE ENERGY PREDICTED BY IDOCK:   -3.65 KCAL/MOL
REMARK 922        TOTAL FREE ENERGY PREDICTED BY IDOCK:   -7.43 KCAL/MOL
REMARK 923 INTER-LIGAND FREE ENERGY PREDICTED BY IDOCK:   -6.28 KCAL/MOL
REMARK 924 INTRA-LIGAND FREE ENERGY PREDICTED BY IDOCK:   -1.14 KCAL/MOL
REMARK 927      BINDING AFFINITY PREDICTED BY RF-SCORE:    0.00 PKD
ROOT
HETATM    1 NA   UNL     1     -11.242  20.885  70.024  1.00  0.00    -0.816 Na 
HETATM    2  C   UNL     2      -9.118  15.873  65.992  1.00  0.00    -0.363 C  
HETATM    3  C   UNL     2      -9.463  16.636  67.261  1.00  0.00    -0.234 C  
ENDROOT
BRANCH   3   4
HETATM    4  C   UNL     2     -10.936  16.453  67.617  1.00  0.00    -0.225 C  
BRANCH   4   5
HETATM    5  C   UNL     2     -11.124  15.509  68.807  1.00  0.00    -0.291 C  
BRANCH   5   6
HETATM    6  C   UNL     2     -11.879  14.226  68.437  1.00  0.00    -0.373 C  
BRANCH   6   7
HETATM    7  C   UNL     2     -12.280  14.201  66.963  1.00  0.00    -0.374 C  
BRANCH   7   8
HETATM    8  C   UNL     2     -11.636  13.053  66.188  1.00  0.00    -0.412 C  
BRANCH   8   9
HETATM    9  C   UNL     2     -10.586  12.312  67.029  1.00  0.00    -0.248 C  
BRANCH   9  10
HETATM   10  C   UNL     2     -10.547  10.792  66.820  1.00  0.00    -0.307 C  
BRANCH  10  11
HETATM   11  C   UNL     2     -10.735  10.008  68.122  1.00  0.00    -0.282 C  
BRANCH  11  12
HETATM   12  C   UNL     2     -11.537  10.769  69.184  1.00  0.00    -0.376 C  
BRANCH  12  13
HETATM   13  C   UNL     2     -11.375  10.211  70.601  1.00  0.00    -0.352 C  
BRANCH  13  14
HETATM   14  O   UNL     2     -11.518   8.802  70.558  1.00  0.00    -0.262 OA 
HETATM   15  S   UNL     2     -11.842   8.023  71.949  1.00  0.00    -0.328 S  
HETATM   16  O   UNL     2     -11.986   6.628  71.520  1.00  0.00    -0.323 OA 
HETATM   17  O   UNL     2     -13.091   8.617  72.411  1.00  0.00    -0.373 OA 
HETATM   18  O   UNL     2     -10.683   8.280  72.785  1.00  0.00    -0.343 OA 
ENDBRANCH  13  14
ENDBRANCH  12  13
ENDBRANCH  11  12
ENDBRANCH  10  11
ENDBRANCH   9  10
ENDBRANCH   8   9
ENDBRANCH   7   8
ENDBRANCH   6   7
ENDBRANCH   5   6
ENDBRANCH   4   5
ENDBRANCH   3   4
TORSDOF 11
ENDMDL
MODEL      132
REMARK 921   NORMALIZED FREE ENERGY PREDICTED BY IDOCK:   -3.64 KCAL/MOL
REMARK 922        TOTAL FREE ENERGY PREDICTED BY IDOCK:   -7.42 KCAL/MOL
REMARK 923 INTER-LIGAND FREE ENERGY PREDICTED BY IDOCK:   -6.37 KCAL/MOL
REMARK 924 INTRA-LIGAND FREE ENERGY PREDICTED BY IDOCK:   -1.05 KCAL/MOL
REMARK 927      BINDING AFFINITY PREDICTED BY RF-SCORE:    0.00 PKD
ROOT
HETATM    1 NA   UNL     1      -9.779   5.444  63.912  1.00  0.00    -0.363 Na 
HETATM    2  C   UNL     2      -8.460   7.641  70.184  1.00  0.00    -0.138 C  
HETATM    3  C   UNL     2      -9.230   7.348  68.905  1.00  0.00    -0.142 C  
ENDROOT
BRANCH   3   4
HETATM    4  C   UNL     2      -9.820   5.941  68.940  1.00  0.00    -0.183 C  
BRANCH   4   5
HETATM    5  C   UNL     2     -10.600   5.680  70.231  1.00  0.00    -0.370 C  
BRANCH   5   6
HETATM    6  C   UNL     2     -11.906   6.480  70.311  1.00  0.00    -0.361 C  
BRANCH   6   7
HETATM    7  C   UNL     2     -12.176   7.000  71.723  1.00  0.00    -0.387 C  
BRANCH   7   8
HETATM    8  C   UNL     2     -13.091   8.222  71.745  1.00  0.00    -0.366 C  
BRANCH   8   9
HETATM    9  C   UNL     2     -12.309   9.519  72.001  1.00  0.00    -0.404 C  
BRANCH   9  10
HETATM   10  C   UNL     2     -11.274   9.873  70.925  1.00  0.00    -0.433 C  
BRANCH  10  11
HETATM   11  C   UNL     2     -11.855  10.738  69.803  1.00  0.00    -0.409 C  
BRANCH  11  12
HETATM   12  C   UNL     2     -10.792  11.313  68.860  1.00  0.00    -0.253 C  
BRANCH  12  13
HETATM   13  C   UNL     2     -10.967  10.894  67.398  1.00  0.00    -0.293 C  
BRANCH  13  14
HETATM   14  O   UNL     2     -12.049  11.620  66.839  1.00  0.00    -0.512 OA 
HETATM   15  S   UNL     2     -11.755  12.551  65.538  1.00  0.00    -0.423 S  
HETATM   16  O   UNL     2     -13.081  13.080  65.205  1.00  0.00    -0.740 OA 
HETATM   17  O   UNL     2     -11.235  11.623  64.541  1.00  0.00    -0.315 OA 
HETATM   18  O   UNL     2     -10.811  13.547  66.013  1.00  0.00    -0.277 OA 
ENDBRANCH  13  14
ENDBRANCH  12  13
ENDBRANCH  11  12
ENDBRANCH  10  11
ENDBRANCH   9  10
ENDBRANCH   8   9
ENDBRANCH   7   8
ENDBRANCH   6   7
ENDBRANCH   5   6
ENDBRANCH   4   5
ENDBRANCH   3   4
TORSDOF 11
ENDMDL
MODEL      133
REMARK 921   NORMALIZED FREE ENERGY PREDICTED BY IDOCK:   -3.64 KCAL/MOL
REMARK 922        TOTAL FREE ENERGY PREDICTED BY IDOCK:   -7.41 KCAL/MOL
REMARK 923 INTER-LIGAND FREE ENERGY PREDICTED BY IDOCK:   -6.64 KCAL/MOL
REMARK 924 INTRA-LIGAND FREE ENERGY PREDICTED BY IDOCK:   -0.77 KCAL/MOL
REMARK 927      BINDING AFFINITY PREDICTED BY RF-SCORE:    0.00 PKD
ROOT
HETATM    1 NA   UNL     1     -11.902   4.489  65.498  1.00  0.00    -0.619 Na 
HETATM    2  C   UNL     2     -10.021   5.424  71.939  1.00  0.00    -0.233 C  
HETATM    3  C   UNL     2     -10.124   5.633  70.436  1.00  0.00    -0.284 C  
ENDROOT
BRANCH   3   4
HETATM    4  C   UNL     2     -11.326   6.509  70.094  1.00  0.00    -0.463 C  
BRANCH   4   5
HETATM    5  C   UNL     2     -12.240   6.723  71.302  1.00  0.00    -0.415 C  
BRANCH   5   6
HETATM    6  C   UNL     2     -12.600   8.198  71.524  1.00  0.00    -0.326 C  
BRANCH   6   7
HETATM    7  C   UNL     2     -11.434   9.129  71.191  1.00  0.00    -0.388 C  
BRANCH   7   8
HETATM    8  C   UNL     2     -11.868  10.579  70.986  1.00  0.00    -0.438 C  
BRANCH   8   9
HETATM    9  C   UNL     2     -13.208  10.879  71.676  1.00  0.00    -0.471 C  
BRANCH   9  10
HETATM   10  C   UNL     2     -13.487  12.368  71.924  1.00  0.00    -0.366 C  
BRANCH  10  11
HETATM   11  C   UNL     2     -12.515  13.288  71.181  1.00  0.00    -0.397 C  
BRANCH  11  12
HETATM   12  C   UNL     2     -12.812  14.779  71.379  1.00  0.00    -0.409 C  
BRANCH  12  13
HETATM   13  C   UNL     2     -12.135  15.688  70.349  1.00  0.00    -0.394 C  
BRANCH  13  14
HETATM   14  O   UNL     2     -11.029  15.002  69.789  1.00  0.00    -0.257 OA 
HETATM   15  S   UNL     2     -10.848  15.031  68.172  1.00  0.00    -0.272 S  
HETATM   16  O   UNL     2      -9.596  14.297  67.968  1.00  0.00    -0.210 OA 
HETATM   17  O   UNL     2     -10.747  16.449  67.848  1.00  0.00    -0.316 OA 
HETATM   18  O   UNL     2     -12.031  14.359  67.666  1.00  0.00    -0.377 OA 
ENDBRANCH  13  14
ENDBRANCH  12  13
ENDBRANCH  11  12
ENDBRANCH  10  11
ENDBRANCH   9  10
ENDBRANCH   8   9
ENDBRANCH   7   8
ENDBRANCH   6   7
ENDBRANCH   5   6
ENDBRANCH   4   5
ENDBRANCH   3   4
TORSDOF 11
ENDMDL
MODEL      134
REMARK 921   NORMALIZED FREE ENERGY PREDICTED BY IDOCK:   -3.62 KCAL/MOL
REMARK 922        TOTAL FREE ENERGY PREDICTED BY IDOCK:   -7.39 KCAL/MOL
REMARK 923 INTER-LIGAND FREE ENERGY PREDICTED BY IDOCK:   -6.14 KCAL/MOL
REMARK 924 INTRA-LIGAND FREE ENERGY PREDICTED BY IDOCK:   -1.24 KCAL/MOL
REMARK 927      BINDING AFFINITY PREDICTED BY RF-SCORE:    0.00 PKD
ROOT
HETATM    1 NA   UNL     1      -7.122   5.781  69.039  1.00  0.00    -0.051 Na 
HETATM    2  C   UNL     2      -9.034  11.871  66.769  1.00  0.00    -0.196 C  
HETATM    3  C   UNL     2      -9.119  10.494  67.410  1.00  0.00    -0.147 C  
ENDROOT
BRANCH   3   4
HETATM    4  C   UNL     2      -8.745  10.564  68.888  1.00  0.00    -0.154 C  
BRANCH   4   5
HETATM    5  C   UNL     2      -9.732   9.791  69.765  1.00  0.00    -0.256 C  
BRANCH   5   6
HETATM    6  C   UNL     2     -11.192   9.987  69.336  1.00  0.00    -0.235 C  
BRANCH   6   7
HETATM    7  C   UNL     2     -11.873  11.113  70.114  1.00  0.00    -0.449 C  
BRANCH   7   8
HETATM    8  C   UNL     2     -12.011  12.400  69.304  1.00  0.00    -0.308 C  
BRANCH   8   9
HETATM    9  C   UNL     2     -12.194  13.629  70.206  1.00  0.00    -0.423 C  
BRANCH   9  10
HETATM   10  C   UNL     2     -11.544  14.917  69.683  1.00  0.00    -0.337 C  
BRANCH  10  11
HETATM   11  C   UNL     2     -10.592  14.669  68.510  1.00  0.00    -0.245 C  
BRANCH  11  12
HETATM   12  C   UNL     2     -10.547  15.826  67.504  1.00  0.00    -0.309 C  
BRANCH  12  13
HETATM   13  C   UNL     2     -10.835  15.404  66.060  1.00  0.00    -0.314 C  
BRANCH  13  14
HETATM   14  O   UNL     2     -11.773  14.342  66.072  1.00  0.00    -0.358 OA 
HETATM   15  S   UNL     2     -12.147  13.636  64.654  1.00  0.00    -0.419 S  
HETATM   16  O   UNL     2     -13.068  12.567  65.051  1.00  0.00    -0.765 OA 
HETATM   17  O   UNL     2     -10.871  13.143  64.150  1.00  0.00    -0.388 OA 
HETATM   18  O   UNL     2     -12.757  14.697  63.873  1.00  0.00    -0.788 OA 
ENDBRANCH  13  14
ENDBRANCH  12  13
ENDBRANCH  11  12
ENDBRANCH  10  11
ENDBRANCH   9  10
ENDBRANCH   8   9
ENDBRANCH   7   8
ENDBRANCH   6   7
ENDBRANCH   5   6
ENDBRANCH   4   5
ENDBRANCH   3   4
TORSDOF 11
ENDMDL
MODEL      135
REMARK 921   NORMALIZED FREE ENERGY PREDICTED BY IDOCK:   -3.62 KCAL/MOL
REMARK 922        TOTAL FREE ENERGY PREDICTED BY IDOCK:   -7.38 KCAL/MOL
REMARK 923 INTER-LIGAND FREE ENERGY PREDICTED BY IDOCK:   -5.77 KCAL/MOL
REMARK 924 INTRA-LIGAND FREE ENERGY PREDICTED BY IDOCK:   -1.61 KCAL/MOL
REMARK 927      BINDING AFFINITY PREDICTED BY RF-SCORE:    0.00 PKD
ROOT
HETATM    1 NA   UNL     1     -11.691  10.397  71.735  1.00  0.00    -0.330 Na 
HETATM    2  C   UNL     2      -9.619  14.426  66.698  1.00  0.00    -0.295 C  
HETATM    3  C   UNL     2     -10.065  13.171  67.432  1.00  0.00    -0.229 C  
ENDROOT
BRANCH   3   4
HETATM    4  C   UNL     2     -11.587  13.065  67.445  1.00  0.00    -0.407 C  
BRANCH   4   5
HETATM    5  C   UNL     2     -12.230  13.916  66.348  1.00  0.00    -0.487 C  
BRANCH   5   6
HETATM    6  C   UNL     2     -12.775  13.077  65.184  1.00  0.00    -0.461 C  
BRANCH   6   7
HETATM    7  C   UNL     2     -11.713  12.816  64.118  1.00  0.00    -0.465 C  
BRANCH   7   8
HETATM    8  C   UNL     2     -11.260  11.358  64.071  1.00  0.00    -0.350 C  
BRANCH   8   9
HETATM    9  C   UNL     2      -9.730  11.232  64.101  1.00  0.00    -0.298 C  
BRANCH   9  10
HETATM   10  C   UNL     2      -9.197   9.998  64.841  1.00  0.00    -0.291 C  
BRANCH  10  11
HETATM   11  C   UNL     2      -9.929   9.734  66.160  1.00  0.00    -0.338 C  
BRANCH  11  12
HETATM   12  C   UNL     2     -10.022   8.247  66.522  1.00  0.00    -0.320 C  
BRANCH  12  13
HETATM   13  C   UNL     2      -9.524   7.919  67.932  1.00  0.00    -0.145 C  
BRANCH  13  14
HETATM   14  O   UNL     2     -10.502   8.330  68.871  1.00  0.00    -0.221 OA 
HETATM   15  S   UNL     2     -10.837   7.335  70.113  1.00  0.00    -0.259 S  
HETATM   16  O   UNL     2     -11.817   8.098  70.893  1.00  0.00    -0.285 OA 
HETATM   17  O   UNL     2      -9.559   7.168  70.795  1.00  0.00    -0.168 OA 
HETATM   18  O   UNL     2     -11.368   6.139  69.484  1.00  0.00    -0.418 OA 
ENDBRANCH  13  14
ENDBRANCH  12  13
ENDBRANCH  11  12
ENDBRANCH  10  11
ENDBRANCH   9  10
ENDBRANCH   8   9
ENDBRANCH   7   8
ENDBRANCH   6   7
ENDBRANCH   5   6
ENDBRANCH   4   5
ENDBRANCH   3   4
TORSDOF 11
ENDMDL
MODEL      136
REMARK 921   NORMALIZED FREE ENERGY PREDICTED BY IDOCK:   -3.61 KCAL/MOL
REMARK 922        TOTAL FREE ENERGY PREDICTED BY IDOCK:   -7.37 KCAL/MOL
REMARK 923 INTER-LIGAND FREE ENERGY PREDICTED BY IDOCK:   -6.20 KCAL/MOL
REMARK 924 INTRA-LIGAND FREE ENERGY PREDICTED BY IDOCK:   -1.16 KCAL/MOL
REMARK 927      BINDING AFFINITY PREDICTED BY RF-SCORE:    0.00 PKD
ROOT
HETATM    1 NA   UNL     1     -13.910  16.208  69.715  1.00  0.00    -0.704 Na 
HETATM    2  C   UNL     2     -12.490  13.335  63.746  1.00  0.00    -0.339 C  
HETATM    3  C   UNL     2     -12.295  14.105  65.043  1.00  0.00    -0.452 C  
ENDROOT
BRANCH   3   4
HETATM    4  C   UNL     2     -11.965  13.154  66.190  1.00  0.00    -0.478 C  
BRANCH   4   5
HETATM    5  C   UNL     2     -11.257  11.889  65.700  1.00  0.00    -0.360 C  
BRANCH   5   6
HETATM    6  C   UNL     2     -10.779  10.990  66.848  1.00  0.00    -0.325 C  
BRANCH   6   7
HETATM    7  C   UNL     2      -9.312  10.592  66.693  1.00  0.00    -0.186 C  
BRANCH   7   8
HETATM    8  C   UNL     2      -8.352  11.764  66.886  1.00  0.00    -0.170 C  
BRANCH   8   9
HETATM    9  C   UNL     2      -8.561  12.460  68.239  1.00  0.00    -0.172 C  
BRANCH   9  10
HETATM   10  C   UNL     2      -8.476  13.991  68.198  1.00  0.00    -0.172 C  
BRANCH  10  11
HETATM   11  C   UNL     2      -9.823  14.669  68.463  1.00  0.00    -0.228 C  
BRANCH  11  12
HETATM   12  C   UNL     2      -9.873  15.432  69.792  1.00  0.00    -0.236 C  
BRANCH  12  13
HETATM   13  C   UNL     2     -11.291  15.769  70.260  1.00  0.00    -0.361 C  
BRANCH  13  14
HETATM   14  O   UNL     2     -11.356  15.624  71.668  1.00  0.00    -0.391 OA 
HETATM   15  S   UNL     2     -12.651  14.869  72.302  1.00  0.00    -0.349 S  
HETATM   16  O   UNL     2     -12.349  14.844  73.736  1.00  0.00    -0.498 OA 
HETATM   17  O   UNL     2     -12.635  13.549  71.684  1.00  0.00    -0.304 OA 
HETATM   18  O   UNL     2     -13.774  15.714  71.937  1.00  0.00    -0.475 OA 
ENDBRANCH  13  14
ENDBRANCH  12  13
ENDBRANCH  11  12
ENDBRANCH  10  11
ENDBRANCH   9  10
ENDBRANCH   8   9
ENDBRANCH   7   8
ENDBRANCH   6   7
ENDBRANCH   5   6
ENDBRANCH   4   5
ENDBRANCH   3   4
TORSDOF 11
ENDMDL
MODEL      137
REMARK 921   NORMALIZED FREE ENERGY PREDICTED BY IDOCK:   -3.61 KCAL/MOL
REMARK 922        TOTAL FREE ENERGY PREDICTED BY IDOCK:   -7.36 KCAL/MOL
REMARK 923 INTER-LIGAND FREE ENERGY PREDICTED BY IDOCK:   -6.41 KCAL/MOL
REMARK 924 INTRA-LIGAND FREE ENERGY PREDICTED BY IDOCK:   -0.95 KCAL/MOL
REMARK 927      BINDING AFFINITY PREDICTED BY RF-SCORE:    0.00 PKD
ROOT
HETATM    1 NA   UNL     1     -13.529  10.202  69.594  1.00  0.00    -0.607 Na 
HETATM    2  C   UNL     2     -12.219  12.940  63.537  1.00  0.00    -0.595 C  
HETATM    3  C   UNL     2     -12.167  12.702  65.039  1.00  0.00    -0.535 C  
ENDROOT
BRANCH   3   4
HETATM    4  C   UNL     2     -11.135  11.631  65.380  1.00  0.00    -0.299 C  
BRANCH   4   5
HETATM    5  C   UNL     2     -10.920  11.503  66.889  1.00  0.00    -0.350 C  
BRANCH   5   6
HETATM    6  C   UNL     2      -9.787  12.399  67.409  1.00  0.00    -0.199 C  
BRANCH   6   7
HETATM    7  C   UNL     2     -10.315  13.570  68.236  1.00  0.00    -0.253 C  
BRANCH   7   8
HETATM    8  C   UNL     2      -9.866  14.928  67.701  1.00  0.00    -0.217 C  
BRANCH   8   9
HETATM    9  C   UNL     2      -9.108  15.740  68.762  1.00  0.00    -0.213 C  
BRANCH   9  10
HETATM   10  C   UNL     2      -7.589  15.812  68.557  1.00  0.00    -0.138 C  
BRANCH  10  11
HETATM   11  C   UNL     2      -7.047  17.243  68.622  1.00  0.00    -0.227 C  
BRANCH  11  12
HETATM   12  C   UNL     2      -6.899  17.904  67.247  1.00  0.00    -0.196 C  
BRANCH  12  13
HETATM   13  C   UNL     2      -8.081  18.797  66.858  1.00  0.00    -0.259 C  
BRANCH  13  14
HETATM   14  O   UNL     2      -8.924  18.082  65.972  1.00  0.00    -0.502 OA 
HETATM   15  S   UNL     2     -10.486  18.526  65.876  1.00  0.00    -0.191 S  
HETATM   16  O   UNL     2     -11.019  17.636  64.840  1.00  0.00    -0.886 OA 
HETATM   17  O   UNL     2     -10.438  19.925  65.468  1.00  0.00    -0.434 OA 
HETATM   18  O   UNL     2     -11.012  18.284  67.208  1.00  0.00    -0.312 OA 
ENDBRANCH  13  14
ENDBRANCH  12  13
ENDBRANCH  11  12
ENDBRANCH  10  11
ENDBRANCH   9  10
ENDBRANCH   8   9
ENDBRANCH   7   8
ENDBRANCH   6   7
ENDBRANCH   5   6
ENDBRANCH   4   5
ENDBRANCH   3   4
TORSDOF 11
ENDMDL
MODEL      138
REMARK 921   NORMALIZED FREE ENERGY PREDICTED BY IDOCK:   -3.60 KCAL/MOL
REMARK 922        TOTAL FREE ENERGY PREDICTED BY IDOCK:   -7.35 KCAL/MOL
REMARK 923 INTER-LIGAND FREE ENERGY PREDICTED BY IDOCK:   -6.34 KCAL/MOL
REMARK 924 INTRA-LIGAND FREE ENERGY PREDICTED BY IDOCK:   -1.01 KCAL/MOL
REMARK 927      BINDING AFFINITY PREDICTED BY RF-SCORE:    0.00 PKD
ROOT
HETATM    1 NA   UNL     1     -13.606   5.149  73.008  1.00  0.00    -0.552 Na 
HETATM    2  C   UNL     2      -8.630   8.981  70.468  1.00  0.00    -0.229 C  
HETATM    3  C   UNL     2     -10.010   8.368  70.649  1.00  0.00    -0.212 C  
ENDROOT
BRANCH   3   4
HETATM    4  C   UNL     2     -10.816   9.148  71.684  1.00  0.00    -0.442 C  
BRANCH   4   5
HETATM    5  C   UNL     2     -12.312   8.841  71.595  1.00  0.00    -0.394 C  
BRANCH   5   6
HETATM    6  C   UNL     2     -13.121   9.989  70.976  1.00  0.00    -0.435 C  
BRANCH   6   7
HETATM    7  C   UNL     2     -12.431  11.340  71.157  1.00  0.00    -0.479 C  
BRANCH   7   8
HETATM    8  C   UNL     2     -12.269  12.107  69.846  1.00  0.00    -0.240 C  
BRANCH   8   9
HETATM    9  C   UNL     2     -11.126  11.543  68.990  1.00  0.00    -0.302 C  
BRANCH   9  10
HETATM   10  C   UNL     2     -11.376  11.576  67.476  1.00  0.00    -0.366 C  
BRANCH  10  11
HETATM   11  C   UNL     2     -11.922  12.921  66.992  1.00  0.00    -0.390 C  
BRANCH  11  12
HETATM   12  C   UNL     2     -10.828  13.945  66.666  1.00  0.00    -0.289 C  
BRANCH  12  13
HETATM   13  C   UNL     2     -10.989  15.280  67.399  1.00  0.00    -0.321 C  
BRANCH  13  14
HETATM   14  O   UNL     2     -10.779  16.336  66.478  1.00  0.00    -0.284 OA 
HETATM   15  S   UNL     2      -9.927  17.629  66.977  1.00  0.00    -0.335 S  
HETATM   16  O   UNL     2      -9.856  18.462  65.773  1.00  0.00    -0.503 OA 
HETATM   17  O   UNL     2      -8.638  17.077  67.376  1.00  0.00    -0.194 OA 
HETATM   18  O   UNL     2     -10.724  18.192  68.053  1.00  0.00    -0.374 OA 
ENDBRANCH  13  14
ENDBRANCH  12  13
ENDBRANCH  11  12
ENDBRANCH  10  11
ENDBRANCH   9  10
ENDBRANCH   8   9
ENDBRANCH   7   8
ENDBRANCH   6   7
ENDBRANCH   5   6
ENDBRANCH   4   5
ENDBRANCH   3   4
TORSDOF 11
ENDMDL
MODEL      139
REMARK 921   NORMALIZED FREE ENERGY PREDICTED BY IDOCK:   -3.60 KCAL/MOL
REMARK 922        TOTAL FREE ENERGY PREDICTED BY IDOCK:   -7.34 KCAL/MOL
REMARK 923 INTER-LIGAND FREE ENERGY PREDICTED BY IDOCK:   -7.00 KCAL/MOL
REMARK 924 INTRA-LIGAND FREE ENERGY PREDICTED BY IDOCK:   -0.35 KCAL/MOL
REMARK 927      BINDING AFFINITY PREDICTED BY RF-SCORE:    0.00 PKD
ROOT
HETATM    1 NA   UNL     1      -7.710  11.394  70.384  1.00  0.00    -0.305 Na 
HETATM    2  C   UNL     2     -10.909  16.818  67.888  1.00  0.00    -0.311 C  
HETATM    3  C   UNL     2     -10.695  15.459  68.537  1.00  0.00    -0.256 C  
ENDROOT
BRANCH   3   4
HETATM    4  C   UNL     2     -10.476  15.608  70.040  1.00  0.00    -0.333 C  
BRANCH   4   5
HETATM    5  C   UNL     2     -11.785  15.874  70.786  1.00  0.00    -0.433 C  
BRANCH   5   6
HETATM    6  C   UNL     2     -12.714  14.652  70.815  1.00  0.00    -0.422 C  
BRANCH   6   7
HETATM    7  C   UNL     2     -12.587  13.865  72.119  1.00  0.00    -0.247 C  
BRANCH   7   8
HETATM    8  C   UNL     2     -13.457  12.611  72.146  1.00  0.00    -0.561 C  
BRANCH   8   9
HETATM    9  C   UNL     2     -12.873  11.488  71.275  1.00  0.00    -0.463 C  
BRANCH   9  10
HETATM   10  C   UNL     2     -11.817  11.942  70.258  1.00  0.00    -0.368 C  
BRANCH  10  11
HETATM   11  C   UNL     2     -12.127  11.478  68.832  1.00  0.00    -0.270 C  
BRANCH  11  12
HETATM   12  C   UNL     2     -11.695  12.480  67.755  1.00  0.00    -0.419 C  
BRANCH  12  13
HETATM   13  C   UNL     2     -11.135  11.826  66.489  1.00  0.00    -0.310 C  
BRANCH  13  14
HETATM   14  O   UNL     2     -12.156  11.781  65.507  1.00  0.00    -0.316 OA 
HETATM   15  S   UNL     2     -11.930  12.616  64.129  1.00  0.00    -0.466 S  
HETATM   16  O   UNL     2     -13.125  12.289  63.345  1.00  0.00    -0.727 OA 
HETATM   17  O   UNL     2     -10.703  12.063  63.570  1.00  0.00    -0.397 OA 
HETATM   18  O   UNL     2     -11.851  14.002  64.556  1.00  0.00    -0.393 OA 
ENDBRANCH  13  14
ENDBRANCH  12  13
ENDBRANCH  11  12
ENDBRANCH  10  11
ENDBRANCH   9  10
ENDBRANCH   8   9
ENDBRANCH   7   8
ENDBRANCH   6   7
ENDBRANCH   5   6
ENDBRANCH   4   5
ENDBRANCH   3   4
TORSDOF 11
ENDMDL
MODEL      140
REMARK 921   NORMALIZED FREE ENERGY PREDICTED BY IDOCK:   -3.59 KCAL/MOL
REMARK 922        TOTAL FREE ENERGY PREDICTED BY IDOCK:   -7.34 KCAL/MOL
REMARK 923 INTER-LIGAND FREE ENERGY PREDICTED BY IDOCK:   -5.89 KCAL/MOL
REMARK 924 INTRA-LIGAND FREE ENERGY PREDICTED BY IDOCK:   -1.45 KCAL/MOL
REMARK 927      BINDING AFFINITY PREDICTED BY RF-SCORE:    0.00 PKD
ROOT
HETATM    1 NA   UNL     1     -11.651   8.518  68.942  1.00  0.00    -0.436 Na 
HETATM    2  C   UNL     2     -11.937  13.432  64.288  1.00  0.00    -0.481 C  
HETATM    3  C   UNL     2     -12.231  12.649  65.557  1.00  0.00    -0.501 C  
ENDROOT
BRANCH   3   4
HETATM    4  C   UNL     2     -11.232  13.004  66.654  1.00  0.00    -0.341 C  
BRANCH   4   5
HETATM    5  C   UNL     2      -9.855  13.352  66.084  1.00  0.00    -0.289 C  
BRANCH   5   6
HETATM    6  C   UNL     2      -9.258  14.625  66.699  1.00  0.00    -0.291 C  
BRANCH   6   7
HETATM    7  C   UNL     2     -10.325  15.684  66.974  1.00  0.00    -0.289 C  
BRANCH   7   8
HETATM    8  C   UNL     2      -9.920  16.668  68.069  1.00  0.00    -0.258 C  
BRANCH   8   9
HETATM    9  C   UNL     2     -10.843  16.575  69.294  1.00  0.00    -0.326 C  
BRANCH   9  10
HETATM   10  C   UNL     2     -11.002  15.165  69.877  1.00  0.00    -0.291 C  
BRANCH  10  11
HETATM   11  C   UNL     2     -12.464  14.788  70.132  1.00  0.00    -0.359 C  
BRANCH  11  12
HETATM   12  C   UNL     2     -12.723  14.267  71.551  1.00  0.00    -0.425 C  
BRANCH  12  13
HETATM   13  C   UNL     2     -13.277  12.840  71.596  1.00  0.00    -0.317 C  
BRANCH  13  14
HETATM   14  O   UNL     2     -12.192  11.929  71.642  1.00  0.00     0.070 OA 
HETATM   15  S   UNL     2     -12.432  10.425  71.069  1.00  0.00    -0.424 S  
HETATM   16  O   UNL     2     -11.111   9.804  71.211  1.00  0.00    -0.355 OA 
HETATM   17  O   UNL     2     -12.829  10.628  69.681  1.00  0.00    -0.177 OA 
HETATM   18  O   UNL     2     -13.456   9.868  71.935  1.00  0.00    -0.397 OA 
ENDBRANCH  13  14
ENDBRANCH  12  13
ENDBRANCH  11  12
ENDBRANCH  10  11
ENDBRANCH   9  10
ENDBRANCH   8   9
ENDBRANCH   7   8
ENDBRANCH   6   7
ENDBRANCH   5   6
ENDBRANCH   4   5
ENDBRANCH   3   4
TORSDOF 11
ENDMDL
MODEL      141
REMARK 921   NORMALIZED FREE ENERGY PREDICTED BY IDOCK:   -3.59 KCAL/MOL
REMARK 922        TOTAL FREE ENERGY PREDICTED BY IDOCK:   -7.33 KCAL/MOL
REMARK 923 INTER-LIGAND FREE ENERGY PREDICTED BY IDOCK:   -6.66 KCAL/MOL
REMARK 924 INTRA-LIGAND FREE ENERGY PREDICTED BY IDOCK:   -0.67 KCAL/MOL
REMARK 927      BINDING AFFINITY PREDICTED BY RF-SCORE:    0.00 PKD
ROOT
HETATM    1 NA   UNL     1     -14.162   9.586  70.181  1.00  0.00    -0.653 Na 
HETATM    2  C   UNL     2     -10.217   5.253  73.581  1.00  0.00    -0.237 C  
HETATM    3  C   UNL     2     -11.344   5.768  72.699  1.00  0.00    -0.349 C  
ENDROOT
BRANCH   3   4
HETATM    4  C   UNL     2     -10.879   5.896  71.251  1.00  0.00    -0.333 C  
BRANCH   4   5
HETATM    5  C   UNL     2     -11.492   7.116  70.559  1.00  0.00    -0.334 C  
BRANCH   5   6
HETATM    6  C   UNL     2     -10.435   8.098  70.035  1.00  0.00    -0.231 C  
BRANCH   6   7
HETATM    7  C   UNL     2     -11.018   9.488  69.785  1.00  0.00    -0.245 C  
BRANCH   7   8
HETATM    8  C   UNL     2     -10.871   9.944  68.335  1.00  0.00    -0.263 C  
BRANCH   8   9
HETATM    9  C   UNL     2     -10.413   8.801  67.417  1.00  0.00    -0.349 C  
BRANCH   9  10
HETATM   10  C   UNL     2      -9.835   9.247  66.068  1.00  0.00    -0.363 C  
BRANCH  10  11
HETATM   11  C   UNL     2      -9.949  10.757  65.842  1.00  0.00    -0.304 C  
BRANCH  11  12
HETATM   12  C   UNL     2     -10.107  11.145  64.366  1.00  0.00    -0.377 C  
BRANCH  12  13
HETATM   13  C   UNL     2     -10.540  12.597  64.150  1.00  0.00    -0.407 C  
BRANCH  13  14
HETATM   14  O   UNL     2     -10.752  13.205  65.412  1.00  0.00    -0.283 OA 
HETATM   15  S   UNL     2     -11.927  14.324  65.535  1.00  0.00    -0.383 S  
HETATM   16  O   UNL     2     -11.903  14.672  66.959  1.00  0.00    -0.387 OA 
HETATM   17  O   UNL     2     -13.139  13.619  65.133  1.00  0.00    -0.750 OA 
HETATM   18  O   UNL     2     -11.503  15.391  64.647  1.00  0.00    -0.408 OA 
ENDBRANCH  13  14
ENDBRANCH  12  13
ENDBRANCH  11  12
ENDBRANCH  10  11
ENDBRANCH   9  10
ENDBRANCH   8   9
ENDBRANCH   7   8
ENDBRANCH   6   7
ENDBRANCH   5   6
ENDBRANCH   4   5
ENDBRANCH   3   4
TORSDOF 11
ENDMDL
MODEL      142
REMARK 921   NORMALIZED FREE ENERGY PREDICTED BY IDOCK:   -3.59 KCAL/MOL
REMARK 922        TOTAL FREE ENERGY PREDICTED BY IDOCK:   -7.33 KCAL/MOL
REMARK 923 INTER-LIGAND FREE ENERGY PREDICTED BY IDOCK:   -6.16 KCAL/MOL
REMARK 924 INTRA-LIGAND FREE ENERGY PREDICTED BY IDOCK:   -1.17 KCAL/MOL
REMARK 927      BINDING AFFINITY PREDICTED BY RF-SCORE:    0.00 PKD
ROOT
HETATM    1 NA   UNL     1     -13.720  15.913  69.746  1.00  0.00    -0.686 Na 
HETATM    2  C   UNL     2     -12.294  13.650  63.521  1.00  0.00    -0.265 C  
HETATM    3  C   UNL     2     -12.087  14.212  64.919  1.00  0.00    -0.438 C  
ENDROOT
BRANCH   3   4
HETATM    4  C   UNL     2     -11.969  13.086  65.941  1.00  0.00    -0.491 C  
BRANCH   4   5
HETATM    5  C   UNL     2     -11.682  11.737  65.277  1.00  0.00    -0.132 C  
BRANCH   5   6
HETATM    6  C   UNL     2     -10.187  11.390  65.252  1.00  0.00    -0.320 C  
BRANCH   6   7
HETATM    7  C   UNL     2      -9.798  10.445  66.387  1.00  0.00    -0.266 C  
BRANCH   7   8
HETATM    8  C   UNL     2      -8.639  10.971  67.231  1.00  0.00    -0.130 C  
BRANCH   8   9
HETATM    9  C   UNL     2      -9.027  12.232  68.017  1.00  0.00    -0.190 C  
BRANCH   9  10
HETATM   10  C   UNL     2      -8.233  13.493  67.651  1.00  0.00    -0.178 C  
BRANCH  10  11
HETATM   11  C   UNL     2      -9.088  14.763  67.679  1.00  0.00    -0.185 C  
BRANCH  11  12
HETATM   12  C   UNL     2      -9.112  15.514  66.342  1.00  0.00    -0.351 C  
BRANCH  12  13
HETATM   13  C   UNL     2      -8.826  17.013  66.469  1.00  0.00    -0.264 C  
BRANCH  13  14
HETATM   14  O   UNL     2      -9.811  17.730  65.745  1.00  0.00    -0.541 OA 
HETATM   15  S   UNL     2     -10.166  19.243  66.227  1.00  0.00    -0.492 S  
HETATM   16  O   UNL     2     -11.147  19.685  65.231  1.00  0.00    -0.409 OA 
HETATM   17  O   UNL     2      -8.896  19.955  66.143  1.00  0.00    -0.365 OA 
HETATM   18  O   UNL     2     -10.700  19.078  67.567  1.00  0.00    -0.455 OA 
ENDBRANCH  13  14
ENDBRANCH  12  13
ENDBRANCH  11  12
ENDBRANCH  10  11
ENDBRANCH   9  10
ENDBRANCH   8   9
ENDBRANCH   7   8
ENDBRANCH   6   7
ENDBRANCH   5   6
ENDBRANCH   4   5
ENDBRANCH   3   4
TORSDOF 11
ENDMDL
MODEL      143
REMARK 921   NORMALIZED FREE ENERGY PREDICTED BY IDOCK:   -3.59 KCAL/MOL
REMARK 922        TOTAL FREE ENERGY PREDICTED BY IDOCK:   -7.33 KCAL/MOL
REMARK 923 INTER-LIGAND FREE ENERGY PREDICTED BY IDOCK:   -6.08 KCAL/MOL
REMARK 924 INTRA-LIGAND FREE ENERGY PREDICTED BY IDOCK:   -1.25 KCAL/MOL
REMARK 927      BINDING AFFINITY PREDICTED BY RF-SCORE:    0.00 PKD
ROOT
HETATM    1 NA   UNL     1     -11.750  15.569  64.500  1.00  0.00    -0.349 Na 
HETATM    2  C   UNL     2     -11.167  15.612  71.250  1.00  0.00    -0.393 C  
HETATM    3  C   UNL     2     -11.796  15.724  69.870  1.00  0.00    -0.355 C  
ENDROOT
BRANCH   3   4
HETATM    4  C   UNL     2     -12.267  14.358  69.379  1.00  0.00    -0.305 C  
BRANCH   4   5
HETATM    5  C   UNL     2     -12.040  13.264  70.425  1.00  0.00    -0.401 C  
BRANCH   5   6
HETATM    6  C   UNL     2     -11.777  11.887  69.800  1.00  0.00    -0.403 C  
BRANCH   6   7
HETATM    7  C   UNL     2     -11.751  11.944  68.274  1.00  0.00    -0.385 C  
BRANCH   7   8
HETATM    8  C   UNL     2     -10.600  11.147  67.666  1.00  0.00    -0.250 C  
BRANCH   8   9
HETATM    9  C   UNL     2      -9.490  12.061  67.127  1.00  0.00    -0.187 C  
BRANCH   9  10
HETATM   10  C   UNL     2      -9.981  13.370  66.493  1.00  0.00    -0.286 C  
BRANCH  10  11
HETATM   11  C   UNL     2      -9.474  14.614  67.228  1.00  0.00    -0.221 C  
BRANCH  11  12
HETATM   12  C   UNL     2      -8.991  15.725  66.288  1.00  0.00    -0.381 C  
BRANCH  12  13
HETATM   13  C   UNL     2      -9.847  16.993  66.334  1.00  0.00    -0.299 C  
BRANCH  13  14
HETATM   14  O   UNL     2      -9.010  18.119  66.137  1.00  0.00    -0.468 OA 
HETATM   15  S   UNL     2      -9.242  19.420  67.086  1.00  0.00    -0.325 S  
HETATM   16  O   UNL     2      -8.180  20.336  66.655  1.00  0.00    -0.296 OA 
HETATM   17  O   UNL     2      -9.056  18.916  68.441  1.00  0.00    -0.319 OA 
HETATM   18  O   UNL     2     -10.587  19.864  66.766  1.00  0.00    -0.461 OA 
ENDBRANCH  13  14
ENDBRANCH  12  13
ENDBRANCH  11  12
ENDBRANCH  10  11
ENDBRANCH   9  10
ENDBRANCH   8   9
ENDBRANCH   7   8
ENDBRANCH   6   7
ENDBRANCH   5   6
ENDBRANCH   4   5
ENDBRANCH   3   4
TORSDOF 11
ENDMDL
MODEL      144
REMARK 921   NORMALIZED FREE ENERGY PREDICTED BY IDOCK:   -3.59 KCAL/MOL
REMARK 922        TOTAL FREE ENERGY PREDICTED BY IDOCK:   -7.33 KCAL/MOL
REMARK 923 INTER-LIGAND FREE ENERGY PREDICTED BY IDOCK:   -6.48 KCAL/MOL
REMARK 924 INTRA-LIGAND FREE ENERGY PREDICTED BY IDOCK:   -0.85 KCAL/MOL
REMARK 927      BINDING AFFINITY PREDICTED BY RF-SCORE:    0.00 PKD
ROOT
HETATM    1 NA   UNL     1     -12.203  15.802  63.120  1.00  0.00    -0.837 Na 
HETATM    2  C   UNL     2     -10.085  19.939  68.049  1.00  0.00    -0.572 C  
HETATM    3  C   UNL     2     -10.645  18.701  67.366  1.00  0.00    -0.490 C  
ENDROOT
BRANCH   3   4
HETATM    4  C   UNL     2      -9.517  17.776  66.918  1.00  0.00    -0.271 C  
BRANCH   4   5
HETATM    5  C   UNL     2      -9.765  16.326  67.339  1.00  0.00    -0.234 C  
BRANCH   5   6
HETATM    6  C   UNL     2     -11.195  16.086  67.839  1.00  0.00    -0.276 C  
BRANCH   6   7
HETATM    7  C   UNL     2     -11.564  14.603  67.835  1.00  0.00    -0.373 C  
BRANCH   7   8
HETATM    8  C   UNL     2     -12.284  14.171  66.560  1.00  0.00    -0.463 C  
BRANCH   8   9
HETATM    9  C   UNL     2     -11.873  12.758  66.119  1.00  0.00    -0.484 C  
BRANCH   9  10
HETATM   10  C   UNL     2     -10.372  12.573  65.861  1.00  0.00    -0.284 C  
BRANCH  10  11
HETATM   11  C   UNL     2      -9.816  11.288  66.480  1.00  0.00    -0.239 C  
BRANCH  11  12
HETATM   12  C   UNL     2     -10.819  10.560  67.384  1.00  0.00    -0.349 C  
BRANCH  12  13
HETATM   13  C   UNL     2     -10.297  10.292  68.798  1.00  0.00    -0.195 C  
BRANCH  13  14
HETATM   14  O   UNL     2     -10.814   9.053  69.250  1.00  0.00    -0.206 OA 
HETATM   15  S   UNL     2     -11.449   8.988  70.747  1.00  0.00    -0.270 S  
HETATM   16  O   UNL     2     -11.932   7.607  70.841  1.00  0.00    -0.291 OA 
HETATM   17  O   UNL     2     -12.521   9.976  70.726  1.00  0.00    -0.306 OA 
HETATM   18  O   UNL     2     -10.334   9.297  71.625  1.00  0.00    -0.340 OA 
ENDBRANCH  13  14
ENDBRANCH  12  13
ENDBRANCH  11  12
ENDBRANCH  10  11
ENDBRANCH   9  10
ENDBRANCH   8   9
ENDBRANCH   7   8
ENDBRANCH   6   7
ENDBRANCH   5   6
ENDBRANCH   4   5
ENDBRANCH   3   4
TORSDOF 11
ENDMDL
MODEL      145
REMARK 921   NORMALIZED FREE ENERGY PREDICTED BY IDOCK:   -3.58 KCAL/MOL
REMARK 922        TOTAL FREE ENERGY PREDICTED BY IDOCK:   -7.32 KCAL/MOL
REMARK 923 INTER-LIGAND FREE ENERGY PREDICTED BY IDOCK:   -5.70 KCAL/MOL
REMARK 924 INTRA-LIGAND FREE ENERGY PREDICTED BY IDOCK:   -1.61 KCAL/MOL
REMARK 927      BINDING AFFINITY PREDICTED BY RF-SCORE:    0.00 PKD
ROOT
HETATM    1 NA   UNL     1      -7.718  11.531  70.164  1.00  0.00    -0.353 Na 
HETATM    2  C   UNL     2     -10.791   6.420  66.950  1.00  0.00    -0.428 C  
HETATM    3  C   UNL     2      -9.725   7.195  67.708  1.00  0.00    -0.161 C  
ENDROOT
BRANCH   3   4
HETATM    4  C   UNL     2      -9.958   7.102  69.213  1.00  0.00    -0.168 C  
BRANCH   4   5
HETATM    5  C   UNL     2     -11.340   6.534  69.545  1.00  0.00    -0.419 C  
BRANCH   5   6
HETATM    6  C   UNL     2     -11.630   6.513  71.051  1.00  0.00    -0.405 C  
BRANCH   6   7
HETATM    7  C   UNL     2     -12.693   7.539  71.445  1.00  0.00    -0.382 C  
BRANCH   7   8
HETATM    8  C   UNL     2     -12.098   8.869  71.903  1.00  0.00    -0.443 C  
BRANCH   8   9
HETATM    9  C   UNL     2     -13.046  10.045  71.631  1.00  0.00    -0.547 C  
BRANCH   9  10
HETATM   10  C   UNL     2     -12.448  11.174  70.780  1.00  0.00    -0.479 C  
BRANCH  10  11
HETATM   11  C   UNL     2     -11.215  10.732  69.987  1.00  0.00    -0.366 C  
BRANCH  11  12
HETATM   12  C   UNL     2     -11.519  10.395  68.522  1.00  0.00    -0.231 C  
BRANCH  12  13
HETATM   13  C   UNL     2     -10.980  11.424  67.525  1.00  0.00    -0.260 C  
BRANCH  13  14
HETATM   14  O   UNL     2      -9.728  11.900  67.988  1.00  0.00    -0.180 OA 
HETATM   15  S   UNL     2      -9.468  13.506  67.978  1.00  0.00    -0.225 S  
HETATM   16  O   UNL     2      -8.134  13.628  68.573  1.00  0.00    -0.144 OA 
HETATM   17  O   UNL     2     -10.529  14.047  68.819  1.00  0.00    -0.239 OA 
HETATM   18  O   UNL     2      -9.538  13.872  66.574  1.00  0.00    -0.274 OA 
ENDBRANCH  13  14
ENDBRANCH  12  13
ENDBRANCH  11  12
ENDBRANCH  10  11
ENDBRANCH   9  10
ENDBRANCH   8   9
ENDBRANCH   7   8
ENDBRANCH   6   7
ENDBRANCH   5   6
ENDBRANCH   4   5
ENDBRANCH   3   4
TORSDOF 11
ENDMDL
MODEL      146
REMARK 921   NORMALIZED FREE ENERGY PREDICTED BY IDOCK:   -3.58 KCAL/MOL
REMARK 922        TOTAL FREE ENERGY PREDICTED BY IDOCK:   -7.31 KCAL/MOL
REMARK 923 INTER-LIGAND FREE ENERGY PREDICTED BY IDOCK:   -6.08 KCAL/MOL
REMARK 924 INTRA-LIGAND FREE ENERGY PREDICTED BY IDOCK:   -1.23 KCAL/MOL
REMARK 927      BINDING AFFINITY PREDICTED BY RF-SCORE:    0.00 PKD
ROOT
HETATM    1 NA   UNL     1     -12.005   4.125  65.270  1.00  0.00    -0.642 Na 
HETATM    2  C   UNL     2      -8.208   8.930  68.168  1.00  0.00    -0.114 C  
HETATM    3  C   UNL     2      -8.801   8.033  67.092  1.00  0.00    -0.138 C  
ENDROOT
BRANCH   3   4
HETATM    4  C   UNL     2     -10.098   8.626  66.549  1.00  0.00    -0.339 C  
BRANCH   4   5
HETATM    5  C   UNL     2      -9.838   9.675  65.466  1.00  0.00    -0.352 C  
BRANCH   5   6
HETATM    6  C   UNL     2     -10.317  11.077  65.866  1.00  0.00    -0.315 C  
BRANCH   6   7
HETATM    7  C   UNL     2      -9.175  11.946  66.391  1.00  0.00    -0.218 C  
BRANCH   7   8
HETATM    8  C   UNL     2      -9.413  12.448  67.814  1.00  0.00    -0.199 C  
BRANCH   8   9
HETATM    9  C   UNL     2     -10.705  11.876  68.415  1.00  0.00    -0.248 C  
BRANCH   9  10
HETATM   10  C   UNL     2     -11.827  12.901  68.631  1.00  0.00    -0.347 C  
BRANCH  10  11
HETATM   11  C   UNL     2     -11.364  14.132  69.415  1.00  0.00    -0.318 C  
BRANCH  11  12
HETATM   12  C   UNL     2     -11.672  15.458  68.710  1.00  0.00    -0.369 C  
BRANCH  12  13
HETATM   13  C   UNL     2     -10.459  16.091  68.022  1.00  0.00    -0.275 C  
BRANCH  13  14
HETATM   14  O   UNL     2     -10.899  16.796  66.875  1.00  0.00    -0.189 OA 
HETATM   15  S   UNL     2     -10.569  16.162  65.413  1.00  0.00    -0.324 S  
HETATM   16  O   UNL     2     -11.218  17.100  64.492  1.00  0.00    -1.104 OA 
HETATM   17  O   UNL     2     -11.201  14.848  65.440  1.00  0.00    -0.338 OA 
HETATM   18  O   UNL     2      -9.119  16.154  65.343  1.00  0.00    -0.248 OA 
ENDBRANCH  13  14
ENDBRANCH  12  13
ENDBRANCH  11  12
ENDBRANCH  10  11
ENDBRANCH   9  10
ENDBRANCH   8   9
ENDBRANCH   7   8
ENDBRANCH   6   7
ENDBRANCH   5   6
ENDBRANCH   4   5
ENDBRANCH   3   4
TORSDOF 11
ENDMDL
MODEL      147
REMARK 921   NORMALIZED FREE ENERGY PREDICTED BY IDOCK:   -3.57 KCAL/MOL
REMARK 922        TOTAL FREE ENERGY PREDICTED BY IDOCK:   -7.30 KCAL/MOL
REMARK 923 INTER-LIGAND FREE ENERGY PREDICTED BY IDOCK:   -6.57 KCAL/MOL
REMARK 924 INTRA-LIGAND FREE ENERGY PREDICTED BY IDOCK:   -0.73 KCAL/MOL
REMARK 927      BINDING AFFINITY PREDICTED BY RF-SCORE:    0.00 PKD
ROOT
HETATM    1 NA   UNL     1     -11.343   4.776  64.642  1.00  0.00    -0.460 Na 
HETATM    2  C   UNL     2     -10.937   6.289  71.233  1.00  0.00    -0.330 C  
HETATM    3  C   UNL     2     -10.502   5.982  69.809  1.00  0.00    -0.320 C  
ENDROOT
BRANCH   3   4
HETATM    4  C   UNL     2     -10.489   7.252  68.963  1.00  0.00    -0.219 C  
BRANCH   4   5
HETATM    5  C   UNL     2     -10.728   6.956  67.481  1.00  0.00    -0.368 C  
BRANCH   5   6
HETATM    6  C   UNL     2     -10.505   8.181  66.584  1.00  0.00    -0.204 C  
BRANCH   6   7
HETATM    7  C   UNL     2      -9.749   9.294  67.310  1.00  0.00    -0.218 C  
BRANCH   7   8
HETATM    8  C   UNL     2      -9.400  10.469  66.400  1.00  0.00    -0.197 C  
BRANCH   8   9
HETATM    9  C   UNL     2      -9.599  10.126  64.917  1.00  0.00    -0.369 C  
BRANCH   9  10
HETATM   10  C   UNL     2     -10.522  11.082  64.150  1.00  0.00    -0.434 C  
BRANCH  10  11
HETATM   11  C   UNL     2     -10.946  12.295  64.983  1.00  0.00    -0.344 C  
BRANCH  11  12
HETATM   12  C   UNL     2     -12.257  12.935  64.509  1.00  0.00    -0.489 C  
BRANCH  12  13
HETATM   13  C   UNL     2     -12.205  14.462  64.420  1.00  0.00    -0.458 C  
BRANCH  13  14
HETATM   14  O   UNL     2     -10.866  14.887  64.612  1.00  0.00    -0.370 OA 
HETATM   15  S   UNL     2     -10.612  16.267  65.436  1.00  0.00    -0.282 S  
HETATM   16  O   UNL     2      -9.149  16.350  65.494  1.00  0.00    -0.390 OA 
HETATM   17  O   UNL     2     -11.230  16.029  66.735  1.00  0.00    -0.104 OA 
HETATM   18  O   UNL     2     -11.242  17.293  64.624  1.00  0.00    -1.014 OA 
ENDBRANCH  13  14
ENDBRANCH  12  13
ENDBRANCH  11  12
ENDBRANCH  10  11
ENDBRANCH   9  10
ENDBRANCH   8   9
ENDBRANCH   7   8
ENDBRANCH   6   7
ENDBRANCH   5   6
ENDBRANCH   4   5
ENDBRANCH   3   4
TORSDOF 11
ENDMDL
MODEL      148
REMARK 921   NORMALIZED FREE ENERGY PREDICTED BY IDOCK:   -3.57 KCAL/MOL
REMARK 922        TOTAL FREE ENERGY PREDICTED BY IDOCK:   -7.30 KCAL/MOL
REMARK 923 INTER-LIGAND FREE ENERGY PREDICTED BY IDOCK:   -6.38 KCAL/MOL
REMARK 924 INTRA-LIGAND FREE ENERGY PREDICTED BY IDOCK:   -0.93 KCAL/MOL
REMARK 927      BINDING AFFINITY PREDICTED BY RF-SCORE:    0.00 PKD
ROOT
HETATM    1 NA   UNL     1     -13.207   8.517  70.394  1.00  0.00    -0.499 Na 
HETATM    2  C   UNL     2     -13.185  15.244  71.196  1.00  0.00    -0.567 C  
HETATM    3  C   UNL     2     -12.708  13.800  71.227  1.00  0.00    -0.450 C  
ENDROOT
BRANCH   3   4
HETATM    4  C   UNL     2     -12.069  13.415  69.896  1.00  0.00    -0.389 C  
BRANCH   4   5
HETATM    5  C   UNL     2     -11.227  14.553  69.313  1.00  0.00    -0.309 C  
BRANCH   5   6
HETATM    6  C   UNL     2     -10.914  14.361  67.824  1.00  0.00    -0.283 C  
BRANCH   6   7
HETATM    7  C   UNL     2     -11.823  13.317  67.175  1.00  0.00    -0.424 C  
BRANCH   7   8
HETATM    8  C   UNL     2     -12.626  13.873  66.001  1.00  0.00    -0.467 C  
BRANCH   8   9
HETATM    9  C   UNL     2     -12.766  12.848  64.866  1.00  0.00    -0.474 C  
BRANCH   9  10
HETATM   10  C   UNL     2     -11.682  12.931  63.784  1.00  0.00    -0.557 C  
BRANCH  10  11
HETATM   11  C   UNL     2     -11.110  11.561  63.408  1.00  0.00    -0.370 C  
BRANCH  11  12
HETATM   12  C   UNL     2      -9.662  11.354  63.870  1.00  0.00    -0.299 C  
BRANCH  12  13
HETATM   13  C   UNL     2      -9.521  11.100  65.373  1.00  0.00    -0.222 C  
BRANCH  13  14
HETATM   14  O   UNL     2     -10.328   9.991  65.729  1.00  0.00    -0.228 OA 
HETATM   15  S   UNL     2      -9.627   8.758  66.524  1.00  0.00    -0.257 S  
HETATM   16  O   UNL     2     -10.749   7.849  66.779  1.00  0.00    -0.304 OA 
HETATM   17  O   UNL     2      -9.092   9.369  67.735  1.00  0.00    -0.126 OA 
HETATM   18  O   UNL     2      -8.636   8.246  65.595  1.00  0.00    -0.153 OA 
ENDBRANCH  13  14
ENDBRANCH  12  13
ENDBRANCH  11  12
ENDBRANCH  10  11
ENDBRANCH   9  10
ENDBRANCH   8   9
ENDBRANCH   7   8
ENDBRANCH   6   7
ENDBRANCH   5   6
ENDBRANCH   4   5
ENDBRANCH   3   4
TORSDOF 11
ENDMDL
MODEL      149
REMARK 921   NORMALIZED FREE ENERGY PREDICTED BY IDOCK:   -3.57 KCAL/MOL
REMARK 922        TOTAL FREE ENERGY PREDICTED BY IDOCK:   -7.30 KCAL/MOL
REMARK 923 INTER-LIGAND FREE ENERGY PREDICTED BY IDOCK:   -6.68 KCAL/MOL
REMARK 924 INTRA-LIGAND FREE ENERGY PREDICTED BY IDOCK:   -0.62 KCAL/MOL
REMARK 927      BINDING AFFINITY PREDICTED BY RF-SCORE:    0.00 PKD
ROOT
HETATM    1 NA   UNL     1     -13.112  13.411  63.132  1.00  0.00    -0.664 Na 
HETATM    2  C   UNL     2      -8.552  16.972  66.655  1.00  0.00    -0.285 C  
HETATM    3  C   UNL     2      -9.900  16.481  66.150  1.00  0.00    -0.355 C  
ENDROOT
BRANCH   3   4
HETATM    4  C   UNL     2     -10.361  15.262  66.945  1.00  0.00    -0.278 C  
BRANCH   4   5
HETATM    5  C   UNL     2      -9.493  15.023  68.182  1.00  0.00    -0.196 C  
BRANCH   5   6
HETATM    6  C   UNL     2     -10.203  15.398  69.490  1.00  0.00    -0.273 C  
BRANCH   6   7
HETATM    7  C   UNL     2     -11.715  15.522  69.308  1.00  0.00    -0.380 C  
BRANCH   7   8
HETATM    8  C   UNL     2     -12.500  15.138  70.560  1.00  0.00    -0.429 C  
BRANCH   8   9
HETATM    9  C   UNL     2     -12.463  13.624  70.818  1.00  0.00    -0.432 C  
BRANCH   9  10
HETATM   10  C   UNL     2     -13.353  13.143  71.972  1.00  0.00    -0.587 C  
BRANCH  10  11
HETATM   11  C   UNL     2     -13.414  11.617  72.079  1.00  0.00    -0.304 C  
BRANCH  11  12
HETATM   12  C   UNL     2     -12.462  10.897  71.117  1.00  0.00    -0.511 C  
BRANCH  12  13
HETATM   13  C   UNL     2     -11.859   9.611  71.688  1.00  0.00    -0.384 C  
BRANCH  13  14
HETATM   14  O   UNL     2     -11.695   8.675  70.637  1.00  0.00    -0.255 OA 
HETATM   15  S   UNL     2     -11.777   7.091  71.002  1.00  0.00    -0.349 S  
HETATM   16  O   UNL     2     -11.636   6.444  69.694  1.00  0.00    -0.417 OA 
HETATM   17  O   UNL     2     -13.101   6.926  71.590  1.00  0.00    -0.365 OA 
HETATM   18  O   UNL     2     -10.663   6.872  71.907  1.00  0.00    -0.215 OA 
ENDBRANCH  13  14
ENDBRANCH  12  13
ENDBRANCH  11  12
ENDBRANCH  10  11
ENDBRANCH   9  10
ENDBRANCH   8   9
ENDBRANCH   7   8
ENDBRANCH   6   7
ENDBRANCH   5   6
ENDBRANCH   4   5
ENDBRANCH   3   4
TORSDOF 11
ENDMDL
MODEL      150
REMARK 921   NORMALIZED FREE ENERGY PREDICTED BY IDOCK:   -3.56 KCAL/MOL
REMARK 922        TOTAL FREE ENERGY PREDICTED BY IDOCK:   -7.29 KCAL/MOL
REMARK 923 INTER-LIGAND FREE ENERGY PREDICTED BY IDOCK:   -6.62 KCAL/MOL
REMARK 924 INTRA-LIGAND FREE ENERGY PREDICTED BY IDOCK:   -0.67 KCAL/MOL
REMARK 927      BINDING AFFINITY PREDICTED BY RF-SCORE:    0.00 PKD
ROOT
HETATM    1 NA   UNL     1      -9.067   8.517  74.245  1.00  0.00    -0.264 Na 
HETATM    2  C   UNL     2      -9.598   2.574  71.037  1.00  0.00    -0.206 C  
HETATM    3  C   UNL     2      -9.976   3.944  71.578  1.00  0.00    -0.209 C  
ENDROOT
BRANCH   3   4
HETATM    4  C   UNL     2      -9.551   5.043  70.608  1.00  0.00    -0.250 C  
BRANCH   4   5
HETATM    5  C   UNL     2     -10.744   5.633  69.852  1.00  0.00    -0.399 C  
BRANCH   5   6
HETATM    6  C   UNL     2     -11.020   7.096  70.222  1.00  0.00    -0.288 C  
BRANCH   6   7
HETATM    7  C   UNL     2      -9.756   7.820  70.684  1.00  0.00    -0.177 C  
BRANCH   7   8
HETATM    8  C   UNL     2     -10.014   9.267  71.097  1.00  0.00    -0.356 C  
BRANCH   8   9
HETATM    9  C   UNL     2     -11.510   9.613  71.071  1.00  0.00    -0.444 C  
BRANCH   9  10
HETATM   10  C   UNL     2     -11.866  10.886  70.292  1.00  0.00    -0.450 C  
BRANCH  10  11
HETATM   11  C   UNL     2     -11.477  10.806  68.813  1.00  0.00    -0.364 C  
BRANCH  11  12
HETATM   12  C   UNL     2     -11.506  12.163  68.099  1.00  0.00    -0.375 C  
BRANCH  12  13
HETATM   13  C   UNL     2     -11.400  12.064  66.575  1.00  0.00    -0.354 C  
BRANCH  13  14
HETATM   14  O   UNL     2     -11.996  13.212  65.998  1.00  0.00    -0.391 OA 
HETATM   15  S   UNL     2     -11.998  13.341  64.376  1.00  0.00    -0.427 S  
HETATM   16  O   UNL     2     -12.738  14.585  64.145  1.00  0.00    -0.711 OA 
HETATM   17  O   UNL     2     -12.709  12.152  63.922  1.00  0.00    -0.624 OA 
HETATM   18  O   UNL     2     -10.592  13.400  64.017  1.00  0.00    -0.335 OA 
ENDBRANCH  13  14
ENDBRANCH  12  13
ENDBRANCH  11  12
ENDBRANCH  10  11
ENDBRANCH   9  10
ENDBRANCH   8   9
ENDBRANCH   7   8
ENDBRANCH   6   7
ENDBRANCH   5   6
ENDBRANCH   4   5
ENDBRANCH   3   4
TORSDOF 11
ENDMDL
MODEL      151
REMARK 921   NORMALIZED FREE ENERGY PREDICTED BY IDOCK:   -3.56 KCAL/MOL
REMARK 922        TOTAL FREE ENERGY PREDICTED BY IDOCK:   -7.29 KCAL/MOL
REMARK 923 INTER-LIGAND FREE ENERGY PREDICTED BY IDOCK:   -6.23 KCAL/MOL
REMARK 924 INTRA-LIGAND FREE ENERGY PREDICTED BY IDOCK:   -1.06 KCAL/MOL
REMARK 927      BINDING AFFINITY PREDICTED BY RF-SCORE:    0.00 PKD
ROOT
HETATM    1 NA   UNL     1     -12.764  13.652  70.107  1.00  0.00    -0.297 Na 
HETATM    2  C   UNL     2     -11.826  12.009  63.602  1.00  0.00    -0.602 C  
HETATM    3  C   UNL     2     -12.432  12.652  64.840  1.00  0.00    -0.564 C  
ENDROOT
BRANCH   3   4
HETATM    4  C   UNL     2     -11.719  13.960  65.173  1.00  0.00    -0.357 C  
BRANCH   4   5
HETATM    5  C   UNL     2     -11.240  13.996  66.626  1.00  0.00    -0.330 C  
BRANCH   5   6
HETATM    6  C   UNL     2     -10.379  12.783  67.001  1.00  0.00    -0.240 C  
BRANCH   6   7
HETATM    7  C   UNL     2     -10.884  12.090  68.266  1.00  0.00    -0.263 C  
BRANCH   7   8
HETATM    8  C   UNL     2     -11.445  10.695  68.000  1.00  0.00    -0.289 C  
BRANCH   8   9
HETATM    9  C   UNL     2     -10.441   9.807  67.249  1.00  0.00    -0.324 C  
BRANCH   9  10
HETATM   10  C   UNL     2      -9.919   8.605  68.047  1.00  0.00    -0.221 C  
BRANCH  10  11
HETATM   11  C   UNL     2     -10.626   7.297  67.684  1.00  0.00    -0.316 C  
BRANCH  11  12
HETATM   12  C   UNL     2     -10.901   6.394  68.892  1.00  0.00    -0.382 C  
BRANCH  12  13
HETATM   13  C   UNL     2     -10.730   7.095  70.242  1.00  0.00    -0.238 C  
BRANCH  13  14
HETATM   14  O   UNL     2     -12.006   7.475  70.726  1.00  0.00    -0.277 OA 
HETATM   15  S   UNL     2     -12.073   8.569  71.930  1.00  0.00    -0.376 S  
HETATM   16  O   UNL     2     -13.514   8.764  72.118  1.00  0.00    -0.373 OA 
HETATM   17  O   UNL     2     -11.396   9.741  71.389  1.00  0.00    -0.369 OA 
HETATM   18  O   UNL     2     -11.402   7.921  73.043  1.00  0.00    -0.408 OA 
ENDBRANCH  13  14
ENDBRANCH  12  13
ENDBRANCH  11  12
ENDBRANCH  10  11
ENDBRANCH   9  10
ENDBRANCH   8   9
ENDBRANCH   7   8
ENDBRANCH   6   7
ENDBRANCH   5   6
ENDBRANCH   4   5
ENDBRANCH   3   4
TORSDOF 11
ENDMDL
MODEL      152
REMARK 921   NORMALIZED FREE ENERGY PREDICTED BY IDOCK:   -3.56 KCAL/MOL
REMARK 922        TOTAL FREE ENERGY PREDICTED BY IDOCK:   -7.29 KCAL/MOL
REMARK 923 INTER-LIGAND FREE ENERGY PREDICTED BY IDOCK:   -6.51 KCAL/MOL
REMARK 924 INTRA-LIGAND FREE ENERGY PREDICTED BY IDOCK:   -0.78 KCAL/MOL
REMARK 927      BINDING AFFINITY PREDICTED BY RF-SCORE:    0.00 PKD
ROOT
HETATM    1 NA   UNL     1     -13.519  10.259  69.577  1.00  0.00    -0.591 Na 
HETATM    2  C   UNL     2     -11.230   4.991  73.170  1.00  0.00    -0.408 C  
HETATM    3  C   UNL     2     -11.232   6.183  72.226  1.00  0.00    -0.334 C  
ENDROOT
BRANCH   3   4
HETATM    4  C   UNL     2     -11.046   7.485  73.001  1.00  0.00    -0.413 C  
BRANCH   4   5
HETATM    5  C   UNL     2     -10.338   8.553  72.165  1.00  0.00    -0.409 C  
BRANCH   5   6
HETATM    6  C   UNL     2     -11.218   9.109  71.038  1.00  0.00    -0.380 C  
BRANCH   6   7
HETATM    7  C   UNL     2     -10.388   9.738  69.919  1.00  0.00    -0.291 C  
BRANCH   7   8
HETATM    8  C   UNL     2     -10.352   8.886  68.652  1.00  0.00    -0.228 C  
BRANCH   8   9
HETATM    9  C   UNL     2     -10.735   9.696  67.405  1.00  0.00    -0.308 C  
BRANCH   9  10
HETATM   10  C   UNL     2     -11.331  11.080  67.692  1.00  0.00    -0.355 C  
BRANCH  10  11
HETATM   11  C   UNL     2     -11.394  11.970  66.447  1.00  0.00    -0.411 C  
BRANCH  11  12
HETATM   12  C   UNL     2     -12.079  13.320  66.694  1.00  0.00    -0.421 C  
BRANCH  12  13
HETATM   13  C   UNL     2     -11.308  14.244  67.640  1.00  0.00    -0.324 C  
BRANCH  13  14
HETATM   14  O   UNL     2     -12.228  14.890  68.502  1.00  0.00    -0.194 OA 
HETATM   15  S   UNL     2     -11.973  14.793  70.106  1.00  0.00    -0.333 S  
HETATM   16  O   UNL     2     -13.054  15.613  70.661  1.00  0.00    -0.465 OA 
HETATM   17  O   UNL     2     -10.650  15.375  70.295  1.00  0.00    -0.301 OA 
HETATM   18  O   UNL     2     -12.078  13.376  70.402  1.00  0.00    -0.340 OA 
ENDBRANCH  13  14
ENDBRANCH  12  13
ENDBRANCH  11  12
ENDBRANCH  10  11
ENDBRANCH   9  10
ENDBRANCH   8   9
ENDBRANCH   7   8
ENDBRANCH   6   7
ENDBRANCH   5   6
ENDBRANCH   4   5
ENDBRANCH   3   4
TORSDOF 11
ENDMDL
MODEL      153
REMARK 921   NORMALIZED FREE ENERGY PREDICTED BY IDOCK:   -3.56 KCAL/MOL
REMARK 922        TOTAL FREE ENERGY PREDICTED BY IDOCK:   -7.28 KCAL/MOL
REMARK 923 INTER-LIGAND FREE ENERGY PREDICTED BY IDOCK:   -5.87 KCAL/MOL
REMARK 924 INTRA-LIGAND FREE ENERGY PREDICTED BY IDOCK:   -1.40 KCAL/MOL
REMARK 927      BINDING AFFINITY PREDICTED BY RF-SCORE:    0.00 PKD
ROOT
HETATM    1 NA   UNL     1      -7.828  11.940  62.545  1.00  0.00    -0.441 Na 
HETATM    2  C   UNL     2      -7.971  14.899  68.638  1.00  0.00    -0.144 C  
HETATM    3  C   UNL     2      -8.401  14.048  67.452  1.00  0.00    -0.207 C  
ENDROOT
BRANCH   3   4
HETATM    4  C   UNL     2      -7.803  12.648  67.548  1.00  0.00    -0.175 C  
BRANCH   4   5
HETATM    5  C   UNL     2      -8.880  11.561  67.507  1.00  0.00    -0.155 C  
BRANCH   5   6
HETATM    6  C   UNL     2      -9.810  11.690  66.294  1.00  0.00    -0.245 C  
BRANCH   6   7
HETATM    7  C   UNL     2     -11.279  11.510  66.675  1.00  0.00    -0.336 C  
BRANCH   7   8
HETATM    8  C   UNL     2     -11.788  12.598  67.618  1.00  0.00    -0.390 C  
BRANCH   8   9
HETATM    9  C   UNL     2     -12.146  13.888  66.866  1.00  0.00    -0.467 C  
BRANCH   9  10
HETATM   10  C   UNL     2     -12.767  13.675  65.478  1.00  0.00    -0.514 C  
BRANCH  10  11
HETATM   11  C   UNL     2     -12.269  14.688  64.443  1.00  0.00    -0.473 C  
BRANCH  11  12
HETATM   12  C   UNL     2     -10.952  15.368  64.836  1.00  0.00    -0.453 C  
BRANCH  12  13
HETATM   13  C   UNL     2     -11.029  16.897  64.870  1.00  0.00    -0.001 C  
BRANCH  13  14
HETATM   14  O   UNL     2      -9.884  17.399  65.537  1.00  0.00    -0.536 OA 
HETATM   15  S   UNL     2     -10.069  17.973  67.048  1.00  0.00    -0.363 S  
HETATM   16  O   UNL     2      -8.701  18.332  67.434  1.00  0.00    -0.252 OA 
HETATM   17  O   UNL     2     -10.604  16.843  67.799  1.00  0.00    -0.329 OA 
HETATM   18  O   UNL     2     -10.968  19.103  66.897  1.00  0.00    -0.394 OA 
ENDBRANCH  13  14
ENDBRANCH  12  13
ENDBRANCH  11  12
ENDBRANCH  10  11
ENDBRANCH   9  10
ENDBRANCH   8   9
ENDBRANCH   7   8
ENDBRANCH   6   7
ENDBRANCH   5   6
ENDBRANCH   4   5
ENDBRANCH   3   4
TORSDOF 11
ENDMDL
MODEL      154
REMARK 921   NORMALIZED FREE ENERGY PREDICTED BY IDOCK:   -3.55 KCAL/MOL
REMARK 922        TOTAL FREE ENERGY PREDICTED BY IDOCK:   -7.27 KCAL/MOL
REMARK 923 INTER-LIGAND FREE ENERGY PREDICTED BY IDOCK:   -6.71 KCAL/MOL
REMARK 924 INTRA-LIGAND FREE ENERGY PREDICTED BY IDOCK:   -0.57 KCAL/MOL
REMARK 927      BINDING AFFINITY PREDICTED BY RF-SCORE:    0.00 PKD
ROOT
HETATM    1 NA   UNL     1     -14.389  15.577  70.333  1.00  0.00    -0.651 Na 
HETATM    2  C   UNL     2     -12.324  12.799  64.509  1.00  0.00    -0.515 C  
HETATM    3  C   UNL     2     -12.349  13.708  65.729  1.00  0.00    -0.524 C  
ENDROOT
BRANCH   3   4
HETATM    4  C   UNL     2     -11.668  13.035  66.917  1.00  0.00    -0.441 C  
BRANCH   4   5
HETATM    5  C   UNL     2     -11.040  11.694  66.533  1.00  0.00    -0.357 C  
BRANCH   5   6
HETATM    6  C   UNL     2     -11.192  10.629  67.627  1.00  0.00    -0.361 C  
BRANCH   6   7
HETATM    7  C   UNL     2     -12.110  11.093  68.757  1.00  0.00    -0.232 C  
BRANCH   7   8
HETATM    8  C   UNL     2     -11.546  10.794  70.145  1.00  0.00    -0.424 C  
BRANCH   8   9
HETATM    9  C   UNL     2     -12.491  11.264  71.261  1.00  0.00    -0.441 C  
BRANCH   9  10
HETATM   10  C   UNL     2     -12.798  12.767  71.258  1.00  0.00    -0.355 C  
BRANCH  10  11
HETATM   11  C   UNL     2     -11.793  13.578  70.436  1.00  0.00    -0.293 C  
BRANCH  11  12
HETATM   12  C   UNL     2     -11.703  15.050  70.857  1.00  0.00    -0.376 C  
BRANCH  12  13
HETATM   13  C   UNL     2     -11.491  16.017  69.689  1.00  0.00    -0.326 C  
BRANCH  13  14
HETATM   14  O   UNL     2     -10.100  16.154  69.454  1.00  0.00    -0.238 OA 
HETATM   15  S   UNL     2      -9.620  17.139  68.252  1.00  0.00    -0.292 S  
HETATM   16  O   UNL     2      -8.158  17.086  68.347  1.00  0.00    -0.224 OA 
HETATM   17  O   UNL     2     -10.176  18.439  68.608  1.00  0.00    -0.379 OA 
HETATM   18  O   UNL     2     -10.168  16.535  67.051  1.00  0.00    -0.277 OA 
ENDBRANCH  13  14
ENDBRANCH  12  13
ENDBRANCH  11  12
ENDBRANCH  10  11
ENDBRANCH   9  10
ENDBRANCH   8   9
ENDBRANCH   7   8
ENDBRANCH   6   7
ENDBRANCH   5   6
ENDBRANCH   4   5
ENDBRANCH   3   4
TORSDOF 11
ENDMDL
MODEL      155
REMARK 921   NORMALIZED FREE ENERGY PREDICTED BY IDOCK:   -3.54 KCAL/MOL
REMARK 922        TOTAL FREE ENERGY PREDICTED BY IDOCK:   -7.24 KCAL/MOL
REMARK 923 INTER-LIGAND FREE ENERGY PREDICTED BY IDOCK:   -6.41 KCAL/MOL
REMARK 924 INTRA-LIGAND FREE ENERGY PREDICTED BY IDOCK:   -0.83 KCAL/MOL
REMARK 927      BINDING AFFINITY PREDICTED BY RF-SCORE:    0.00 PKD
ROOT
HETATM    1 NA   UNL     1      -6.999  11.707  70.604  1.00  0.00    -0.326 Na 
HETATM    2  C   UNL     2     -11.481  16.163  68.165  1.00  0.00    -0.220 C  
HETATM    3  C   UNL     2     -10.926  14.903  68.811  1.00  0.00    -0.259 C  
ENDROOT
BRANCH   3   4
HETATM    4  C   UNL     2     -10.722  15.111  70.309  1.00  0.00    -0.232 C  
BRANCH   4   5
HETATM    5  C   UNL     2     -11.814  15.992  70.920  1.00  0.00    -0.409 C  
BRANCH   5   6
HETATM    6  C   UNL     2     -13.103  15.217  71.227  1.00  0.00    -0.540 C  
BRANCH   6   7
HETATM    7  C   UNL     2     -12.952  14.312  72.448  1.00  0.00    -0.478 C  
BRANCH   7   8
HETATM    8  C   UNL     2     -13.412  12.879  72.190  1.00  0.00    -0.619 C  
BRANCH   8   9
HETATM    9  C   UNL     2     -12.564  12.190  71.111  1.00  0.00    -0.360 C  
BRANCH   9  10
HETATM   10  C   UNL     2     -13.027  10.777  70.729  1.00  0.00    -0.348 C  
BRANCH  10  11
HETATM   11  C   UNL     2     -12.951   9.790  71.897  1.00  0.00    -0.535 C  
BRANCH  11  12
HETATM   12  C   UNL     2     -13.866   8.571  71.729  1.00  0.00    -0.462 C  
BRANCH  12  13
HETATM   13  C   UNL     2     -13.114   7.260  71.489  1.00  0.00    -0.384 C  
BRANCH  13  14
HETATM   14  O   UNL     2     -11.777   7.558  71.126  1.00  0.00    -0.279 OA 
HETATM   15  S   UNL     2     -10.578   6.866  71.982  1.00  0.00    -0.215 S  
HETATM   16  O   UNL     2      -9.370   7.337  71.297  1.00  0.00    -0.155 OA 
HETATM   17  O   UNL     2     -10.808   5.435  71.830  1.00  0.00    -0.231 OA 
HETATM   18  O   UNL     2     -10.750   7.386  73.326  1.00  0.00    -0.357 OA 
ENDBRANCH  13  14
ENDBRANCH  12  13
ENDBRANCH  11  12
ENDBRANCH  10  11
ENDBRANCH   9  10
ENDBRANCH   8   9
ENDBRANCH   7   8
ENDBRANCH   6   7
ENDBRANCH   5   6
ENDBRANCH   4   5
ENDBRANCH   3   4
TORSDOF 11
ENDMDL
MODEL      156
REMARK 921   NORMALIZED FREE ENERGY PREDICTED BY IDOCK:   -3.53 KCAL/MOL
REMARK 922        TOTAL FREE ENERGY PREDICTED BY IDOCK:   -7.24 KCAL/MOL
REMARK 923 INTER-LIGAND FREE ENERGY PREDICTED BY IDOCK:   -6.43 KCAL/MOL
REMARK 924 INTRA-LIGAND FREE ENERGY PREDICTED BY IDOCK:   -0.81 KCAL/MOL
REMARK 927      BINDING AFFINITY PREDICTED BY RF-SCORE:    0.00 PKD
ROOT
HETATM    1 NA   UNL     1      -9.469   7.427  66.984  1.00  0.00    -0.125 Na 
HETATM    2  C   UNL     2     -13.169  10.490  71.761  1.00  0.00    -0.522 C  
HETATM    3  C   UNL     2     -11.996   9.789  71.094  1.00  0.00    -0.463 C  
ENDROOT
BRANCH   3   4
HETATM    4  C   UNL     2     -11.101  10.796  70.377  1.00  0.00    -0.177 C  
BRANCH   4   5
HETATM    5  C   UNL     2      -9.859  10.134  69.777  1.00  0.00    -0.245 C  
BRANCH   5   6
HETATM    6  C   UNL     2      -9.750  10.335  68.260  1.00  0.00    -0.154 C  
BRANCH   6   7
HETATM    7  C   UNL     2     -11.118  10.526  67.606  1.00  0.00    -0.375 C  
BRANCH   7   8
HETATM    8  C   UNL     2     -11.177  11.745  66.689  1.00  0.00    -0.383 C  
BRANCH   8   9
HETATM    9  C   UNL     2     -11.877  12.935  67.362  1.00  0.00    -0.418 C  
BRANCH   9  10
HETATM   10  C   UNL     2     -10.947  14.084  67.774  1.00  0.00    -0.271 C  
BRANCH  10  11
HETATM   11  C   UNL     2     -11.686  15.412  67.955  1.00  0.00    -0.235 C  
BRANCH  11  12
HETATM   12  C   UNL     2     -11.886  15.806  69.424  1.00  0.00    -0.361 C  
BRANCH  12  13
HETATM   13  C   UNL     2     -13.080  15.119  70.093  1.00  0.00     0.002 C  
BRANCH  13  14
HETATM   14  O   UNL     2     -13.449  15.859  71.244  1.00  0.00    -0.499 OA 
HETATM   15  S   UNL     2     -12.912  15.343  72.691  1.00  0.00    -0.474 S  
HETATM   16  O   UNL     2     -13.419  16.363  73.614  1.00  0.00    -0.631 OA 
HETATM   17  O   UNL     2     -11.460  15.352  72.560  1.00  0.00    -0.454 OA 
HETATM   18  O   UNL     2     -13.515  14.032  72.851  1.00  0.00    -0.647 OA 
ENDBRANCH  13  14
ENDBRANCH  12  13
ENDBRANCH  11  12
ENDBRANCH  10  11
ENDBRANCH   9  10
ENDBRANCH   8   9
ENDBRANCH   7   8
ENDBRANCH   6   7
ENDBRANCH   5   6
ENDBRANCH   4   5
ENDBRANCH   3   4
TORSDOF 11
ENDMDL
MODEL      157
REMARK 921   NORMALIZED FREE ENERGY PREDICTED BY IDOCK:   -3.53 KCAL/MOL
REMARK 922        TOTAL FREE ENERGY PREDICTED BY IDOCK:   -7.23 KCAL/MOL
REMARK 923 INTER-LIGAND FREE ENERGY PREDICTED BY IDOCK:   -5.75 KCAL/MOL
REMARK 924 INTRA-LIGAND FREE ENERGY PREDICTED BY IDOCK:   -1.49 KCAL/MOL
REMARK 927      BINDING AFFINITY PREDICTED BY RF-SCORE:    0.00 PKD
ROOT
HETATM    1 NA   UNL     1     -11.140  12.964  70.564  1.00  0.00    -0.490 Na 
HETATM    2  C   UNL     2     -10.485  18.942  67.446  1.00  0.00    -0.520 C  
HETATM    3  C   UNL     2     -10.248  17.817  68.441  1.00  0.00    -0.384 C  
ENDROOT
BRANCH   3   4
HETATM    4  C   UNL     2      -9.246  16.808  67.887  1.00  0.00    -0.225 C  
BRANCH   4   5
HETATM    5  C   UNL     2      -9.775  15.374  67.963  1.00  0.00    -0.207 C  
BRANCH   5   6
HETATM    6  C   UNL     2     -11.133  15.276  68.672  1.00  0.00    -0.282 C  
BRANCH   6   7
HETATM    7  C   UNL     2     -12.149  14.477  67.857  1.00  0.00    -0.261 C  
BRANCH   7   8
HETATM    8  C   UNL     2     -11.768  14.352  66.384  1.00  0.00    -0.397 C  
BRANCH   8   9
HETATM    9  C   UNL     2     -12.005  12.932  65.849  1.00  0.00    -0.504 C  
BRANCH   9  10
HETATM   10  C   UNL     2     -10.734  12.170  65.453  1.00  0.00    -0.323 C  
BRANCH  10  11
HETATM   11  C   UNL     2      -9.896  11.741  66.661  1.00  0.00    -0.223 C  
BRANCH  11  12
HETATM   12  C   UNL     2     -10.717  11.061  67.764  1.00  0.00    -0.270 C  
BRANCH  12  13
HETATM   13  C   UNL     2      -9.895  10.669  68.995  1.00  0.00    -0.205 C  
BRANCH  13  14
HETATM   14  O   UNL     2     -10.778  10.434  70.079  1.00  0.00    -0.277 OA 
HETATM   15  S   UNL     2     -10.475   9.165  71.051  1.00  0.00    -0.324 S  
HETATM   16  O   UNL     2     -11.524   9.274  72.070  1.00  0.00    -0.355 OA 
HETATM   17  O   UNL     2      -9.137   9.420  71.569  1.00  0.00    -0.275 OA 
HETATM   18  O   UNL     2     -10.597   8.009  70.182  1.00  0.00    -0.228 OA 
ENDBRANCH  13  14
ENDBRANCH  12  13
ENDBRANCH  11  12
ENDBRANCH  10  11
ENDBRANCH   9  10
ENDBRANCH   8   9
ENDBRANCH   7   8
ENDBRANCH   6   7
ENDBRANCH   5   6
ENDBRANCH   4   5
ENDBRANCH   3   4
TORSDOF 11
ENDMDL
MODEL      158
REMARK 921   NORMALIZED FREE ENERGY PREDICTED BY IDOCK:   -3.52 KCAL/MOL
REMARK 922        TOTAL FREE ENERGY PREDICTED BY IDOCK:   -7.22 KCAL/MOL
REMARK 923 INTER-LIGAND FREE ENERGY PREDICTED BY IDOCK:   -6.65 KCAL/MOL
REMARK 924 INTRA-LIGAND FREE ENERGY PREDICTED BY IDOCK:   -0.57 KCAL/MOL
REMARK 927      BINDING AFFINITY PREDICTED BY RF-SCORE:    0.00 PKD
ROOT
HETATM    1 NA   UNL     1     -11.350  20.945  70.221  1.00  0.00    -0.893 Na 
HETATM    2  C   UNL     2      -7.189  17.483  66.146  1.00  0.00    -0.343 C  
HETATM    3  C   UNL     2      -8.091  17.803  67.328  1.00  0.00    -0.223 C  
ENDROOT
BRANCH   3   4
HETATM    4  C   UNL     2      -9.549  17.501  66.991  1.00  0.00    -0.268 C  
BRANCH   4   5
HETATM    5  C   UNL     2     -10.501  17.981  68.089  1.00  0.00    -0.373 C  
BRANCH   5   6
HETATM    6  C   UNL     2     -10.603  16.998  69.262  1.00  0.00    -0.276 C  
BRANCH   6   7
HETATM    7  C   UNL     2     -11.605  15.877  68.987  1.00  0.00    -0.392 C  
BRANCH   7   8
HETATM    8  C   UNL     2     -10.935  14.533  68.707  1.00  0.00    -0.262 C  
BRANCH   8   9
HETATM    9  C   UNL     2     -11.734  13.361  69.295  1.00  0.00    -0.383 C  
BRANCH   9  10
HETATM   10  C   UNL     2     -12.425  13.655  70.633  1.00  0.00    -0.417 C  
BRANCH  10  11
HETATM   11  C   UNL     2     -12.743  12.387  71.430  1.00  0.00    -0.346 C  
BRANCH  11  12
HETATM   12  C   UNL     2     -12.197  11.107  70.786  1.00  0.00    -0.484 C  
BRANCH  12  13
HETATM   13  C   UNL     2     -13.003   9.850  71.125  1.00  0.00    -0.369 C  
BRANCH  13  14
HETATM   14  O   UNL     2     -12.382   9.186  72.211  1.00  0.00    -0.359 OA 
HETATM   15  S   UNL     2     -11.703   7.733  71.934  1.00  0.00    -0.308 S  
HETATM   16  O   UNL     2     -11.115   7.391  73.233  1.00  0.00    -0.365 OA 
HETATM   17  O   UNL     2     -10.709   7.993  70.899  1.00  0.00    -0.216 OA 
HETATM   18  O   UNL     2     -12.813   6.887  71.533  1.00  0.00    -0.374 OA 
ENDBRANCH  13  14
ENDBRANCH  12  13
ENDBRANCH  11  12
ENDBRANCH  10  11
ENDBRANCH   9  10
ENDBRANCH   8   9
ENDBRANCH   7   8
ENDBRANCH   6   7
ENDBRANCH   5   6
ENDBRANCH   4   5
ENDBRANCH   3   4
TORSDOF 11
ENDMDL
MODEL      159
REMARK 921   NORMALIZED FREE ENERGY PREDICTED BY IDOCK:   -3.51 KCAL/MOL
REMARK 922        TOTAL FREE ENERGY PREDICTED BY IDOCK:   -7.21 KCAL/MOL
REMARK 923 INTER-LIGAND FREE ENERGY PREDICTED BY IDOCK:   -6.24 KCAL/MOL
REMARK 924 INTRA-LIGAND FREE ENERGY PREDICTED BY IDOCK:   -0.97 KCAL/MOL
REMARK 927      BINDING AFFINITY PREDICTED BY RF-SCORE:    0.00 PKD
ROOT
HETATM    1 NA   UNL     1      -7.829  11.120  64.347  1.00  0.00    -0.335 Na 
HETATM    2  C   UNL     2      -9.633   4.776  65.891  1.00  0.00    -0.188 C  
HETATM    3  C   UNL     2      -8.920   6.117  65.968  1.00  0.00    -0.156 C  
ENDROOT
BRANCH   3   4
HETATM    4  C   UNL     2      -9.745   7.121  66.768  1.00  0.00    -0.252 C  
BRANCH   4   5
HETATM    5  C   UNL     2     -11.017   6.491  67.340  1.00  0.00    -0.458 C  
BRANCH   5   6
HETATM    6  C   UNL     2     -10.913   6.197  68.843  1.00  0.00    -0.424 C  
BRANCH   6   7
HETATM    7  C   UNL     2      -9.948   7.148  69.549  1.00  0.00    -0.165 C  
BRANCH   7   8
HETATM    8  C   UNL     2     -10.655   8.147  70.462  1.00  0.00    -0.228 C  
BRANCH   8   9
HETATM    9  C   UNL     2     -10.369   9.600  70.054  1.00  0.00    -0.298 C  
BRANCH   9  10
HETATM   10  C   UNL     2     -11.589  10.530  70.077  1.00  0.00    -0.392 C  
BRANCH  10  11
HETATM   11  C   UNL     2     -11.701  11.396  68.819  1.00  0.00    -0.404 C  
BRANCH  11  12
HETATM   12  C   UNL     2     -10.562  11.169  67.817  1.00  0.00    -0.248 C  
BRANCH  12  13
HETATM   13  C   UNL     2     -10.995  11.275  66.353  1.00  0.00    -0.227 C  
BRANCH  13  14
HETATM   14  O   UNL     2     -12.091  12.169  66.262  1.00  0.00    -0.626 OA 
HETATM   15  S   UNL     2     -11.962  13.438  65.251  1.00  0.00    -0.407 S  
HETATM   16  O   UNL     2     -13.273  14.085  65.366  1.00  0.00    -0.761 OA 
HETATM   17  O   UNL     2     -11.726  12.835  63.945  1.00  0.00    -0.386 OA 
HETATM   18  O   UNL     2     -10.859  14.215  65.787  1.00  0.00    -0.287 OA 
ENDBRANCH  13  14
ENDBRANCH  12  13
ENDBRANCH  11  12
ENDBRANCH  10  11
ENDBRANCH   9  10
ENDBRANCH   8   9
ENDBRANCH   7   8
ENDBRANCH   6   7
ENDBRANCH   5   6
ENDBRANCH   4   5
ENDBRANCH   3   4
TORSDOF 11
ENDMDL
MODEL      160
REMARK 921   NORMALIZED FREE ENERGY PREDICTED BY IDOCK:   -3.51 KCAL/MOL
REMARK 922        TOTAL FREE ENERGY PREDICTED BY IDOCK:   -7.21 KCAL/MOL
REMARK 923 INTER-LIGAND FREE ENERGY PREDICTED BY IDOCK:   -6.35 KCAL/MOL
REMARK 924 INTRA-LIGAND FREE ENERGY PREDICTED BY IDOCK:   -0.86 KCAL/MOL
REMARK 927      BINDING AFFINITY PREDICTED BY RF-SCORE:    0.00 PKD
ROOT
HETATM    1 NA   UNL     1     -13.091  15.795  69.762  1.00  0.00    -0.540 Na 
HETATM    2  C   UNL     2     -10.987  11.428  65.030  1.00  0.00    -0.271 C  
HETATM    3  C   UNL     2     -10.937  12.414  66.187  1.00  0.00    -0.321 C  
ENDROOT
BRANCH   3   4
HETATM    4  C   UNL     2     -11.167  11.698  67.515  1.00  0.00    -0.355 C  
BRANCH   4   5
HETATM    5  C   UNL     2     -10.413  10.369  67.588  1.00  0.00    -0.277 C  
BRANCH   5   6
HETATM    6  C   UNL     2      -9.798  10.107  68.969  1.00  0.00    -0.211 C  
BRANCH   6   7
HETATM    7  C   UNL     2     -10.088   8.692  69.468  1.00  0.00    -0.203 C  
BRANCH   7   8
HETATM    8  C   UNL     2     -11.392   8.594  70.258  1.00  0.00    -0.146 C  
BRANCH   8   9
HETATM    9  C   UNL     2     -11.297   9.313  71.612  1.00  0.00    -0.467 C  
BRANCH   9  10
HETATM   10  C   UNL     2     -12.613   9.922  72.114  1.00  0.00    -0.323 C  
BRANCH  10  11
HETATM   11  C   UNL     2     -13.026  11.172  71.332  1.00  0.00    -0.506 C  
BRANCH  11  12
HETATM   12  C   UNL     2     -13.551  12.305  72.223  1.00  0.00    -0.299 C  
BRANCH  12  13
HETATM   13  C   UNL     2     -13.648  13.658  71.513  1.00  0.00    -0.219 C  
BRANCH  13  14
HETATM   14  O   UNL     2     -13.954  14.657  72.470  1.00  0.00    -0.459 OA 
HETATM   15  S   UNL     2     -12.720  15.474  73.145  1.00  0.00    -0.543 S  
HETATM   16  O   UNL     2     -13.400  16.444  74.009  1.00  0.00    -0.572 OA 
HETATM   17  O   UNL     2     -12.033  16.087  72.014  1.00  0.00    -0.453 OA 
HETATM   18  O   UNL     2     -11.963  14.460  73.857  1.00  0.00    -0.183 OA 
ENDBRANCH  13  14
ENDBRANCH  12  13
ENDBRANCH  11  12
ENDBRANCH  10  11
ENDBRANCH   9  10
ENDBRANCH   8   9
ENDBRANCH   7   8
ENDBRANCH   6   7
ENDBRANCH   5   6
ENDBRANCH   4   5
ENDBRANCH   3   4
TORSDOF 11
ENDMDL
MODEL      161
REMARK 921   NORMALIZED FREE ENERGY PREDICTED BY IDOCK:   -3.51 KCAL/MOL
REMARK 922        TOTAL FREE ENERGY PREDICTED BY IDOCK:   -7.20 KCAL/MOL
REMARK 923 INTER-LIGAND FREE ENERGY PREDICTED BY IDOCK:   -6.02 KCAL/MOL
REMARK 924 INTRA-LIGAND FREE ENERGY PREDICTED BY IDOCK:   -1.18 KCAL/MOL
REMARK 927      BINDING AFFINITY PREDICTED BY RF-SCORE:    0.00 PKD
ROOT
HETATM    1 NA   UNL     1     -11.452  10.609  63.650  1.00  0.00    -0.533 Na 
HETATM    2  C   UNL     2     -10.049   5.003  67.186  1.00  0.00    -0.239 C  
HETATM    3  C   UNL     2      -9.902   6.404  66.612  1.00  0.00    -0.203 C  
ENDROOT
BRANCH   3   4
HETATM    4  C   UNL     2     -10.629   7.423  67.485  1.00  0.00    -0.340 C  
BRANCH   4   5
HETATM    5  C   UNL     2      -9.999   7.540  68.874  1.00  0.00    -0.168 C  
BRANCH   5   6
HETATM    6  C   UNL     2     -10.996   7.263  70.007  1.00  0.00    -0.273 C  
BRANCH   6   7
HETATM    7  C   UNL     2     -10.453   7.696  71.369  1.00  0.00    -0.230 C  
BRANCH   7   8
HETATM    8  C   UNL     2     -10.967   9.065  71.809  1.00  0.00    -0.443 C  
BRANCH   8   9
HETATM    9  C   UNL     2     -12.465   9.236  71.516  1.00  0.00    -0.435 C  
BRANCH   9  10
HETATM   10  C   UNL     2     -12.846  10.568  70.855  1.00  0.00    -0.485 C  
BRANCH  10  11
HETATM   11  C   UNL     2     -11.668  11.236  70.142  1.00  0.00    -0.429 C  
BRANCH  11  12
HETATM   12  C   UNL     2     -11.527  10.821  68.673  1.00  0.00    -0.365 C  
BRANCH  12  13
HETATM   13  C   UNL     2     -11.738  11.968  67.681  1.00  0.00    -0.294 C  
BRANCH  13  14
HETATM   14  O   UNL     2     -12.041  13.149  68.403  1.00  0.00    -0.318 OA 
HETATM   15  S   UNL     2     -11.314  14.532  67.949  1.00  0.00    -0.325 S  
HETATM   16  O   UNL     2     -11.904  15.526  68.851  1.00  0.00    -0.361 OA 
HETATM   17  O   UNL     2     -11.712  14.706  66.557  1.00  0.00    -0.369 OA 
HETATM   18  O   UNL     2      -9.900  14.284  68.166  1.00  0.00    -0.214 OA 
ENDBRANCH  13  14
ENDBRANCH  12  13
ENDBRANCH  11  12
ENDBRANCH  10  11
ENDBRANCH   9  10
ENDBRANCH   8   9
ENDBRANCH   7   8
ENDBRANCH   6   7
ENDBRANCH   5   6
ENDBRANCH   4   5
ENDBRANCH   3   4
TORSDOF 11
ENDMDL
MODEL      162
REMARK 921   NORMALIZED FREE ENERGY PREDICTED BY IDOCK:   -3.51 KCAL/MOL
REMARK 922        TOTAL FREE ENERGY PREDICTED BY IDOCK:   -7.20 KCAL/MOL
REMARK 923 INTER-LIGAND FREE ENERGY PREDICTED BY IDOCK:   -6.06 KCAL/MOL
REMARK 924 INTRA-LIGAND FREE ENERGY PREDICTED BY IDOCK:   -1.14 KCAL/MOL
REMARK 927      BINDING AFFINITY PREDICTED BY RF-SCORE:    0.00 PKD
ROOT
HETATM    1 NA   UNL     1     -13.684   7.166  70.084  1.00  0.00    -0.608 Na 
HETATM    2  C   UNL     2     -13.613  13.557  72.330  1.00  0.00    -0.709 C  
HETATM    3  C   UNL     2     -13.162  12.127  72.079  1.00  0.00    -0.496 C  
ENDROOT
BRANCH   3   4
HETATM    4  C   UNL     2     -12.434  12.018  70.742  1.00  0.00    -0.372 C  
BRANCH   4   5
HETATM    5  C   UNL     2     -12.391  10.577  70.229  1.00  0.00    -0.377 C  
BRANCH   5   6
HETATM    6  C   UNL     2     -10.965  10.020  70.130  1.00  0.00    -0.368 C  
BRANCH   6   7
HETATM    7  C   UNL     2     -10.587   9.188  71.355  1.00  0.00    -0.412 C  
BRANCH   7   8
HETATM    8  C   UNL     2     -11.789   8.509  72.008  1.00  0.00    -0.429 C  
BRANCH   8   9
HETATM    9  C   UNL     2     -11.562   7.003  72.203  1.00  0.00    -0.320 C  
BRANCH   9  10
HETATM   10  C   UNL     2     -10.248   6.467  71.619  1.00  0.00    -0.216 C  
BRANCH  10  11
HETATM   11  C   UNL     2     -10.407   5.097  70.954  1.00  0.00    -0.282 C  
BRANCH  11  12
HETATM   12  C   UNL     2     -10.055   5.098  69.461  1.00  0.00    -0.316 C  
BRANCH  12  13
HETATM   13  C   UNL     2     -10.665   6.265  68.680  1.00  0.00    -0.298 C  
BRANCH  13  14
HETATM   14  O   UNL     2      -9.992   6.387  67.439  1.00  0.00    -0.123 OA 
HETATM   15  S   UNL     2      -9.478   7.864  66.989  1.00  0.00    -0.188 S  
HETATM   16  O   UNL     2      -8.787   7.601  65.723  1.00  0.00    -0.162 OA 
HETATM   17  O   UNL     2      -8.581   8.275  68.063  1.00  0.00    -0.130 OA 
HETATM   18  O   UNL     2     -10.695   8.646  66.861  1.00  0.00    -0.252 OA 
ENDBRANCH  13  14
ENDBRANCH  12  13
ENDBRANCH  11  12
ENDBRANCH  10  11
ENDBRANCH   9  10
ENDBRANCH   8   9
ENDBRANCH   7   8
ENDBRANCH   6   7
ENDBRANCH   5   6
ENDBRANCH   4   5
ENDBRANCH   3   4
TORSDOF 11
ENDMDL
MODEL      163
REMARK 921   NORMALIZED FREE ENERGY PREDICTED BY IDOCK:   -3.50 KCAL/MOL
REMARK 922        TOTAL FREE ENERGY PREDICTED BY IDOCK:   -7.18 KCAL/MOL
REMARK 923 INTER-LIGAND FREE ENERGY PREDICTED BY IDOCK:   -5.90 KCAL/MOL
REMARK 924 INTRA-LIGAND FREE ENERGY PREDICTED BY IDOCK:   -1.28 KCAL/MOL
REMARK 927      BINDING AFFINITY PREDICTED BY RF-SCORE:    0.00 PKD
ROOT
HETATM    1 NA   UNL     1     -11.982   5.848  66.291  1.00  0.00    -0.516 Na 
HETATM    2  C   UNL     2      -7.967   9.724  70.131  1.00  0.00    -0.201 C  
HETATM    3  C   UNL     2      -8.520   9.017  68.904  1.00  0.00    -0.130 C  
ENDROOT
BRANCH   3   4
HETATM    4  C   UNL     2      -9.606   9.859  68.240  1.00  0.00    -0.151 C  
BRANCH   4   5
HETATM    5  C   UNL     2      -9.222  10.271  66.817  1.00  0.00    -0.180 C  
BRANCH   5   6
HETATM    6  C   UNL     2      -9.224  11.792  66.615  1.00  0.00    -0.201 C  
BRANCH   6   7
HETATM    7  C   UNL     2      -8.132  12.481  67.432  1.00  0.00    -0.180 C  
BRANCH   7   8
HETATM    8  C   UNL     2      -8.680  13.526  68.401  1.00  0.00    -0.140 C  
BRANCH   8   9
HETATM    9  C   UNL     2     -10.215  13.512  68.451  1.00  0.00    -0.245 C  
BRANCH   9  10
HETATM   10  C   UNL     2     -10.891  14.781  67.916  1.00  0.00    -0.269 C  
BRANCH  10  11
HETATM   11  C   UNL     2      -9.913  15.722  67.207  1.00  0.00    -0.238 C  
BRANCH  11  12
HETATM   12  C   UNL     2      -9.797  15.462  65.700  1.00  0.00    -0.387 C  
BRANCH  12  13
HETATM   13  C   UNL     2     -11.090  14.953  65.057  1.00  0.00    -0.414 C  
BRANCH  13  14
HETATM   14  O   UNL     2     -10.849  13.676  64.492  1.00  0.00    -0.390 OA 
HETATM   15  S   UNL     2     -12.128  12.814  63.973  1.00  0.00    -0.483 S  
HETATM   16  O   UNL     2     -11.508  11.614  63.403  1.00  0.00    -0.393 OA 
HETATM   17  O   UNL     2     -12.757  13.670  62.974  1.00  0.00    -0.681 OA 
HETATM   18  O   UNL     2     -12.912  12.576  65.171  1.00  0.00    -0.700 OA 
ENDBRANCH  13  14
ENDBRANCH  12  13
ENDBRANCH  11  12
ENDBRANCH  10  11
ENDBRANCH   9  10
ENDBRANCH   8   9
ENDBRANCH   7   8
ENDBRANCH   6   7
ENDBRANCH   5   6
ENDBRANCH   4   5
ENDBRANCH   3   4
TORSDOF 11
ENDMDL
MODEL      164
REMARK 921   NORMALIZED FREE ENERGY PREDICTED BY IDOCK:   -3.49 KCAL/MOL
REMARK 922        TOTAL FREE ENERGY PREDICTED BY IDOCK:   -7.17 KCAL/MOL
REMARK 923 INTER-LIGAND FREE ENERGY PREDICTED BY IDOCK:   -6.41 KCAL/MOL
REMARK 924 INTRA-LIGAND FREE ENERGY PREDICTED BY IDOCK:   -0.77 KCAL/MOL
REMARK 927      BINDING AFFINITY PREDICTED BY RF-SCORE:    0.00 PKD
ROOT
HETATM    1 NA   UNL     1     -13.832  11.776  64.165  1.00  0.00    -0.687 Na 
HETATM    2  C   UNL     2     -10.319   7.354  67.909  1.00  0.00    -0.258 C  
HETATM    3  C   UNL     2     -10.613   8.504  66.957  1.00  0.00    -0.305 C  
ENDROOT
BRANCH   3   4
HETATM    4  C   UNL     2     -10.847   9.798  67.731  1.00  0.00    -0.306 C  
BRANCH   4   5
HETATM    5  C   UNL     2     -10.890   9.562  69.242  1.00  0.00    -0.211 C  
BRANCH   5   6
HETATM    6  C   UNL     2     -11.622  10.678  70.000  1.00  0.00    -0.406 C  
BRANCH   6   7
HETATM    7  C   UNL     2     -11.787  11.937  69.149  1.00  0.00    -0.371 C  
BRANCH   7   8
HETATM    8  C   UNL     2     -12.181  13.164  69.968  1.00  0.00    -0.323 C  
BRANCH   8   9
HETATM    9  C   UNL     2     -12.268  14.429  69.102  1.00  0.00    -0.255 C  
BRANCH   9  10
HETATM   10  C   UNL     2     -11.683  14.287  67.690  1.00  0.00    -0.421 C  
BRANCH  10  11
HETATM   11  C   UNL     2     -10.906  15.527  67.240  1.00  0.00    -0.313 C  
BRANCH  11  12
HETATM   12  C   UNL     2     -10.017  16.123  68.338  1.00  0.00    -0.230 C  
BRANCH  12  13
HETATM   13  C   UNL     2     -10.146  17.642  68.484  1.00  0.00    -0.375 C  
BRANCH  13  14
HETATM   14  O   UNL     2      -9.149  18.265  67.693  1.00  0.00    -0.259 OA 
HETATM   15  S   UNL     2      -9.622  19.370  66.596  1.00  0.00    -0.380 S  
HETATM   16  O   UNL     2      -8.353  19.837  66.030  1.00  0.00    -0.358 OA 
HETATM   17  O   UNL     2     -10.313  20.384  67.383  1.00  0.00    -0.344 OA 
HETATM   18  O   UNL     2     -10.456  18.624  65.670  1.00  0.00    -0.603 OA 
ENDBRANCH  13  14
ENDBRANCH  12  13
ENDBRANCH  11  12
ENDBRANCH  10  11
ENDBRANCH   9  10
ENDBRANCH   8   9
ENDBRANCH   7   8
ENDBRANCH   6   7
ENDBRANCH   5   6
ENDBRANCH   4   5
ENDBRANCH   3   4
TORSDOF 11
ENDMDL
MODEL      165
REMARK 921   NORMALIZED FREE ENERGY PREDICTED BY IDOCK:   -3.49 KCAL/MOL
REMARK 922        TOTAL FREE ENERGY PREDICTED BY IDOCK:   -7.17 KCAL/MOL
REMARK 923 INTER-LIGAND FREE ENERGY PREDICTED BY IDOCK:   -6.21 KCAL/MOL
REMARK 924 INTRA-LIGAND FREE ENERGY PREDICTED BY IDOCK:   -0.96 KCAL/MOL
REMARK 927      BINDING AFFINITY PREDICTED BY RF-SCORE:    0.00 PKD
ROOT
HETATM    1 NA   UNL     1      -9.992   5.571  68.728  1.00  0.00    -0.118 Na 
HETATM    2  C   UNL     2     -13.000  10.985  71.471  1.00  0.00    -0.553 C  
HETATM    3  C   UNL     2     -11.922   9.966  71.139  1.00  0.00    -0.473 C  
ENDROOT
BRANCH   3   4
HETATM    4  C   UNL     2     -11.196  10.348  69.852  1.00  0.00    -0.371 C  
BRANCH   4   5
HETATM    5  C   UNL     2     -10.545   9.136  69.181  1.00  0.00    -0.224 C  
BRANCH   5   6
HETATM    6  C   UNL     2     -10.755   9.112  67.661  1.00  0.00    -0.257 C  
BRANCH   6   7
HETATM    7  C   UNL     2     -10.584  10.496  67.036  1.00  0.00    -0.310 C  
BRANCH   7   8
HETATM    8  C   UNL     2      -9.470  10.545  65.992  1.00  0.00    -0.227 C  
BRANCH   8   9
HETATM    9  C   UNL     2     -10.014  10.840  64.586  1.00  0.00    -0.386 C  
BRANCH   9  10
HETATM   10  C   UNL     2     -10.516  12.275  64.376  1.00  0.00    -0.355 C  
BRANCH  10  11
HETATM   11  C   UNL     2     -12.023  12.346  64.115  1.00  0.00    -0.518 C  
BRANCH  11  12
HETATM   12  C   UNL     2     -12.772  13.253  65.098  1.00  0.00    -0.464 C  
BRANCH  12  13
HETATM   13  C   UNL     2     -11.858  14.000  66.072  1.00  0.00    -0.388 C  
BRANCH  13  14
HETATM   14  O   UNL     2     -12.217  13.650  67.398  1.00  0.00    -0.350 OA 
HETATM   15  S   UNL     2     -11.458  14.407  68.622  1.00  0.00    -0.306 S  
HETATM   16  O   UNL     2     -12.117  13.855  69.810  1.00  0.00    -0.313 OA 
HETATM   17  O   UNL     2     -11.747  15.820  68.405  1.00  0.00    -0.366 OA 
HETATM   18  O   UNL     2     -10.065  14.027  68.473  1.00  0.00    -0.230 OA 
ENDBRANCH  13  14
ENDBRANCH  12  13
ENDBRANCH  11  12
ENDBRANCH  10  11
ENDBRANCH   9  10
ENDBRANCH   8   9
ENDBRANCH   7   8
ENDBRANCH   6   7
ENDBRANCH   5   6
ENDBRANCH   4   5
ENDBRANCH   3   4
TORSDOF 11
ENDMDL
MODEL      166
REMARK 921   NORMALIZED FREE ENERGY PREDICTED BY IDOCK:   -3.49 KCAL/MOL
REMARK 922        TOTAL FREE ENERGY PREDICTED BY IDOCK:   -7.17 KCAL/MOL
REMARK 923 INTER-LIGAND FREE ENERGY PREDICTED BY IDOCK:   -5.87 KCAL/MOL
REMARK 924 INTRA-LIGAND FREE ENERGY PREDICTED BY IDOCK:   -1.30 KCAL/MOL
REMARK 927      BINDING AFFINITY PREDICTED BY RF-SCORE:    0.00 PKD
ROOT
HETATM    1 NA   UNL     1     -14.001  15.958  70.033  1.00  0.00    -0.775 Na 
HETATM    2  C   UNL     2      -7.341  15.745  68.809  1.00  0.00    -0.141 C  
HETATM    3  C   UNL     2      -8.689  15.428  69.439  1.00  0.00    -0.252 C  
ENDROOT
BRANCH   3   4
HETATM    4  C   UNL     2      -9.417  14.350  68.642  1.00  0.00    -0.193 C  
BRANCH   4   5
HETATM    5  C   UNL     2     -10.811  14.065  69.205  1.00  0.00    -0.235 C  
BRANCH   5   6
HETATM    6  C   UNL     2     -11.861  13.836  68.110  1.00  0.00    -0.411 C  
BRANCH   6   7
HETATM    7  C   UNL     2     -11.739  12.449  67.479  1.00  0.00    -0.425 C  
BRANCH   7   8
HETATM    8  C   UNL     2     -10.929  12.452  66.184  1.00  0.00    -0.321 C  
BRANCH   8   9
HETATM    9  C   UNL     2     -11.402  13.545  65.214  1.00  0.00    -0.304 C  
BRANCH   9  10
HETATM   10  C   UNL     2     -10.360  14.627  64.902  1.00  0.00    -0.382 C  
BRANCH  10  11
HETATM   11  C   UNL     2     -10.901  16.046  65.091  1.00  0.00    -0.411 C  
BRANCH  11  12
HETATM   12  C   UNL     2     -10.406  16.725  66.374  1.00  0.00    -0.309 C  
BRANCH  12  13
HETATM   13  C   UNL     2      -9.517  17.946  66.126  1.00  0.00    -0.153 C  
BRANCH  13  14
HETATM   14  O   UNL     2      -8.196  17.506  65.860  1.00  0.00    -0.538 OA 
HETATM   15  S   UNL     2      -6.985  18.582  66.009  1.00  0.00    -0.278 S  
HETATM   16  O   UNL     2      -5.792  17.777  65.731  1.00  0.00    -0.189 OA 
HETATM   17  O   UNL     2      -7.071  19.031  67.393  1.00  0.00    -0.211 OA 
HETATM   18  O   UNL     2      -7.276  19.593  65.007  1.00  0.00    -0.343 OA 
ENDBRANCH  13  14
ENDBRANCH  12  13
ENDBRANCH  11  12
ENDBRANCH  10  11
ENDBRANCH   9  10
ENDBRANCH   8   9
ENDBRANCH   7   8
ENDBRANCH   6   7
ENDBRANCH   5   6
ENDBRANCH   4   5
ENDBRANCH   3   4
TORSDOF 11
ENDMDL
MODEL      167
REMARK 921   NORMALIZED FREE ENERGY PREDICTED BY IDOCK:   -3.48 KCAL/MOL
REMARK 922        TOTAL FREE ENERGY PREDICTED BY IDOCK:   -7.16 KCAL/MOL
REMARK 923 INTER-LIGAND FREE ENERGY PREDICTED BY IDOCK:   -6.10 KCAL/MOL
REMARK 924 INTRA-LIGAND FREE ENERGY PREDICTED BY IDOCK:   -1.06 KCAL/MOL
REMARK 927      BINDING AFFINITY PREDICTED BY RF-SCORE:    0.00 PKD
ROOT
HETATM    1 NA   UNL     1      -7.699   7.470  68.474  1.00  0.00    -0.094 Na 
HETATM    2  C   UNL     2     -11.765  12.833  67.694  1.00  0.00    -0.422 C  
HETATM    3  C   UNL     2     -11.320  11.408  67.988  1.00  0.00    -0.372 C  
ENDROOT
BRANCH   3   4
HETATM    4  C   UNL     2     -10.888  11.268  69.445  1.00  0.00    -0.239 C  
BRANCH   4   5
HETATM    5  C   UNL     2     -11.829  10.356  70.236  1.00  0.00    -0.399 C  
BRANCH   5   6
HETATM    6  C   UNL     2     -13.133  11.055  70.643  1.00  0.00    -0.087 C  
BRANCH   6   7
HETATM    7  C   UNL     2     -12.946  11.953  71.865  1.00  0.00    -0.434 C  
BRANCH   7   8
HETATM    8  C   UNL     2     -13.437  13.381  71.638  1.00  0.00    -0.378 C  
BRANCH   8   9
HETATM    9  C   UNL     2     -12.843  14.361  72.659  1.00  0.00    -0.482 C  
BRANCH   9  10
HETATM   10  C   UNL     2     -12.002  15.493  72.055  1.00  0.00    -0.518 C  
BRANCH  10  11
HETATM   11  C   UNL     2     -12.120  15.574  70.531  1.00  0.00    -0.423 C  
BRANCH  11  12
HETATM   12  C   UNL     2     -10.767  15.679  69.817  1.00  0.00    -0.309 C  
BRANCH  12  13
HETATM   13  C   UNL     2     -10.826  16.432  68.485  1.00  0.00    -0.339 C  
BRANCH  13  14
HETATM   14  O   UNL     2     -10.559  17.804  68.722  1.00  0.00    -0.291 OA 
HETATM   15  S   UNL     2      -9.710  18.623  67.601  1.00  0.00    -0.314 S  
HETATM   16  O   UNL     2      -9.689  19.988  68.137  1.00  0.00    -0.365 OA 
HETATM   17  O   UNL     2     -10.503  18.493  66.384  1.00  0.00    -0.402 OA 
HETATM   18  O   UNL     2      -8.417  17.965  67.576  1.00  0.00    -0.229 OA 
ENDBRANCH  13  14
ENDBRANCH  12  13
ENDBRANCH  11  12
ENDBRANCH  10  11
ENDBRANCH   9  10
ENDBRANCH   8   9
ENDBRANCH   7   8
ENDBRANCH   6   7
ENDBRANCH   5   6
ENDBRANCH   4   5
ENDBRANCH   3   4
TORSDOF 11
ENDMDL
MODEL      168
REMARK 921   NORMALIZED FREE ENERGY PREDICTED BY IDOCK:   -3.48 KCAL/MOL
REMARK 922        TOTAL FREE ENERGY PREDICTED BY IDOCK:   -7.15 KCAL/MOL
REMARK 923 INTER-LIGAND FREE ENERGY PREDICTED BY IDOCK:   -6.29 KCAL/MOL
REMARK 924 INTRA-LIGAND FREE ENERGY PREDICTED BY IDOCK:   -0.86 KCAL/MOL
REMARK 927      BINDING AFFINITY PREDICTED BY RF-SCORE:    0.00 PKD
ROOT
HETATM    1 NA   UNL     1     -14.184  16.083  70.040  1.00  0.00    -0.787 Na 
HETATM    2  C   UNL     2      -8.489  19.401  68.475  1.00  0.00    -0.397 C  
HETATM    3  C   UNL     2      -9.512  18.279  68.556  1.00  0.00    -0.346 C  
ENDROOT
BRANCH   3   4
HETATM    4  C   UNL     2     -10.530  18.393  67.425  1.00  0.00    -0.443 C  
BRANCH   4   5
HETATM    5  C   UNL     2      -9.968  17.883  66.095  1.00  0.00    -0.288 C  
BRANCH   5   6
HETATM    6  C   UNL     2      -9.404  16.460  66.193  1.00  0.00    -0.360 C  
BRANCH   6   7
HETATM    7  C   UNL     2     -10.464  15.450  66.631  1.00  0.00    -0.293 C  
BRANCH   7   8
HETATM    8  C   UNL     2      -9.959  14.477  67.693  1.00  0.00    -0.224 C  
BRANCH   8   9
HETATM    9  C   UNL     2     -10.785  14.557  68.985  1.00  0.00    -0.258 C  
BRANCH   9  10
HETATM   10  C   UNL     2     -11.861  13.473  69.133  1.00  0.00    -0.386 C  
BRANCH  10  11
HETATM   11  C   UNL     2     -11.736  12.364  68.085  1.00  0.00    -0.408 C  
BRANCH  11  12
HETATM   12  C   UNL     2     -11.823  10.952  68.676  1.00  0.00    -0.269 C  
BRANCH  12  13
HETATM   13  C   UNL     2     -10.913  10.729  69.887  1.00  0.00    -0.239 C  
BRANCH  13  14
HETATM   14  O   UNL     2     -11.661  10.100  70.913  1.00  0.00    -0.324 OA 
HETATM   15  S   UNL     2     -11.075   8.724  71.554  1.00  0.00    -0.335 S  
HETATM   16  O   UNL     2     -12.051   8.407  72.602  1.00  0.00    -0.390 OA 
HETATM   17  O   UNL     2      -9.766   9.098  72.076  1.00  0.00    -0.283 OA 
HETATM   18  O   UNL     2     -11.059   7.788  70.444  1.00  0.00    -0.257 OA 
ENDBRANCH  13  14
ENDBRANCH  12  13
ENDBRANCH  11  12
ENDBRANCH  10  11
ENDBRANCH   9  10
ENDBRANCH   8   9
ENDBRANCH   7   8
ENDBRANCH   6   7
ENDBRANCH   5   6
ENDBRANCH   4   5
ENDBRANCH   3   4
TORSDOF 11
ENDMDL
MODEL      169
REMARK 921   NORMALIZED FREE ENERGY PREDICTED BY IDOCK:   -3.48 KCAL/MOL
REMARK 922        TOTAL FREE ENERGY PREDICTED BY IDOCK:   -7.15 KCAL/MOL
REMARK 923 INTER-LIGAND FREE ENERGY PREDICTED BY IDOCK:   -5.67 KCAL/MOL
REMARK 924 INTRA-LIGAND FREE ENERGY PREDICTED BY IDOCK:   -1.48 KCAL/MOL
REMARK 927      BINDING AFFINITY PREDICTED BY RF-SCORE:    0.00 PKD
ROOT
HETATM    1 NA   UNL     1      -7.592  17.224  69.503  1.00  0.00    -0.235 Na 
HETATM    2  C   UNL     2     -11.609  11.935  68.167  1.00  0.00    -0.400 C  
HETATM    3  C   UNL     2     -11.014  13.332  68.088  1.00  0.00    -0.278 C  
ENDROOT
BRANCH   3   4
HETATM    4  C   UNL     2      -9.824  13.359  67.134  1.00  0.00    -0.237 C  
BRANCH   4   5
HETATM    5  C   UNL     2      -9.979  14.433  66.055  1.00  0.00    -0.337 C  
BRANCH   5   6
HETATM    6  C   UNL     2     -11.425  14.920  65.901  1.00  0.00    -0.276 C  
BRANCH   6   7
HETATM    7  C   UNL     2     -12.061  14.433  64.600  1.00  0.00    -0.485 C  
BRANCH   7   8
HETATM    8  C   UNL     2     -12.612  13.012  64.701  1.00  0.00    -0.425 C  
BRANCH   8   9
HETATM    9  C   UNL     2     -12.101  12.116  63.563  1.00  0.00    -0.649 C  
BRANCH   9  10
HETATM   10  C   UNL     2     -10.573  12.008  63.462  1.00  0.00    -0.514 C  
BRANCH  10  11
HETATM   11  C   UNL     2     -10.058  10.593  63.734  1.00  0.00    -0.336 C  
BRANCH  11  12
HETATM   12  C   UNL     2      -9.084  10.512  64.916  1.00  0.00    -0.235 C  
BRANCH  12  13
HETATM   13  C   UNL     2      -9.045   9.140  65.594  1.00  0.00    -0.219 C  
BRANCH  13  14
HETATM   14  O   UNL     2      -9.602   9.254  66.892  1.00  0.00    -0.154 OA 
HETATM   15  S   UNL     2      -9.950   7.885  67.700  1.00  0.00    -0.197 S  
HETATM   16  O   UNL     2     -10.431   8.379  68.994  1.00  0.00    -0.222 OA 
HETATM   17  O   UNL     2      -8.675   7.184  67.785  1.00  0.00    -0.125 OA 
HETATM   18  O   UNL     2     -10.964   7.236  66.888  1.00  0.00    -0.343 OA 
ENDBRANCH  13  14
ENDBRANCH  12  13
ENDBRANCH  11  12
ENDBRANCH  10  11
ENDBRANCH   9  10
ENDBRANCH   8   9
ENDBRANCH   7   8
ENDBRANCH   6   7
ENDBRANCH   5   6
ENDBRANCH   4   5
ENDBRANCH   3   4
TORSDOF 11
ENDMDL
MODEL      170
REMARK 921   NORMALIZED FREE ENERGY PREDICTED BY IDOCK:   -3.48 KCAL/MOL
REMARK 922        TOTAL FREE ENERGY PREDICTED BY IDOCK:   -7.15 KCAL/MOL
REMARK 923 INTER-LIGAND FREE ENERGY PREDICTED BY IDOCK:   -6.22 KCAL/MOL
REMARK 924 INTRA-LIGAND FREE ENERGY PREDICTED BY IDOCK:   -0.92 KCAL/MOL
REMARK 927      BINDING AFFINITY PREDICTED BY RF-SCORE:    0.00 PKD
ROOT
HETATM    1 NA   UNL     1     -12.957   6.046  72.699  1.00  0.00    -0.477 Na 
HETATM    2  C   UNL     2     -12.484  12.347  70.255  1.00  0.00    -0.152 C  
HETATM    3  C   UNL     2     -12.115  11.071  70.996  1.00  0.00    -0.406 C  
ENDROOT
BRANCH   3   4
HETATM    4  C   UNL     2     -11.439  10.077  70.056  1.00  0.00    -0.310 C  
BRANCH   4   5
HETATM    5  C   UNL     2     -11.003  10.734  68.745  1.00  0.00    -0.295 C  
BRANCH   5   6
HETATM    6  C   UNL     2     -10.815   9.725  67.605  1.00  0.00    -0.301 C  
BRANCH   6   7
HETATM    7  C   UNL     2      -9.860  10.243  66.530  1.00  0.00    -0.265 C  
BRANCH   7   8
HETATM    8  C   UNL     2      -9.959  11.753  66.323  1.00  0.00    -0.246 C  
BRANCH   8   9
HETATM    9  C   UNL     2     -11.062  12.123  65.320  1.00  0.00    -0.367 C  
BRANCH   9  10
HETATM   10  C   UNL     2     -12.096  13.131  65.839  1.00  0.00    -0.501 C  
BRANCH  10  11
HETATM   11  C   UNL     2     -11.460  14.430  66.342  1.00  0.00    -0.365 C  
BRANCH  11  12
HETATM   12  C   UNL     2     -10.764  15.237  65.239  1.00  0.00    -0.433 C  
BRANCH  12  13
HETATM   13  C   UNL     2      -9.756  16.263  65.763  1.00  0.00    -0.264 C  
BRANCH  13  14
HETATM   14  O   UNL     2     -10.437  17.474  66.043  1.00  0.00    -0.367 OA 
HETATM   15  S   UNL     2     -10.118  18.224  67.451  1.00  0.00    -0.371 S  
HETATM   16  O   UNL     2     -10.930  19.442  67.366  1.00  0.00    -0.490 OA 
HETATM   17  O   UNL     2      -8.684  18.481  67.404  1.00  0.00    -0.258 OA 
HETATM   18  O   UNL     2     -10.550  17.281  68.467  1.00  0.00    -0.354 OA 
ENDBRANCH  13  14
ENDBRANCH  12  13
ENDBRANCH  11  12
ENDBRANCH  10  11
ENDBRANCH   9  10
ENDBRANCH   8   9
ENDBRANCH   7   8
ENDBRANCH   6   7
ENDBRANCH   5   6
ENDBRANCH   4   5
ENDBRANCH   3   4
TORSDOF 11
ENDMDL
MODEL      171
REMARK 921   NORMALIZED FREE ENERGY PREDICTED BY IDOCK:   -3.47 KCAL/MOL
REMARK 922        TOTAL FREE ENERGY PREDICTED BY IDOCK:   -7.13 KCAL/MOL
REMARK 923 INTER-LIGAND FREE ENERGY PREDICTED BY IDOCK:   -5.60 KCAL/MOL
REMARK 924 INTRA-LIGAND FREE ENERGY PREDICTED BY IDOCK:   -1.53 KCAL/MOL
REMARK 927      BINDING AFFINITY PREDICTED BY RF-SCORE:    0.00 PKD
ROOT
HETATM    1 NA   UNL     1      -8.394  14.109  67.846  1.00  0.00    -0.119 Na 
HETATM    2  C   UNL     2      -9.360   7.569  66.364  1.00  0.00    -0.211 C  
HETATM    3  C   UNL     2      -8.718   8.825  66.934  1.00  0.00    -0.136 C  
ENDROOT
BRANCH   3   4
HETATM    4  C   UNL     2      -9.308   9.160  68.301  1.00  0.00    -0.141 C  
BRANCH   4   5
HETATM    5  C   UNL     2     -10.523   8.289  68.629  1.00  0.00    -0.199 C  
BRANCH   5   6
HETATM    6  C   UNL     2     -10.394   7.571  69.979  1.00  0.00    -0.222 C  
BRANCH   6   7
HETATM    7  C   UNL     2     -11.497   6.534  70.186  1.00  0.00    -0.477 C  
BRANCH   7   8
HETATM    8  C   UNL     2     -12.366   6.822  71.408  1.00  0.00    -0.403 C  
BRANCH   8   9
HETATM    9  C   UNL     2     -11.973   8.139  72.093  1.00  0.00    -0.413 C  
BRANCH   9  10
HETATM   10  C   UNL     2     -13.094   9.183  72.178  1.00  0.00    -0.516 C  
BRANCH  10  11
HETATM   11  C   UNL     2     -13.155  10.092  70.948  1.00  0.00    -0.412 C  
BRANCH  11  12
HETATM   12  C   UNL     2     -11.874  10.904  70.723  1.00  0.00    -0.424 C  
BRANCH  12  13
HETATM   13  C   UNL     2     -12.049  12.087  69.768  1.00  0.00    -0.248 C  
BRANCH  13  14
HETATM   14  O   UNL     2     -10.938  12.136  68.890  1.00  0.00    -0.220 OA 
HETATM   15  S   UNL     2     -11.161  12.768  67.407  1.00  0.00    -0.312 S  
HETATM   16  O   UNL     2      -9.818  12.718  66.822  1.00  0.00    -0.230 OA 
HETATM   17  O   UNL     2     -11.632  14.124  67.661  1.00  0.00    -0.323 OA 
HETATM   18  O   UNL     2     -12.125  11.881  66.779  1.00  0.00    -0.593 OA 
ENDBRANCH  13  14
ENDBRANCH  12  13
ENDBRANCH  11  12
ENDBRANCH  10  11
ENDBRANCH   9  10
ENDBRANCH   8   9
ENDBRANCH   7   8
ENDBRANCH   6   7
ENDBRANCH   5   6
ENDBRANCH   4   5
ENDBRANCH   3   4
TORSDOF 11
ENDMDL
MODEL      172
REMARK 921   NORMALIZED FREE ENERGY PREDICTED BY IDOCK:   -3.46 KCAL/MOL
REMARK 922        TOTAL FREE ENERGY PREDICTED BY IDOCK:   -7.12 KCAL/MOL
REMARK 923 INTER-LIGAND FREE ENERGY PREDICTED BY IDOCK:   -6.33 KCAL/MOL
REMARK 924 INTRA-LIGAND FREE ENERGY PREDICTED BY IDOCK:   -0.79 KCAL/MOL
REMARK 927      BINDING AFFINITY PREDICTED BY RF-SCORE:    0.00 PKD
ROOT
HETATM    1 NA   UNL     1      -9.437   8.557  63.355  1.00  0.00    -0.392 Na 
HETATM    2  C   UNL     2     -12.672  14.179  65.312  1.00  0.00    -0.425 C  
HETATM    3  C   UNL     2     -12.396  12.705  65.057  1.00  0.00    -0.561 C  
ENDROOT
BRANCH   3   4
HETATM    4  C   UNL     2     -11.633  12.089  66.226  1.00  0.00    -0.378 C  
BRANCH   4   5
HETATM    5  C   UNL     2     -10.559  11.106  65.754  1.00  0.00    -0.289 C  
BRANCH   5   6
HETATM    6  C   UNL     2      -9.422  10.933  66.769  1.00  0.00    -0.200 C  
BRANCH   6   7
HETATM    7  C   UNL     2      -9.788   9.950  67.881  1.00  0.00    -0.170 C  
BRANCH   7   8
HETATM    8  C   UNL     2      -9.948  10.621  69.243  1.00  0.00    -0.215 C  
BRANCH   8   9
HETATM    9  C   UNL     2     -10.268   9.605  70.349  1.00  0.00    -0.348 C  
BRANCH   9  10
HETATM   10  C   UNL     2     -11.760   9.458  70.679  1.00  0.00    -0.302 C  
BRANCH  10  11
HETATM   11  C   UNL     2     -12.550  10.749  70.449  1.00  0.00    -0.395 C  
BRANCH  11  12
HETATM   12  C   UNL     2     -13.105  11.365  71.739  1.00  0.00    -0.523 C  
BRANCH  12  13
HETATM   13  C   UNL     2     -12.914  12.881  71.834  1.00  0.00    -0.301 C  
BRANCH  13  14
HETATM   14  O   UNL     2     -12.579  13.382  70.551  1.00  0.00    -0.286 OA 
HETATM   15  S   UNL     2     -12.294  14.977  70.403  1.00  0.00    -0.361 S  
HETATM   16  O   UNL     2     -11.921  15.115  68.991  1.00  0.00    -0.309 OA 
HETATM   17  O   UNL     2     -11.190  15.232  71.320  1.00  0.00    -0.349 OA 
HETATM   18  O   UNL     2     -13.555  15.603  70.756  1.00  0.00    -0.524 OA 
ENDBRANCH  13  14
ENDBRANCH  12  13
ENDBRANCH  11  12
ENDBRANCH  10  11
ENDBRANCH   9  10
ENDBRANCH   8   9
ENDBRANCH   7   8
ENDBRANCH   6   7
ENDBRANCH   5   6
ENDBRANCH   4   5
ENDBRANCH   3   4
TORSDOF 11
ENDMDL
MODEL      173
REMARK 921   NORMALIZED FREE ENERGY PREDICTED BY IDOCK:   -3.46 KCAL/MOL
REMARK 922        TOTAL FREE ENERGY PREDICTED BY IDOCK:   -7.12 KCAL/MOL
REMARK 923 INTER-LIGAND FREE ENERGY PREDICTED BY IDOCK:   -6.04 KCAL/MOL
REMARK 924 INTRA-LIGAND FREE ENERGY PREDICTED BY IDOCK:   -1.08 KCAL/MOL
REMARK 927      BINDING AFFINITY PREDICTED BY RF-SCORE:    0.00 PKD
ROOT
HETATM    1 NA   UNL     1     -13.597   4.973  73.019  1.00  0.00    -0.513 Na 
HETATM    2  C   UNL     2      -8.614   8.988  70.793  1.00  0.00    -0.259 C  
HETATM    3  C   UNL     2      -9.988   8.344  70.906  1.00  0.00    -0.230 C  
ENDROOT
BRANCH   3   4
HETATM    4  C   UNL     2     -10.839   9.069  71.945  1.00  0.00    -0.413 C  
BRANCH   4   5
HETATM    5  C   UNL     2     -12.334   8.819  71.736  1.00  0.00    -0.412 C  
BRANCH   5   6
HETATM    6  C   UNL     2     -13.029   9.958  70.977  1.00  0.00    -0.412 C  
BRANCH   6   7
HETATM    7  C   UNL     2     -12.202  11.243  70.987  1.00  0.00    -0.417 C  
BRANCH   7   8
HETATM    8  C   UNL     2     -11.980  11.821  69.592  1.00  0.00    -0.378 C  
BRANCH   8   9
HETATM    9  C   UNL     2     -11.198  10.855  68.689  1.00  0.00    -0.326 C  
BRANCH   9  10
HETATM   10  C   UNL     2     -11.189  11.227  67.200  1.00  0.00    -0.344 C  
BRANCH  10  11
HETATM   11  C   UNL     2      -9.785  11.535  66.673  1.00  0.00    -0.221 C  
BRANCH  11  12
HETATM   12  C   UNL     2      -8.981  12.471  67.583  1.00  0.00    -0.185 C  
BRANCH  12  13
HETATM   13  C   UNL     2      -9.018  13.939  67.151  1.00  0.00    -0.235 C  
BRANCH  13  14
HETATM   14  O   UNL     2      -9.739  14.041  65.935  1.00  0.00    -0.285 OA 
HETATM   15  S   UNL     2     -11.043  15.013  65.898  1.00  0.00    -0.313 S  
HETATM   16  O   UNL     2     -11.481  14.924  64.501  1.00  0.00    -0.377 OA 
HETATM   17  O   UNL     2     -10.523  16.327  66.258  1.00  0.00    -0.312 OA 
HETATM   18  O   UNL     2     -11.961  14.423  66.856  1.00  0.00    -0.410 OA 
ENDBRANCH  13  14
ENDBRANCH  12  13
ENDBRANCH  11  12
ENDBRANCH  10  11
ENDBRANCH   9  10
ENDBRANCH   8   9
ENDBRANCH   7   8
ENDBRANCH   6   7
ENDBRANCH   5   6
ENDBRANCH   4   5
ENDBRANCH   3   4
TORSDOF 11
ENDMDL
MODEL      174
REMARK 921   NORMALIZED FREE ENERGY PREDICTED BY IDOCK:   -3.46 KCAL/MOL
REMARK 922        TOTAL FREE ENERGY PREDICTED BY IDOCK:   -7.12 KCAL/MOL
REMARK 923 INTER-LIGAND FREE ENERGY PREDICTED BY IDOCK:   -6.07 KCAL/MOL
REMARK 924 INTRA-LIGAND FREE ENERGY PREDICTED BY IDOCK:   -1.05 KCAL/MOL
REMARK 927      BINDING AFFINITY PREDICTED BY RF-SCORE:    0.00 PKD
ROOT
HETATM    1 NA   UNL     1     -12.216  10.774  62.986  1.00  0.00    -0.611 Na 
HETATM    2  C   UNL     2     -11.014   6.334  67.959  1.00  0.00    -0.418 C  
HETATM    3  C   UNL     2     -10.781   7.201  66.732  1.00  0.00    -0.259 C  
ENDROOT
BRANCH   3   4
HETATM    4  C   UNL     2     -10.328   8.600  67.139  1.00  0.00    -0.369 C  
BRANCH   4   5
HETATM    5  C   UNL     2      -8.944   8.587  67.792  1.00  0.00    -0.140 C  
BRANCH   5   6
HETATM    6  C   UNL     2      -8.831   9.564  68.969  1.00  0.00    -0.143 C  
BRANCH   6   7
HETATM    7  C   UNL     2      -8.174  10.882  68.560  1.00  0.00    -0.140 C  
BRANCH   7   8
HETATM    8  C   UNL     2      -9.186  11.990  68.276  1.00  0.00    -0.192 C  
BRANCH   8   9
HETATM    9  C   UNL     2     -10.578  11.651  68.831  1.00  0.00    -0.224 C  
BRANCH   9  10
HETATM   10  C   UNL     2     -11.744  11.962  67.883  1.00  0.00    -0.368 C  
BRANCH  10  11
HETATM   11  C   UNL     2     -11.326  11.976  66.410  1.00  0.00    -0.411 C  
BRANCH  11  12
HETATM   12  C   UNL     2     -12.195  12.890  65.537  1.00  0.00    -0.527 C  
BRANCH  12  13
HETATM   13  C   UNL     2     -12.028  14.381  65.841  1.00  0.00    -0.359 C  
BRANCH  13  14
HETATM   14  O   UNL     2     -10.648  14.668  65.984  1.00  0.00    -0.290 OA 
HETATM   15  S   UNL     2     -10.204  16.222  66.173  1.00  0.00    -0.361 S  
HETATM   16  O   UNL     2      -8.752  16.131  66.353  1.00  0.00    -0.265 OA 
HETATM   17  O   UNL     2     -10.910  16.655  67.373  1.00  0.00    -0.287 OA 
HETATM   18  O   UNL     2     -10.619  16.867  64.940  1.00  0.00    -0.702 OA 
ENDBRANCH  13  14
ENDBRANCH  12  13
ENDBRANCH  11  12
ENDBRANCH  10  11
ENDBRANCH   9  10
ENDBRANCH   8   9
ENDBRANCH   7   8
ENDBRANCH   6   7
ENDBRANCH   5   6
ENDBRANCH   4   5
ENDBRANCH   3   4
TORSDOF 11
ENDMDL
MODEL      175
REMARK 921   NORMALIZED FREE ENERGY PREDICTED BY IDOCK:   -3.46 KCAL/MOL
REMARK 922        TOTAL FREE ENERGY PREDICTED BY IDOCK:   -7.12 KCAL/MOL
REMARK 923 INTER-LIGAND FREE ENERGY PREDICTED BY IDOCK:   -6.50 KCAL/MOL
REMARK 924 INTRA-LIGAND FREE ENERGY PREDICTED BY IDOCK:   -0.62 KCAL/MOL
REMARK 927      BINDING AFFINITY PREDICTED BY RF-SCORE:    0.00 PKD
ROOT
HETATM    1 NA   UNL     1     -13.800  16.467  74.295  1.00  0.00    -0.907 Na 
HETATM    2  C   UNL     2     -11.851  14.896  68.000  1.00  0.00    -0.296 C  
HETATM    3  C   UNL     2     -11.769  15.176  69.493  1.00  0.00    -0.351 C  
ENDROOT
BRANCH   3   4
HETATM    4  C   UNL     2     -12.064  13.913  70.296  1.00  0.00    -0.423 C  
BRANCH   4   5
HETATM    5  C   UNL     2     -12.890  14.211  71.549  1.00  0.00    -0.430 C  
BRANCH   5   6
HETATM    6  C   UNL     2     -13.469  12.946  72.197  1.00  0.00    -0.619 C  
BRANCH   6   7
HETATM    7  C   UNL     2     -13.007  11.674  71.486  1.00  0.00    -0.463 C  
BRANCH   7   8
HETATM    8  C   UNL     2     -13.499  10.399  72.166  1.00  0.00    -0.301 C  
BRANCH   8   9
HETATM    9  C   UNL     2     -12.494   9.247  72.022  1.00  0.00    -0.451 C  
BRANCH   9  10
HETATM   10  C   UNL     2     -13.109   7.897  71.631  1.00  0.00    -0.361 C  
BRANCH  10  11
HETATM   11  C   UNL     2     -12.078   6.914  71.069  1.00  0.00    -0.429 C  
BRANCH  11  12
HETATM   12  C   UNL     2     -10.643   7.204  71.525  1.00  0.00    -0.228 C  
BRANCH  12  13
HETATM   13  C   UNL     2      -9.698   7.594  70.386  1.00  0.00    -0.179 C  
BRANCH  13  14
HETATM   14  O   UNL     2     -10.438   7.665  69.180  1.00  0.00    -0.215 OA 
HETATM   15  S   UNL     2     -10.058   6.625  67.987  1.00  0.00    -0.167 S  
HETATM   16  O   UNL     2     -11.049   6.936  66.951  1.00  0.00    -0.379 OA 
HETATM   17  O   UNL     2     -10.242   5.308  68.586  1.00  0.00    -0.179 OA 
HETATM   18  O   UNL     2      -8.691   6.964  67.635  1.00  0.00    -0.121 OA 
ENDBRANCH  13  14
ENDBRANCH  12  13
ENDBRANCH  11  12
ENDBRANCH  10  11
ENDBRANCH   9  10
ENDBRANCH   8   9
ENDBRANCH   7   8
ENDBRANCH   6   7
ENDBRANCH   5   6
ENDBRANCH   4   5
ENDBRANCH   3   4
TORSDOF 11
ENDMDL
MODEL      176
REMARK 921   NORMALIZED FREE ENERGY PREDICTED BY IDOCK:   -3.46 KCAL/MOL
REMARK 922        TOTAL FREE ENERGY PREDICTED BY IDOCK:   -7.11 KCAL/MOL
REMARK 923 INTER-LIGAND FREE ENERGY PREDICTED BY IDOCK:   -6.39 KCAL/MOL
REMARK 924 INTRA-LIGAND FREE ENERGY PREDICTED BY IDOCK:   -0.73 KCAL/MOL
REMARK 927      BINDING AFFINITY PREDICTED BY RF-SCORE:    0.00 PKD
ROOT
HETATM    1 NA   UNL     1     -13.810  12.151  63.343  1.00  0.00    -0.660 Na 
HETATM    2  C   UNL     2      -8.210   8.482  64.380  1.00  0.00    -0.153 C  
HETATM    3  C   UNL     2      -9.112   9.694  64.211  1.00  0.00    -0.267 C  
ENDROOT
BRANCH   3   4
HETATM    4  C   UNL     2      -9.760  10.075  65.539  1.00  0.00    -0.355 C  
BRANCH   4   5
HETATM    5  C   UNL     2      -9.685   8.937  66.560  1.00  0.00    -0.322 C  
BRANCH   5   6
HETATM    6  C   UNL     2     -10.297   9.311  67.916  1.00  0.00    -0.279 C  
BRANCH   6   7
HETATM    7  C   UNL     2     -11.111  10.603  67.842  1.00  0.00    -0.371 C  
BRANCH   7   8
HETATM    8  C   UNL     2     -10.975  11.466  69.095  1.00  0.00    -0.289 C  
BRANCH   8   9
HETATM    9  C   UNL     2     -11.594  12.858  68.902  1.00  0.00    -0.360 C  
BRANCH   9  10
HETATM   10  C   UNL     2     -11.782  13.285  67.440  1.00  0.00    -0.419 C  
BRANCH  10  11
HETATM   11  C   UNL     2     -11.492  14.771  67.212  1.00  0.00    -0.378 C  
BRANCH  11  12
HETATM   12  C   UNL     2     -10.679  15.049  65.942  1.00  0.00    -0.337 C  
BRANCH  12  13
HETATM   13  C   UNL     2      -9.578  16.096  66.127  1.00  0.00    -0.327 C  
BRANCH  13  14
HETATM   14  O   UNL     2     -10.044  17.342  65.639  1.00  0.00    -0.566 OA 
HETATM   15  S   UNL     2      -9.586  18.692  66.424  1.00  0.00    -0.301 S  
HETATM   16  O   UNL     2     -10.185  19.761  65.619  1.00  0.00    -0.399 OA 
HETATM   17  O   UNL     2      -8.130  18.667  66.362  1.00  0.00    -0.276 OA 
HETATM   18  O   UNL     2     -10.156  18.547  67.752  1.00  0.00    -0.329 OA 
ENDBRANCH  13  14
ENDBRANCH  12  13
ENDBRANCH  11  12
ENDBRANCH  10  11
ENDBRANCH   9  10
ENDBRANCH   8   9
ENDBRANCH   7   8
ENDBRANCH   6   7
ENDBRANCH   5   6
ENDBRANCH   4   5
ENDBRANCH   3   4
TORSDOF 11
ENDMDL
MODEL      177
REMARK 921   NORMALIZED FREE ENERGY PREDICTED BY IDOCK:   -3.45 KCAL/MOL
REMARK 922        TOTAL FREE ENERGY PREDICTED BY IDOCK:   -7.11 KCAL/MOL
REMARK 923 INTER-LIGAND FREE ENERGY PREDICTED BY IDOCK:   -6.38 KCAL/MOL
REMARK 924 INTRA-LIGAND FREE ENERGY PREDICTED BY IDOCK:   -0.73 KCAL/MOL
REMARK 927      BINDING AFFINITY PREDICTED BY RF-SCORE:    0.00 PKD
ROOT
HETATM    1 NA   UNL     1     -13.256   4.992  73.170  1.00  0.00    -0.560 Na 
HETATM    2  C   UNL     2      -8.729   9.339  70.618  1.00  0.00    -0.282 C  
HETATM    3  C   UNL     2      -9.696   8.168  70.700  1.00  0.00    -0.184 C  
ENDROOT
BRANCH   3   4
HETATM    4  C   UNL     2     -11.117   8.617  70.373  1.00  0.00    -0.250 C  
BRANCH   4   5
HETATM    5  C   UNL     2     -11.416  10.015  70.919  1.00  0.00    -0.452 C  
BRANCH   5   6
HETATM    6  C   UNL     2     -12.213  10.882  69.936  1.00  0.00    -0.408 C  
BRANCH   6   7
HETATM    7  C   UNL     2     -11.585  10.894  68.542  1.00  0.00    -0.360 C  
BRANCH   7   8
HETATM    8  C   UNL     2     -11.443  12.300  67.964  1.00  0.00    -0.378 C  
BRANCH   8   9
HETATM    9  C   UNL     2     -11.576  12.307  66.434  1.00  0.00    -0.445 C  
BRANCH   9  10
HETATM   10  C   UNL     2     -10.291  12.661  65.675  1.00  0.00    -0.293 C  
BRANCH  10  11
HETATM   11  C   UNL     2     -10.545  13.560  64.461  1.00  0.00    -0.439 C  
BRANCH  11  12
HETATM   12  C   UNL     2     -11.324  14.837  64.798  1.00  0.00    -0.399 C  
BRANCH  12  13
HETATM   13  C   UNL     2     -10.561  15.808  65.704  1.00  0.00    -0.377 C  
BRANCH  13  14
HETATM   14  O   UNL     2     -11.083  15.715  67.018  1.00  0.00    -0.297 OA 
HETATM   15  S   UNL     2     -10.493  16.725  68.149  1.00  0.00    -0.346 S  
HETATM   16  O   UNL     2     -11.294  16.397  69.333  1.00  0.00    -0.296 OA 
HETATM   17  O   UNL     2     -10.763  18.056  67.619  1.00  0.00    -0.415 OA 
HETATM   18  O   UNL     2      -9.090  16.368  68.253  1.00  0.00    -0.198 OA 
ENDBRANCH  13  14
ENDBRANCH  12  13
ENDBRANCH  11  12
ENDBRANCH  10  11
ENDBRANCH   9  10
ENDBRANCH   8   9
ENDBRANCH   7   8
ENDBRANCH   6   7
ENDBRANCH   5   6
ENDBRANCH   4   5
ENDBRANCH   3   4
TORSDOF 11
ENDMDL
MODEL      178
REMARK 921   NORMALIZED FREE ENERGY PREDICTED BY IDOCK:   -3.45 KCAL/MOL
REMARK 922        TOTAL FREE ENERGY PREDICTED BY IDOCK:   -7.11 KCAL/MOL
REMARK 923 INTER-LIGAND FREE ENERGY PREDICTED BY IDOCK:   -5.95 KCAL/MOL
REMARK 924 INTRA-LIGAND FREE ENERGY PREDICTED BY IDOCK:   -1.15 KCAL/MOL
REMARK 927      BINDING AFFINITY PREDICTED BY RF-SCORE:    0.00 PKD
ROOT
HETATM    1 NA   UNL     1     -13.587   9.140  70.426  1.00  0.00    -0.527 Na 
HETATM    2  C   UNL     2     -13.820  15.501  72.743  1.00  0.00    -0.606 C  
HETATM    3  C   UNL     2     -13.255  14.147  72.341  1.00  0.00    -0.566 C  
ENDROOT
BRANCH   3   4
HETATM    4  C   UNL     2     -12.907  14.128  70.855  1.00  0.00    -0.404 C  
BRANCH   4   5
HETATM    5  C   UNL     2     -12.528  15.518  70.338  1.00  0.00    -0.443 C  
BRANCH   5   6
HETATM    6  C   UNL     2     -11.842  15.477  68.966  1.00  0.00    -0.373 C  
BRANCH   6   7
HETATM    7  C   UNL     2     -11.587  14.046  68.494  1.00  0.00    -0.357 C  
BRANCH   7   8
HETATM    8  C   UNL     2     -11.582  13.911  66.973  1.00  0.00    -0.394 C  
BRANCH   8   9
HETATM    9  C   UNL     2     -10.489  12.949  66.486  1.00  0.00    -0.275 C  
BRANCH   9  10
HETATM   10  C   UNL     2     -10.361  11.652  67.297  1.00  0.00    -0.232 C  
BRANCH  10  11
HETATM   11  C   UNL     2     -10.656  10.400  66.467  1.00  0.00    -0.220 C  
BRANCH  11  12
HETATM   12  C   UNL     2      -9.651   9.264  66.695  1.00  0.00    -0.263 C  
BRANCH  12  13
HETATM   13  C   UNL     2      -9.127   9.179  68.131  1.00  0.00    -0.132 C  
BRANCH  13  14
HETATM   14  O   UNL     2      -9.976   8.325  68.879  1.00  0.00    -0.176 OA 
HETATM   15  S   UNL     2     -10.518   8.855  70.319  1.00  0.00    -0.221 S  
HETATM   16  O   UNL     2     -11.397   7.768  70.760  1.00  0.00    -0.276 OA 
HETATM   17  O   UNL     2     -11.233  10.086  70.003  1.00  0.00    -0.254 OA 
HETATM   18  O   UNL     2      -9.316   9.020  71.117  1.00  0.00    -0.235 OA 
ENDBRANCH  13  14
ENDBRANCH  12  13
ENDBRANCH  11  12
ENDBRANCH  10  11
ENDBRANCH   9  10
ENDBRANCH   8   9
ENDBRANCH   7   8
ENDBRANCH   6   7
ENDBRANCH   5   6
ENDBRANCH   4   5
ENDBRANCH   3   4
TORSDOF 11
ENDMDL
MODEL      179
REMARK 921   NORMALIZED FREE ENERGY PREDICTED BY IDOCK:   -3.45 KCAL/MOL
REMARK 922        TOTAL FREE ENERGY PREDICTED BY IDOCK:   -7.11 KCAL/MOL
REMARK 923 INTER-LIGAND FREE ENERGY PREDICTED BY IDOCK:   -6.50 KCAL/MOL
REMARK 924 INTRA-LIGAND FREE ENERGY PREDICTED BY IDOCK:   -0.61 KCAL/MOL
REMARK 927      BINDING AFFINITY PREDICTED BY RF-SCORE:    0.00 PKD
ROOT
HETATM    1 NA   UNL     1      -9.079   8.218  67.597  1.00  0.00    -0.124 Na 
HETATM    2  C   UNL     2     -14.179   7.764  72.033  1.00  0.00    -0.424 C  
HETATM    3  C   UNL     2     -12.766   7.721  71.472  1.00  0.00    -0.355 C  
ENDROOT
BRANCH   3   4
HETATM    4  C   UNL     2     -12.119   9.102  71.535  1.00  0.00    -0.422 C  
BRANCH   4   5
HETATM    5  C   UNL     2     -10.619   9.045  71.237  1.00  0.00    -0.378 C  
BRANCH   5   6
HETATM    6  C   UNL     2     -10.236   9.803  69.959  1.00  0.00    -0.308 C  
BRANCH   6   7
HETATM    7  C   UNL     2     -11.457  10.385  69.249  1.00  0.00    -0.281 C  
BRANCH   7   8
HETATM    8  C   UNL     2     -11.193  10.717  67.782  1.00  0.00    -0.383 C  
BRANCH   8   9
HETATM    9  C   UNL     2     -11.236  12.229  67.519  1.00  0.00    -0.354 C  
BRANCH   9  10
HETATM   10  C   UNL     2     -11.898  12.637  66.196  1.00  0.00    -0.477 C  
BRANCH  10  11
HETATM   11  C   UNL     2     -12.247  14.127  66.141  1.00  0.00    -0.465 C  
BRANCH  11  12
HETATM   12  C   UNL     2     -11.507  14.888  65.034  1.00  0.00    -0.379 C  
BRANCH  12  13
HETATM   13  C   UNL     2     -10.114  15.375  65.441  1.00  0.00    -0.359 C  
BRANCH  13  14
HETATM   14  O   UNL     2     -10.057  16.782  65.286  1.00  0.00    -0.577 OA 
HETATM   15  S   UNL     2      -9.780  17.687  66.610  1.00  0.00    -0.314 S  
HETATM   16  O   UNL     2      -9.721  19.049  66.071  1.00  0.00    -0.450 OA 
HETATM   17  O   UNL     2      -8.498  17.207  67.112  1.00  0.00    -0.191 OA 
HETATM   18  O   UNL     2     -10.922  17.428  67.468  1.00  0.00    -0.256 OA 
ENDBRANCH  13  14
ENDBRANCH  12  13
ENDBRANCH  11  12
ENDBRANCH  10  11
ENDBRANCH   9  10
ENDBRANCH   8   9
ENDBRANCH   7   8
ENDBRANCH   6   7
ENDBRANCH   5   6
ENDBRANCH   4   5
ENDBRANCH   3   4
TORSDOF 11
ENDMDL
MODEL      180
REMARK 921   NORMALIZED FREE ENERGY PREDICTED BY IDOCK:   -3.45 KCAL/MOL
REMARK 922        TOTAL FREE ENERGY PREDICTED BY IDOCK:   -7.10 KCAL/MOL
REMARK 923 INTER-LIGAND FREE ENERGY PREDICTED BY IDOCK:   -5.97 KCAL/MOL
REMARK 924 INTRA-LIGAND FREE ENERGY PREDICTED BY IDOCK:   -1.13 KCAL/MOL
REMARK 927      BINDING AFFINITY PREDICTED BY RF-SCORE:    0.00 PKD
ROOT
HETATM    1 NA   UNL     1     -11.410  16.889  64.776  1.00  0.00    -0.407 Na 
HETATM    2  C   UNL     2     -11.626  15.529  71.409  1.00  0.00    -0.481 C  
HETATM    3  C   UNL     2     -12.083  15.679  69.966  1.00  0.00    -0.379 C  
ENDROOT
BRANCH   3   4
HETATM    4  C   UNL     2     -11.771  14.417  69.168  1.00  0.00    -0.354 C  
BRANCH   4   5
HETATM    5  C   UNL     2     -10.505  14.572  68.322  1.00  0.00    -0.242 C  
BRANCH   5   6
HETATM    6  C   UNL     2     -10.585  13.823  66.985  1.00  0.00    -0.278 C  
BRANCH   6   7
HETATM    7  C   UNL     2     -11.980  13.255  66.728  1.00  0.00    -0.438 C  
BRANCH   7   8
HETATM    8  C   UNL     2     -12.702  13.946  65.573  1.00  0.00    -0.536 C  
BRANCH   8   9
HETATM    9  C   UNL     2     -12.000  13.702  64.229  1.00  0.00    -0.488 C  
BRANCH   9  10
HETATM   10  C   UNL     2     -12.061  12.255  63.721  1.00  0.00    -0.624 C  
BRANCH  10  11
HETATM   11  C   UNL     2     -10.708  11.743  63.220  1.00  0.00    -0.414 C  
BRANCH  11  12
HETATM   12  C   UNL     2      -9.715  11.434  64.347  1.00  0.00    -0.266 C  
BRANCH  12  13
HETATM   13  C   UNL     2     -10.136  10.264  65.241  1.00  0.00    -0.289 C  
BRANCH  13  14
HETATM   14  O   UNL     2      -9.499  10.398  66.500  1.00  0.00    -0.160 OA 
HETATM   15  S   UNL     2      -9.324   9.063  67.414  1.00  0.00    -0.141 S  
HETATM   16  O   UNL     2      -8.584   9.557  68.579  1.00  0.00    -0.118 OA 
HETATM   17  O   UNL     2      -8.548   8.154  66.578  1.00  0.00    -0.127 OA 
HETATM   18  O   UNL     2     -10.683   8.640  67.698  1.00  0.00    -0.224 OA 
ENDBRANCH  13  14
ENDBRANCH  12  13
ENDBRANCH  11  12
ENDBRANCH  10  11
ENDBRANCH   9  10
ENDBRANCH   8   9
ENDBRANCH   7   8
ENDBRANCH   6   7
ENDBRANCH   5   6
ENDBRANCH   4   5
ENDBRANCH   3   4
TORSDOF 11
ENDMDL
MODEL      181
REMARK 921   NORMALIZED FREE ENERGY PREDICTED BY IDOCK:   -3.44 KCAL/MOL
REMARK 922        TOTAL FREE ENERGY PREDICTED BY IDOCK:   -7.10 KCAL/MOL
REMARK 923 INTER-LIGAND FREE ENERGY PREDICTED BY IDOCK:   -6.26 KCAL/MOL
REMARK 924 INTRA-LIGAND FREE ENERGY PREDICTED BY IDOCK:   -0.84 KCAL/MOL
REMARK 927      BINDING AFFINITY PREDICTED BY RF-SCORE:    0.00 PKD
ROOT
HETATM    1 NA   UNL     1     -10.448   4.956  69.582  1.00  0.00    -0.187 Na 
HETATM    2  C   UNL     2     -12.872  11.007  71.426  1.00  0.00    -0.548 C  
HETATM    3  C   UNL     2     -12.046   9.731  71.454  1.00  0.00    -0.486 C  
ENDROOT
BRANCH   3   4
HETATM    4  C   UNL     2     -10.778   9.890  70.620  1.00  0.00    -0.372 C  
BRANCH   4   5
HETATM    5  C   UNL     2     -10.369   8.580  69.943  1.00  0.00    -0.210 C  
BRANCH   5   6
HETATM    6  C   UNL     2      -9.871   8.781  68.506  1.00  0.00    -0.183 C  
BRANCH   6   7
HETATM    7  C   UNL     2     -10.873   9.559  67.654  1.00  0.00    -0.253 C  
BRANCH   7   8
HETATM    8  C   UNL     2     -10.327  10.898  67.164  1.00  0.00    -0.262 C  
BRANCH   8   9
HETATM    9  C   UNL     2     -11.190  12.077  67.634  1.00  0.00    -0.343 C  
BRANCH   9  10
HETATM   10  C   UNL     2     -11.911  12.839  66.514  1.00  0.00    -0.471 C  
BRANCH  10  11
HETATM   11  C   UNL     2     -12.051  14.335  66.806  1.00  0.00    -0.446 C  
BRANCH  11  12
HETATM   12  C   UNL     2     -11.677  14.716  68.244  1.00  0.00    -0.359 C  
BRANCH  12  13
HETATM   13  C   UNL     2     -10.582  15.782  68.339  1.00  0.00    -0.264 C  
BRANCH  13  14
HETATM   14  O   UNL     2     -10.930  16.871  67.502  1.00  0.00    -0.254 OA 
HETATM   15  S   UNL     2      -9.788  17.469  66.509  1.00  0.00    -0.318 S  
HETATM   16  O   UNL     2     -10.507  18.511  65.769  1.00  0.00    -0.598 OA 
HETATM   17  O   UNL     2      -9.401  16.333  65.681  1.00  0.00    -0.457 OA 
HETATM   18  O   UNL     2      -8.758  17.968  67.403  1.00  0.00    -0.243 OA 
ENDBRANCH  13  14
ENDBRANCH  12  13
ENDBRANCH  11  12
ENDBRANCH  10  11
ENDBRANCH   9  10
ENDBRANCH   8   9
ENDBRANCH   7   8
ENDBRANCH   6   7
ENDBRANCH   5   6
ENDBRANCH   4   5
ENDBRANCH   3   4
TORSDOF 11
ENDMDL
MODEL      182
REMARK 921   NORMALIZED FREE ENERGY PREDICTED BY IDOCK:   -3.44 KCAL/MOL
REMARK 922        TOTAL FREE ENERGY PREDICTED BY IDOCK:   -7.09 KCAL/MOL
REMARK 923 INTER-LIGAND FREE ENERGY PREDICTED BY IDOCK:   -5.77 KCAL/MOL
REMARK 924 INTRA-LIGAND FREE ENERGY PREDICTED BY IDOCK:   -1.32 KCAL/MOL
REMARK 927      BINDING AFFINITY PREDICTED BY RF-SCORE:    0.00 PKD
ROOT
HETATM    1 NA   UNL     1      -6.771  13.901  71.887  1.00  0.00    -0.387 Na 
HETATM    2  C   UNL     2      -7.735  10.779  65.953  1.00  0.00    -0.118 C  
HETATM    3  C   UNL     2      -8.042  11.397  67.308  1.00  0.00    -0.148 C  
ENDROOT
BRANCH   3   4
HETATM    4  C   UNL     2      -8.287  12.897  67.173  1.00  0.00    -0.158 C  
BRANCH   4   5
HETATM    5  C   UNL     2      -7.349  13.714  68.065  1.00  0.00    -0.131 C  
BRANCH   5   6
HETATM    6  C   UNL     2      -7.641  15.219  68.017  1.00  0.00    -0.133 C  
BRANCH   6   7
HETATM    7  C   UNL     2      -8.704  15.566  66.975  1.00  0.00    -0.258 C  
BRANCH   7   8
HETATM    8  C   UNL     2      -9.811  16.460  67.527  1.00  0.00    -0.239 C  
BRANCH   8   9
HETATM    9  C   UNL     2      -9.934  16.346  69.053  1.00  0.00    -0.267 C  
BRANCH   9  10
HETATM   10  C   UNL     2     -10.835  15.206  69.546  1.00  0.00    -0.270 C  
BRANCH  10  11
HETATM   11  C   UNL     2     -11.746  14.651  68.449  1.00  0.00    -0.352 C  
BRANCH  11  12
HETATM   12  C   UNL     2     -11.675  13.126  68.308  1.00  0.00    -0.384 C  
BRANCH  12  13
HETATM   13  C   UNL     2     -11.828  12.628  66.868  1.00  0.00    -0.355 C  
BRANCH  13  14
HETATM   14  O   UNL     2     -12.324  13.686  66.068  1.00  0.00    -0.432 OA 
HETATM   15  S   UNL     2     -11.898  13.723  64.498  1.00  0.00    -0.435 S  
HETATM   16  O   UNL     2     -12.632  14.884  63.984  1.00  0.00    -0.832 OA 
HETATM   17  O   UNL     2     -12.378  12.454  63.965  1.00  0.00    -0.442 OA 
HETATM   18  O   UNL     2     -10.455  13.884  64.519  1.00  0.00    -0.431 OA 
ENDBRANCH  13  14
ENDBRANCH  12  13
ENDBRANCH  11  12
ENDBRANCH  10  11
ENDBRANCH   9  10
ENDBRANCH   8   9
ENDBRANCH   7   8
ENDBRANCH   6   7
ENDBRANCH   5   6
ENDBRANCH   4   5
ENDBRANCH   3   4
TORSDOF 11
ENDMDL
MODEL      183
REMARK 921   NORMALIZED FREE ENERGY PREDICTED BY IDOCK:   -3.44 KCAL/MOL
REMARK 922        TOTAL FREE ENERGY PREDICTED BY IDOCK:   -7.09 KCAL/MOL
REMARK 923 INTER-LIGAND FREE ENERGY PREDICTED BY IDOCK:   -6.51 KCAL/MOL
REMARK 924 INTRA-LIGAND FREE ENERGY PREDICTED BY IDOCK:   -0.58 KCAL/MOL
REMARK 927      BINDING AFFINITY PREDICTED BY RF-SCORE:    0.00 PKD
ROOT
HETATM    1 NA   UNL     1     -13.187  12.444  72.339  1.00  0.00    -0.395 Na 
HETATM    2  C   UNL     2     -11.541   5.874  72.477  1.00  0.00    -0.327 C  
HETATM    3  C   UNL     2     -11.893   7.247  71.926  1.00  0.00    -0.333 C  
ENDROOT
BRANCH   3   4
HETATM    4  C   UNL     2     -10.643   8.112  71.795  1.00  0.00    -0.313 C  
BRANCH   4   5
HETATM    5  C   UNL     2     -10.987   9.580  71.532  1.00  0.00    -0.369 C  
BRANCH   5   6
HETATM    6  C   UNL     2     -11.162   9.895  70.041  1.00  0.00    -0.327 C  
BRANCH   6   7
HETATM    7  C   UNL     2     -11.962  11.177  69.814  1.00  0.00    -0.428 C  
BRANCH   7   8
HETATM    8  C   UNL     2     -11.749  11.776  68.426  1.00  0.00    -0.389 C  
BRANCH   8   9
HETATM    9  C   UNL     2     -11.894  13.304  68.432  1.00  0.00    -0.395 C  
BRANCH   9  10
HETATM   10  C   UNL     2     -11.898  13.948  69.825  1.00  0.00    -0.390 C  
BRANCH  10  11
HETATM   11  C   UNL     2     -11.700  15.465  69.780  1.00  0.00    -0.352 C  
BRANCH  11  12
HETATM   12  C   UNL     2     -10.228  15.888  69.690  1.00  0.00    -0.280 C  
BRANCH  12  13
HETATM   13  C   UNL     2      -9.795  16.329  68.290  1.00  0.00    -0.227 C  
BRANCH  13  14
HETATM   14  O   UNL     2     -10.548  17.470  67.915  1.00  0.00    -0.378 OA 
HETATM   15  S   UNL     2      -9.765  18.703  67.199  1.00  0.00    -0.315 S  
HETATM   16  O   UNL     2     -10.844  19.650  66.900  1.00  0.00    -0.483 OA 
HETATM   17  O   UNL     2      -9.171  18.108  66.008  1.00  0.00    -0.507 OA 
HETATM   18  O   UNL     2      -8.821  19.162  68.203  1.00  0.00    -0.297 OA 
ENDBRANCH  13  14
ENDBRANCH  12  13
ENDBRANCH  11  12
ENDBRANCH  10  11
ENDBRANCH   9  10
ENDBRANCH   8   9
ENDBRANCH   7   8
ENDBRANCH   6   7
ENDBRANCH   5   6
ENDBRANCH   4   5
ENDBRANCH   3   4
TORSDOF 11
ENDMDL
MODEL      184
REMARK 921   NORMALIZED FREE ENERGY PREDICTED BY IDOCK:   -3.44 KCAL/MOL
REMARK 922        TOTAL FREE ENERGY PREDICTED BY IDOCK:   -7.08 KCAL/MOL
REMARK 923 INTER-LIGAND FREE ENERGY PREDICTED BY IDOCK:   -6.50 KCAL/MOL
REMARK 924 INTRA-LIGAND FREE ENERGY PREDICTED BY IDOCK:   -0.58 KCAL/MOL
REMARK 927      BINDING AFFINITY PREDICTED BY RF-SCORE:    0.00 PKD
ROOT
HETATM    1 NA   UNL     1      -9.046  11.005  66.253  1.00  0.00    -0.151 Na 
HETATM    2  C   UNL     2     -10.011   7.327  71.860  1.00  0.00    -0.184 C  
HETATM    3  C   UNL     2      -9.541   8.456  70.955  1.00  0.00    -0.212 C  
ENDROOT
BRANCH   3   4
HETATM    4  C   UNL     2     -10.623   9.524  70.820  1.00  0.00    -0.387 C  
BRANCH   4   5
HETATM    5  C   UNL     2     -11.723   9.361  71.870  1.00  0.00    -0.376 C  
BRANCH   5   6
HETATM    6  C   UNL     2     -13.012  10.110  71.505  1.00  0.00    -0.547 C  
BRANCH   6   7
HETATM    7  C   UNL     2     -12.728  11.402  70.740  1.00  0.00    -0.343 C  
BRANCH   7   8
HETATM    8  C   UNL     2     -12.912  12.654  71.594  1.00  0.00    -0.400 C  
BRANCH   8   9
HETATM    9  C   UNL     2     -12.801  13.939  70.760  1.00  0.00    -0.329 C  
BRANCH   9  10
HETATM   10  C   UNL     2     -11.777  14.958  71.275  1.00  0.00    -0.382 C  
BRANCH  10  11
HETATM   11  C   UNL     2     -11.384  15.994  70.218  1.00  0.00    -0.391 C  
BRANCH  11  12
HETATM   12  C   UNL     2     -11.547  15.490  68.778  1.00  0.00    -0.390 C  
BRANCH  12  13
HETATM   13  C   UNL     2     -10.568  16.124  67.786  1.00  0.00    -0.309 C  
BRANCH  13  14
HETATM   14  O   UNL     2     -10.722  17.532  67.826  1.00  0.00    -0.380 OA 
HETATM   15  S   UNL     2     -10.085  18.407  66.610  1.00  0.00    -0.401 S  
HETATM   16  O   UNL     2     -10.488  19.776  66.944  1.00  0.00    -0.430 OA 
HETATM   17  O   UNL     2     -10.737  17.887  65.414  1.00  0.00    -0.634 OA 
HETATM   18  O   UNL     2      -8.657  18.160  66.699  1.00  0.00    -0.253 OA 
ENDBRANCH  13  14
ENDBRANCH  12  13
ENDBRANCH  11  12
ENDBRANCH  10  11
ENDBRANCH   9  10
ENDBRANCH   8   9
ENDBRANCH   7   8
ENDBRANCH   6   7
ENDBRANCH   5   6
ENDBRANCH   4   5
ENDBRANCH   3   4
TORSDOF 11
ENDMDL
MODEL      185
REMARK 921   NORMALIZED FREE ENERGY PREDICTED BY IDOCK:   -3.43 KCAL/MOL
REMARK 922        TOTAL FREE ENERGY PREDICTED BY IDOCK:   -7.07 KCAL/MOL
REMARK 923 INTER-LIGAND FREE ENERGY PREDICTED BY IDOCK:   -6.50 KCAL/MOL
REMARK 924 INTRA-LIGAND FREE ENERGY PREDICTED BY IDOCK:   -0.57 KCAL/MOL
REMARK 927      BINDING AFFINITY PREDICTED BY RF-SCORE:    0.00 PKD
ROOT
HETATM    1 NA   UNL     1     -12.137   5.057  73.755  1.00  0.00    -0.420 Na 
HETATM    2  C   UNL     2      -8.873   9.069  69.379  1.00  0.00    -0.144 C  
HETATM    3  C   UNL     2      -9.816   7.998  69.905  1.00  0.00    -0.186 C  
ENDROOT
BRANCH   3   4
HETATM    4  C   UNL     2     -11.161   8.606  70.293  1.00  0.00    -0.230 C  
BRANCH   4   5
HETATM    5  C   UNL     2     -11.028  10.076  70.700  1.00  0.00    -0.392 C  
BRANCH   5   6
HETATM    6  C   UNL     2     -12.144  10.957  70.124  1.00  0.00    -0.431 C  
BRANCH   6   7
HETATM    7  C   UNL     2     -11.881  11.338  68.667  1.00  0.00    -0.369 C  
BRANCH   7   8
HETATM    8  C   UNL     2     -11.750  12.845  68.459  1.00  0.00    -0.374 C  
BRANCH   8   9
HETATM    9  C   UNL     2     -11.682  13.214  66.970  1.00  0.00    -0.431 C  
BRANCH   9  10
HETATM   10  C   UNL     2     -10.349  13.824  66.515  1.00  0.00    -0.286 C  
BRANCH  10  11
HETATM   11  C   UNL     2     -10.374  14.287  65.056  1.00  0.00    -0.448 C  
BRANCH  11  12
HETATM   12  C   UNL     2     -10.816  15.745  64.885  1.00  0.00    -0.433 C  
BRANCH  12  13
HETATM   13  C   UNL     2     -10.525  16.629  66.101  1.00  0.00    -0.285 C  
BRANCH  13  14
HETATM   14  O   UNL     2      -9.477  17.526  65.776  1.00  0.00    -0.519 OA 
HETATM   15  S   UNL     2      -9.546  19.035  66.380  1.00  0.00    -0.346 S  
HETATM   16  O   UNL     2      -8.297  19.638  65.904  1.00  0.00    -0.390 OA 
HETATM   17  O   UNL     2      -9.581  18.842  67.825  1.00  0.00    -0.299 OA 
HETATM   18  O   UNL     2     -10.749  19.601  65.798  1.00  0.00    -0.516 OA 
ENDBRANCH  13  14
ENDBRANCH  12  13
ENDBRANCH  11  12
ENDBRANCH  10  11
ENDBRANCH   9  10
ENDBRANCH   8   9
ENDBRANCH   7   8
ENDBRANCH   6   7
ENDBRANCH   5   6
ENDBRANCH   4   5
ENDBRANCH   3   4
TORSDOF 11
ENDMDL
MODEL      186
REMARK 921   NORMALIZED FREE ENERGY PREDICTED BY IDOCK:   -3.42 KCAL/MOL
REMARK 922        TOTAL FREE ENERGY PREDICTED BY IDOCK:   -7.06 KCAL/MOL
REMARK 923 INTER-LIGAND FREE ENERGY PREDICTED BY IDOCK:   -6.04 KCAL/MOL
REMARK 924 INTRA-LIGAND FREE ENERGY PREDICTED BY IDOCK:   -1.02 KCAL/MOL
REMARK 927      BINDING AFFINITY PREDICTED BY RF-SCORE:    0.00 PKD
ROOT
HETATM    1 NA   UNL     1     -11.831   4.180  65.414  1.00  0.00    -0.671 Na 
HETATM    2  C   UNL     2      -9.162   9.065  69.275  1.00  0.00    -0.145 C  
HETATM    3  C   UNL     2      -9.383   8.148  68.082  1.00  0.00    -0.139 C  
ENDROOT
BRANCH   3   4
HETATM    4  C   UNL     2     -10.450   8.719  67.153  1.00  0.00    -0.354 C  
BRANCH   4   5
HETATM    5  C   UNL     2      -9.838   9.379  65.916  1.00  0.00    -0.362 C  
BRANCH   5   6
HETATM    6  C   UNL     2     -10.066  10.896  65.874  1.00  0.00    -0.307 C  
BRANCH   6   7
HETATM    7  C   UNL     2      -9.032  11.655  66.705  1.00  0.00    -0.189 C  
BRANCH   7   8
HETATM    8  C   UNL     2      -9.654  12.445  67.854  1.00  0.00    -0.205 C  
BRANCH   8   9
HETATM    9  C   UNL     2     -11.172  12.232  67.942  1.00  0.00    -0.328 C  
BRANCH   9  10
HETATM   10  C   UNL     2     -12.018  13.479  67.653  1.00  0.00    -0.373 C  
BRANCH  10  11
HETATM   11  C   UNL     2     -11.526  14.719  68.404  1.00  0.00    -0.336 C  
BRANCH  11  12
HETATM   12  C   UNL     2     -10.916  15.787  67.488  1.00  0.00    -0.293 C  
BRANCH  12  13
HETATM   13  C   UNL     2     -10.352  16.998  68.237  1.00  0.00    -0.347 C  
BRANCH  13  14
HETATM   14  O   UNL     2     -10.653  18.172  67.503  1.00  0.00    -0.402 OA 
HETATM   15  S   UNL     2      -9.415  19.013  66.865  1.00  0.00    -0.330 S  
HETATM   16  O   UNL     2     -10.091  20.094  66.139  1.00  0.00    -0.456 OA 
HETATM   17  O   UNL     2      -8.745  18.059  65.989  1.00  0.00    -0.498 OA 
HETATM   18  O   UNL     2      -8.645  19.450  68.015  1.00  0.00    -0.305 OA 
ENDBRANCH  13  14
ENDBRANCH  12  13
ENDBRANCH  11  12
ENDBRANCH  10  11
ENDBRANCH   9  10
ENDBRANCH   8   9
ENDBRANCH   7   8
ENDBRANCH   6   7
ENDBRANCH   5   6
ENDBRANCH   4   5
ENDBRANCH   3   4
TORSDOF 11
ENDMDL
MODEL      187
REMARK 921   NORMALIZED FREE ENERGY PREDICTED BY IDOCK:   -3.42 KCAL/MOL
REMARK 922        TOTAL FREE ENERGY PREDICTED BY IDOCK:   -7.05 KCAL/MOL
REMARK 923 INTER-LIGAND FREE ENERGY PREDICTED BY IDOCK:   -6.60 KCAL/MOL
REMARK 924 INTRA-LIGAND FREE ENERGY PREDICTED BY IDOCK:   -0.46 KCAL/MOL
REMARK 927      BINDING AFFINITY PREDICTED BY RF-SCORE:    0.00 PKD
ROOT
HETATM    1 NA   UNL     1     -11.594  13.795  71.236  1.00  0.00    -0.396 Na 
HETATM    2  C   UNL     2     -10.484   7.391  73.148  1.00  0.00    -0.406 C  
HETATM    3  C   UNL     2     -10.987   8.571  72.331  1.00  0.00    -0.390 C  
ENDROOT
BRANCH   3   4
HETATM    4  C   UNL     2      -9.926   9.026  71.332  1.00  0.00    -0.388 C  
BRANCH   4   5
HETATM    5  C   UNL     2      -9.786   8.051  70.161  1.00  0.00    -0.184 C  
BRANCH   5   6
HETATM    6  C   UNL     2      -9.809   8.752  68.796  1.00  0.00    -0.180 C  
BRANCH   6   7
HETATM    7  C   UNL     2     -10.796   9.918  68.765  1.00  0.00    -0.240 C  
BRANCH   7   8
HETATM    8  C   UNL     2     -10.294  11.103  67.943  1.00  0.00    -0.211 C  
BRANCH   8   9
HETATM    9  C   UNL     2     -11.216  11.407  66.753  1.00  0.00    -0.319 C  
BRANCH   9  10
HETATM   10  C   UNL     2     -11.467  12.898  66.494  1.00  0.00    -0.390 C  
BRANCH  10  11
HETATM   11  C   UNL     2     -10.647  13.445  65.322  1.00  0.00    -0.333 C  
BRANCH  11  12
HETATM   12  C   UNL     2     -11.003  14.888  64.946  1.00  0.00    -0.422 C  
BRANCH  12  13
HETATM   13  C   UNL     2     -10.056  15.935  65.538  1.00  0.00    -0.320 C  
BRANCH  13  14
HETATM   14  O   UNL     2     -10.596  17.224  65.306  1.00  0.00    -0.667 OA 
HETATM   15  S   UNL     2     -10.058  18.456  66.224  1.00  0.00    -0.373 S  
HETATM   16  O   UNL     2     -10.768  19.614  65.671  1.00  0.00    -0.503 OA 
HETATM   17  O   UNL     2      -8.621  18.486  65.979  1.00  0.00    -0.497 OA 
HETATM   18  O   UNL     2     -10.453  18.097  67.575  1.00  0.00    -0.380 OA 
ENDBRANCH  13  14
ENDBRANCH  12  13
ENDBRANCH  11  12
ENDBRANCH  10  11
ENDBRANCH   9  10
ENDBRANCH   8   9
ENDBRANCH   7   8
ENDBRANCH   6   7
ENDBRANCH   5   6
ENDBRANCH   4   5
ENDBRANCH   3   4
TORSDOF 11
ENDMDL
MODEL      188
REMARK 921   NORMALIZED FREE ENERGY PREDICTED BY IDOCK:   -3.41 KCAL/MOL
REMARK 922        TOTAL FREE ENERGY PREDICTED BY IDOCK:   -7.04 KCAL/MOL
REMARK 923 INTER-LIGAND FREE ENERGY PREDICTED BY IDOCK:   -6.21 KCAL/MOL
REMARK 924 INTRA-LIGAND FREE ENERGY PREDICTED BY IDOCK:   -0.84 KCAL/MOL
REMARK 927      BINDING AFFINITY PREDICTED BY RF-SCORE:    0.00 PKD
ROOT
HETATM    1 NA   UNL     1      -7.617  13.598  70.092  1.00  0.00    -0.326 Na 
HETATM    2  C   UNL     2     -12.663   9.514  72.030  1.00  0.00    -0.479 C  
HETATM    3  C   UNL     2     -11.683  10.243  71.123  1.00  0.00    -0.430 C  
ENDROOT
BRANCH   3   4
HETATM    4  C   UNL     2     -10.376   9.464  71.006  1.00  0.00    -0.382 C  
BRANCH   4   5
HETATM    5  C   UNL     2      -9.642   9.771  69.698  1.00  0.00    -0.239 C  
BRANCH   5   6
HETATM    6  C   UNL     2      -9.962  11.167  69.148  1.00  0.00    -0.104 C  
BRANCH   6   7
HETATM    7  C   UNL     2      -8.899  11.655  68.165  1.00  0.00    -0.164 C  
BRANCH   7   8
HETATM    8  C   UNL     2      -9.430  12.691  67.177  1.00  0.00    -0.214 C  
BRANCH   8   9
HETATM    9  C   UNL     2      -9.186  14.127  67.666  1.00  0.00    -0.193 C  
BRANCH   9  10
HETATM   10  C   UNL     2     -10.457  14.935  67.957  1.00  0.00    -0.246 C  
BRANCH  10  11
HETATM   11  C   UNL     2     -11.690  14.051  68.166  1.00  0.00    -0.387 C  
BRANCH  11  12
HETATM   12  C   UNL     2     -12.060  13.856  69.641  1.00  0.00    -0.404 C  
BRANCH  12  13
HETATM   13  C   UNL     2     -12.597  15.120  70.318  1.00  0.00    -0.326 C  
BRANCH  13  14
HETATM   14  O   UNL     2     -12.114  15.168  71.649  1.00  0.00    -0.308 OA 
HETATM   15  S   UNL     2     -13.096  14.651  72.839  1.00  0.00    -0.514 S  
HETATM   16  O   UNL     2     -12.260  14.779  74.036  1.00  0.00    -0.485 OA 
HETATM   17  O   UNL     2     -13.392  13.267  72.485  1.00  0.00    -0.544 OA 
HETATM   18  O   UNL     2     -14.227  15.560  72.793  1.00  0.00    -0.465 OA 
ENDBRANCH  13  14
ENDBRANCH  12  13
ENDBRANCH  11  12
ENDBRANCH  10  11
ENDBRANCH   9  10
ENDBRANCH   8   9
ENDBRANCH   7   8
ENDBRANCH   6   7
ENDBRANCH   5   6
ENDBRANCH   4   5
ENDBRANCH   3   4
TORSDOF 11
ENDMDL
MODEL      189
REMARK 921   NORMALIZED FREE ENERGY PREDICTED BY IDOCK:   -3.41 KCAL/MOL
REMARK 922        TOTAL FREE ENERGY PREDICTED BY IDOCK:   -7.03 KCAL/MOL
REMARK 923 INTER-LIGAND FREE ENERGY PREDICTED BY IDOCK:   -5.96 KCAL/MOL
REMARK 924 INTRA-LIGAND FREE ENERGY PREDICTED BY IDOCK:   -1.07 KCAL/MOL
REMARK 927      BINDING AFFINITY PREDICTED BY RF-SCORE:    0.00 PKD
ROOT
HETATM    1 NA   UNL     1     -11.876   6.043  71.195  1.00  0.00    -0.293 Na 
HETATM    2  C   UNL     2      -7.340   8.809  66.993  1.00  0.00    -0.080 C  
HETATM    3  C   UNL     2      -8.237   7.765  67.640  1.00  0.00    -0.125 C  
ENDROOT
BRANCH   3   4
HETATM    4  C   UNL     2      -9.631   7.792  67.021  1.00  0.00    -0.238 C  
BRANCH   4   5
HETATM    5  C   UNL     2      -9.944   9.143  66.373  1.00  0.00    -0.358 C  
BRANCH   5   6
HETATM    6  C   UNL     2     -10.899  10.001  67.213  1.00  0.00    -0.284 C  
BRANCH   6   7
HETATM    7  C   UNL     2     -10.180  11.170  67.884  1.00  0.00    -0.202 C  
BRANCH   7   8
HETATM    8  C   UNL     2     -10.885  11.657  69.148  1.00  0.00    -0.231 C  
BRANCH   8   9
HETATM    9  C   UNL     2     -11.679  12.949  68.901  1.00  0.00    -0.370 C  
BRANCH   9  10
HETATM   10  C   UNL     2     -10.823  14.185  68.593  1.00  0.00    -0.268 C  
BRANCH  10  11
HETATM   11  C   UNL     2     -11.518  15.168  67.647  1.00  0.00    -0.319 C  
BRANCH  11  12
HETATM   12  C   UNL     2     -10.633  15.626  66.482  1.00  0.00    -0.307 C  
BRANCH  12  13
HETATM   13  C   UNL     2     -11.193  15.273  65.101  1.00  0.00    -0.370 C  
BRANCH  13  14
HETATM   14  O   UNL     2     -10.795  13.954  64.768  1.00  0.00    -0.376 OA 
HETATM   15  S   UNL     2     -11.950  12.892  64.337  1.00  0.00    -0.426 S  
HETATM   16  O   UNL     2     -11.182  11.687  64.006  1.00  0.00    -0.361 OA 
HETATM   17  O   UNL     2     -12.590  13.506  63.180  1.00  0.00    -0.762 OA 
HETATM   18  O   UNL     2     -12.785  12.769  65.519  1.00  0.00    -0.595 OA 
ENDBRANCH  13  14
ENDBRANCH  12  13
ENDBRANCH  11  12
ENDBRANCH  10  11
ENDBRANCH   9  10
ENDBRANCH   8   9
ENDBRANCH   7   8
ENDBRANCH   6   7
ENDBRANCH   5   6
ENDBRANCH   4   5
ENDBRANCH   3   4
TORSDOF 11
ENDMDL
MODEL      190
REMARK 921   NORMALIZED FREE ENERGY PREDICTED BY IDOCK:   -3.40 KCAL/MOL
REMARK 922        TOTAL FREE ENERGY PREDICTED BY IDOCK:   -7.01 KCAL/MOL
REMARK 923 INTER-LIGAND FREE ENERGY PREDICTED BY IDOCK:   -5.98 KCAL/MOL
REMARK 924 INTRA-LIGAND FREE ENERGY PREDICTED BY IDOCK:   -1.04 KCAL/MOL
REMARK 927      BINDING AFFINITY PREDICTED BY RF-SCORE:    0.00 PKD
ROOT
HETATM    1 NA   UNL     1      -7.370  17.466  65.332  1.00  0.00    -0.270 Na 
HETATM    2  C   UNL     2     -12.817  13.441  65.465  1.00  0.00    -0.361 C  
HETATM    3  C   UNL     2     -11.773  14.414  64.940  1.00  0.00    -0.408 C  
ENDROOT
BRANCH   3   4
HETATM    4  C   UNL     2     -10.562  13.663  64.394  1.00  0.00    -0.360 C  
BRANCH   4   5
HETATM    5  C   UNL     2     -10.971  12.463  63.537  1.00  0.00    -0.506 C  
BRANCH   5   6
HETATM    6  C   UNL     2      -9.919  11.346  63.535  1.00  0.00    -0.424 C  
BRANCH   6   7
HETATM    7  C   UNL     2     -10.153  10.334  64.657  1.00  0.00    -0.317 C  
BRANCH   7   8
HETATM    8  C   UNL     2      -9.179  10.499  65.821  1.00  0.00    -0.215 C  
BRANCH   8   9
HETATM    9  C   UNL     2      -9.726  11.449  66.897  1.00  0.00    -0.213 C  
BRANCH   9  10
HETATM   10  C   UNL     2     -11.014  10.975  67.584  1.00  0.00    -0.332 C  
BRANCH  10  11
HETATM   11  C   UNL     2     -11.002  11.211  69.097  1.00  0.00    -0.295 C  
BRANCH  11  12
HETATM   12  C   UNL     2     -12.389  11.107  69.743  1.00  0.00    -0.315 C  
BRANCH  12  13
HETATM   13  C   UNL     2     -12.372  10.514  71.155  1.00  0.00    -0.405 C  
BRANCH  13  14
HETATM   14  O   UNL     2     -12.865   9.187  71.100  1.00  0.00    -0.289 OA 
HETATM   15  S   UNL     2     -11.842   7.974  71.462  1.00  0.00    -0.304 S  
HETATM   16  O   UNL     2     -12.695   6.785  71.370  1.00  0.00    -0.346 OA 
HETATM   17  O   UNL     2     -11.403   8.268  72.821  1.00  0.00    -0.381 OA 
HETATM   18  O   UNL     2     -10.811   8.057  70.443  1.00  0.00    -0.240 OA 
ENDBRANCH  13  14
ENDBRANCH  12  13
ENDBRANCH  11  12
ENDBRANCH  10  11
ENDBRANCH   9  10
ENDBRANCH   8   9
ENDBRANCH   7   8
ENDBRANCH   6   7
ENDBRANCH   5   6
ENDBRANCH   4   5
ENDBRANCH   3   4
TORSDOF 11
ENDMDL
MODEL      191
REMARK 921   NORMALIZED FREE ENERGY PREDICTED BY IDOCK:   -3.39 KCAL/MOL
REMARK 922        TOTAL FREE ENERGY PREDICTED BY IDOCK:   -7.01 KCAL/MOL
REMARK 923 INTER-LIGAND FREE ENERGY PREDICTED BY IDOCK:   -5.68 KCAL/MOL
REMARK 924 INTRA-LIGAND FREE ENERGY PREDICTED BY IDOCK:   -1.33 KCAL/MOL
REMARK 927      BINDING AFFINITY PREDICTED BY RF-SCORE:    0.00 PKD
ROOT
HETATM    1 NA   UNL     1     -12.802  16.182  68.779  1.00  0.00    -0.548 Na 
HETATM    2  C   UNL     2     -12.664  11.986  63.462  1.00  0.00    -0.567 C  
HETATM    3  C   UNL     2     -12.186  12.974  64.515  1.00  0.00    -0.476 C  
ENDROOT
BRANCH   3   4
HETATM    4  C   UNL     2     -11.763  12.245  65.787  1.00  0.00    -0.445 C  
BRANCH   4   5
HETATM    5  C   UNL     2     -10.959  10.979  65.482  1.00  0.00    -0.086 C  
BRANCH   5   6
HETATM    6  C   UNL     2      -9.701  11.258  64.648  1.00  0.00    -0.294 C  
BRANCH   6   7
HETATM    7  C   UNL     2      -8.746  10.065  64.634  1.00  0.00    -0.210 C  
BRANCH   7   8
HETATM    8  C   UNL     2      -7.331  10.428  65.080  1.00  0.00    -0.070 C  
BRANCH   8   9
HETATM    9  C   UNL     2      -7.197  10.438  66.610  1.00  0.00    -0.113 C  
BRANCH   9  10
HETATM   10  C   UNL     2      -7.161  11.833  67.247  1.00  0.00    -0.142 C  
BRANCH  10  11
HETATM   11  C   UNL     2      -8.252  12.033  68.302  1.00  0.00    -0.161 C  
BRANCH  11  12
HETATM   12  C   UNL     2      -9.201  13.197  67.989  1.00  0.00    -0.211 C  
BRANCH  12  13
HETATM   13  C   UNL     2      -8.559  14.314  67.162  1.00  0.00    -0.216 C  
BRANCH  13  14
HETATM   14  O   UNL     2      -9.427  14.648  66.092  1.00  0.00    -0.296 OA 
HETATM   15  S   UNL     2      -9.956  16.184  65.988  1.00  0.00    -0.367 S  
HETATM   16  O   UNL     2     -10.752  16.174  64.756  1.00  0.00    -0.648 OA 
HETATM   17  O   UNL     2      -8.738  16.978  65.883  1.00  0.00    -0.524 OA 
HETATM   18  O   UNL     2     -10.727  16.382  67.202  1.00  0.00    -0.307 OA 
ENDBRANCH  13  14
ENDBRANCH  12  13
ENDBRANCH  11  12
ENDBRANCH  10  11
ENDBRANCH   9  10
ENDBRANCH   8   9
ENDBRANCH   7   8
ENDBRANCH   6   7
ENDBRANCH   5   6
ENDBRANCH   4   5
ENDBRANCH   3   4
TORSDOF 11
ENDMDL
MODEL      192
REMARK 921   NORMALIZED FREE ENERGY PREDICTED BY IDOCK:   -3.39 KCAL/MOL
REMARK 922        TOTAL FREE ENERGY PREDICTED BY IDOCK:   -7.01 KCAL/MOL
REMARK 923 INTER-LIGAND FREE ENERGY PREDICTED BY IDOCK:   -5.98 KCAL/MOL
REMARK 924 INTRA-LIGAND FREE ENERGY PREDICTED BY IDOCK:   -1.03 KCAL/MOL
REMARK 927      BINDING AFFINITY PREDICTED BY RF-SCORE:    0.00 PKD
ROOT
HETATM    1 NA   UNL     1      -6.161  13.981  72.619  1.00  0.00    -0.245 Na 
HETATM    2  C   UNL     2      -6.021  17.308  66.720  1.00  0.00    -0.232 C  
HETATM    3  C   UNL     2      -6.411  16.281  67.771  1.00  0.00    -0.161 C  
ENDROOT
BRANCH   3   4
HETATM    4  C   UNL     2      -7.520  16.823  68.668  1.00  0.00    -0.219 C  
BRANCH   4   5
HETATM    5  C   UNL     2      -7.661  18.342  68.551  1.00  0.00    -0.321 C  
BRANCH   5   6
HETATM    6  C   UNL     2      -9.064  18.779  68.110  1.00  0.00    -0.338 C  
BRANCH   6   7
HETATM    7  C   UNL     2     -10.162  17.971  68.802  1.00  0.00    -0.362 C  
BRANCH   7   8
HETATM    8  C   UNL     2     -10.893  17.024  67.854  1.00  0.00    -0.302 C  
BRANCH   8   9
HETATM    9  C   UNL     2     -10.344  17.108  66.422  1.00  0.00    -0.307 C  
BRANCH   9  10
HETATM   10  C   UNL     2     -10.152  15.756  65.723  1.00  0.00    -0.399 C  
BRANCH  10  11
HETATM   11  C   UNL     2     -11.173  15.512  64.608  1.00  0.00    -0.381 C  
BRANCH  11  12
HETATM   12  C   UNL     2     -12.150  14.370  64.912  1.00  0.00    -0.442 C  
BRANCH  12  13
HETATM   13  C   UNL     2     -12.270  14.038  66.402  1.00  0.00    -0.460 C  
BRANCH  13  14
HETATM   14  O   UNL     2     -12.184  12.633  66.566  1.00  0.00    -0.538 OA 
HETATM   15  S   UNL     2     -11.355  12.061  67.845  1.00  0.00    -0.330 S  
HETATM   16  O   UNL     2     -11.533  10.610  67.731  1.00  0.00    -0.460 OA 
HETATM   17  O   UNL     2     -12.034  12.638  69.000  1.00  0.00    -0.290 OA 
HETATM   18  O   UNL     2      -9.995  12.521  67.628  1.00  0.00    -0.195 OA 
ENDBRANCH  13  14
ENDBRANCH  12  13
ENDBRANCH  11  12
ENDBRANCH  10  11
ENDBRANCH   9  10
ENDBRANCH   8   9
ENDBRANCH   7   8
ENDBRANCH   6   7
ENDBRANCH   5   6
ENDBRANCH   4   5
ENDBRANCH   3   4
TORSDOF 11
ENDMDL
MODEL      193
REMARK 921   NORMALIZED FREE ENERGY PREDICTED BY IDOCK:   -3.39 KCAL/MOL
REMARK 922        TOTAL FREE ENERGY PREDICTED BY IDOCK:   -7.00 KCAL/MOL
REMARK 923 INTER-LIGAND FREE ENERGY PREDICTED BY IDOCK:   -6.50 KCAL/MOL
REMARK 924 INTRA-LIGAND FREE ENERGY PREDICTED BY IDOCK:   -0.49 KCAL/MOL
REMARK 927      BINDING AFFINITY PREDICTED BY RF-SCORE:    0.00 PKD
ROOT
HETATM    1 NA   UNL     1     -11.494   8.403  67.041  1.00  0.00    -0.407 Na 
HETATM    2  C   UNL     2     -11.313   5.022  72.908  1.00  0.00    -0.329 C  
HETATM    3  C   UNL     2     -11.184   6.166  71.914  1.00  0.00    -0.336 C  
ENDROOT
BRANCH   3   4
HETATM    4  C   UNL     2     -12.516   6.893  71.753  1.00  0.00    -0.397 C  
BRANCH   4   5
HETATM    5  C   UNL     2     -12.434   8.347  72.223  1.00  0.00    -0.417 C  
BRANCH   5   6
HETATM    6  C   UNL     2     -13.504   9.242  71.583  1.00  0.00    -0.465 C  
BRANCH   6   7
HETATM    7  C   UNL     2     -12.911  10.531  71.016  1.00  0.00    -0.502 C  
BRANCH   7   8
HETATM    8  C   UNL     2     -11.637  10.296  70.206  1.00  0.00    -0.396 C  
BRANCH   8   9
HETATM    9  C   UNL     2     -11.579  11.187  68.957  1.00  0.00    -0.392 C  
BRANCH   9  10
HETATM   10  C   UNL     2     -11.923  12.663  69.199  1.00  0.00    -0.293 C  
BRANCH  10  11
HETATM   11  C   UNL     2     -11.414  13.583  68.086  1.00  0.00    -0.338 C  
BRANCH  11  12
HETATM   12  C   UNL     2     -11.607  15.074  68.389  1.00  0.00    -0.352 C  
BRANCH  12  13
HETATM   13  C   UNL     2     -10.920  16.004  67.386  1.00  0.00    -0.237 C  
BRANCH  13  14
HETATM   14  O   UNL     2      -9.747  16.533  67.980  1.00  0.00    -0.230 OA 
HETATM   15  S   UNL     2      -9.320  18.058  67.605  1.00  0.00    -0.262 S  
HETATM   16  O   UNL     2      -8.132  18.281  68.435  1.00  0.00    -0.291 OA 
HETATM   17  O   UNL     2     -10.467  18.862  68.008  1.00  0.00    -0.385 OA 
HETATM   18  O   UNL     2      -9.058  18.018  66.177  1.00  0.00    -0.472 OA 
ENDBRANCH  13  14
ENDBRANCH  12  13
ENDBRANCH  11  12
ENDBRANCH  10  11
ENDBRANCH   9  10
ENDBRANCH   8   9
ENDBRANCH   7   8
ENDBRANCH   6   7
ENDBRANCH   5   6
ENDBRANCH   4   5
ENDBRANCH   3   4
TORSDOF 11
ENDMDL
MODEL      194
REMARK 921   NORMALIZED FREE ENERGY PREDICTED BY IDOCK:   -3.38 KCAL/MOL
REMARK 922        TOTAL FREE ENERGY PREDICTED BY IDOCK:   -7.00 KCAL/MOL
REMARK 923 INTER-LIGAND FREE ENERGY PREDICTED BY IDOCK:   -5.85 KCAL/MOL
REMARK 924 INTRA-LIGAND FREE ENERGY PREDICTED BY IDOCK:   -1.14 KCAL/MOL
REMARK 927      BINDING AFFINITY PREDICTED BY RF-SCORE:    0.00 PKD
ROOT
HETATM    1 NA   UNL     1     -10.280   2.874  66.690  1.00  0.00    -0.409 Na 
HETATM    2  C   UNL     2      -8.595   6.914  71.861  1.00  0.00    -0.118 C  
HETATM    3  C   UNL     2      -9.224   6.451  70.555  1.00  0.00    -0.162 C  
ENDROOT
BRANCH   3   4
HETATM    4  C   UNL     2     -10.570   5.780  70.813  1.00  0.00    -0.337 C  
BRANCH   4   5
HETATM    5  C   UNL     2     -11.743   6.672  70.400  1.00  0.00    -0.446 C  
BRANCH   5   6
HETATM    6  C   UNL     2     -12.696   6.981  71.562  1.00  0.00    -0.425 C  
BRANCH   6   7
HETATM    7  C   UNL     2     -12.320   8.275  72.284  1.00  0.00    -0.410 C  
BRANCH   7   8
HETATM    8  C   UNL     2     -13.457   9.294  72.312  1.00  0.00    -0.548 C  
BRANCH   8   9
HETATM    9  C   UNL     2     -13.022  10.654  71.746  1.00  0.00    -0.577 C  
BRANCH   9  10
HETATM   10  C   UNL     2     -11.753  10.620  70.884  1.00  0.00    -0.387 C  
BRANCH  10  11
HETATM   11  C   UNL     2     -12.011  11.023  69.430  1.00  0.00    -0.408 C  
BRANCH  11  12
HETATM   12  C   UNL     2     -10.728  11.271  68.627  1.00  0.00    -0.241 C  
BRANCH  12  13
HETATM   13  C   UNL     2      -9.776  10.072  68.594  1.00  0.00    -0.159 C  
BRANCH  13  14
HETATM   14  O   UNL     2     -10.501   8.923  68.192  1.00  0.00    -0.219 OA 
HETATM   15  S   UNL     2      -9.937   8.065  66.930  1.00  0.00    -0.289 S  
HETATM   16  O   UNL     2     -10.877   6.942  66.849  1.00  0.00    -0.351 OA 
HETATM   17  O   UNL     2      -8.595   7.667  67.337  1.00  0.00    -0.124 OA 
HETATM   18  O   UNL     2     -10.001   8.986  65.810  1.00  0.00    -0.241 OA 
ENDBRANCH  13  14
ENDBRANCH  12  13
ENDBRANCH  11  12
ENDBRANCH  10  11
ENDBRANCH   9  10
ENDBRANCH   8   9
ENDBRANCH   7   8
ENDBRANCH   6   7
ENDBRANCH   5   6
ENDBRANCH   4   5
ENDBRANCH   3   4
TORSDOF 11
ENDMDL
MODEL      195
REMARK 921   NORMALIZED FREE ENERGY PREDICTED BY IDOCK:   -3.38 KCAL/MOL
REMARK 922        TOTAL FREE ENERGY PREDICTED BY IDOCK:   -7.00 KCAL/MOL
REMARK 923 INTER-LIGAND FREE ENERGY PREDICTED BY IDOCK:   -5.52 KCAL/MOL
REMARK 924 INTRA-LIGAND FREE ENERGY PREDICTED BY IDOCK:   -1.47 KCAL/MOL
REMARK 927      BINDING AFFINITY PREDICTED BY RF-SCORE:    0.00 PKD
ROOT
HETATM    1 NA   UNL     1     -13.383  10.384  69.502  1.00  0.00    -0.564 Na 
HETATM    2  C   UNL     2     -11.952  12.644  63.278  1.00  0.00    -0.526 C  
HETATM    3  C   UNL     2     -12.620  12.536  64.639  1.00  0.00    -0.507 C  
ENDROOT
BRANCH   3   4
HETATM    4  C   UNL     2     -11.835  13.317  65.689  1.00  0.00    -0.419 C  
BRANCH   4   5
HETATM    5  C   UNL     2     -10.690  14.120  65.068  1.00  0.00    -0.429 C  
BRANCH   5   6
HETATM    6  C   UNL     2     -10.998  15.620  64.969  1.00  0.00    -0.445 C  
BRANCH   6   7
HETATM    7  C   UNL     2     -10.230  16.434  66.010  1.00  0.00    -0.373 C  
BRANCH   7   8
HETATM    8  C   UNL     2      -8.808  15.925  66.235  1.00  0.00    -0.386 C  
BRANCH   8   9
HETATM    9  C   UNL     2      -8.452  15.858  67.727  1.00  0.00    -0.165 C  
BRANCH   9  10
HETATM   10  C   UNL     2      -7.217  15.011  68.060  1.00  0.00    -0.140 C  
BRANCH  10  11
HETATM   11  C   UNL     2      -7.572  13.584  68.487  1.00  0.00    -0.129 C  
BRANCH  11  12
HETATM   12  C   UNL     2      -7.483  12.563  67.346  1.00  0.00    -0.153 C  
BRANCH  12  13
HETATM   13  C   UNL     2      -8.728  11.683  67.203  1.00  0.00    -0.164 C  
BRANCH  13  14
HETATM   14  O   UNL     2      -9.743  12.183  68.056  1.00  0.00    -0.191 OA 
HETATM   15  S   UNL     2     -10.569  11.119  68.969  1.00  0.00    -0.205 S  
HETATM   16  O   UNL     2     -11.464  11.980  69.749  1.00  0.00    -0.271 OA 
HETATM   17  O   UNL     2      -9.545  10.467  69.775  1.00  0.00    -0.165 OA 
HETATM   18  O   UNL     2     -11.243  10.266  68.007  1.00  0.00    -0.293 OA 
ENDBRANCH  13  14
ENDBRANCH  12  13
ENDBRANCH  11  12
ENDBRANCH  10  11
ENDBRANCH   9  10
ENDBRANCH   8   9
ENDBRANCH   7   8
ENDBRANCH   6   7
ENDBRANCH   5   6
ENDBRANCH   4   5
ENDBRANCH   3   4
TORSDOF 11
ENDMDL
MODEL      196
REMARK 921   NORMALIZED FREE ENERGY PREDICTED BY IDOCK:   -3.38 KCAL/MOL
REMARK 922        TOTAL FREE ENERGY PREDICTED BY IDOCK:   -7.00 KCAL/MOL
REMARK 923 INTER-LIGAND FREE ENERGY PREDICTED BY IDOCK:   -5.81 KCAL/MOL
REMARK 924 INTRA-LIGAND FREE ENERGY PREDICTED BY IDOCK:   -1.19 KCAL/MOL
REMARK 927      BINDING AFFINITY PREDICTED BY RF-SCORE:    0.00 PKD
ROOT
HETATM    1 NA   UNL     1      -7.957  18.763  68.352  1.00  0.00    -0.254 Na 
HETATM    2  C   UNL     2     -12.040  13.606  69.974  1.00  0.00    -0.417 C  
HETATM    3  C   UNL     2     -11.563  15.031  69.739  1.00  0.00    -0.336 C  
ENDROOT
BRANCH   3   4
HETATM    4  C   UNL     2     -11.755  15.431  68.279  1.00  0.00    -0.313 C  
BRANCH   4   5
HETATM    5  C   UNL     2     -12.136  14.235  67.403  1.00  0.00    -0.371 C  
BRANCH   5   6
HETATM    6  C   UNL     2     -11.599  14.350  65.971  1.00  0.00    -0.364 C  
BRANCH   6   7
HETATM    7  C   UNL     2     -10.743  13.146  65.580  1.00  0.00    -0.297 C  
BRANCH   7   8
HETATM    8  C   UNL     2      -9.711  12.777  66.643  1.00  0.00    -0.252 C  
BRANCH   8   9
HETATM    9  C   UNL     2      -9.672  11.263  66.902  1.00  0.00    -0.215 C  
BRANCH   9  10
HETATM   10  C   UNL     2     -11.003  10.651  67.358  1.00  0.00    -0.361 C  
BRANCH  10  11
HETATM   11  C   UNL     2     -11.040  10.359  68.861  1.00  0.00    -0.296 C  
BRANCH  11  12
HETATM   12  C   UNL     2     -10.066   9.256  69.294  1.00  0.00    -0.201 C  
BRANCH  12  13
HETATM   13  C   UNL     2     -10.016   9.033  70.808  1.00  0.00    -0.245 C  
BRANCH  13  14
HETATM   14  O   UNL     2     -11.269   9.392  71.366  1.00  0.00    -0.330 OA 
HETATM   15  S   UNL     2     -12.142   8.229  72.097  1.00  0.00    -0.386 S  
HETATM   16  O   UNL     2     -13.309   8.961  72.599  1.00  0.00    -0.433 OA 
HETATM   17  O   UNL     2     -11.269   7.736  73.156  1.00  0.00    -0.402 OA 
HETATM   18  O   UNL     2     -12.435   7.279  71.039  1.00  0.00    -0.334 OA 
ENDBRANCH  13  14
ENDBRANCH  12  13
ENDBRANCH  11  12
ENDBRANCH  10  11
ENDBRANCH   9  10
ENDBRANCH   8   9
ENDBRANCH   7   8
ENDBRANCH   6   7
ENDBRANCH   5   6
ENDBRANCH   4   5
ENDBRANCH   3   4
TORSDOF 11
ENDMDL
MODEL      197
REMARK 921   NORMALIZED FREE ENERGY PREDICTED BY IDOCK:   -3.38 KCAL/MOL
REMARK 922        TOTAL FREE ENERGY PREDICTED BY IDOCK:   -6.98 KCAL/MOL
REMARK 923 INTER-LIGAND FREE ENERGY PREDICTED BY IDOCK:   -5.91 KCAL/MOL
REMARK 924 INTRA-LIGAND FREE ENERGY PREDICTED BY IDOCK:   -1.07 KCAL/MOL
REMARK 927      BINDING AFFINITY PREDICTED BY RF-SCORE:    0.00 PKD
ROOT
HETATM    1 NA   UNL     1     -11.136  12.988  70.346  1.00  0.00    -0.473 Na 
HETATM    2  C   UNL     2     -10.390  18.152  66.025  1.00  0.00    -0.360 C  
HETATM    3  C   UNL     2     -10.179  17.268  67.244  1.00  0.00    -0.320 C  
ENDROOT
BRANCH   3   4
HETATM    4  C   UNL     2      -9.172  16.162  66.940  1.00  0.00    -0.246 C  
BRANCH   4   5
HETATM    5  C   UNL     2      -9.801  14.771  67.041  1.00  0.00    -0.240 C  
BRANCH   5   6
HETATM    6  C   UNL     2     -11.168  14.783  67.738  1.00  0.00    -0.323 C  
BRANCH   6   7
HETATM    7  C   UNL     2     -12.134  13.771  67.125  1.00  0.00    -0.416 C  
BRANCH   7   8
HETATM    8  C   UNL     2     -12.485  14.084  65.673  1.00  0.00    -0.531 C  
BRANCH   8   9
HETATM    9  C   UNL     2     -12.685  12.808  64.843  1.00  0.00    -0.479 C  
BRANCH   9  10
HETATM   10  C   UNL     2     -11.922  12.776  63.512  1.00  0.00    -0.633 C  
BRANCH  10  11
HETATM   11  C   UNL     2     -10.821  11.712  63.483  1.00  0.00    -0.497 C  
BRANCH  11  12
HETATM   12  C   UNL     2     -10.609  11.014  64.832  1.00  0.00    -0.328 C  
BRANCH  12  13
HETATM   13  C   UNL     2      -9.715   9.774  64.755  1.00  0.00    -0.143 C  
BRANCH  13  14
HETATM   14  O   UNL     2      -9.054   9.607  65.997  1.00  0.00    -0.152 OA 
HETATM   15  S   UNL     2      -9.369   8.263  66.858  1.00  0.00    -0.190 S  
HETATM   16  O   UNL     2      -8.480   8.397  68.016  1.00  0.00    -0.129 OA 
HETATM   17  O   UNL     2      -8.999   7.170  65.968  1.00  0.00    -0.161 OA 
HETATM   18  O   UNL     2     -10.784   8.360  67.171  1.00  0.00    -0.291 OA 
ENDBRANCH  13  14
ENDBRANCH  12  13
ENDBRANCH  11  12
ENDBRANCH  10  11
ENDBRANCH   9  10
ENDBRANCH   8   9
ENDBRANCH   7   8
ENDBRANCH   6   7
ENDBRANCH   5   6
ENDBRANCH   4   5
ENDBRANCH   3   4
TORSDOF 11
ENDMDL
MODEL      198
REMARK 921   NORMALIZED FREE ENERGY PREDICTED BY IDOCK:   -3.37 KCAL/MOL
REMARK 922        TOTAL FREE ENERGY PREDICTED BY IDOCK:   -6.97 KCAL/MOL
REMARK 923 INTER-LIGAND FREE ENERGY PREDICTED BY IDOCK:   -6.37 KCAL/MOL
REMARK 924 INTRA-LIGAND FREE ENERGY PREDICTED BY IDOCK:   -0.59 KCAL/MOL
REMARK 927      BINDING AFFINITY PREDICTED BY RF-SCORE:    0.00 PKD
ROOT
HETATM    1 NA   UNL     1     -12.581  11.032  62.423  1.00  0.00    -0.915 Na 
HETATM    2  C   UNL     2     -11.462  14.848  67.908  1.00  0.00    -0.357 C  
HETATM    3  C   UNL     2     -12.143  13.870  66.963  1.00  0.00    -0.451 C  
ENDROOT
BRANCH   3   4
HETATM    4  C   UNL     2     -11.608  12.457  67.173  1.00  0.00    -0.435 C  
BRANCH   4   5
HETATM    5  C   UNL     2     -11.274  12.182  68.641  1.00  0.00    -0.318 C  
BRANCH   5   6
HETATM    6  C   UNL     2     -11.851  10.853  69.145  1.00  0.00    -0.389 C  
BRANCH   6   7
HETATM    7  C   UNL     2     -12.430  10.976  70.554  1.00  0.00    -0.432 C  
BRANCH   7   8
HETATM    8  C   UNL     2     -12.918   9.643  71.118  1.00  0.00    -0.389 C  
BRANCH   8   9
HETATM    9  C   UNL     2     -12.075   9.185  72.317  1.00  0.00    -0.311 C  
BRANCH   9  10
HETATM   10  C   UNL     2     -11.648   7.711  72.281  1.00  0.00    -0.370 C  
BRANCH  10  11
HETATM   11  C   UNL     2     -12.275   6.938  71.118  1.00  0.00    -0.428 C  
BRANCH  11  12
HETATM   12  C   UNL     2     -11.262   6.116  70.313  1.00  0.00    -0.439 C  
BRANCH  12  13
HETATM   13  C   UNL     2     -10.538   6.916  69.226  1.00  0.00    -0.226 C  
BRANCH  13  14
HETATM   14  O   UNL     2     -10.980   6.468  67.956  1.00  0.00    -0.279 OA 
HETATM   15  S   UNL     2     -10.052   5.398  67.156  1.00  0.00    -0.219 S  
HETATM   16  O   UNL     2     -10.837   5.120  65.949  1.00  0.00    -0.208 OA 
HETATM   17  O   UNL     2      -9.957   4.258  68.060  1.00  0.00    -0.091 OA 
HETATM   18  O   UNL     2      -8.809   6.108  66.916  1.00  0.00    -0.115 OA 
ENDBRANCH  13  14
ENDBRANCH  12  13
ENDBRANCH  11  12
ENDBRANCH  10  11
ENDBRANCH   9  10
ENDBRANCH   8   9
ENDBRANCH   7   8
ENDBRANCH   6   7
ENDBRANCH   5   6
ENDBRANCH   4   5
ENDBRANCH   3   4
TORSDOF 11
ENDMDL
MODEL      199
REMARK 921   NORMALIZED FREE ENERGY PREDICTED BY IDOCK:   -3.36 KCAL/MOL
REMARK 922        TOTAL FREE ENERGY PREDICTED BY IDOCK:   -6.96 KCAL/MOL
REMARK 923 INTER-LIGAND FREE ENERGY PREDICTED BY IDOCK:   -5.98 KCAL/MOL
REMARK 924 INTRA-LIGAND FREE ENERGY PREDICTED BY IDOCK:   -0.98 KCAL/MOL
REMARK 927      BINDING AFFINITY PREDICTED BY RF-SCORE:    0.00 PKD
ROOT
HETATM    1 NA   UNL     1     -11.162   3.741  65.462  1.00  0.00    -0.448 Na 
HETATM    2  C   UNL     2      -9.887   3.836  72.115  1.00  0.00    -0.238 C  
HETATM    3  C   UNL     2      -9.653   3.711  70.617  1.00  0.00    -0.254 C  
ENDROOT
BRANCH   3   4
HETATM    4  C   UNL     2      -9.382   5.079  69.997  1.00  0.00    -0.208 C  
BRANCH   4   5
HETATM    5  C   UNL     2     -10.488   5.498  69.026  1.00  0.00    -0.296 C  
BRANCH   5   6
HETATM    6  C   UNL     2     -11.115   6.852  69.385  1.00  0.00    -0.249 C  
BRANCH   6   7
HETATM    7  C   UNL     2     -11.829   6.815  70.735  1.00  0.00    -0.446 C  
BRANCH   7   8
HETATM    8  C   UNL     2     -11.607   8.079  71.563  1.00  0.00    -0.313 C  
BRANCH   8   9
HETATM    9  C   UNL     2     -12.541   9.218  71.131  1.00  0.00    -0.324 C  
BRANCH   9  10
HETATM   10  C   UNL     2     -11.843  10.556  70.852  1.00  0.00    -0.455 C  
BRANCH  10  11
HETATM   11  C   UNL     2     -11.865  10.942  69.371  1.00  0.00    -0.400 C  
BRANCH  11  12
HETATM   12  C   UNL     2     -10.599  10.529  68.612  1.00  0.00    -0.226 C  
BRANCH  12  13
HETATM   13  C   UNL     2     -10.791  10.423  67.096  1.00  0.00    -0.238 C  
BRANCH  13  14
HETATM   14  O   UNL     2     -10.303  11.606  66.489  1.00  0.00    -0.213 OA 
HETATM   15  S   UNL     2     -11.025  12.119  65.123  1.00  0.00    -0.320 S  
HETATM   16  O   UNL     2     -10.321  13.371  64.829  1.00  0.00    -0.378 OA 
HETATM   17  O   UNL     2     -12.419  12.315  65.505  1.00  0.00    -0.597 OA 
HETATM   18  O   UNL     2     -10.786  11.054  64.167  1.00  0.00    -0.378 OA 
ENDBRANCH  13  14
ENDBRANCH  12  13
ENDBRANCH  11  12
ENDBRANCH  10  11
ENDBRANCH   9  10
ENDBRANCH   8   9
ENDBRANCH   7   8
ENDBRANCH   6   7
ENDBRANCH   5   6
ENDBRANCH   4   5
ENDBRANCH   3   4
TORSDOF 11
ENDMDL
MODEL      200
REMARK 921   NORMALIZED FREE ENERGY PREDICTED BY IDOCK:   -3.36 KCAL/MOL
REMARK 922        TOTAL FREE ENERGY PREDICTED BY IDOCK:   -6.96 KCAL/MOL
REMARK 923 INTER-LIGAND FREE ENERGY PREDICTED BY IDOCK:   -5.93 KCAL/MOL
REMARK 924 INTRA-LIGAND FREE ENERGY PREDICTED BY IDOCK:   -1.03 KCAL/MOL
REMARK 927      BINDING AFFINITY PREDICTED BY RF-SCORE:    0.00 PKD
ROOT
HETATM    1 NA   UNL     1     -11.821  10.738  63.382  1.00  0.00    -0.575 Na 
HETATM    2  C   UNL     2     -10.760   5.818  67.916  1.00  0.00    -0.295 C  
HETATM    3  C   UNL     2     -10.502   6.784  66.769  1.00  0.00    -0.298 C  
ENDROOT
BRANCH   3   4
HETATM    4  C   UNL     2      -9.988   8.121  67.296  1.00  0.00    -0.283 C  
BRANCH   4   5
HETATM    5  C   UNL     2      -9.435   8.002  68.718  1.00  0.00    -0.147 C  
BRANCH   5   6
HETATM    6  C   UNL     2      -9.649   9.274  69.549  1.00  0.00    -0.178 C  
BRANCH   6   7
HETATM    7  C   UNL     2      -8.601  10.343  69.243  1.00  0.00    -0.159 C  
BRANCH   7   8
HETATM    8  C   UNL     2      -9.164  11.522  68.452  1.00  0.00    -0.190 C  
BRANCH   8   9
HETATM    9  C   UNL     2      -8.069  12.522  68.055  1.00  0.00    -0.164 C  
BRANCH   9  10
HETATM   10  C   UNL     2      -8.553  13.713  67.218  1.00  0.00    -0.220 C  
BRANCH  10  11
HETATM   11  C   UNL     2      -9.180  14.822  68.068  1.00  0.00    -0.194 C  
BRANCH  11  12
HETATM   12  C   UNL     2     -10.478  15.386  67.477  1.00  0.00    -0.275 C  
BRANCH  12  13
HETATM   13  C   UNL     2     -11.482  14.313  67.049  1.00  0.00    -0.361 C  
BRANCH  13  14
HETATM   14  O   UNL     2     -12.011  14.661  65.781  1.00  0.00    -0.326 OA 
HETATM   15  S   UNL     2     -11.871  13.581  64.571  1.00  0.00    -0.425 S  
HETATM   16  O   UNL     2     -12.571  14.236  63.462  1.00  0.00    -0.814 OA 
HETATM   17  O   UNL     2     -12.556  12.394  65.068  1.00  0.00    -0.601 OA 
HETATM   18  O   UNL     2     -10.439  13.439  64.379  1.00  0.00    -0.426 OA 
ENDBRANCH  13  14
ENDBRANCH  12  13
ENDBRANCH  11  12
ENDBRANCH  10  11
ENDBRANCH   9  10
ENDBRANCH   8   9
ENDBRANCH   7   8
ENDBRANCH   6   7
ENDBRANCH   5   6
ENDBRANCH   4   5
ENDBRANCH   3   4
TORSDOF 11
ENDMDL
MODEL      201
REMARK 921   NORMALIZED FREE ENERGY PREDICTED BY IDOCK:   -3.35 KCAL/MOL
REMARK 922        TOTAL FREE ENERGY PREDICTED BY IDOCK:   -6.94 KCAL/MOL
REMARK 923 INTER-LIGAND FREE ENERGY PREDICTED BY IDOCK:   -6.13 KCAL/MOL
REMARK 924 INTRA-LIGAND FREE ENERGY PREDICTED BY IDOCK:   -0.81 KCAL/MOL
REMARK 927      BINDING AFFINITY PREDICTED BY RF-SCORE:    0.00 PKD
ROOT
HETATM    1 NA   UNL     1     -12.231   6.626  66.685  1.00  0.00    -0.597 Na 
HETATM    2  C   UNL     2     -12.607  11.561  71.312  1.00  0.00    -0.452 C  
HETATM    3  C   UNL     2     -12.009  10.578  70.317  1.00  0.00    -0.411 C  
ENDROOT
BRANCH   3   4
HETATM    4  C   UNL     2     -12.027  11.160  68.907  1.00  0.00    -0.367 C  
BRANCH   4   5
HETATM    5  C   UNL     2     -11.121  10.379  67.953  1.00  0.00    -0.363 C  
BRANCH   5   6
HETATM    6  C   UNL     2     -10.558  11.247  66.819  1.00  0.00    -0.305 C  
BRANCH   6   7
HETATM    7  C   UNL     2      -9.040  11.119  66.697  1.00  0.00    -0.180 C  
BRANCH   7   8
HETATM    8  C   UNL     2      -8.291  12.302  67.305  1.00  0.00    -0.182 C  
BRANCH   8   9
HETATM    9  C   UNL     2      -9.248  13.404  67.782  1.00  0.00    -0.211 C  
BRANCH   9  10
HETATM   10  C   UNL     2      -8.564  14.688  68.271  1.00  0.00    -0.167 C  
BRANCH  10  11
HETATM   11  C   UNL     2      -8.410  15.737  67.167  1.00  0.00    -0.231 C  
BRANCH  11  12
HETATM   12  C   UNL     2      -9.419  15.576  66.024  1.00  0.00    -0.387 C  
BRANCH  12  13
HETATM   13  C   UNL     2     -10.282  16.817  65.779  1.00  0.00    -0.291 C  
BRANCH  13  14
HETATM   14  O   UNL     2     -10.142  17.697  66.881  1.00  0.00    -0.305 OA 
HETATM   15  S   UNL     2      -9.793  19.256  66.575  1.00  0.00    -0.400 S  
HETATM   16  O   UNL     2      -9.793  19.862  67.910  1.00  0.00    -0.364 OA 
HETATM   17  O   UNL     2     -10.893  19.712  65.734  1.00  0.00    -0.468 OA 
HETATM   18  O   UNL     2      -8.493  19.215  65.931  1.00  0.00    -0.453 OA 
ENDBRANCH  13  14
ENDBRANCH  12  13
ENDBRANCH  11  12
ENDBRANCH  10  11
ENDBRANCH   9  10
ENDBRANCH   8   9
ENDBRANCH   7   8
ENDBRANCH   6   7
ENDBRANCH   5   6
ENDBRANCH   4   5
ENDBRANCH   3   4
TORSDOF 11
ENDMDL
MODEL      202
REMARK 921   NORMALIZED FREE ENERGY PREDICTED BY IDOCK:   -3.35 KCAL/MOL
REMARK 922        TOTAL FREE ENERGY PREDICTED BY IDOCK:   -6.94 KCAL/MOL
REMARK 923 INTER-LIGAND FREE ENERGY PREDICTED BY IDOCK:   -5.56 KCAL/MOL
REMARK 924 INTRA-LIGAND FREE ENERGY PREDICTED BY IDOCK:   -1.38 KCAL/MOL
REMARK 927      BINDING AFFINITY PREDICTED BY RF-SCORE:    0.00 PKD
ROOT
HETATM    1 NA   UNL     1     -14.332  15.923  70.097  1.00  0.00    -0.820 Na 
HETATM    2  C   UNL     2     -12.527  12.677  64.431  1.00  0.00    -0.509 C  
HETATM    3  C   UNL     2     -12.552  13.732  65.526  1.00  0.00    -0.551 C  
ENDROOT
BRANCH   3   4
HETATM    4  C   UNL     2     -11.656  13.321  66.691  1.00  0.00    -0.408 C  
BRANCH   4   5
HETATM    5  C   UNL     2     -11.494  11.802  66.782  1.00  0.00    -0.352 C  
BRANCH   5   6
HETATM    6  C   UNL     2     -10.028  11.363  66.893  1.00  0.00    -0.235 C  
BRANCH   6   7
HETATM    7  C   UNL     2      -9.066  12.546  66.800  1.00  0.00    -0.214 C  
BRANCH   7   8
HETATM    8  C   UNL     2      -7.755  12.310  67.547  1.00  0.00    -0.158 C  
BRANCH   8   9
HETATM    9  C   UNL     2      -6.934  13.600  67.686  1.00  0.00    -0.183 C  
BRANCH   9  10
HETATM   10  C   UNL     2      -6.408  13.883  69.100  1.00  0.00    -0.107 C  
BRANCH  10  11
HETATM   11  C   UNL     2      -7.071  15.100  69.749  1.00  0.00    -0.169 C  
BRANCH  11  12
HETATM   12  C   UNL     2      -7.823  15.992  68.753  1.00  0.00    -0.190 C  
BRANCH  12  13
HETATM   13  C   UNL     2      -9.280  16.261  69.138  1.00  0.00    -0.235 C  
BRANCH  13  14
HETATM   14  O   UNL     2      -9.915  15.026  69.418  1.00  0.00    -0.220 OA 
HETATM   15  S   UNL     2     -11.400  15.063  70.082  1.00  0.00    -0.276 S  
HETATM   16  O   UNL     2     -11.760  13.644  70.164  1.00  0.00    -0.276 OA 
HETATM   17  O   UNL     2     -12.205  15.809  69.123  1.00  0.00    -0.293 OA 
HETATM   18  O   UNL     2     -11.204  15.709  71.368  1.00  0.00    -0.370 OA 
ENDBRANCH  13  14
ENDBRANCH  12  13
ENDBRANCH  11  12
ENDBRANCH  10  11
ENDBRANCH   9  10
ENDBRANCH   8   9
ENDBRANCH   7   8
ENDBRANCH   6   7
ENDBRANCH   5   6
ENDBRANCH   4   5
ENDBRANCH   3   4
TORSDOF 11
ENDMDL
MODEL      203
REMARK 921   NORMALIZED FREE ENERGY PREDICTED BY IDOCK:   -3.35 KCAL/MOL
REMARK 922        TOTAL FREE ENERGY PREDICTED BY IDOCK:   -6.94 KCAL/MOL
REMARK 923 INTER-LIGAND FREE ENERGY PREDICTED BY IDOCK:   -6.21 KCAL/MOL
REMARK 924 INTRA-LIGAND FREE ENERGY PREDICTED BY IDOCK:   -0.73 KCAL/MOL
REMARK 927      BINDING AFFINITY PREDICTED BY RF-SCORE:    0.00 PKD
ROOT
HETATM    1 NA   UNL     1     -13.606  10.157  69.450  1.00  0.00    -0.544 Na 
HETATM    2  C   UNL     2     -12.278  12.970  63.431  1.00  0.00    -0.552 C  
HETATM    3  C   UNL     2     -12.533  12.847  64.926  1.00  0.00    -0.540 C  
ENDROOT
BRANCH   3   4
HETATM    4  C   UNL     2     -11.239  12.533  65.670  1.00  0.00    -0.352 C  
BRANCH   4   5
HETATM    5  C   UNL     2     -11.444  12.499  67.187  1.00  0.00    -0.414 C  
BRANCH   5   6
HETATM    6  C   UNL     2     -11.311  11.088  67.775  1.00  0.00    -0.365 C  
BRANCH   6   7
HETATM    7  C   UNL     2     -10.547  11.088  69.098  1.00  0.00    -0.253 C  
BRANCH   7   8
HETATM    8  C   UNL     2     -10.210   9.682  69.592  1.00  0.00    -0.239 C  
BRANCH   8   9
HETATM    9  C   UNL     2     -10.340   9.564  71.118  1.00  0.00    -0.330 C  
BRANCH   9  10
HETATM   10  C   UNL     2     -11.782   9.526  71.643  1.00  0.00    -0.460 C  
BRANCH  10  11
HETATM   11  C   UNL     2     -12.061   8.307  72.526  1.00  0.00    -0.400 C  
BRANCH  11  12
HETATM   12  C   UNL     2     -12.568   7.089  71.745  1.00  0.00    -0.388 C  
BRANCH  12  13
HETATM   13  C   UNL     2     -11.459   6.136  71.294  1.00  0.00    -0.247 C  
BRANCH  13  14
HETATM   14  O   UNL     2     -11.480   6.044  69.880  1.00  0.00    -0.388 OA 
HETATM   15  S   UNL     2     -10.171   5.431  69.133  1.00  0.00    -0.224 S  
HETATM   16  O   UNL     2     -10.569   5.427  67.721  1.00  0.00    -0.181 OA 
HETATM   17  O   UNL     2     -10.028   4.094  69.697  1.00  0.00    -0.195 OA 
HETATM   18  O   UNL     2      -9.103   6.361  69.455  1.00  0.00    -0.139 OA 
ENDBRANCH  13  14
ENDBRANCH  12  13
ENDBRANCH  11  12
ENDBRANCH  10  11
ENDBRANCH   9  10
ENDBRANCH   8   9
ENDBRANCH   7   8
ENDBRANCH   6   7
ENDBRANCH   5   6
ENDBRANCH   4   5
ENDBRANCH   3   4
TORSDOF 11
ENDMDL
MODEL      204
REMARK 921   NORMALIZED FREE ENERGY PREDICTED BY IDOCK:   -3.33 KCAL/MOL
REMARK 922        TOTAL FREE ENERGY PREDICTED BY IDOCK:   -6.91 KCAL/MOL
REMARK 923 INTER-LIGAND FREE ENERGY PREDICTED BY IDOCK:   -6.50 KCAL/MOL
REMARK 924 INTRA-LIGAND FREE ENERGY PREDICTED BY IDOCK:   -0.42 KCAL/MOL
REMARK 927      BINDING AFFINITY PREDICTED BY RF-SCORE:    0.00 PKD
ROOT
HETATM    1 NA   UNL     1     -14.233   9.314  73.536  1.00  0.00    -0.643 Na 
HETATM    2  C   UNL     2      -9.579   5.441  70.497  1.00  0.00    -0.232 C  
HETATM    3  C   UNL     2     -10.923   6.084  70.805  1.00  0.00    -0.364 C  
ENDROOT
BRANCH   3   4
HETATM    4  C   UNL     2     -11.054   7.426  70.091  1.00  0.00    -0.265 C  
BRANCH   4   5
HETATM    5  C   UNL     2     -11.642   8.505  71.004  1.00  0.00    -0.317 C  
BRANCH   5   6
HETATM    6  C   UNL     2     -10.958   9.868  70.834  1.00  0.00    -0.392 C  
BRANCH   6   7
HETATM    7  C   UNL     2     -11.945  10.958  70.421  1.00  0.00    -0.453 C  
BRANCH   7   8
HETATM    8  C   UNL     2     -11.882  11.288  68.931  1.00  0.00    -0.413 C  
BRANCH   8   9
HETATM    9  C   UNL     2     -11.501  12.755  68.684  1.00  0.00    -0.341 C  
BRANCH   9  10
HETATM   10  C   UNL     2     -11.943  13.317  67.326  1.00  0.00    -0.393 C  
BRANCH  10  11
HETATM   11  C   UNL     2     -10.853  13.212  66.256  1.00  0.00    -0.292 C  
BRANCH  11  12
HETATM   12  C   UNL     2     -10.526  14.550  65.581  1.00  0.00    -0.351 C  
BRANCH  12  13
HETATM   13  C   UNL     2      -9.676  15.487  66.443  1.00  0.00    -0.283 C  
BRANCH  13  14
HETATM   14  O   UNL     2     -10.340  16.733  66.558  1.00  0.00    -0.304 OA 
HETATM   15  S   UNL     2      -9.451  18.044  66.929  1.00  0.00    -0.299 S  
HETATM   16  O   UNL     2     -10.434  19.130  66.895  1.00  0.00    -0.384 OA 
HETATM   17  O   UNL     2      -8.464  18.123  65.858  1.00  0.00    -0.509 OA 
HETATM   18  O   UNL     2      -8.916  17.755  68.248  1.00  0.00    -0.263 OA 
ENDBRANCH  13  14
ENDBRANCH  12  13
ENDBRANCH  11  12
ENDBRANCH  10  11
ENDBRANCH   9  10
ENDBRANCH   8   9
ENDBRANCH   7   8
ENDBRANCH   6   7
ENDBRANCH   5   6
ENDBRANCH   4   5
ENDBRANCH   3   4
TORSDOF 11
ENDMDL
MODEL      205
REMARK 921   NORMALIZED FREE ENERGY PREDICTED BY IDOCK:   -3.33 KCAL/MOL
REMARK 922        TOTAL FREE ENERGY PREDICTED BY IDOCK:   -6.91 KCAL/MOL
REMARK 923 INTER-LIGAND FREE ENERGY PREDICTED BY IDOCK:   -6.04 KCAL/MOL
REMARK 924 INTRA-LIGAND FREE ENERGY PREDICTED BY IDOCK:   -0.87 KCAL/MOL
REMARK 927      BINDING AFFINITY PREDICTED BY RF-SCORE:    0.00 PKD
ROOT
HETATM    1 NA   UNL     1     -12.783  12.869  70.245  1.00  0.00    -0.285 Na 
HETATM    2  C   UNL     2     -12.132  12.496  63.512  1.00  0.00    -0.653 C  
HETATM    3  C   UNL     2     -12.773  12.704  64.876  1.00  0.00    -0.450 C  
ENDROOT
BRANCH   3   4
HETATM    4  C   UNL     2     -12.561  14.136  65.358  1.00  0.00    -0.485 C  
BRANCH   4   5
HETATM    5  C   UNL     2     -12.086  14.186  66.812  1.00  0.00    -0.474 C  
BRANCH   5   6
HETATM    6  C   UNL     2     -10.706  13.545  67.011  1.00  0.00    -0.278 C  
BRANCH   6   7
HETATM    7  C   UNL     2     -10.673  12.618  68.225  1.00  0.00    -0.248 C  
BRANCH   7   8
HETATM    8  C   UNL     2     -11.509  11.355  68.035  1.00  0.00    -0.377 C  
BRANCH   8   9
HETATM    9  C   UNL     2     -10.776  10.101  68.535  1.00  0.00    -0.264 C  
BRANCH   9  10
HETATM   10  C   UNL     2     -10.509  10.069  70.046  1.00  0.00    -0.337 C  
BRANCH  10  11
HETATM   11  C   UNL     2     -11.794  10.098  70.878  1.00  0.00    -0.468 C  
BRANCH  11  12
HETATM   12  C   UNL     2     -11.890   8.956  71.897  1.00  0.00    -0.440 C  
BRANCH  12  13
HETATM   13  C   UNL     2     -10.553   8.271  72.188  1.00  0.00    -0.310 C  
BRANCH  13  14
HETATM   14  O   UNL     2     -10.721   6.868  72.070  1.00  0.00    -0.212 OA 
HETATM   15  S   UNL     2     -10.199   6.146  70.709  1.00  0.00    -0.206 S  
HETATM   16  O   UNL     2     -10.468   4.728  70.964  1.00  0.00    -0.162 OA 
HETATM   17  O   UNL     2      -8.777   6.465  70.655  1.00  0.00    -0.141 OA 
HETATM   18  O   UNL     2     -11.009   6.733  69.656  1.00  0.00    -0.253 OA 
ENDBRANCH  13  14
ENDBRANCH  12  13
ENDBRANCH  11  12
ENDBRANCH  10  11
ENDBRANCH   9  10
ENDBRANCH   8   9
ENDBRANCH   7   8
ENDBRANCH   6   7
ENDBRANCH   5   6
ENDBRANCH   4   5
ENDBRANCH   3   4
TORSDOF 11
ENDMDL
MODEL      206
REMARK 921   NORMALIZED FREE ENERGY PREDICTED BY IDOCK:   -3.33 KCAL/MOL
REMARK 922        TOTAL FREE ENERGY PREDICTED BY IDOCK:   -6.91 KCAL/MOL
REMARK 923 INTER-LIGAND FREE ENERGY PREDICTED BY IDOCK:   -5.14 KCAL/MOL
REMARK 924 INTRA-LIGAND FREE ENERGY PREDICTED BY IDOCK:   -1.77 KCAL/MOL
REMARK 927      BINDING AFFINITY PREDICTED BY RF-SCORE:    0.00 PKD
ROOT
HETATM    1 NA   UNL     1     -11.995   6.253  66.555  1.00  0.00    -0.577 Na 
HETATM    2  C   UNL     2     -11.029   5.253  73.186  1.00  0.00    -0.362 C  
HETATM    3  C   UNL     2     -10.944   5.900  71.811  1.00  0.00    -0.327 C  
ENDROOT
BRANCH   3   4
HETATM    4  C   UNL     2     -12.138   6.821  71.574  1.00  0.00    -0.410 C  
BRANCH   4   5
HETATM    5  C   UNL     2     -12.005   8.139  72.340  1.00  0.00    -0.431 C  
BRANCH   5   6
HETATM    6  C   UNL     2     -13.247   9.030  72.214  1.00  0.00    -0.519 C  
BRANCH   6   7
HETATM    7  C   UNL     2     -13.101  10.066  71.100  1.00  0.00    -0.472 C  
BRANCH   7   8
HETATM    8  C   UNL     2     -11.648  10.454  70.834  1.00  0.00    -0.428 C  
BRANCH   8   9
HETATM    9  C   UNL     2     -11.350  10.564  69.331  1.00  0.00    -0.331 C  
BRANCH   9  10
HETATM   10  C   UNL     2     -10.593   9.370  68.734  1.00  0.00    -0.234 C  
BRANCH  10  11
HETATM   11  C   UNL     2      -9.585   8.756  69.710  1.00  0.00    -0.173 C  
BRANCH  11  12
HETATM   12  C   UNL     2      -8.178   8.601  69.120  1.00  0.00    -0.117 C  
BRANCH  12  13
HETATM   13  C   UNL     2      -7.814   7.160  68.756  1.00  0.00    -0.122 C  
BRANCH  13  14
HETATM   14  O   UNL     2      -8.352   6.859  67.480  1.00  0.00    -0.121 OA 
HETATM   15  S   UNL     2      -9.240   5.505  67.324  1.00  0.00    -0.112 S  
HETATM   16  O   UNL     2      -9.675   5.555  65.925  1.00  0.00    -0.129 OA 
HETATM   17  O   UNL     2     -10.331   5.679  68.275  1.00  0.00    -0.178 OA 
HETATM   18  O   UNL     2      -8.314   4.429  67.628  1.00  0.00    -0.099 OA 
ENDBRANCH  13  14
ENDBRANCH  12  13
ENDBRANCH  11  12
ENDBRANCH  10  11
ENDBRANCH   9  10
ENDBRANCH   8   9
ENDBRANCH   7   8
ENDBRANCH   6   7
ENDBRANCH   5   6
ENDBRANCH   4   5
ENDBRANCH   3   4
TORSDOF 11
ENDMDL
MODEL      207
REMARK 921   NORMALIZED FREE ENERGY PREDICTED BY IDOCK:   -3.32 KCAL/MOL
REMARK 922        TOTAL FREE ENERGY PREDICTED BY IDOCK:   -6.89 KCAL/MOL
REMARK 923 INTER-LIGAND FREE ENERGY PREDICTED BY IDOCK:   -6.35 KCAL/MOL
REMARK 924 INTRA-LIGAND FREE ENERGY PREDICTED BY IDOCK:   -0.54 KCAL/MOL
REMARK 927      BINDING AFFINITY PREDICTED BY RF-SCORE:    0.00 PKD
ROOT
HETATM    1 NA   UNL     1     -14.308  13.915  72.682  1.00  0.00    -0.434 Na 
HETATM    2  C   UNL     2     -12.795   7.386  71.694  1.00  0.00    -0.406 C  
HETATM    3  C   UNL     2     -13.061   8.852  71.391  1.00  0.00    -0.315 C  
ENDROOT
BRANCH   3   4
HETATM    4  C   UNL     2     -11.790   9.678  71.567  1.00  0.00    -0.483 C  
BRANCH   4   5
HETATM    5  C   UNL     2     -11.558  10.629  70.390  1.00  0.00    -0.441 C  
BRANCH   5   6
HETATM    6  C   UNL     2     -10.789   9.973  69.236  1.00  0.00    -0.261 C  
BRANCH   6   7
HETATM    7  C   UNL     2     -11.095  10.635  67.893  1.00  0.00    -0.371 C  
BRANCH   7   8
HETATM    8  C   UNL     2     -10.328  10.008  66.730  1.00  0.00    -0.283 C  
BRANCH   8   9
HETATM    9  C   UNL     2     -10.216  10.965  65.535  1.00  0.00    -0.332 C  
BRANCH   9  10
HETATM   10  C   UNL     2     -10.921  12.316  65.720  1.00  0.00    -0.338 C  
BRANCH  10  11
HETATM   11  C   UNL     2     -10.676  13.279  64.555  1.00  0.00    -0.428 C  
BRANCH  11  12
HETATM   12  C   UNL     2     -11.010  14.738  64.887  1.00  0.00    -0.425 C  
BRANCH  12  13
HETATM   13  C   UNL     2     -10.372  15.240  66.185  1.00  0.00    -0.302 C  
BRANCH  13  14
HETATM   14  O   UNL     2     -11.359  15.264  67.202  1.00  0.00    -0.323 OA 
HETATM   15  S   UNL     2     -10.988  15.986  68.612  1.00  0.00    -0.342 S  
HETATM   16  O   UNL     2     -12.236  15.880  69.375  1.00  0.00    -0.284 OA 
HETATM   17  O   UNL     2     -10.653  17.354  68.238  1.00  0.00    -0.365 OA 
HETATM   18  O   UNL     2      -9.890  15.198  69.143  1.00  0.00    -0.219 OA 
ENDBRANCH  13  14
ENDBRANCH  12  13
ENDBRANCH  11  12
ENDBRANCH  10  11
ENDBRANCH   9  10
ENDBRANCH   8   9
ENDBRANCH   7   8
ENDBRANCH   6   7
ENDBRANCH   5   6
ENDBRANCH   4   5
ENDBRANCH   3   4
TORSDOF 11
ENDMDL
MODEL      208
REMARK 921   NORMALIZED FREE ENERGY PREDICTED BY IDOCK:   -3.31 KCAL/MOL
REMARK 922        TOTAL FREE ENERGY PREDICTED BY IDOCK:   -6.87 KCAL/MOL
REMARK 923 INTER-LIGAND FREE ENERGY PREDICTED BY IDOCK:   -5.69 KCAL/MOL
REMARK 924 INTRA-LIGAND FREE ENERGY PREDICTED BY IDOCK:   -1.18 KCAL/MOL
REMARK 927      BINDING AFFINITY PREDICTED BY RF-SCORE:    0.00 PKD
ROOT
HETATM    1 NA   UNL     1     -12.991   6.915  69.722  1.00  0.00    -0.621 Na 
HETATM    2  C   UNL     2     -13.810  13.163  72.209  1.00  0.00    -0.586 C  
HETATM    3  C   UNL     2     -13.218  11.779  71.990  1.00  0.00    -0.460 C  
ENDROOT
BRANCH   3   4
HETATM    4  C   UNL     2     -12.240  11.790  70.818  1.00  0.00    -0.424 C  
BRANCH   4   5
HETATM    5  C   UNL     2     -12.030  10.391  70.235  1.00  0.00    -0.387 C  
BRANCH   5   6
HETATM    6  C   UNL     2     -10.555   9.967  70.218  1.00  0.00    -0.354 C  
BRANCH   6   7
HETATM    7  C   UNL     2     -10.229   8.977  71.335  1.00  0.00    -0.399 C  
BRANCH   7   8
HETATM    8  C   UNL     2     -11.439   8.638  72.204  1.00  0.00    -0.443 C  
BRANCH   8   9
HETATM    9  C   UNL     2     -11.139   7.494  73.183  1.00  0.00    -0.378 C  
BRANCH   9  10
HETATM   10  C   UNL     2      -9.672   7.386  73.622  1.00  0.00    -0.349 C  
BRANCH  10  11
HETATM   11  C   UNL     2      -9.287   5.972  74.064  1.00  0.00    -0.137 C  
BRANCH  11  12
HETATM   12  C   UNL     2      -9.105   4.993  72.897  1.00  0.00    -0.127 C  
BRANCH  12  13
HETATM   13  C   UNL     2      -8.434   5.612  71.668  1.00  0.00    -0.131 C  
BRANCH  13  14
HETATM   14  O   UNL     2      -8.803   4.867  70.520  1.00  0.00    -0.110 OA 
HETATM   15  S   UNL     2      -9.824   5.555  69.456  1.00  0.00    -0.208 S  
HETATM   16  O   UNL     2      -9.921   4.548  68.395  1.00  0.00    -0.123 OA 
HETATM   17  O   UNL     2      -9.139   6.773  69.037  1.00  0.00    -0.138 OA 
HETATM   18  O   UNL     2     -11.048   5.758  70.209  1.00  0.00    -0.311 OA 
ENDBRANCH  13  14
ENDBRANCH  12  13
ENDBRANCH  11  12
ENDBRANCH  10  11
ENDBRANCH   9  10
ENDBRANCH   8   9
ENDBRANCH   7   8
ENDBRANCH   6   7
ENDBRANCH   5   6
ENDBRANCH   4   5
ENDBRANCH   3   4
TORSDOF 11
ENDMDL
MODEL      209
REMARK 921   NORMALIZED FREE ENERGY PREDICTED BY IDOCK:   -3.30 KCAL/MOL
REMARK 922        TOTAL FREE ENERGY PREDICTED BY IDOCK:   -6.85 KCAL/MOL
REMARK 923 INTER-LIGAND FREE ENERGY PREDICTED BY IDOCK:   -5.33 KCAL/MOL
REMARK 924 INTRA-LIGAND FREE ENERGY PREDICTED BY IDOCK:   -1.52 KCAL/MOL
REMARK 927      BINDING AFFINITY PREDICTED BY RF-SCORE:    0.00 PKD
ROOT
HETATM    1 NA   UNL     1     -13.058  14.525  67.658  1.00  0.00    -0.566 Na 
HETATM    2  C   UNL     2     -13.346   9.549  72.246  1.00  0.00    -0.526 C  
HETATM    3  C   UNL     2     -13.284  10.244  70.894  1.00  0.00    -0.351 C  
ENDROOT
BRANCH   3   4
HETATM    4  C   UNL     2     -11.837  10.530  70.501  1.00  0.00    -0.442 C  
BRANCH   4   5
HETATM    5  C   UNL     2     -10.860   9.554  71.161  1.00  0.00    -0.425 C  
BRANCH   5   6
HETATM    6  C   UNL     2      -9.580   9.347  70.342  1.00  0.00    -0.319 C  
BRANCH   6   7
HETATM    7  C   UNL     2      -9.800   8.406  69.158  1.00  0.00    -0.183 C  
BRANCH   7   8
HETATM    8  C   UNL     2      -9.514   9.065  67.811  1.00  0.00    -0.162 C  
BRANCH   8   9
HETATM    9  C   UNL     2      -8.199   9.859  67.828  1.00  0.00    -0.114 C  
BRANCH   9  10
HETATM   10  C   UNL     2      -8.326  11.328  67.402  1.00  0.00    -0.137 C  
BRANCH  10  11
HETATM   11  C   UNL     2      -9.772  11.742  67.119  1.00  0.00    -0.194 C  
BRANCH  11  12
HETATM   12  C   UNL     2      -9.890  12.932  66.158  1.00  0.00    -0.270 C  
BRANCH  12  13
HETATM   13  C   UNL     2     -10.129  14.273  66.858  1.00  0.00    -0.264 C  
BRANCH  13  14
HETATM   14  O   UNL     2     -10.658  14.027  68.150  1.00  0.00    -0.238 OA 
HETATM   15  S   UNL     2     -10.683  15.259  69.214  1.00  0.00    -0.267 S  
HETATM   16  O   UNL     2     -11.342  14.670  70.384  1.00  0.00    -0.247 OA 
HETATM   17  O   UNL     2     -11.482  16.286  68.556  1.00  0.00    -0.371 OA 
HETATM   18  O   UNL     2      -9.284  15.590  69.413  1.00  0.00    -0.257 OA 
ENDBRANCH  13  14
ENDBRANCH  12  13
ENDBRANCH  11  12
ENDBRANCH  10  11
ENDBRANCH   9  10
ENDBRANCH   8   9
ENDBRANCH   7   8
ENDBRANCH   6   7
ENDBRANCH   5   6
ENDBRANCH   4   5
ENDBRANCH   3   4
TORSDOF 11
ENDMDL
MODEL      210
REMARK 921   NORMALIZED FREE ENERGY PREDICTED BY IDOCK:   -3.29 KCAL/MOL
REMARK 922        TOTAL FREE ENERGY PREDICTED BY IDOCK:   -6.85 KCAL/MOL
REMARK 923 INTER-LIGAND FREE ENERGY PREDICTED BY IDOCK:   -5.70 KCAL/MOL
REMARK 924 INTRA-LIGAND FREE ENERGY PREDICTED BY IDOCK:   -1.15 KCAL/MOL
REMARK 927      BINDING AFFINITY PREDICTED BY RF-SCORE:    0.00 PKD
ROOT
HETATM    1 NA   UNL     1     -11.570  12.327  65.765  1.00  0.00    -0.284 Na 
HETATM    2  C   UNL     2     -11.802  16.064  71.411  1.00  0.00    -0.531 C  
HETATM    3  C   UNL     2     -12.274  15.285  70.194  1.00  0.00    -0.402 C  
ENDROOT
BRANCH   3   4
HETATM    4  C   UNL     2     -12.414  13.801  70.524  1.00  0.00    -0.409 C  
BRANCH   4   5
HETATM    5  C   UNL     2     -13.165  13.575  71.838  1.00  0.00    -0.510 C  
BRANCH   5   6
HETATM    6  C   UNL     2     -13.460  12.094  72.110  1.00  0.00    -0.383 C  
BRANCH   6   7
HETATM    7  C   UNL     2     -12.758  11.176  71.110  1.00  0.00    -0.510 C  
BRANCH   7   8
HETATM    8  C   UNL     2     -12.385   9.820  71.705  1.00  0.00    -0.495 C  
BRANCH   8   9
HETATM    9  C   UNL     2     -11.177   9.194  70.992  1.00  0.00    -0.380 C  
BRANCH   9  10
HETATM   10  C   UNL     2     -10.117   8.593  71.925  1.00  0.00    -0.398 C  
BRANCH  10  11
HETATM   11  C   UNL     2      -8.696   8.713  71.366  1.00  0.00    -0.262 C  
BRANCH  11  12
HETATM   12  C   UNL     2      -8.650   8.877  69.842  1.00  0.00    -0.137 C  
BRANCH  12  13
HETATM   13  C   UNL     2      -8.197  10.265  69.381  1.00  0.00    -0.165 C  
BRANCH  13  14
HETATM   14  O   UNL     2      -8.405  10.375  67.984  1.00  0.00    -0.116 OA 
HETATM   15  S   UNL     2      -9.181  11.692  67.426  1.00  0.00    -0.172 S  
HETATM   16  O   UNL     2      -9.153  11.500  65.973  1.00  0.00    -0.209 OA 
HETATM   17  O   UNL     2      -8.362  12.810  67.878  1.00  0.00    -0.149 OA 
HETATM   18  O   UNL     2     -10.504  11.608  68.020  1.00  0.00    -0.184 OA 
ENDBRANCH  13  14
ENDBRANCH  12  13
ENDBRANCH  11  12
ENDBRANCH  10  11
ENDBRANCH   9  10
ENDBRANCH   8   9
ENDBRANCH   7   8
ENDBRANCH   6   7
ENDBRANCH   5   6
ENDBRANCH   4   5
ENDBRANCH   3   4
TORSDOF 11
ENDMDL
MODEL      211
REMARK 921   NORMALIZED FREE ENERGY PREDICTED BY IDOCK:   -3.28 KCAL/MOL
REMARK 922        TOTAL FREE ENERGY PREDICTED BY IDOCK:   -6.83 KCAL/MOL
REMARK 923 INTER-LIGAND FREE ENERGY PREDICTED BY IDOCK:   -5.96 KCAL/MOL
REMARK 924 INTRA-LIGAND FREE ENERGY PREDICTED BY IDOCK:   -0.87 KCAL/MOL
REMARK 927      BINDING AFFINITY PREDICTED BY RF-SCORE:    0.00 PKD
ROOT
HETATM    1 NA   UNL     1     -13.699  11.896  63.156  1.00  0.00    -0.605 Na 
HETATM    2  C   UNL     2     -11.790  12.782  69.595  1.00  0.00    -0.384 C  
HETATM    3  C   UNL     2     -11.698  12.663  68.082  1.00  0.00    -0.396 C  
ENDROOT
BRANCH   3   4
HETATM    4  C   UNL     2     -11.989  14.006  67.417  1.00  0.00    -0.439 C  
BRANCH   4   5
HETATM    5  C   UNL     2     -11.153  14.212  66.152  1.00  0.00    -0.312 C  
BRANCH   5   6
HETATM    6  C   UNL     2      -9.710  13.712  66.303  1.00  0.00    -0.295 C  
BRANCH   6   7
HETATM    7  C   UNL     2      -8.752  14.833  66.703  1.00  0.00    -0.229 C  
BRANCH   7   8
HETATM    8  C   UNL     2      -8.412  14.824  68.192  1.00  0.00    -0.149 C  
BRANCH   8   9
HETATM    9  C   UNL     2      -7.807  16.159  68.650  1.00  0.00    -0.188 C  
BRANCH   9  10
HETATM   10  C   UNL     2      -6.507  16.557  67.938  1.00  0.00    -0.150 C  
BRANCH  10  11
HETATM   11  C   UNL     2      -6.312  18.074  67.859  1.00  0.00    -0.181 C  
BRANCH  11  12
HETATM   12  C   UNL     2      -6.442  18.634  66.437  1.00  0.00    -0.225 C  
BRANCH  12  13
HETATM   13  C   UNL     2      -7.788  19.307  66.156  1.00  0.00    -0.300 C  
BRANCH  13  14
HETATM   14  O   UNL     2      -8.739  18.841  67.097  1.00  0.00    -0.269 OA 
HETATM   15  S   UNL     2     -10.230  18.473  66.560  1.00  0.00    -0.428 S  
HETATM   16  O   UNL     2     -10.900  17.974  67.765  1.00  0.00    -0.383 OA 
HETATM   17  O   UNL     2     -10.006  17.441  65.554  1.00  0.00    -0.555 OA 
HETATM   18  O   UNL     2     -10.753  19.731  66.057  1.00  0.00    -0.472 OA 
ENDBRANCH  13  14
ENDBRANCH  12  13
ENDBRANCH  11  12
ENDBRANCH  10  11
ENDBRANCH   9  10
ENDBRANCH   8   9
ENDBRANCH   7   8
ENDBRANCH   6   7
ENDBRANCH   5   6
ENDBRANCH   4   5
ENDBRANCH   3   4
TORSDOF 11
ENDMDL
MODEL      212
REMARK 921   NORMALIZED FREE ENERGY PREDICTED BY IDOCK:   -3.28 KCAL/MOL
REMARK 922        TOTAL FREE ENERGY PREDICTED BY IDOCK:   -6.82 KCAL/MOL
REMARK 923 INTER-LIGAND FREE ENERGY PREDICTED BY IDOCK:   -5.99 KCAL/MOL
REMARK 924 INTRA-LIGAND FREE ENERGY PREDICTED BY IDOCK:   -0.82 KCAL/MOL
REMARK 927      BINDING AFFINITY PREDICTED BY RF-SCORE:    0.00 PKD
ROOT
HETATM    1 NA   UNL     1     -14.067  15.990  70.054  1.00  0.00    -0.809 Na 
HETATM    2  C   UNL     2     -12.459  12.368  64.558  1.00  0.00    -0.519 C  
HETATM    3  C   UNL     2     -12.397  13.453  65.623  1.00  0.00    -0.521 C  
ENDROOT
BRANCH   3   4
HETATM    4  C   UNL     2     -11.601  12.974  66.834  1.00  0.00    -0.419 C  
BRANCH   4   5
HETATM    5  C   UNL     2     -11.008  11.581  66.616  1.00  0.00    -0.349 C  
BRANCH   5   6
HETATM    6  C   UNL     2     -11.277  10.628  67.788  1.00  0.00    -0.383 C  
BRANCH   6   7
HETATM    7  C   UNL     2     -12.161  11.268  68.858  1.00  0.00    -0.292 C  
BRANCH   7   8
HETATM    8  C   UNL     2     -11.604  11.102  70.270  1.00  0.00    -0.388 C  
BRANCH   8   9
HETATM    9  C   UNL     2     -10.756   9.829  70.406  1.00  0.00    -0.368 C  
BRANCH   9  10
HETATM   10  C   UNL     2     -10.943   9.066  71.725  1.00  0.00    -0.443 C  
BRANCH  10  11
HETATM   11  C   UNL     2     -10.805   7.550  71.560  1.00  0.00    -0.253 C  
BRANCH  11  12
HETATM   12  C   UNL     2     -11.028   7.068  70.122  1.00  0.00    -0.306 C  
BRANCH  12  13
HETATM   13  C   UNL     2      -9.777   6.481  69.463  1.00  0.00    -0.151 C  
BRANCH  13  14
HETATM   14  O   UNL     2      -9.948   5.082  69.319  1.00  0.00    -0.183 OA 
HETATM   15  S   UNL     2      -9.349   4.370  67.984  1.00  0.00    -0.155 S  
HETATM   16  O   UNL     2      -9.644   2.951  68.206  1.00  0.00    -0.184 OA 
HETATM   17  O   UNL     2      -7.924   4.678  68.021  1.00  0.00    -0.084 OA 
HETATM   18  O   UNL     2     -10.088   4.976  66.891  1.00  0.00    -0.188 OA 
ENDBRANCH  13  14
ENDBRANCH  12  13
ENDBRANCH  11  12
ENDBRANCH  10  11
ENDBRANCH   9  10
ENDBRANCH   8   9
ENDBRANCH   7   8
ENDBRANCH   6   7
ENDBRANCH   5   6
ENDBRANCH   4   5
ENDBRANCH   3   4
TORSDOF 11
ENDMDL
MODEL      213
REMARK 921   NORMALIZED FREE ENERGY PREDICTED BY IDOCK:   -3.27 KCAL/MOL
REMARK 922        TOTAL FREE ENERGY PREDICTED BY IDOCK:   -6.81 KCAL/MOL
REMARK 923 INTER-LIGAND FREE ENERGY PREDICTED BY IDOCK:   -6.18 KCAL/MOL
REMARK 924 INTRA-LIGAND FREE ENERGY PREDICTED BY IDOCK:   -0.63 KCAL/MOL
REMARK 927      BINDING AFFINITY PREDICTED BY RF-SCORE:    0.00 PKD
ROOT
HETATM    1 NA   UNL     1     -14.316  15.933  70.449  1.00  0.00    -0.839 Na 
HETATM    2  C   UNL     2     -10.342  14.681  65.107  1.00  0.00    -0.431 C  
HETATM    3  C   UNL     2     -10.906  14.603  66.517  1.00  0.00    -0.315 C  
ENDROOT
BRANCH   3   4
HETATM    4  C   UNL     2     -12.048  13.593  66.587  1.00  0.00    -0.459 C  
BRANCH   4   5
HETATM    5  C   UNL     2     -11.558  12.201  66.992  1.00  0.00    -0.406 C  
BRANCH   5   6
HETATM    6  C   UNL     2     -10.729  12.213  68.283  1.00  0.00    -0.248 C  
BRANCH   6   7
HETATM    7  C   UNL     2     -11.091  11.052  69.209  1.00  0.00    -0.312 C  
BRANCH   7   8
HETATM    8  C   UNL     2     -12.393  11.282  69.972  1.00  0.00    -0.330 C  
BRANCH   8   9
HETATM    9  C   UNL     2     -12.344  10.679  71.384  1.00  0.00    -0.455 C  
BRANCH   9  10
HETATM   10  C   UNL     2     -13.204   9.424  71.581  1.00  0.00    -0.470 C  
BRANCH  10  11
HETATM   11  C   UNL     2     -12.431   8.267  72.220  1.00  0.00    -0.384 C  
BRANCH  11  12
HETATM   12  C   UNL     2     -12.263   7.057  71.293  1.00  0.00    -0.419 C  
BRANCH  12  13
HETATM   13  C   UNL     2     -10.807   6.753  70.928  1.00  0.00    -0.249 C  
BRANCH  13  14
HETATM   14  O   UNL     2      -9.956   7.430  71.836  1.00  0.00    -0.170 OA 
HETATM   15  S   UNL     2      -8.525   7.973  71.284  1.00  0.00    -0.130 S  
HETATM   16  O   UNL     2      -7.962   8.662  72.450  1.00  0.00    -0.323 OA 
HETATM   17  O   UNL     2      -8.878   8.876  70.195  1.00  0.00    -0.141 OA 
HETATM   18  O   UNL     2      -7.811   6.772  70.891  1.00  0.00    -0.095 OA 
ENDBRANCH  13  14
ENDBRANCH  12  13
ENDBRANCH  11  12
ENDBRANCH  10  11
ENDBRANCH   9  10
ENDBRANCH   8   9
ENDBRANCH   7   8
ENDBRANCH   6   7
ENDBRANCH   5   6
ENDBRANCH   4   5
ENDBRANCH   3   4
TORSDOF 11
ENDMDL
MODEL      214
REMARK 921   NORMALIZED FREE ENERGY PREDICTED BY IDOCK:   -3.27 KCAL/MOL
REMARK 922        TOTAL FREE ENERGY PREDICTED BY IDOCK:   -6.81 KCAL/MOL
REMARK 923 INTER-LIGAND FREE ENERGY PREDICTED BY IDOCK:   -5.87 KCAL/MOL
REMARK 924 INTRA-LIGAND FREE ENERGY PREDICTED BY IDOCK:   -0.94 KCAL/MOL
REMARK 927      BINDING AFFINITY PREDICTED BY RF-SCORE:    0.00 PKD
ROOT
HETATM    1 NA   UNL     1      -7.554  21.153  71.959  1.00  0.00    -0.739 Na 
HETATM    2  C   UNL     2      -8.193  17.691  66.171  1.00  0.00    -0.205 C  
HETATM    3  C   UNL     2      -7.617  18.161  67.498  1.00  0.00    -0.217 C  
ENDROOT
BRANCH   3   4
HETATM    4  C   UNL     2      -8.235  17.388  68.659  1.00  0.00    -0.264 C  
BRANCH   4   5
HETATM    5  C   UNL     2      -9.473  16.598  68.227  1.00  0.00    -0.230 C  
BRANCH   5   6
HETATM    6  C   UNL     2     -10.583  16.601  69.286  1.00  0.00    -0.343 C  
BRANCH   6   7
HETATM    7  C   UNL     2     -11.305  15.257  69.365  1.00  0.00    -0.304 C  
BRANCH   7   8
HETATM    8  C   UNL     2     -10.433  14.084  68.922  1.00  0.00    -0.210 C  
BRANCH   8   9
HETATM    9  C   UNL     2     -11.116  13.238  67.838  1.00  0.00    -0.287 C  
BRANCH   9  10
HETATM   10  C   UNL     2     -11.891  14.041  66.784  1.00  0.00    -0.450 C  
BRANCH  10  11
HETATM   11  C   UNL     2     -12.501  13.158  65.693  1.00  0.00    -0.485 C  
BRANCH  11  12
HETATM   12  C   UNL     2     -11.931  13.429  64.295  1.00  0.00    -0.481 C  
BRANCH  12  13
HETATM   13  C   UNL     2     -11.326  12.194  63.622  1.00  0.00    -0.464 C  
BRANCH  13  14
HETATM   14  O   UNL     2     -11.277  11.136  64.564  1.00  0.00    -0.197 OA 
HETATM   15  S   UNL     2      -9.817  10.563  64.997  1.00  0.00    -0.329 S  
HETATM   16  O   UNL     2     -10.146   9.553  66.008  1.00  0.00    -0.295 OA 
HETATM   17  O   UNL     2      -9.123  11.724  65.542  1.00  0.00    -0.124 OA 
HETATM   18  O   UNL     2      -9.262  10.027  63.767  1.00  0.00    -0.248 OA 
ENDBRANCH  13  14
ENDBRANCH  12  13
ENDBRANCH  11  12
ENDBRANCH  10  11
ENDBRANCH   9  10
ENDBRANCH   8   9
ENDBRANCH   7   8
ENDBRANCH   6   7
ENDBRANCH   5   6
ENDBRANCH   4   5
ENDBRANCH   3   4
TORSDOF 11
ENDMDL
MODEL      215
REMARK 921   NORMALIZED FREE ENERGY PREDICTED BY IDOCK:   -3.27 KCAL/MOL
REMARK 922        TOTAL FREE ENERGY PREDICTED BY IDOCK:   -6.81 KCAL/MOL
REMARK 923 INTER-LIGAND FREE ENERGY PREDICTED BY IDOCK:   -5.69 KCAL/MOL
REMARK 924 INTRA-LIGAND FREE ENERGY PREDICTED BY IDOCK:   -1.11 KCAL/MOL
REMARK 927      BINDING AFFINITY PREDICTED BY RF-SCORE:    0.00 PKD
ROOT
HETATM    1 NA   UNL     1     -12.348  12.171  68.414  1.00  0.00    -0.305 Na 
HETATM    2  C   UNL     2     -10.459  18.246  66.086  1.00  0.00    -0.403 C  
HETATM    3  C   UNL     2     -10.365  16.796  66.536  1.00  0.00    -0.301 C  
ENDROOT
BRANCH   3   4
HETATM    4  C   UNL     2     -10.678  15.851  65.381  1.00  0.00    -0.415 C  
BRANCH   4   5
HETATM    5  C   UNL     2     -10.838  14.403  65.852  1.00  0.00    -0.304 C  
BRANCH   5   6
HETATM    6  C   UNL     2     -12.267  13.873  65.676  1.00  0.00    -0.477 C  
BRANCH   6   7
HETATM    7  C   UNL     2     -12.326  12.692  64.709  1.00  0.00    -0.556 C  
BRANCH   7   8
HETATM    8  C   UNL     2     -11.304  12.794  63.578  1.00  0.00    -0.480 C  
BRANCH   8   9
HETATM    9  C   UNL     2     -10.473  11.511  63.439  1.00  0.00    -0.466 C  
BRANCH   9  10
HETATM   10  C   UNL     2     -10.484  10.596  64.671  1.00  0.00    -0.275 C  
BRANCH  10  11
HETATM   11  C   UNL     2      -9.276  10.815  65.585  1.00  0.00    -0.226 C  
BRANCH  11  12
HETATM   12  C   UNL     2      -9.657  11.145  67.034  1.00  0.00    -0.201 C  
BRANCH  12  13
HETATM   13  C   UNL     2      -9.626   9.937  67.974  1.00  0.00    -0.138 C  
BRANCH  13  14
HETATM   14  O   UNL     2     -10.581   8.988  67.532  1.00  0.00    -0.265 OA 
HETATM   15  S   UNL     2     -10.079   7.463  67.267  1.00  0.00    -0.257 S  
HETATM   16  O   UNL     2     -11.316   6.769  66.898  1.00  0.00    -0.318 OA 
HETATM   17  O   UNL     2      -9.536   7.035  68.550  1.00  0.00    -0.135 OA 
HETATM   18  O   UNL     2      -9.112   7.585  66.190  1.00  0.00    -0.172 OA 
ENDBRANCH  13  14
ENDBRANCH  12  13
ENDBRANCH  11  12
ENDBRANCH  10  11
ENDBRANCH   9  10
ENDBRANCH   8   9
ENDBRANCH   7   8
ENDBRANCH   6   7
ENDBRANCH   5   6
ENDBRANCH   4   5
ENDBRANCH   3   4
TORSDOF 11
ENDMDL
MODEL      216
REMARK 921   NORMALIZED FREE ENERGY PREDICTED BY IDOCK:   -3.27 KCAL/MOL
REMARK 922        TOTAL FREE ENERGY PREDICTED BY IDOCK:   -6.80 KCAL/MOL
REMARK 923 INTER-LIGAND FREE ENERGY PREDICTED BY IDOCK:   -5.75 KCAL/MOL
REMARK 924 INTRA-LIGAND FREE ENERGY PREDICTED BY IDOCK:   -1.05 KCAL/MOL
REMARK 927      BINDING AFFINITY PREDICTED BY RF-SCORE:    0.00 PKD
ROOT
HETATM    1 NA   UNL     1      -7.378  14.194  70.940  1.00  0.00    -0.388 Na 
HETATM    2  C   UNL     2      -6.649  20.498  68.569  1.00  0.00    -0.269 C  
HETATM    3  C   UNL     2      -6.399  19.244  69.392  1.00  0.00    -0.337 C  
ENDROOT
BRANCH   3   4
HETATM    4  C   UNL     2      -5.489  18.277  68.639  1.00  0.00    -0.180 C  
BRANCH   4   5
HETATM    5  C   UNL     2      -6.287  17.251  67.831  1.00  0.00    -0.157 C  
BRANCH   5   6
HETATM    6  C   UNL     2      -6.516  17.684  66.377  1.00  0.00    -0.272 C  
BRANCH   6   7
HETATM    7  C   UNL     2      -7.957  18.126  66.129  1.00  0.00    -0.222 C  
BRANCH   7   8
HETATM    8  C   UNL     2      -8.985  17.102  66.605  1.00  0.00    -0.278 C  
BRANCH   8   9
HETATM    9  C   UNL     2     -10.200  17.772  67.264  1.00  0.00    -0.350 C  
BRANCH   9  10
HETATM   10  C   UNL     2     -10.266  17.632  68.791  1.00  0.00    -0.373 C  
BRANCH  10  11
HETATM   11  C   UNL     2     -10.597  16.207  69.244  1.00  0.00    -0.280 C  
BRANCH  11  12
HETATM   12  C   UNL     2     -11.757  15.572  68.467  1.00  0.00    -0.351 C  
BRANCH  12  13
HETATM   13  C   UNL     2     -11.933  14.074  68.730  1.00  0.00    -0.347 C  
BRANCH  13  14
HETATM   14  O   UNL     2     -10.940  13.362  68.012  1.00  0.00    -0.232 OA 
HETATM   15  S   UNL     2     -11.417  12.133  67.059  1.00  0.00    -0.340 S  
HETATM   16  O   UNL     2     -10.164  11.690  66.439  1.00  0.00    -0.211 OA 
HETATM   17  O   UNL     2     -12.344  12.748  66.116  1.00  0.00    -0.542 OA 
HETATM   18  O   UNL     2     -12.007  11.175  67.976  1.00  0.00    -0.625 OA 
ENDBRANCH  13  14
ENDBRANCH  12  13
ENDBRANCH  11  12
ENDBRANCH  10  11
ENDBRANCH   9  10
ENDBRANCH   8   9
ENDBRANCH   7   8
ENDBRANCH   6   7
ENDBRANCH   5   6
ENDBRANCH   4   5
ENDBRANCH   3   4
TORSDOF 11
ENDMDL
MODEL      217
REMARK 921   NORMALIZED FREE ENERGY PREDICTED BY IDOCK:   -3.26 KCAL/MOL
REMARK 922        TOTAL FREE ENERGY PREDICTED BY IDOCK:   -6.80 KCAL/MOL
REMARK 923 INTER-LIGAND FREE ENERGY PREDICTED BY IDOCK:   -5.83 KCAL/MOL
REMARK 924 INTRA-LIGAND FREE ENERGY PREDICTED BY IDOCK:   -0.97 KCAL/MOL
REMARK 927      BINDING AFFINITY PREDICTED BY RF-SCORE:    0.00 PKD
ROOT
HETATM    1 NA   UNL     1     -10.798  19.845  70.731  1.00  0.00    -0.799 Na 
HETATM    2  C   UNL     2      -5.612  18.167  66.708  1.00  0.00    -0.169 C  
HETATM    3  C   UNL     2      -7.019  18.201  67.287  1.00  0.00    -0.207 C  
ENDROOT
BRANCH   3   4
HETATM    4  C   UNL     2      -7.826  19.343  66.676  1.00  0.00    -0.291 C  
BRANCH   4   5
HETATM    5  C   UNL     2      -8.615  20.117  67.735  1.00  0.00    -0.318 C  
BRANCH   5   6
HETATM    6  C   UNL     2     -10.132  19.930  67.603  1.00  0.00    -0.564 C  
BRANCH   6   7
HETATM    7  C   UNL     2     -10.503  18.495  67.229  1.00  0.00    -0.455 C  
BRANCH   7   8
HETATM    8  C   UNL     2     -10.561  17.560  68.435  1.00  0.00    -0.339 C  
BRANCH   8   9
HETATM    9  C   UNL     2     -10.954  16.131  68.035  1.00  0.00    -0.338 C  
BRANCH   9  10
HETATM   10  C   UNL     2      -9.783  15.147  67.918  1.00  0.00    -0.208 C  
BRANCH  10  11
HETATM   11  C   UNL     2      -9.109  15.184  66.544  1.00  0.00    -0.328 C  
BRANCH  11  12
HETATM   12  C   UNL     2     -10.101  15.293  65.379  1.00  0.00    -0.397 C  
BRANCH  12  13
HETATM   13  C   UNL     2     -10.478  13.945  64.758  1.00  0.00    -0.429 C  
BRANCH  13  14
HETATM   14  O   UNL     2     -10.590  12.980  65.789  1.00  0.00    -0.269 OA 
HETATM   15  S   UNL     2     -10.349  11.417  65.404  1.00  0.00    -0.290 S  
HETATM   16  O   UNL     2     -10.474  10.737  66.697  1.00  0.00    -0.236 OA 
HETATM   17  O   UNL     2      -8.997  11.384  64.861  1.00  0.00    -0.062 OA 
HETATM   18  O   UNL     2     -11.408  11.112  64.458  1.00  0.00    -0.128 OA 
ENDBRANCH  13  14
ENDBRANCH  12  13
ENDBRANCH  11  12
ENDBRANCH  10  11
ENDBRANCH   9  10
ENDBRANCH   8   9
ENDBRANCH   7   8
ENDBRANCH   6   7
ENDBRANCH   5   6
ENDBRANCH   4   5
ENDBRANCH   3   4
TORSDOF 11
ENDMDL
MODEL      218
REMARK 921   NORMALIZED FREE ENERGY PREDICTED BY IDOCK:   -3.26 KCAL/MOL
REMARK 922        TOTAL FREE ENERGY PREDICTED BY IDOCK:   -6.80 KCAL/MOL
REMARK 923 INTER-LIGAND FREE ENERGY PREDICTED BY IDOCK:   -6.23 KCAL/MOL
REMARK 924 INTRA-LIGAND FREE ENERGY PREDICTED BY IDOCK:   -0.57 KCAL/MOL
REMARK 927      BINDING AFFINITY PREDICTED BY RF-SCORE:    0.00 PKD
ROOT
HETATM    1 NA   UNL     1     -13.719   9.003  70.481  1.00  0.00    -0.535 Na 
HETATM    2  C   UNL     2      -9.069   6.274  66.379  1.00  0.00    -0.164 C  
HETATM    3  C   UNL     2     -10.393   6.857  66.850  1.00  0.00    -0.332 C  
ENDROOT
BRANCH   3   4
HETATM    4  C   UNL     2     -10.383   8.378  66.737  1.00  0.00    -0.357 C  
BRANCH   4   5
HETATM    5  C   UNL     2     -10.466   9.055  68.108  1.00  0.00    -0.257 C  
BRANCH   5   6
HETATM    6  C   UNL     2      -9.198   9.844  68.461  1.00  0.00    -0.136 C  
BRANCH   6   7
HETATM    7  C   UNL     2      -9.445  11.352  68.468  1.00  0.00    -0.183 C  
BRANCH   7   8
HETATM    8  C   UNL     2      -9.638  11.933  67.069  1.00  0.00    -0.196 C  
BRANCH   8   9
HETATM    9  C   UNL     2     -10.871  12.846  66.993  1.00  0.00    -0.282 C  
BRANCH   9  10
HETATM   10  C   UNL     2     -11.497  13.202  68.348  1.00  0.00    -0.350 C  
BRANCH  10  11
HETATM   11  C   UNL     2     -11.894  14.677  68.450  1.00  0.00    -0.330 C  
BRANCH  11  12
HETATM   12  C   UNL     2     -11.863  15.221  69.884  1.00  0.00    -0.363 C  
BRANCH  12  13
HETATM   13  C   UNL     2     -13.091  14.843  70.716  1.00  0.00    -0.348 C  
BRANCH  13  14
HETATM   14  O   UNL     2     -12.671  14.510  72.028  1.00  0.00    -0.319 OA 
HETATM   15  S   UNL     2     -12.727  15.669  73.168  1.00  0.00    -0.551 S  
HETATM   16  O   UNL     2     -12.296  14.963  74.378  1.00  0.00    -0.560 OA 
HETATM   17  O   UNL     2     -14.128  16.073  73.201  1.00  0.00    -0.450 OA 
HETATM   18  O   UNL     2     -11.799  16.682  72.698  1.00  0.00    -0.516 OA 
ENDBRANCH  13  14
ENDBRANCH  12  13
ENDBRANCH  11  12
ENDBRANCH  10  11
ENDBRANCH   9  10
ENDBRANCH   8   9
ENDBRANCH   7   8
ENDBRANCH   6   7
ENDBRANCH   5   6
ENDBRANCH   4   5
ENDBRANCH   3   4
TORSDOF 11
ENDMDL
MODEL      219
REMARK 921   NORMALIZED FREE ENERGY PREDICTED BY IDOCK:   -3.26 KCAL/MOL
REMARK 922        TOTAL FREE ENERGY PREDICTED BY IDOCK:   -6.80 KCAL/MOL
REMARK 923 INTER-LIGAND FREE ENERGY PREDICTED BY IDOCK:   -6.19 KCAL/MOL
REMARK 924 INTRA-LIGAND FREE ENERGY PREDICTED BY IDOCK:   -0.61 KCAL/MOL
REMARK 927      BINDING AFFINITY PREDICTED BY RF-SCORE:    0.00 PKD
ROOT
HETATM    1 NA   UNL     1     -11.345  20.907  70.198  1.00  0.00    -0.877 Na 
HETATM    2  C   UNL     2      -6.227  20.748  65.762  1.00  0.00    -0.276 C  
HETATM    3  C   UNL     2      -7.227  20.277  66.807  1.00  0.00    -0.311 C  
ENDROOT
BRANCH   3   4
HETATM    4  C   UNL     2      -8.527  19.827  66.145  1.00  0.00    -0.367 C  
BRANCH   4   5
HETATM    5  C   UNL     2      -9.743  20.086  67.037  1.00  0.00    -0.555 C  
BRANCH   5   6
HETATM    6  C   UNL     2     -10.666  18.867  67.156  1.00  0.00    -0.506 C  
BRANCH   6   7
HETATM    7  C   UNL     2      -9.891  17.551  67.091  1.00  0.00    -0.297 C  
BRANCH   7   8
HETATM    8  C   UNL     2     -10.309  16.670  65.916  1.00  0.00    -0.355 C  
BRANCH   8   9
HETATM    9  C   UNL     2     -10.576  15.222  66.352  1.00  0.00    -0.308 C  
BRANCH   9  10
HETATM   10  C   UNL     2     -11.948  14.667  65.945  1.00  0.00    -0.242 C  
BRANCH  10  11
HETATM   11  C   UNL     2     -11.885  13.209  65.479  1.00  0.00    -0.420 C  
BRANCH  11  12
HETATM   12  C   UNL     2     -10.552  12.834  64.821  1.00  0.00    -0.348 C  
BRANCH  12  13
HETATM   13  C   UNL     2      -9.861  11.629  65.464  1.00  0.00    -0.234 C  
BRANCH  13  14
HETATM   14  O   UNL     2     -10.591  11.242  66.615  1.00  0.00    -0.241 OA 
HETATM   15  S   UNL     2     -10.081   9.937  67.442  1.00  0.00    -0.219 S  
HETATM   16  O   UNL     2     -11.010   9.881  68.575  1.00  0.00    -0.225 OA 
HETATM   17  O   UNL     2      -8.715  10.269  67.830  1.00  0.00    -0.121 OA 
HETATM   18  O   UNL     2     -10.212   8.839  66.501  1.00  0.00    -0.288 OA 
ENDBRANCH  13  14
ENDBRANCH  12  13
ENDBRANCH  11  12
ENDBRANCH  10  11
ENDBRANCH   9  10
ENDBRANCH   8   9
ENDBRANCH   7   8
ENDBRANCH   6   7
ENDBRANCH   5   6
ENDBRANCH   4   5
ENDBRANCH   3   4
TORSDOF 11
ENDMDL
MODEL      220
REMARK 921   NORMALIZED FREE ENERGY PREDICTED BY IDOCK:   -3.25 KCAL/MOL
REMARK 922        TOTAL FREE ENERGY PREDICTED BY IDOCK:   -6.78 KCAL/MOL
REMARK 923 INTER-LIGAND FREE ENERGY PREDICTED BY IDOCK:   -6.02 KCAL/MOL
REMARK 924 INTRA-LIGAND FREE ENERGY PREDICTED BY IDOCK:   -0.76 KCAL/MOL
REMARK 927      BINDING AFFINITY PREDICTED BY RF-SCORE:    0.00 PKD
ROOT
HETATM    1 NA   UNL     1     -11.743   3.361  64.793  1.00  0.00    -0.418 Na 
HETATM    2  C   UNL     2     -11.580   7.173  70.391  1.00  0.00    -0.300 C  
HETATM    3  C   UNL     2     -11.261   6.046  69.421  1.00  0.00    -0.397 C  
ENDROOT
BRANCH   3   4
HETATM    4  C   UNL     2     -10.157   6.463  68.454  1.00  0.00    -0.173 C  
BRANCH   4   5
HETATM    5  C   UNL     2     -10.720   7.102  67.182  1.00  0.00    -0.422 C  
BRANCH   5   6
HETATM    6  C   UNL     2     -10.529   8.624  67.144  1.00  0.00    -0.360 C  
BRANCH   6   7
HETATM    7  C   UNL     2      -9.367   9.034  66.240  1.00  0.00    -0.284 C  
BRANCH   7   8
HETATM    8  C   UNL     2      -9.809   9.876  65.046  1.00  0.00    -0.323 C  
BRANCH   8   9
HETATM    9  C   UNL     2      -9.979  11.356  65.419  1.00  0.00    -0.289 C  
BRANCH   9  10
HETATM   10  C   UNL     2     -11.267  12.010  64.901  1.00  0.00    -0.374 C  
BRANCH  10  11
HETATM   11  C   UNL     2     -11.968  12.865  65.959  1.00  0.00    -0.505 C  
BRANCH  11  12
HETATM   12  C   UNL     2     -11.859  12.294  67.378  1.00  0.00    -0.327 C  
BRANCH  12  13
HETATM   13  C   UNL     2     -11.172  13.232  68.374  1.00  0.00    -0.280 C  
BRANCH  13  14
HETATM   14  O   UNL     2     -12.139  13.717  69.290  1.00  0.00    -0.334 OA 
HETATM   15  S   UNL     2     -12.034  15.270  69.763  1.00  0.00    -0.348 S  
HETATM   16  O   UNL     2     -13.205  15.430  70.630  1.00  0.00    -0.416 OA 
HETATM   17  O   UNL     2     -12.125  16.030  68.522  1.00  0.00    -0.162 OA 
HETATM   18  O   UNL     2     -10.758  15.351  70.451  1.00  0.00    -0.306 OA 
ENDBRANCH  13  14
ENDBRANCH  12  13
ENDBRANCH  11  12
ENDBRANCH  10  11
ENDBRANCH   9  10
ENDBRANCH   8   9
ENDBRANCH   7   8
ENDBRANCH   6   7
ENDBRANCH   5   6
ENDBRANCH   4   5
ENDBRANCH   3   4
TORSDOF 11
ENDMDL
MODEL      221
REMARK 921   NORMALIZED FREE ENERGY PREDICTED BY IDOCK:   -3.25 KCAL/MOL
REMARK 922        TOTAL FREE ENERGY PREDICTED BY IDOCK:   -6.77 KCAL/MOL
REMARK 923 INTER-LIGAND FREE ENERGY PREDICTED BY IDOCK:   -5.25 KCAL/MOL
REMARK 924 INTRA-LIGAND FREE ENERGY PREDICTED BY IDOCK:   -1.52 KCAL/MOL
REMARK 927      BINDING AFFINITY PREDICTED BY RF-SCORE:    0.00 PKD
ROOT
HETATM    1 NA   UNL     1      -6.220  13.862  72.076  1.00  0.00    -0.237 Na 
HETATM    2  C   UNL     2      -7.831  10.723  66.292  1.00  0.00    -0.156 C  
HETATM    3  C   UNL     2      -7.999  11.454  67.615  1.00  0.00    -0.123 C  
ENDROOT
BRANCH   3   4
HETATM    4  C   UNL     2      -7.937  12.965  67.409  1.00  0.00    -0.178 C  
BRANCH   4   5
HETATM    5  C   UNL     2      -8.310  13.733  68.679  1.00  0.00    -0.067 C  
BRANCH   5   6
HETATM    6  C   UNL     2      -9.619  14.521  68.536  1.00  0.00    -0.220 C  
BRANCH   6   7
HETATM    7  C   UNL     2      -9.959  14.809  67.074  1.00  0.00    -0.238 C  
BRANCH   7   8
HETATM    8  C   UNL     2     -11.362  14.347  66.685  1.00  0.00    -0.359 C  
BRANCH   8   9
HETATM    9  C   UNL     2     -11.901  13.278  67.647  1.00  0.00    -0.400 C  
BRANCH   9  10
HETATM   10  C   UNL     2     -11.660  11.829  67.204  1.00  0.00    -0.342 C  
BRANCH  10  11
HETATM   11  C   UNL     2     -11.496  10.866  68.382  1.00  0.00    -0.374 C  
BRANCH  11  12
HETATM   12  C   UNL     2     -11.908  11.471  69.729  1.00  0.00    -0.429 C  
BRANCH  12  13
HETATM   13  C   UNL     2     -11.637  10.559  70.928  1.00  0.00    -0.292 C  
BRANCH  13  14
HETATM   14  O   UNL     2     -12.161   9.271  70.652  1.00  0.00    -0.224 OA 
HETATM   15  S   UNL     2     -12.653   8.360  71.907  1.00  0.00    -0.367 S  
HETATM   16  O   UNL     2     -13.183   7.158  71.254  1.00  0.00    -0.377 OA 
HETATM   17  O   UNL     2     -13.680   9.166  72.556  1.00  0.00    -0.474 OA 
HETATM   18  O   UNL     2     -11.448   8.140  72.687  1.00  0.00    -0.392 OA 
ENDBRANCH  13  14
ENDBRANCH  12  13
ENDBRANCH  11  12
ENDBRANCH  10  11
ENDBRANCH   9  10
ENDBRANCH   8   9
ENDBRANCH   7   8
ENDBRANCH   6   7
ENDBRANCH   5   6
ENDBRANCH   4   5
ENDBRANCH   3   4
TORSDOF 11
ENDMDL
MODEL      222
REMARK 921   NORMALIZED FREE ENERGY PREDICTED BY IDOCK:   -3.21 KCAL/MOL
REMARK 922        TOTAL FREE ENERGY PREDICTED BY IDOCK:   -6.72 KCAL/MOL
REMARK 923 INTER-LIGAND FREE ENERGY PREDICTED BY IDOCK:   -5.52 KCAL/MOL
REMARK 924 INTRA-LIGAND FREE ENERGY PREDICTED BY IDOCK:   -1.20 KCAL/MOL
REMARK 927      BINDING AFFINITY PREDICTED BY RF-SCORE:    0.00 PKD
ROOT
HETATM    1 NA   UNL     1     -12.208   6.543  66.985  1.00  0.00    -0.663 Na 
HETATM    2  C   UNL     2      -6.464   9.968  68.068  1.00  0.00    -0.058 C  
HETATM    3  C   UNL     2      -7.823   9.339  68.332  1.00  0.00    -0.094 C  
ENDROOT
BRANCH   3   4
HETATM    4  C   UNL     2      -7.669   7.882  68.758  1.00  0.00    -0.112 C  
BRANCH   4   5
HETATM    5  C   UNL     2      -8.471   7.567  70.023  1.00  0.00    -0.137 C  
BRANCH   5   6
HETATM    6  C   UNL     2      -8.171   8.535  71.175  1.00  0.00    -0.172 C  
BRANCH   6   7
HETATM    7  C   UNL     2      -9.441   9.178  71.731  1.00  0.00    -0.097 C  
BRANCH   7   8
HETATM    8  C   UNL     2     -10.713   8.445  71.312  1.00  0.00    -0.286 C  
BRANCH   8   9
HETATM    9  C   UNL     2     -11.697   9.374  70.587  1.00  0.00    -0.302 C  
BRANCH   9  10
HETATM   10  C   UNL     2     -11.071  10.642  69.992  1.00  0.00    -0.359 C  
BRANCH  10  11
HETATM   11  C   UNL     2     -11.863  11.196  68.805  1.00  0.00    -0.388 C  
BRANCH  11  12
HETATM   12  C   UNL     2     -11.134  11.054  67.463  1.00  0.00    -0.366 C  
BRANCH  12  13
HETATM   13  C   UNL     2     -10.780  12.390  66.805  1.00  0.00    -0.234 C  
BRANCH  13  14
HETATM   14  O   UNL     2     -10.837  12.237  65.397  1.00  0.00    -0.270 OA 
HETATM   15  S   UNL     2     -11.919  13.130  64.573  1.00  0.00    -0.415 S  
HETATM   16  O   UNL     2     -11.651  12.768  63.178  1.00  0.00    -0.445 OA 
HETATM   17  O   UNL     2     -11.566  14.508  64.891  1.00  0.00    -0.365 OA 
HETATM   18  O   UNL     2     -13.208  12.686  65.074  1.00  0.00    -0.753 OA 
ENDBRANCH  13  14
ENDBRANCH  12  13
ENDBRANCH  11  12
ENDBRANCH  10  11
ENDBRANCH   9  10
ENDBRANCH   8   9
ENDBRANCH   7   8
ENDBRANCH   6   7
ENDBRANCH   5   6
ENDBRANCH   4   5
ENDBRANCH   3   4
TORSDOF 11
ENDMDL
MODEL      223
REMARK 921   NORMALIZED FREE ENERGY PREDICTED BY IDOCK:   -3.21 KCAL/MOL
REMARK 922        TOTAL FREE ENERGY PREDICTED BY IDOCK:   -6.71 KCAL/MOL
REMARK 923 INTER-LIGAND FREE ENERGY PREDICTED BY IDOCK:   -5.98 KCAL/MOL
REMARK 924 INTRA-LIGAND FREE ENERGY PREDICTED BY IDOCK:   -0.73 KCAL/MOL
REMARK 927      BINDING AFFINITY PREDICTED BY RF-SCORE:    0.00 PKD
ROOT
HETATM    1 NA   UNL     1     -12.511  12.811  69.022  1.00  0.00    -0.278 Na 
HETATM    2  C   UNL     2     -10.046  18.439  66.166  1.00  0.00    -0.376 C  
HETATM    3  C   UNL     2     -10.095  17.029  66.734  1.00  0.00    -0.300 C  
ENDROOT
BRANCH   3   4
HETATM    4  C   UNL     2     -10.535  16.032  65.666  1.00  0.00    -0.416 C  
BRANCH   4   5
HETATM    5  C   UNL     2     -10.511  14.591  66.182  1.00  0.00    -0.303 C  
BRANCH   5   6
HETATM    6  C   UNL     2     -11.878  13.901  66.088  1.00  0.00    -0.422 C  
BRANCH   6   7
HETATM    7  C   UNL     2     -12.157  13.369  64.683  1.00  0.00    -0.456 C  
BRANCH   7   8
HETATM    8  C   UNL     2     -10.902  12.863  63.976  1.00  0.00    -0.443 C  
BRANCH   8   9
HETATM    9  C   UNL     2     -10.671  11.364  64.217  1.00  0.00    -0.420 C  
BRANCH   9  10
HETATM   10  C   UNL     2      -9.817  11.031  65.447  1.00  0.00    -0.301 C  
BRANCH  10  11
HETATM   11  C   UNL     2     -10.657  10.697  66.683  1.00  0.00    -0.276 C  
BRANCH  11  12
HETATM   12  C   UNL     2     -10.177   9.447  67.430  1.00  0.00    -0.298 C  
BRANCH  12  13
HETATM   13  C   UNL     2      -9.987   9.658  68.934  1.00  0.00    -0.178 C  
BRANCH  13  14
HETATM   14  O   UNL     2     -10.810   8.741  69.633  1.00  0.00    -0.231 OA 
HETATM   15  S   UNL     2     -11.248   9.111  71.156  1.00  0.00    -0.357 S  
HETATM   16  O   UNL     2     -12.127   7.998  71.527  1.00  0.00    -0.283 OA 
HETATM   17  O   UNL     2     -11.948  10.384  71.029  1.00  0.00    -0.339 OA 
HETATM   18  O   UNL     2      -9.996   9.160  71.889  1.00  0.00    -0.308 OA 
ENDBRANCH  13  14
ENDBRANCH  12  13
ENDBRANCH  11  12
ENDBRANCH  10  11
ENDBRANCH   9  10
ENDBRANCH   8   9
ENDBRANCH   7   8
ENDBRANCH   6   7
ENDBRANCH   5   6
ENDBRANCH   4   5
ENDBRANCH   3   4
TORSDOF 11
ENDMDL
MODEL      224
REMARK 921   NORMALIZED FREE ENERGY PREDICTED BY IDOCK:   -3.21 KCAL/MOL
REMARK 922        TOTAL FREE ENERGY PREDICTED BY IDOCK:   -6.71 KCAL/MOL
REMARK 923 INTER-LIGAND FREE ENERGY PREDICTED BY IDOCK:   -5.51 KCAL/MOL
REMARK 924 INTRA-LIGAND FREE ENERGY PREDICTED BY IDOCK:   -1.21 KCAL/MOL
REMARK 927      BINDING AFFINITY PREDICTED BY RF-SCORE:    0.00 PKD
ROOT
HETATM    1 NA   UNL     1      -9.375  12.663  63.394  1.00  0.00    -0.523 Na 
HETATM    2  C   UNL     2     -10.452  15.234  69.568  1.00  0.00    -0.265 C  
HETATM    3  C   UNL     2      -9.772  14.951  68.238  1.00  0.00    -0.215 C  
ENDROOT
BRANCH   3   4
HETATM    4  C   UNL     2     -10.274  15.909  67.161  1.00  0.00    -0.278 C  
BRANCH   4   5
HETATM    5  C   UNL     2     -10.886  15.164  65.972  1.00  0.00    -0.335 C  
BRANCH   5   6
HETATM    6  C   UNL     2     -12.056  14.257  66.375  1.00  0.00    -0.442 C  
BRANCH   6   7
HETATM    7  C   UNL     2     -12.446  13.291  65.257  1.00  0.00    -0.543 C  
BRANCH   7   8
HETATM    8  C   UNL     2     -11.593  12.024  65.239  1.00  0.00    -0.337 C  
BRANCH   8   9
HETATM    9  C   UNL     2     -11.187  11.585  66.653  1.00  0.00    -0.336 C  
BRANCH   9  10
HETATM   10  C   UNL     2      -9.675  11.490  66.892  1.00  0.00    -0.205 C  
BRANCH  10  11
HETATM   11  C   UNL     2      -9.318  11.251  68.361  1.00  0.00    -0.181 C  
BRANCH  11  12
HETATM   12  C   UNL     2     -10.468  10.653  69.181  1.00  0.00    -0.245 C  
BRANCH  12  13
HETATM   13  C   UNL     2     -10.088   9.383  69.947  1.00  0.00    -0.218 C  
BRANCH  13  14
HETATM   14  O   UNL     2     -11.250   8.594  70.131  1.00  0.00    -0.237 OA 
HETATM   15  S   UNL     2     -11.252   7.503  71.338  1.00  0.00    -0.247 S  
HETATM   16  O   UNL     2     -12.604   6.938  71.269  1.00  0.00    -0.375 OA 
HETATM   17  O   UNL     2     -11.017   8.296  72.539  1.00  0.00    -0.338 OA 
HETATM   18  O   UNL     2     -10.193   6.575  70.987  1.00  0.00    -0.187 OA 
ENDBRANCH  13  14
ENDBRANCH  12  13
ENDBRANCH  11  12
ENDBRANCH  10  11
ENDBRANCH   9  10
ENDBRANCH   8   9
ENDBRANCH   7   8
ENDBRANCH   6   7
ENDBRANCH   5   6
ENDBRANCH   4   5
ENDBRANCH   3   4
TORSDOF 11
ENDMDL
MODEL      225
REMARK 921   NORMALIZED FREE ENERGY PREDICTED BY IDOCK:   -3.20 KCAL/MOL
REMARK 922        TOTAL FREE ENERGY PREDICTED BY IDOCK:   -6.70 KCAL/MOL
REMARK 923 INTER-LIGAND FREE ENERGY PREDICTED BY IDOCK:   -6.09 KCAL/MOL
REMARK 924 INTRA-LIGAND FREE ENERGY PREDICTED BY IDOCK:   -0.61 KCAL/MOL
REMARK 927      BINDING AFFINITY PREDICTED BY RF-SCORE:    0.00 PKD
ROOT
HETATM    1 NA   UNL     1      -7.560  20.964  72.116  1.00  0.00    -0.846 Na 
HETATM    2  C   UNL     2      -6.764  20.465  65.407  1.00  0.00    -0.299 C  
HETATM    3  C   UNL     2      -6.565  20.206  66.892  1.00  0.00    -0.251 C  
ENDROOT
BRANCH   3   4
HETATM    4  C   UNL     2      -7.558  19.162  67.395  1.00  0.00    -0.256 C  
BRANCH   4   5
HETATM    5  C   UNL     2      -8.261  18.438  66.244  1.00  0.00    -0.245 C  
BRANCH   5   6
HETATM    6  C   UNL     2      -9.790  18.464  66.369  1.00  0.00    -0.369 C  
BRANCH   6   7
HETATM    7  C   UNL     2     -10.401  17.071  66.227  1.00  0.00    -0.309 C  
BRANCH   7   8
HETATM    8  C   UNL     2      -9.352  15.964  66.151  1.00  0.00    -0.385 C  
BRANCH   8   9
HETATM    9  C   UNL     2      -9.971  14.612  65.767  1.00  0.00    -0.365 C  
BRANCH   9  10
HETATM   10  C   UNL     2     -11.132  14.694  64.767  1.00  0.00    -0.394 C  
BRANCH  10  11
HETATM   11  C   UNL     2     -11.848  13.354  64.576  1.00  0.00    -0.440 C  
BRANCH  11  12
HETATM   12  C   UNL     2     -11.170  12.438  63.551  1.00  0.00    -0.540 C  
BRANCH  12  13
HETATM   13  C   UNL     2     -10.456  11.234  64.172  1.00  0.00    -0.369 C  
BRANCH  13  14
HETATM   14  O   UNL     2     -10.520  11.341  65.584  1.00  0.00    -0.253 OA 
HETATM   15  S   UNL     2      -9.682  10.266  66.472  1.00  0.00    -0.202 S  
HETATM   16  O   UNL     2      -9.923  10.715  67.847  1.00  0.00    -0.161 OA 
HETATM   17  O   UNL     2      -8.301  10.441  66.040  1.00  0.00    -0.137 OA 
HETATM   18  O   UNL     2     -10.279   8.984  66.143  1.00  0.00    -0.267 OA 
ENDBRANCH  13  14
ENDBRANCH  12  13
ENDBRANCH  11  12
ENDBRANCH  10  11
ENDBRANCH   9  10
ENDBRANCH   8   9
ENDBRANCH   7   8
ENDBRANCH   6   7
ENDBRANCH   5   6
ENDBRANCH   4   5
ENDBRANCH   3   4
TORSDOF 11
ENDMDL
MODEL      226
REMARK 921   NORMALIZED FREE ENERGY PREDICTED BY IDOCK:   -3.20 KCAL/MOL
REMARK 922        TOTAL FREE ENERGY PREDICTED BY IDOCK:   -6.70 KCAL/MOL
REMARK 923 INTER-LIGAND FREE ENERGY PREDICTED BY IDOCK:   -6.13 KCAL/MOL
REMARK 924 INTRA-LIGAND FREE ENERGY PREDICTED BY IDOCK:   -0.56 KCAL/MOL
REMARK 927      BINDING AFFINITY PREDICTED BY RF-SCORE:    0.00 PKD
ROOT
HETATM    1 NA   UNL     1     -11.515  13.158  71.255  1.00  0.00    -0.450 Na 
HETATM    2  C   UNL     2     -11.095   6.621  72.986  1.00  0.00    -0.238 C  
HETATM    3  C   UNL     2     -11.619   7.900  72.351  1.00  0.00    -0.436 C  
ENDROOT
BRANCH   3   4
HETATM    4  C   UNL     2     -10.954   8.143  70.999  1.00  0.00    -0.273 C  
BRANCH   4   5
HETATM    5  C   UNL     2     -10.308   9.527  70.919  1.00  0.00    -0.372 C  
BRANCH   5   6
HETATM    6  C   UNL     2     -10.963  10.431  69.866  1.00  0.00    -0.364 C  
BRANCH   6   7
HETATM    7  C   UNL     2     -10.162  10.471  68.565  1.00  0.00    -0.190 C  
BRANCH   7   8
HETATM    8  C   UNL     2      -8.978  11.434  68.621  1.00  0.00    -0.133 C  
BRANCH   8   9
HETATM    9  C   UNL     2      -9.095  12.548  67.571  1.00  0.00    -0.187 C  
BRANCH   9  10
HETATM   10  C   UNL     2      -9.757  13.840  68.069  1.00  0.00    -0.232 C  
BRANCH  10  11
HETATM   11  C   UNL     2     -11.274  13.847  67.866  1.00  0.00    -0.302 C  
BRANCH  11  12
HETATM   12  C   UNL     2     -11.748  14.873  66.829  1.00  0.00    -0.243 C  
BRANCH  12  13
HETATM   13  C   UNL     2     -11.185  14.639  65.425  1.00  0.00    -0.347 C  
BRANCH  13  14
HETATM   14  O   UNL     2     -12.189  14.045  64.621  1.00  0.00    -0.417 OA 
HETATM   15  S   UNL     2     -12.068  12.455  64.296  1.00  0.00    -0.445 S  
HETATM   16  O   UNL     2     -13.283  12.183  63.521  1.00  0.00    -0.744 OA 
HETATM   17  O   UNL     2     -12.065  11.819  65.609  1.00  0.00    -0.336 OA 
HETATM   18  O   UNL     2     -10.833  12.334  63.543  1.00  0.00    -0.425 OA 
ENDBRANCH  13  14
ENDBRANCH  12  13
ENDBRANCH  11  12
ENDBRANCH  10  11
ENDBRANCH   9  10
ENDBRANCH   8   9
ENDBRANCH   7   8
ENDBRANCH   6   7
ENDBRANCH   5   6
ENDBRANCH   4   5
ENDBRANCH   3   4
TORSDOF 11
ENDMDL
MODEL      227
REMARK 921   NORMALIZED FREE ENERGY PREDICTED BY IDOCK:   -3.20 KCAL/MOL
REMARK 922        TOTAL FREE ENERGY PREDICTED BY IDOCK:   -6.70 KCAL/MOL
REMARK 923 INTER-LIGAND FREE ENERGY PREDICTED BY IDOCK:   -5.50 KCAL/MOL
REMARK 924 INTRA-LIGAND FREE ENERGY PREDICTED BY IDOCK:   -1.19 KCAL/MOL
REMARK 927      BINDING AFFINITY PREDICTED BY RF-SCORE:    0.00 PKD
ROOT
HETATM    1 NA   UNL     1     -10.272   3.643  69.923  1.00  0.00    -0.199 Na 
HETATM    2  C   UNL     2     -10.132   9.378  66.320  1.00  0.00    -0.328 C  
HETATM    3  C   UNL     2     -10.475   8.397  67.430  1.00  0.00    -0.354 C  
ENDROOT
BRANCH   3   4
HETATM    4  C   UNL     2      -9.407   8.419  68.519  1.00  0.00    -0.139 C  
BRANCH   4   5
HETATM    5  C   UNL     2      -9.845   7.649  69.767  1.00  0.00    -0.181 C  
BRANCH   5   6
HETATM    6  C   UNL     2      -9.466   8.361  71.072  1.00  0.00    -0.212 C  
BRANCH   6   7
HETATM    7  C   UNL     2     -10.695   8.746  71.894  1.00  0.00    -0.429 C  
BRANCH   7   8
HETATM    8  C   UNL     2     -11.924   9.028  71.033  1.00  0.00    -0.323 C  
BRANCH   8   9
HETATM    9  C   UNL     2     -12.151  10.534  70.832  1.00  0.00    -0.487 C  
BRANCH   9  10
HETATM   10  C   UNL     2     -11.300  11.174  69.727  1.00  0.00    -0.354 C  
BRANCH  10  11
HETATM   11  C   UNL     2     -12.019  12.321  69.012  1.00  0.00    -0.300 C  
BRANCH  11  12
HETATM   12  C   UNL     2     -11.701  12.404  67.514  1.00  0.00    -0.425 C  
BRANCH  12  13
HETATM   13  C   UNL     2     -11.361  13.816  67.029  1.00  0.00    -0.326 C  
BRANCH  13  14
HETATM   14  O   UNL     2     -10.481  14.421  67.961  1.00  0.00    -0.232 OA 
HETATM   15  S   UNL     2     -10.834  15.920  68.485  1.00  0.00    -0.316 S  
HETATM   16  O   UNL     2      -9.772  16.186  69.461  1.00  0.00    -0.244 OA 
HETATM   17  O   UNL     2     -12.154  15.787  69.090  1.00  0.00    -0.353 OA 
HETATM   18  O   UNL     2     -10.776  16.743  67.291  1.00  0.00    -0.298 OA 
ENDBRANCH  13  14
ENDBRANCH  12  13
ENDBRANCH  11  12
ENDBRANCH  10  11
ENDBRANCH   9  10
ENDBRANCH   8   9
ENDBRANCH   7   8
ENDBRANCH   6   7
ENDBRANCH   5   6
ENDBRANCH   4   5
ENDBRANCH   3   4
TORSDOF 11
ENDMDL
MODEL      228
REMARK 921   NORMALIZED FREE ENERGY PREDICTED BY IDOCK:   -3.20 KCAL/MOL
REMARK 922        TOTAL FREE ENERGY PREDICTED BY IDOCK:   -6.69 KCAL/MOL
REMARK 923 INTER-LIGAND FREE ENERGY PREDICTED BY IDOCK:   -5.30 KCAL/MOL
REMARK 924 INTRA-LIGAND FREE ENERGY PREDICTED BY IDOCK:   -1.39 KCAL/MOL
REMARK 927      BINDING AFFINITY PREDICTED BY RF-SCORE:    0.00 PKD
ROOT
HETATM    1 NA   UNL     1      -7.865  11.463  70.280  1.00  0.00    -0.326 Na 
HETATM    2  C   UNL     2     -10.513   5.777  67.720  1.00  0.00    -0.289 C  
HETATM    3  C   UNL     2      -9.544   6.706  68.436  1.00  0.00    -0.123 C  
ENDROOT
BRANCH   3   4
HETATM    4  C   UNL     2      -9.936   6.870  69.901  1.00  0.00    -0.185 C  
BRANCH   4   5
HETATM    5  C   UNL     2     -11.413   6.545  70.139  1.00  0.00    -0.477 C  
BRANCH   5   6
HETATM    6  C   UNL     2     -11.800   6.580  71.623  1.00  0.00    -0.384 C  
BRANCH   6   7
HETATM    7  C   UNL     2     -12.783   7.708  71.934  1.00  0.00    -0.320 C  
BRANCH   7   8
HETATM    8  C   UNL     2     -12.098   9.059  72.133  1.00  0.00    -0.412 C  
BRANCH   8   9
HETATM    9  C   UNL     2     -12.950  10.218  71.596  1.00  0.00    -0.570 C  
BRANCH   9  10
HETATM   10  C   UNL     2     -12.292  11.041  70.480  1.00  0.00    -0.462 C  
BRANCH  10  11
HETATM   11  C   UNL     2     -11.049  10.365  69.896  1.00  0.00    -0.367 C  
BRANCH  11  12
HETATM   12  C   UNL     2     -11.052  10.296  68.364  1.00  0.00    -0.302 C  
BRANCH  12  13
HETATM   13  C   UNL     2      -9.657  10.373  67.737  1.00  0.00    -0.152 C  
BRANCH  13  14
HETATM   14  O   UNL     2      -9.780  10.823  66.399  1.00  0.00    -0.187 OA 
HETATM   15  S   UNL     2      -8.798  10.169  65.279  1.00  0.00    -0.193 S  
HETATM   16  O   UNL     2      -9.245  10.807  64.037  1.00  0.00    -0.206 OA 
HETATM   17  O   UNL     2      -9.091   8.742  65.333  1.00  0.00    -0.200 OA 
HETATM   18  O   UNL     2      -7.463  10.548  65.704  1.00  0.00    -0.148 OA 
ENDBRANCH  13  14
ENDBRANCH  12  13
ENDBRANCH  11  12
ENDBRANCH  10  11
ENDBRANCH   9  10
ENDBRANCH   8   9
ENDBRANCH   7   8
ENDBRANCH   6   7
ENDBRANCH   5   6
ENDBRANCH   4   5
ENDBRANCH   3   4
TORSDOF 11
ENDMDL
MODEL      229
REMARK 921   NORMALIZED FREE ENERGY PREDICTED BY IDOCK:   -3.19 KCAL/MOL
REMARK 922        TOTAL FREE ENERGY PREDICTED BY IDOCK:   -6.68 KCAL/MOL
REMARK 923 INTER-LIGAND FREE ENERGY PREDICTED BY IDOCK:   -5.88 KCAL/MOL
REMARK 924 INTRA-LIGAND FREE ENERGY PREDICTED BY IDOCK:   -0.80 KCAL/MOL
REMARK 927      BINDING AFFINITY PREDICTED BY RF-SCORE:    0.00 PKD
ROOT
HETATM    1 NA   UNL     1     -14.411  15.908  73.153  1.00  0.00    -0.525 Na 
HETATM    2  C   UNL     2     -11.829  14.003  67.186  1.00  0.00    -0.444 C  
HETATM    3  C   UNL     2     -11.892  14.497  68.624  1.00  0.00    -0.355 C  
ENDROOT
BRANCH   3   4
HETATM    4  C   UNL     2     -11.922  13.322  69.597  1.00  0.00    -0.376 C  
BRANCH   4   5
HETATM    5  C   UNL     2     -12.557  13.703  70.936  1.00  0.00    -0.421 C  
BRANCH   5   6
HETATM    6  C   UNL     2     -12.998  12.483  71.756  1.00  0.00    -0.419 C  
BRANCH   6   7
HETATM    7  C   UNL     2     -12.539  11.170  71.123  1.00  0.00    -0.513 C  
BRANCH   7   8
HETATM    8  C   UNL     2     -13.246   9.948  71.706  1.00  0.00    -0.535 C  
BRANCH   8   9
HETATM    9  C   UNL     2     -12.251   8.937  72.296  1.00  0.00    -0.413 C  
BRANCH   9  10
HETATM   10  C   UNL     2     -12.345   7.522  71.711  1.00  0.00    -0.357 C  
BRANCH  10  11
HETATM   11  C   UNL     2     -11.315   6.561  72.312  1.00  0.00    -0.318 C  
BRANCH  11  12
HETATM   12  C   UNL     2     -10.441   7.201  73.398  1.00  0.00    -0.410 C  
BRANCH  12  13
HETATM   13  C   UNL     2      -9.000   7.468  72.956  1.00  0.00    -0.159 C  
BRANCH  13  14
HETATM   14  O   UNL     2      -8.846   7.042  71.613  1.00  0.00    -0.130 OA 
HETATM   15  S   UNL     2      -8.257   8.108  70.534  1.00  0.00    -0.121 S  
HETATM   16  O   UNL     2      -8.173   7.317  69.302  1.00  0.00    -0.127 OA 
HETATM   17  O   UNL     2      -6.954   8.481  71.072  1.00  0.00    -0.050 OA 
HETATM   18  O   UNL     2      -9.245   9.171  70.502  1.00  0.00    -0.200 OA 
ENDBRANCH  13  14
ENDBRANCH  12  13
ENDBRANCH  11  12
ENDBRANCH  10  11
ENDBRANCH   9  10
ENDBRANCH   8   9
ENDBRANCH   7   8
ENDBRANCH   6   7
ENDBRANCH   5   6
ENDBRANCH   4   5
ENDBRANCH   3   4
TORSDOF 11
ENDMDL
MODEL      230
REMARK 921   NORMALIZED FREE ENERGY PREDICTED BY IDOCK:   -3.19 KCAL/MOL
REMARK 922        TOTAL FREE ENERGY PREDICTED BY IDOCK:   -6.68 KCAL/MOL
REMARK 923 INTER-LIGAND FREE ENERGY PREDICTED BY IDOCK:   -4.78 KCAL/MOL
REMARK 924 INTRA-LIGAND FREE ENERGY PREDICTED BY IDOCK:   -1.90 KCAL/MOL
REMARK 927      BINDING AFFINITY PREDICTED BY RF-SCORE:    0.00 PKD
ROOT
HETATM    1 NA   UNL     1     -12.481  12.149  69.701  1.00  0.00    -0.261 Na 
HETATM    2  C   UNL     2      -6.758   8.525  69.809  1.00  0.00    -0.039 C  
HETATM    3  C   UNL     2      -7.802   9.558  70.204  1.00  0.00    -0.168 C  
ENDROOT
BRANCH   3   4
HETATM    4  C   UNL     2      -8.847   8.942  71.130  1.00  0.00    -0.297 C  
BRANCH   4   5
HETATM    5  C   UNL     2     -10.251   9.482  70.850  1.00  0.00    -0.356 C  
BRANCH   5   6
HETATM    6  C   UNL     2     -11.360   8.568  71.387  1.00  0.00    -0.330 C  
BRANCH   6   7
HETATM    7  C   UNL     2     -10.815   7.225  71.869  1.00  0.00    -0.255 C  
BRANCH   7   8
HETATM    8  C   UNL     2     -11.156   6.070  70.930  1.00  0.00    -0.352 C  
BRANCH   8   9
HETATM    9  C   UNL     2     -11.096   6.494  69.455  1.00  0.00    -0.407 C  
BRANCH   9  10
HETATM   10  C   UNL     2      -9.737   6.277  68.775  1.00  0.00    -0.141 C  
BRANCH  10  11
HETATM   11  C   UNL     2      -9.562   7.123  67.511  1.00  0.00    -0.159 C  
BRANCH  11  12
HETATM   12  C   UNL     2     -10.581   8.263  67.392  1.00  0.00    -0.324 C  
BRANCH  12  13
HETATM   13  C   UNL     2     -10.016   9.536  66.757  1.00  0.00    -0.233 C  
BRANCH  13  14
HETATM   14  O   UNL     2     -10.055  10.581  67.713  1.00  0.00    -0.166 OA 
HETATM   15  S   UNL     2     -10.530  12.056  67.216  1.00  0.00    -0.222 S  
HETATM   16  O   UNL     2     -10.514  12.842  68.453  1.00  0.00    -0.241 OA 
HETATM   17  O   UNL     2     -11.870  11.842  66.684  1.00  0.00    -0.591 OA 
HETATM   18  O   UNL     2      -9.528  12.447  66.240  1.00  0.00    -0.233 OA 
ENDBRANCH  13  14
ENDBRANCH  12  13
ENDBRANCH  11  12
ENDBRANCH  10  11
ENDBRANCH   9  10
ENDBRANCH   8   9
ENDBRANCH   7   8
ENDBRANCH   6   7
ENDBRANCH   5   6
ENDBRANCH   4   5
ENDBRANCH   3   4
TORSDOF 11
ENDMDL
MODEL      231
REMARK 921   NORMALIZED FREE ENERGY PREDICTED BY IDOCK:   -3.18 KCAL/MOL
REMARK 922        TOTAL FREE ENERGY PREDICTED BY IDOCK:   -6.67 KCAL/MOL
REMARK 923 INTER-LIGAND FREE ENERGY PREDICTED BY IDOCK:   -5.44 KCAL/MOL
REMARK 924 INTRA-LIGAND FREE ENERGY PREDICTED BY IDOCK:   -1.23 KCAL/MOL
REMARK 927      BINDING AFFINITY PREDICTED BY RF-SCORE:    0.00 PKD
ROOT
HETATM    1 NA   UNL     1     -11.719   4.683  64.308  1.00  0.00    -0.443 Na 
HETATM    2  C   UNL     2      -8.937  10.635  65.962  1.00  0.00    -0.189 C  
HETATM    3  C   UNL     2      -9.918   9.473  65.943  1.00  0.00    -0.342 C  
ENDROOT
BRANCH   3   4
HETATM    4  C   UNL     2      -9.485   8.385  66.922  1.00  0.00    -0.239 C  
BRANCH   4   5
HETATM    5  C   UNL     2     -10.682   7.661  67.541  1.00  0.00    -0.280 C  
BRANCH   5   6
HETATM    6  C   UNL     2     -10.309   6.846  68.786  1.00  0.00    -0.200 C  
BRANCH   6   7
HETATM    7  C   UNL     2      -9.835   7.737  69.934  1.00  0.00    -0.177 C  
BRANCH   7   8
HETATM    8  C   UNL     2     -10.736   7.653  71.165  1.00  0.00    -0.242 C  
BRANCH   8   9
HETATM    9  C   UNL     2     -11.476   8.973  71.424  1.00  0.00    -0.400 C  
BRANCH   9  10
HETATM   10  C   UNL     2     -11.022  10.151  70.552  1.00  0.00    -0.380 C  
BRANCH  10  11
HETATM   11  C   UNL     2     -12.164  10.760  69.734  1.00  0.00    -0.359 C  
BRANCH  11  12
HETATM   12  C   UNL     2     -11.692  11.481  68.465  1.00  0.00    -0.379 C  
BRANCH  12  13
HETATM   13  C   UNL     2     -11.877  13.000  68.510  1.00  0.00    -0.325 C  
BRANCH  13  14
HETATM   14  O   UNL     2     -10.707  13.619  68.003  1.00  0.00    -0.238 OA 
HETATM   15  S   UNL     2     -10.874  15.009  67.174  1.00  0.00    -0.319 S  
HETATM   16  O   UNL     2      -9.488  15.382  66.873  1.00  0.00    -0.215 OA 
HETATM   17  O   UNL     2     -11.526  15.912  68.114  1.00  0.00    -0.350 OA 
HETATM   18  O   UNL     2     -11.665  14.642  66.012  1.00  0.00    -0.359 OA 
ENDBRANCH  13  14
ENDBRANCH  12  13
ENDBRANCH  11  12
ENDBRANCH  10  11
ENDBRANCH   9  10
ENDBRANCH   8   9
ENDBRANCH   7   8
ENDBRANCH   6   7
ENDBRANCH   5   6
ENDBRANCH   4   5
ENDBRANCH   3   4
TORSDOF 11
ENDMDL
MODEL      232
REMARK 921   NORMALIZED FREE ENERGY PREDICTED BY IDOCK:   -3.18 KCAL/MOL
REMARK 922        TOTAL FREE ENERGY PREDICTED BY IDOCK:   -6.66 KCAL/MOL
REMARK 923 INTER-LIGAND FREE ENERGY PREDICTED BY IDOCK:   -5.74 KCAL/MOL
REMARK 924 INTRA-LIGAND FREE ENERGY PREDICTED BY IDOCK:   -0.92 KCAL/MOL
REMARK 927      BINDING AFFINITY PREDICTED BY RF-SCORE:    0.00 PKD
ROOT
HETATM    1 NA   UNL     1      -7.312  13.471  70.384  1.00  0.00    -0.329 Na 
HETATM    2  C   UNL     2     -13.813  15.056  71.445  1.00  0.00    -0.560 C  
HETATM    3  C   UNL     2     -12.300  15.198  71.381  1.00  0.00    -0.411 C  
ENDROOT
BRANCH   3   4
HETATM    4  C   UNL     2     -11.858  15.641  69.989  1.00  0.00    -0.381 C  
BRANCH   4   5
HETATM    5  C   UNL     2     -11.120  14.529  69.241  1.00  0.00    -0.296 C  
BRANCH   5   6
HETATM    6  C   UNL     2     -10.873  14.865  67.764  1.00  0.00    -0.286 C  
BRANCH   6   7
HETATM    7  C   UNL     2     -11.024  13.640  66.863  1.00  0.00    -0.296 C  
BRANCH   7   8
HETATM    8  C   UNL     2     -11.873  12.538  67.492  1.00  0.00    -0.389 C  
BRANCH   8   9
HETATM    9  C   UNL     2     -11.126  11.198  67.547  1.00  0.00    -0.353 C  
BRANCH   9  10
HETATM   10  C   UNL     2      -9.847  11.205  68.396  1.00  0.00    -0.188 C  
BRANCH  10  11
HETATM   11  C   UNL     2      -9.333   9.797  68.708  1.00  0.00    -0.150 C  
BRANCH  11  12
HETATM   12  C   UNL     2      -9.452   9.416  70.188  1.00  0.00    -0.276 C  
BRANCH  12  13
HETATM   13  C   UNL     2     -10.877   9.066  70.625  1.00  0.00    -0.243 C  
BRANCH  13  14
HETATM   14  O   UNL     2     -11.439  10.182  71.293  1.00  0.00    -0.353 OA 
HETATM   15  S   UNL     2     -13.059  10.341  71.289  1.00  0.00    -0.385 S  
HETATM   16  O   UNL     2     -13.275  11.537  72.110  1.00  0.00    -0.505 OA 
HETATM   17  O   UNL     2     -13.542   9.115  71.913  1.00  0.00    -0.383 OA 
HETATM   18  O   UNL     2     -13.401  10.503  69.887  1.00  0.00     0.047 OA 
ENDBRANCH  13  14
ENDBRANCH  12  13
ENDBRANCH  11  12
ENDBRANCH  10  11
ENDBRANCH   9  10
ENDBRANCH   8   9
ENDBRANCH   7   8
ENDBRANCH   6   7
ENDBRANCH   5   6
ENDBRANCH   4   5
ENDBRANCH   3   4
TORSDOF 11
ENDMDL
MODEL      233
REMARK 921   NORMALIZED FREE ENERGY PREDICTED BY IDOCK:   -3.18 KCAL/MOL
REMARK 922        TOTAL FREE ENERGY PREDICTED BY IDOCK:   -6.66 KCAL/MOL
REMARK 923 INTER-LIGAND FREE ENERGY PREDICTED BY IDOCK:   -5.93 KCAL/MOL
REMARK 924 INTRA-LIGAND FREE ENERGY PREDICTED BY IDOCK:   -0.72 KCAL/MOL
REMARK 927      BINDING AFFINITY PREDICTED BY RF-SCORE:    0.00 PKD
ROOT
HETATM    1 NA   UNL     1     -12.026  16.205  63.420  1.00  0.00    -0.910 Na 
HETATM    2  C   UNL     2      -8.253  20.333  67.244  1.00  0.00    -0.393 C  
HETATM    3  C   UNL     2      -9.274  19.877  66.213  1.00  0.00    -0.457 C  
ENDROOT
BRANCH   3   4
HETATM    4  C   UNL     2     -10.628  19.622  66.870  1.00  0.00    -0.603 C  
BRANCH   4   5
HETATM    5  C   UNL     2     -10.480  19.016  68.268  1.00  0.00    -0.351 C  
BRANCH   5   6
HETATM    6  C   UNL     2     -10.441  17.483  68.253  1.00  0.00    -0.383 C  
BRANCH   6   7
HETATM    7  C   UNL     2      -9.258  16.930  69.047  1.00  0.00    -0.177 C  
BRANCH   7   8
HETATM    8  C   UNL     2      -9.577  15.617  69.758  1.00  0.00    -0.192 C  
BRANCH   8   9
HETATM    9  C   UNL     2     -10.077  14.543  68.780  1.00  0.00    -0.239 C  
BRANCH   9  10
HETATM   10  C   UNL     2     -11.429  13.916  69.145  1.00  0.00    -0.345 C  
BRANCH  10  11
HETATM   11  C   UNL     2     -11.710  12.620  68.378  1.00  0.00    -0.377 C  
BRANCH  11  12
HETATM   12  C   UNL     2     -10.906  11.420  68.891  1.00  0.00    -0.259 C  
BRANCH  12  13
HETATM   13  C   UNL     2      -9.654  11.114  68.065  1.00  0.00    -0.176 C  
BRANCH  13  14
HETATM   14  O   UNL     2     -10.050  10.612  66.801  1.00  0.00    -0.207 OA 
HETATM   15  S   UNL     2      -9.386  11.276  65.471  1.00  0.00    -0.203 S  
HETATM   16  O   UNL     2      -9.964  10.482  64.383  1.00  0.00    -0.321 OA 
HETATM   17  O   UNL     2      -7.954  11.068  65.642  1.00  0.00    -0.094 OA 
HETATM   18  O   UNL     2      -9.823  12.661  65.504  1.00  0.00    -0.242 OA 
ENDBRANCH  13  14
ENDBRANCH  12  13
ENDBRANCH  11  12
ENDBRANCH  10  11
ENDBRANCH   9  10
ENDBRANCH   8   9
ENDBRANCH   7   8
ENDBRANCH   6   7
ENDBRANCH   5   6
ENDBRANCH   4   5
ENDBRANCH   3   4
TORSDOF 11
ENDMDL
MODEL      234
REMARK 921   NORMALIZED FREE ENERGY PREDICTED BY IDOCK:   -3.17 KCAL/MOL
REMARK 922        TOTAL FREE ENERGY PREDICTED BY IDOCK:   -6.64 KCAL/MOL
REMARK 923 INTER-LIGAND FREE ENERGY PREDICTED BY IDOCK:   -5.83 KCAL/MOL
REMARK 924 INTRA-LIGAND FREE ENERGY PREDICTED BY IDOCK:   -0.81 KCAL/MOL
REMARK 927      BINDING AFFINITY PREDICTED BY RF-SCORE:    0.00 PKD
ROOT
HETATM    1 NA   UNL     1     -13.321  15.835  70.417  1.00  0.00    -0.441 Na 
HETATM    2  C   UNL     2     -10.044  19.982  66.180  1.00  0.00    -0.588 C  
HETATM    3  C   UNL     2     -10.816  19.506  67.401  1.00  0.00    -0.536 C  
ENDROOT
BRANCH   3   4
HETATM    4  C   UNL     2      -9.864  18.956  68.460  1.00  0.00    -0.455 C  
BRANCH   4   5
HETATM    5  C   UNL     2     -10.023  17.446  68.645  1.00  0.00    -0.340 C  
BRANCH   5   6
HETATM    6  C   UNL     2      -9.506  16.640  67.445  1.00  0.00    -0.232 C  
BRANCH   6   7
HETATM    7  C   UNL     2     -10.643  15.994  66.655  1.00  0.00    -0.297 C  
BRANCH   7   8
HETATM    8  C   UNL     2     -10.158  15.250  65.412  1.00  0.00    -0.397 C  
BRANCH   8   9
HETATM    9  C   UNL     2     -10.065  13.736  65.650  1.00  0.00    -0.315 C  
BRANCH   9  10
HETATM   10  C   UNL     2     -11.221  13.136  66.461  1.00  0.00    -0.339 C  
BRANCH  10  11
HETATM   11  C   UNL     2     -10.783  12.634  67.839  1.00  0.00    -0.237 C  
BRANCH  11  12
HETATM   12  C   UNL     2     -11.476  11.334  68.265  1.00  0.00    -0.378 C  
BRANCH  12  13
HETATM   13  C   UNL     2     -11.003  10.098  67.495  1.00  0.00    -0.255 C  
BRANCH  13  14
HETATM   14  O   UNL     2      -9.667  10.305  67.071  1.00  0.00    -0.166 OA 
HETATM   15  S   UNL     2      -9.219   9.698  65.630  1.00  0.00    -0.234 S  
HETATM   16  O   UNL     2      -7.831  10.154  65.497  1.00  0.00    -0.135 OA 
HETATM   17  O   UNL     2     -10.127  10.325  64.677  1.00  0.00    -0.345 OA 
HETATM   18  O   UNL     2      -9.369   8.262  65.781  1.00  0.00    -0.145 OA 
ENDBRANCH  13  14
ENDBRANCH  12  13
ENDBRANCH  11  12
ENDBRANCH  10  11
ENDBRANCH   9  10
ENDBRANCH   8   9
ENDBRANCH   7   8
ENDBRANCH   6   7
ENDBRANCH   5   6
ENDBRANCH   4   5
ENDBRANCH   3   4
TORSDOF 11
ENDMDL
MODEL      235
REMARK 921   NORMALIZED FREE ENERGY PREDICTED BY IDOCK:   -3.15 KCAL/MOL
REMARK 922        TOTAL FREE ENERGY PREDICTED BY IDOCK:   -6.62 KCAL/MOL
REMARK 923 INTER-LIGAND FREE ENERGY PREDICTED BY IDOCK:   -5.51 KCAL/MOL
REMARK 924 INTRA-LIGAND FREE ENERGY PREDICTED BY IDOCK:   -1.10 KCAL/MOL
REMARK 927      BINDING AFFINITY PREDICTED BY RF-SCORE:    0.00 PKD
ROOT
HETATM    1 NA   UNL     1     -11.370   4.589  63.868  1.00  0.00    -0.425 Na 
HETATM    2  C   UNL     2      -8.875   8.077  69.112  1.00  0.00    -0.145 C  
HETATM    3  C   UNL     2      -9.011   7.515  67.705  1.00  0.00    -0.131 C  
ENDROOT
BRANCH   3   4
HETATM    4  C   UNL     2      -9.925   8.396  66.859  1.00  0.00    -0.341 C  
BRANCH   4   5
HETATM    5  C   UNL     2      -9.598   9.883  67.020  1.00  0.00    -0.218 C  
BRANCH   5   6
HETATM    6  C   UNL     2     -10.843  10.744  67.270  1.00  0.00    -0.344 C  
BRANCH   6   7
HETATM    7  C   UNL     2     -11.592  10.317  68.532  1.00  0.00    -0.077 C  
BRANCH   7   8
HETATM    8  C   UNL     2     -11.034  10.954  69.802  1.00  0.00    -0.290 C  
BRANCH   8   9
HETATM    9  C   UNL     2     -12.064  11.863  70.489  1.00  0.00    -0.422 C  
BRANCH   9  10
HETATM   10  C   UNL     2     -12.505  13.079  69.663  1.00  0.00     0.053 C  
BRANCH  10  11
HETATM   11  C   UNL     2     -11.572  14.281  69.830  1.00  0.00    -0.337 C  
BRANCH  11  12
HETATM   12  C   UNL     2     -11.069  14.855  68.500  1.00  0.00    -0.275 C  
BRANCH  12  13
HETATM   13  C   UNL     2     -11.942  14.490  67.297  1.00  0.00    -0.344 C  
BRANCH  13  14
HETATM   14  O   UNL     2     -11.112  13.989  66.263  1.00  0.00    -0.301 OA 
HETATM   15  S   UNL     2     -11.793  13.677  64.819  1.00  0.00    -0.409 S  
HETATM   16  O   UNL     2     -10.651  13.253  64.002  1.00  0.00    -0.373 OA 
HETATM   17  O   UNL     2     -12.357  14.956  64.404  1.00  0.00    -0.490 OA 
HETATM   18  O   UNL     2     -12.759  12.629  65.095  1.00  0.00    -0.646 OA 
ENDBRANCH  13  14
ENDBRANCH  12  13
ENDBRANCH  11  12
ENDBRANCH  10  11
ENDBRANCH   9  10
ENDBRANCH   8   9
ENDBRANCH   7   8
ENDBRANCH   6   7
ENDBRANCH   5   6
ENDBRANCH   4   5
ENDBRANCH   3   4
TORSDOF 11
ENDMDL
MODEL      236
REMARK 921   NORMALIZED FREE ENERGY PREDICTED BY IDOCK:   -3.15 KCAL/MOL
REMARK 922        TOTAL FREE ENERGY PREDICTED BY IDOCK:   -6.61 KCAL/MOL
REMARK 923 INTER-LIGAND FREE ENERGY PREDICTED BY IDOCK:   -5.12 KCAL/MOL
REMARK 924 INTRA-LIGAND FREE ENERGY PREDICTED BY IDOCK:   -1.50 KCAL/MOL
REMARK 927      BINDING AFFINITY PREDICTED BY RF-SCORE:    0.00 PKD
ROOT
HETATM    1 NA   UNL     1     -12.705  12.547  67.675  1.00  0.00    -0.202 Na 
HETATM    2  C   UNL     2     -10.573   8.217  72.429  1.00  0.00    -0.408 C  
HETATM    3  C   UNL     2     -11.112   8.730  71.103  1.00  0.00    -0.340 C  
ENDROOT
BRANCH   3   4
HETATM    4  C   UNL     2      -9.969   9.105  70.164  1.00  0.00    -0.231 C  
BRANCH   4   5
HETATM    5  C   UNL     2      -9.231   7.871  69.639  1.00  0.00    -0.153 C  
BRANCH   5   6
HETATM    6  C   UNL     2      -8.805   8.010  68.172  1.00  0.00    -0.132 C  
BRANCH   6   7
HETATM    7  C   UNL     2     -10.006   8.112  67.233  1.00  0.00    -0.283 C  
BRANCH   7   8
HETATM    8  C   UNL     2      -9.971   9.360  66.353  1.00  0.00    -0.346 C  
BRANCH   8   9
HETATM    9  C   UNL     2      -8.540   9.726  65.933  1.00  0.00    -0.149 C  
BRANCH   9  10
HETATM   10  C   UNL     2      -8.117  11.163  66.264  1.00  0.00    -0.142 C  
BRANCH  10  11
HETATM   11  C   UNL     2      -8.928  11.772  67.412  1.00  0.00    -0.173 C  
BRANCH  11  12
HETATM   12  C   UNL     2      -9.414  13.199  67.127  1.00  0.00    -0.239 C  
BRANCH  12  13
HETATM   13  C   UNL     2      -9.976  13.393  65.717  1.00  0.00    -0.252 C  
BRANCH  13  14
HETATM   14  O   UNL     2     -11.371  13.146  65.742  1.00  0.00    -0.297 OA 
HETATM   15  S   UNL     2     -12.113  12.799  64.335  1.00  0.00    -0.443 S  
HETATM   16  O   UNL     2     -13.497  12.543  64.747  1.00  0.00    -0.645 OA 
HETATM   17  O   UNL     2     -11.424  11.609  63.850  1.00  0.00    -0.385 OA 
HETATM   18  O   UNL     2     -11.935  13.993  63.530  1.00  0.00    -0.298 OA 
ENDBRANCH  13  14
ENDBRANCH  12  13
ENDBRANCH  11  12
ENDBRANCH  10  11
ENDBRANCH   9  10
ENDBRANCH   8   9
ENDBRANCH   7   8
ENDBRANCH   6   7
ENDBRANCH   5   6
ENDBRANCH   4   5
ENDBRANCH   3   4
TORSDOF 11
ENDMDL
MODEL      237
REMARK 921   NORMALIZED FREE ENERGY PREDICTED BY IDOCK:   -3.15 KCAL/MOL
REMARK 922        TOTAL FREE ENERGY PREDICTED BY IDOCK:   -6.61 KCAL/MOL
REMARK 923 INTER-LIGAND FREE ENERGY PREDICTED BY IDOCK:   -5.23 KCAL/MOL
REMARK 924 INTRA-LIGAND FREE ENERGY PREDICTED BY IDOCK:   -1.38 KCAL/MOL
REMARK 927      BINDING AFFINITY PREDICTED BY RF-SCORE:    0.00 PKD
ROOT
HETATM    1 NA   UNL     1      -8.871   6.465  67.794  1.00  0.00    -0.114 Na 
HETATM    2  C   UNL     2     -11.769  12.576  68.177  1.00  0.00    -0.400 C  
HETATM    3  C   UNL     2     -11.038  11.312  68.604  1.00  0.00    -0.286 C  
ENDROOT
BRANCH   3   4
HETATM    4  C   UNL     2      -9.540  11.443  68.347  1.00  0.00    -0.197 C  
BRANCH   4   5
HETATM    5  C   UNL     2      -8.921  10.122  67.883  1.00  0.00    -0.128 C  
BRANCH   5   6
HETATM    6  C   UNL     2      -8.587  10.114  66.385  1.00  0.00    -0.137 C  
BRANCH   6   7
HETATM    7  C   UNL     2      -9.765   9.635  65.537  1.00  0.00    -0.372 C  
BRANCH   7   8
HETATM    8  C   UNL     2      -9.970  10.471  64.275  1.00  0.00    -0.398 C  
BRANCH   8   9
HETATM    9  C   UNL     2     -11.256  11.307  64.344  1.00  0.00    -0.196 C  
BRANCH   9  10
HETATM   10  C   UNL     2     -11.120  12.746  63.828  1.00  0.00    -0.475 C  
BRANCH  10  11
HETATM   11  C   UNL     2     -10.425  13.674  64.828  1.00  0.00    -0.436 C  
BRANCH  11  12
HETATM   12  C   UNL     2     -11.317  14.819  65.322  1.00  0.00    -0.363 C  
BRANCH  12  13
HETATM   13  C   UNL     2     -10.540  16.014  65.881  1.00  0.00    -0.328 C  
BRANCH  13  14
HETATM   14  O   UNL     2      -9.810  15.592  67.020  1.00  0.00    -0.228 OA 
HETATM   15  S   UNL     2     -10.118  16.325  68.441  1.00  0.00    -0.247 S  
HETATM   16  O   UNL     2      -9.251  15.603  69.378  1.00  0.00    -0.258 OA 
HETATM   17  O   UNL     2     -11.538  16.088  68.667  1.00  0.00    -0.386 OA 
HETATM   18  O   UNL     2      -9.745  17.710  68.219  1.00  0.00    -0.286 OA 
ENDBRANCH  13  14
ENDBRANCH  12  13
ENDBRANCH  11  12
ENDBRANCH  10  11
ENDBRANCH   9  10
ENDBRANCH   8   9
ENDBRANCH   7   8
ENDBRANCH   6   7
ENDBRANCH   5   6
ENDBRANCH   4   5
ENDBRANCH   3   4
TORSDOF 11
ENDMDL
MODEL      238
REMARK 921   NORMALIZED FREE ENERGY PREDICTED BY IDOCK:   -3.14 KCAL/MOL
REMARK 922        TOTAL FREE ENERGY PREDICTED BY IDOCK:   -6.60 KCAL/MOL
REMARK 923 INTER-LIGAND FREE ENERGY PREDICTED BY IDOCK:   -5.91 KCAL/MOL
REMARK 924 INTRA-LIGAND FREE ENERGY PREDICTED BY IDOCK:   -0.69 KCAL/MOL
REMARK 927      BINDING AFFINITY PREDICTED BY RF-SCORE:    0.00 PKD
ROOT
HETATM    1 NA   UNL     1     -12.893   7.029  72.501  1.00  0.00    -0.436 Na 
HETATM    2  C   UNL     2     -10.380  10.399  67.189  1.00  0.00    -0.290 C  
HETATM    3  C   UNL     2     -11.374   9.917  68.234  1.00  0.00    -0.045 C  
ENDROOT
BRANCH   3   4
HETATM    4  C   UNL     2     -11.274  10.760  69.502  1.00  0.00    -0.342 C  
BRANCH   4   5
HETATM    5  C   UNL     2     -12.337  11.861  69.543  1.00  0.00    -0.082 C  
BRANCH   5   6
HETATM    6  C   UNL     2     -11.964  13.014  70.484  1.00  0.00    -0.294 C  
BRANCH   6   7
HETATM    7  C   UNL     2     -12.273  14.379  69.869  1.00  0.00    -0.394 C  
BRANCH   7   8
HETATM    8  C   UNL     2     -11.657  14.562  68.484  1.00  0.00    -0.344 C  
BRANCH   8   9
HETATM    9  C   UNL     2     -10.136  14.353  68.500  1.00  0.00    -0.244 C  
BRANCH   9  10
HETATM   10  C   UNL     2      -9.312  15.621  68.763  1.00  0.00    -0.213 C  
BRANCH  10  11
HETATM   11  C   UNL     2      -7.841  15.467  68.366  1.00  0.00    -0.129 C  
BRANCH  11  12
HETATM   12  C   UNL     2      -7.481  16.183  67.059  1.00  0.00    -0.264 C  
BRANCH  12  13
HETATM   13  C   UNL     2      -8.688  16.492  66.169  1.00  0.00    -0.300 C  
BRANCH  13  14
HETATM   14  O   UNL     2      -8.822  17.897  66.050  1.00  0.00    -0.492 OA 
HETATM   15  S   UNL     2     -10.321  18.529  66.089  1.00  0.00    -0.373 S  
HETATM   16  O   UNL     2     -10.073  19.972  66.011  1.00  0.00    -0.467 OA 
HETATM   17  O   UNL     2     -10.857  18.104  67.377  1.00  0.00    -0.374 OA 
HETATM   18  O   UNL     2     -10.980  17.966  64.924  1.00  0.00    -0.827 OA 
ENDBRANCH  13  14
ENDBRANCH  12  13
ENDBRANCH  11  12
ENDBRANCH  10  11
ENDBRANCH   9  10
ENDBRANCH   8   9
ENDBRANCH   7   8
ENDBRANCH   6   7
ENDBRANCH   5   6
ENDBRANCH   4   5
ENDBRANCH   3   4
TORSDOF 11
ENDMDL
MODEL      239
REMARK 921   NORMALIZED FREE ENERGY PREDICTED BY IDOCK:   -3.14 KCAL/MOL
REMARK 922        TOTAL FREE ENERGY PREDICTED BY IDOCK:   -6.60 KCAL/MOL
REMARK 923 INTER-LIGAND FREE ENERGY PREDICTED BY IDOCK:   -5.57 KCAL/MOL
REMARK 924 INTRA-LIGAND FREE ENERGY PREDICTED BY IDOCK:   -1.03 KCAL/MOL
REMARK 927      BINDING AFFINITY PREDICTED BY RF-SCORE:    0.00 PKD
ROOT
HETATM    1 NA   UNL     1     -12.099   5.215  64.974  1.00  0.00    -0.761 Na 
HETATM    2  C   UNL     2      -7.763  10.321  65.985  1.00  0.00    -0.130 C  
HETATM    3  C   UNL     2      -8.713   9.375  65.267  1.00  0.00    -0.204 C  
ENDROOT
BRANCH   3   4
HETATM    4  C   UNL     2     -10.154   9.860  65.392  1.00  0.00    -0.270 C  
BRANCH   4   5
HETATM    5  C   UNL     2     -10.232  11.297  65.915  1.00  0.00    -0.298 C  
BRANCH   5   6
HETATM    6  C   UNL     2     -11.159  11.440  67.129  1.00  0.00    -0.366 C  
BRANCH   6   7
HETATM    7  C   UNL     2     -11.084  10.227  68.055  1.00  0.00    -0.336 C  
BRANCH   7   8
HETATM    8  C   UNL     2     -10.904  10.607  69.523  1.00  0.00    -0.303 C  
BRANCH   8   9
HETATM    9  C   UNL     2     -12.195  11.175  70.131  1.00  0.00    -0.417 C  
BRANCH   9  10
HETATM   10  C   UNL     2     -12.603  10.556  71.475  1.00  0.00    -0.529 C  
BRANCH  10  11
HETATM   11  C   UNL     2     -13.651   9.450  71.326  1.00  0.00    -0.296 C  
BRANCH  11  12
HETATM   12  C   UNL     2     -13.170   8.081  71.824  1.00  0.00    -0.367 C  
BRANCH  12  13
HETATM   13  C   UNL     2     -11.690   8.048  72.213  1.00  0.00    -0.371 C  
BRANCH  13  14
HETATM   14  O   UNL     2     -11.179   6.750  71.962  1.00  0.00    -0.244 OA 
HETATM   15  S   UNL     2      -9.947   6.602  70.909  1.00  0.00    -0.187 S  
HETATM   16  O   UNL     2      -9.646   5.168  70.953  1.00  0.00    -0.158 OA 
HETATM   17  O   UNL     2      -8.890   7.432  71.474  1.00  0.00    -0.124 OA 
HETATM   18  O   UNL     2     -10.495   7.065  69.647  1.00  0.00    -0.208 OA 
ENDBRANCH  13  14
ENDBRANCH  12  13
ENDBRANCH  11  12
ENDBRANCH  10  11
ENDBRANCH   9  10
ENDBRANCH   8   9
ENDBRANCH   7   8
ENDBRANCH   6   7
ENDBRANCH   5   6
ENDBRANCH   4   5
ENDBRANCH   3   4
TORSDOF 11
ENDMDL
MODEL      240
REMARK 921   NORMALIZED FREE ENERGY PREDICTED BY IDOCK:   -3.13 KCAL/MOL
REMARK 922        TOTAL FREE ENERGY PREDICTED BY IDOCK:   -6.58 KCAL/MOL
REMARK 923 INTER-LIGAND FREE ENERGY PREDICTED BY IDOCK:   -5.42 KCAL/MOL
REMARK 924 INTRA-LIGAND FREE ENERGY PREDICTED BY IDOCK:   -1.16 KCAL/MOL
REMARK 927      BINDING AFFINITY PREDICTED BY RF-SCORE:    0.00 PKD
ROOT
HETATM    1 NA   UNL     1     -11.938   5.223  65.429  1.00  0.00    -0.712 Na 
HETATM    2  C   UNL     2     -11.257   7.626  71.727  1.00  0.00    -0.285 C  
HETATM    3  C   UNL     2     -11.679   6.717  70.583  1.00  0.00    -0.440 C  
ENDROOT
BRANCH   3   4
HETATM    4  C   UNL     2     -10.589   5.695  70.276  1.00  0.00    -0.370 C  
BRANCH   4   5
HETATM    5  C   UNL     2     -10.115   5.780  68.823  1.00  0.00    -0.231 C  
BRANCH   5   6
HETATM    6  C   UNL     2     -11.115   6.506  67.912  1.00  0.00    -0.352 C  
BRANCH   6   7
HETATM    7  C   UNL     2     -10.512   7.761  67.283  1.00  0.00    -0.392 C  
BRANCH   7   8
HETATM    8  C   UNL     2      -9.210   8.198  67.952  1.00  0.00    -0.138 C  
BRANCH   8   9
HETATM    9  C   UNL     2      -9.406   9.446  68.825  1.00  0.00    -0.146 C  
BRANCH   9  10
HETATM   10  C   UNL     2     -10.776  10.123  68.688  1.00  0.00    -0.253 C  
BRANCH  10  11
HETATM   11  C   UNL     2     -10.793  11.223  67.623  1.00  0.00    -0.286 C  
BRANCH  11  12
HETATM   12  C   UNL     2      -9.769  12.337  67.878  1.00  0.00    -0.202 C  
BRANCH  12  13
HETATM   13  C   UNL     2      -9.434  13.166  66.635  1.00  0.00    -0.260 C  
BRANCH  13  14
HETATM   14  O   UNL     2      -8.783  14.357  67.042  1.00  0.00    -0.217 OA 
HETATM   15  S   UNL     2      -9.563  15.769  66.825  1.00  0.00    -0.250 S  
HETATM   16  O   UNL     2      -8.640  16.748  67.408  1.00  0.00    -0.189 OA 
HETATM   17  O   UNL     2     -10.799  15.616  67.582  1.00  0.00    -0.296 OA 
HETATM   18  O   UNL     2      -9.722  15.874  65.386  1.00  0.00    -0.397 OA 
ENDBRANCH  13  14
ENDBRANCH  12  13
ENDBRANCH  11  12
ENDBRANCH  10  11
ENDBRANCH   9  10
ENDBRANCH   8   9
ENDBRANCH   7   8
ENDBRANCH   6   7
ENDBRANCH   5   6
ENDBRANCH   4   5
ENDBRANCH   3   4
TORSDOF 11
ENDMDL
MODEL      241
REMARK 921   NORMALIZED FREE ENERGY PREDICTED BY IDOCK:   -3.13 KCAL/MOL
REMARK 922        TOTAL FREE ENERGY PREDICTED BY IDOCK:   -6.57 KCAL/MOL
REMARK 923 INTER-LIGAND FREE ENERGY PREDICTED BY IDOCK:   -5.94 KCAL/MOL
REMARK 924 INTRA-LIGAND FREE ENERGY PREDICTED BY IDOCK:   -0.63 KCAL/MOL
REMARK 927      BINDING AFFINITY PREDICTED BY RF-SCORE:    0.00 PKD
ROOT
HETATM    1 NA   UNL     1     -10.971   9.110  68.293  1.00  0.00    -0.211 Na 
HETATM    2  C   UNL     2     -11.061   4.414  73.175  1.00  0.00    -0.326 C  
HETATM    3  C   UNL     2     -10.573   5.566  72.310  1.00  0.00    -0.276 C  
ENDROOT
BRANCH   3   4
HETATM    4  C   UNL     2     -11.106   6.897  72.834  1.00  0.00    -0.297 C  
BRANCH   4   5
HETATM    5  C   UNL     2     -11.465   7.857  71.697  1.00  0.00    -0.304 C  
BRANCH   5   6
HETATM    6  C   UNL     2     -12.970   8.142  71.610  1.00  0.00    -0.352 C  
BRANCH   6   7
HETATM    7  C   UNL     2     -13.264   9.634  71.458  1.00  0.00    -0.484 C  
BRANCH   7   8
HETATM    8  C   UNL     2     -12.004  10.474  71.265  1.00  0.00    -0.386 C  
BRANCH   8   9
HETATM    9  C   UNL     2     -12.332  11.960  71.058  1.00  0.00    -0.362 C  
BRANCH   9  10
HETATM   10  C   UNL     2     -13.593  12.451  71.781  1.00  0.00    -0.094 C  
BRANCH  10  11
HETATM   11  C   UNL     2     -13.432  13.854  72.371  1.00  0.00    -0.661 C  
BRANCH  11  12
HETATM   12  C   UNL     2     -13.773  14.977  71.384  1.00  0.00    -0.552 C  
BRANCH  12  13
HETATM   13  C   UNL     2     -12.570  15.836  70.983  1.00  0.00    -0.416 C  
BRANCH  13  14
HETATM   14  O   UNL     2     -12.509  15.907  69.569  1.00  0.00    -0.150 OA 
HETATM   15  S   UNL     2     -11.044  16.035  68.872  1.00  0.00    -0.352 S  
HETATM   16  O   UNL     2     -11.358  16.014  67.439  1.00  0.00    -0.165 OA 
HETATM   17  O   UNL     2     -10.326  14.849  69.323  1.00  0.00    -0.237 OA 
HETATM   18  O   UNL     2     -10.524  17.301  69.356  1.00  0.00    -0.313 OA 
ENDBRANCH  13  14
ENDBRANCH  12  13
ENDBRANCH  11  12
ENDBRANCH  10  11
ENDBRANCH   9  10
ENDBRANCH   8   9
ENDBRANCH   7   8
ENDBRANCH   6   7
ENDBRANCH   5   6
ENDBRANCH   4   5
ENDBRANCH   3   4
TORSDOF 11
ENDMDL
MODEL      242
REMARK 921   NORMALIZED FREE ENERGY PREDICTED BY IDOCK:   -3.13 KCAL/MOL
REMARK 922        TOTAL FREE ENERGY PREDICTED BY IDOCK:   -6.57 KCAL/MOL
REMARK 923 INTER-LIGAND FREE ENERGY PREDICTED BY IDOCK:   -5.51 KCAL/MOL
REMARK 924 INTRA-LIGAND FREE ENERGY PREDICTED BY IDOCK:   -1.06 KCAL/MOL
REMARK 927      BINDING AFFINITY PREDICTED BY RF-SCORE:    0.00 PKD
ROOT
HETATM    1 NA   UNL     1      -6.650  11.141  67.265  1.00  0.00    -0.057 Na 
HETATM    2  C   UNL     2      -8.124   5.715  71.045  1.00  0.00    -0.119 C  
HETATM    3  C   UNL     2      -7.752   7.144  70.681  1.00  0.00    -0.094 C  
ENDROOT
BRANCH   3   4
HETATM    4  C   UNL     2      -9.004   7.980  70.428  1.00  0.00    -0.146 C  
BRANCH   4   5
HETATM    5  C   UNL     2     -10.151   7.590  71.362  1.00  0.00    -0.201 C  
BRANCH   5   6
HETATM    6  C   UNL     2     -11.396   7.104  70.608  1.00  0.00    -0.327 C  
BRANCH   6   7
HETATM    7  C   UNL     2     -12.663   7.222  71.453  1.00  0.00    -0.427 C  
BRANCH   7   8
HETATM    8  C   UNL     2     -12.586   8.340  72.491  1.00  0.00    -0.265 C  
BRANCH   8   9
HETATM    9  C   UNL     2     -13.676   9.399  72.274  1.00  0.00    -0.495 C  
BRANCH   9  10
HETATM   10  C   UNL     2     -13.165  10.763  71.791  1.00  0.00    -0.523 C  
BRANCH  10  11
HETATM   11  C   UNL     2     -12.764  10.759  70.313  1.00  0.00    -0.286 C  
BRANCH  11  12
HETATM   12  C   UNL     2     -11.249  10.670  70.090  1.00  0.00    -0.378 C  
BRANCH  12  13
HETATM   13  C   UNL     2     -10.847  10.507  68.622  1.00  0.00    -0.237 C  
BRANCH  13  14
HETATM   14  O   UNL     2     -11.812  11.151  67.808  1.00  0.00    -0.608 OA 
HETATM   15  S   UNL     2     -11.305  12.323  66.800  1.00  0.00    -0.355 S  
HETATM   16  O   UNL     2     -12.531  12.701  66.090  1.00  0.00    -0.520 OA 
HETATM   17  O   UNL     2     -10.322  11.665  65.948  1.00  0.00    -0.231 OA 
HETATM   18  O   UNL     2     -10.778  13.351  67.680  1.00  0.00    -0.243 OA 
ENDBRANCH  13  14
ENDBRANCH  12  13
ENDBRANCH  11  12
ENDBRANCH  10  11
ENDBRANCH   9  10
ENDBRANCH   8   9
ENDBRANCH   7   8
ENDBRANCH   6   7
ENDBRANCH   5   6
ENDBRANCH   4   5
ENDBRANCH   3   4
TORSDOF 11
ENDMDL
MODEL      243
REMARK 921   NORMALIZED FREE ENERGY PREDICTED BY IDOCK:   -3.12 KCAL/MOL
REMARK 922        TOTAL FREE ENERGY PREDICTED BY IDOCK:   -6.57 KCAL/MOL
REMARK 923 INTER-LIGAND FREE ENERGY PREDICTED BY IDOCK:   -5.87 KCAL/MOL
REMARK 924 INTRA-LIGAND FREE ENERGY PREDICTED BY IDOCK:   -0.70 KCAL/MOL
REMARK 927      BINDING AFFINITY PREDICTED BY RF-SCORE:    0.00 PKD
ROOT
HETATM    1 NA   UNL     1     -10.406   2.894  66.422  1.00  0.00    -0.390 Na 
HETATM    2  C   UNL     2      -8.662   6.264  72.034  1.00  0.00    -0.134 C  
HETATM    3  C   UNL     2      -9.215   5.996  70.642  1.00  0.00    -0.161 C  
ENDROOT
BRANCH   3   4
HETATM    4  C   UNL     2     -10.669   5.541  70.718  1.00  0.00    -0.294 C  
BRANCH   4   5
HETATM    5  C   UNL     2     -11.638   6.647  70.293  1.00  0.00    -0.454 C  
BRANCH   5   6
HETATM    6  C   UNL     2     -12.555   7.108  71.434  1.00  0.00    -0.432 C  
BRANCH   6   7
HETATM    7  C   UNL     2     -12.113   8.448  72.021  1.00  0.00    -0.417 C  
BRANCH   7   8
HETATM    8  C   UNL     2     -13.211   9.508  71.980  1.00  0.00    -0.539 C  
BRANCH   8   9
HETATM    9  C   UNL     2     -12.697  10.846  71.428  1.00  0.00    -0.539 C  
BRANCH   9  10
HETATM   10  C   UNL     2     -11.547  10.729  70.418  1.00  0.00    -0.431 C  
BRANCH  10  11
HETATM   11  C   UNL     2     -11.906  11.293  69.041  1.00  0.00    -0.421 C  
BRANCH  11  12
HETATM   12  C   UNL     2     -10.794  12.150  68.423  1.00  0.00    -0.255 C  
BRANCH  12  13
HETATM   13  C   UNL     2     -11.254  13.546  67.993  1.00  0.00    -0.271 C  
BRANCH  13  14
HETATM   14  O   UNL     2     -10.322  14.502  68.467  1.00  0.00    -0.229 OA 
HETATM   15  S   UNL     2     -10.891  15.938  68.979  1.00  0.00    -0.289 S  
HETATM   16  O   UNL     2      -9.683  16.623  69.448  1.00  0.00    -0.199 OA 
HETATM   17  O   UNL     2     -11.817  15.596  70.052  1.00  0.00    -0.328 OA 
HETATM   18  O   UNL     2     -11.497  16.526  67.797  1.00  0.00    -0.090 OA 
ENDBRANCH  13  14
ENDBRANCH  12  13
ENDBRANCH  11  12
ENDBRANCH  10  11
ENDBRANCH   9  10
ENDBRANCH   8   9
ENDBRANCH   7   8
ENDBRANCH   6   7
ENDBRANCH   5   6
ENDBRANCH   4   5
ENDBRANCH   3   4
TORSDOF 11
ENDMDL
MODEL      244
REMARK 921   NORMALIZED FREE ENERGY PREDICTED BY IDOCK:   -3.11 KCAL/MOL
REMARK 922        TOTAL FREE ENERGY PREDICTED BY IDOCK:   -6.55 KCAL/MOL
REMARK 923 INTER-LIGAND FREE ENERGY PREDICTED BY IDOCK:   -5.41 KCAL/MOL
REMARK 924 INTRA-LIGAND FREE ENERGY PREDICTED BY IDOCK:   -1.14 KCAL/MOL
REMARK 927      BINDING AFFINITY PREDICTED BY RF-SCORE:    0.00 PKD
ROOT
HETATM    1 NA   UNL     1     -12.228   9.741  67.902  1.00  0.00    -0.432 Na 
HETATM    2  C   UNL     2      -7.358  14.450  67.977  1.00  0.00    -0.148 C  
HETATM    3  C   UNL     2      -8.102  13.159  68.284  1.00  0.00    -0.152 C  
ENDROOT
BRANCH   3   4
HETATM    4  C   UNL     2      -7.815  12.105  67.218  1.00  0.00    -0.176 C  
BRANCH   4   5
HETATM    5  C   UNL     2      -8.822  10.954  67.264  1.00  0.00    -0.134 C  
BRANCH   5   6
HETATM    6  C   UNL     2      -8.950  10.218  65.924  1.00  0.00    -0.181 C  
BRANCH   6   7
HETATM    7  C   UNL     2      -9.488  11.127  64.819  1.00  0.00    -0.250 C  
BRANCH   7   8
HETATM    8  C   UNL     2     -11.014  11.144  64.751  1.00  0.00    -0.218 C  
BRANCH   8   9
HETATM    9  C   UNL     2     -11.581  12.559  64.936  1.00  0.00    -0.386 C  
BRANCH   9  10
HETATM   10  C   UNL     2     -10.694  13.687  64.391  1.00  0.00    -0.369 C  
BRANCH  10  11
HETATM   11  C   UNL     2     -10.070  14.541  65.498  1.00  0.00    -0.394 C  
BRANCH  11  12
HETATM   12  C   UNL     2     -10.378  16.037  65.363  1.00  0.00    -0.386 C  
BRANCH  12  13
HETATM   13  C   UNL     2     -10.073  16.849  66.625  1.00  0.00    -0.304 C  
BRANCH  13  14
HETATM   14  O   UNL     2      -9.161  17.882  66.296  1.00  0.00    -0.395 OA 
HETATM   15  S   UNL     2      -9.546  19.406  66.717  1.00  0.00    -0.371 S  
HETATM   16  O   UNL     2      -8.372  20.173  66.290  1.00  0.00    -0.295 OA 
HETATM   17  O   UNL     2      -9.706  19.350  68.165  1.00  0.00    -0.338 OA 
HETATM   18  O   UNL     2     -10.757  19.691  65.967  1.00  0.00    -0.479 OA 
ENDBRANCH  13  14
ENDBRANCH  12  13
ENDBRANCH  11  12
ENDBRANCH  10  11
ENDBRANCH   9  10
ENDBRANCH   8   9
ENDBRANCH   7   8
ENDBRANCH   6   7
ENDBRANCH   5   6
ENDBRANCH   4   5
ENDBRANCH   3   4
TORSDOF 11
ENDMDL
MODEL      245
REMARK 921   NORMALIZED FREE ENERGY PREDICTED BY IDOCK:   -3.10 KCAL/MOL
REMARK 922        TOTAL FREE ENERGY PREDICTED BY IDOCK:   -6.53 KCAL/MOL
REMARK 923 INTER-LIGAND FREE ENERGY PREDICTED BY IDOCK:   -5.75 KCAL/MOL
REMARK 924 INTRA-LIGAND FREE ENERGY PREDICTED BY IDOCK:   -0.79 KCAL/MOL
REMARK 927      BINDING AFFINITY PREDICTED BY RF-SCORE:    0.00 PKD
ROOT
HETATM    1 NA   UNL     1     -11.920  13.002  64.786  1.00  0.00    -0.319 Na 
HETATM    2  C   UNL     2      -9.808  18.102  68.714  1.00  0.00    -0.362 C  
HETATM    3  C   UNL     2     -10.736  17.228  67.884  1.00  0.00    -0.351 C  
ENDROOT
BRANCH   3   4
HETATM    4  C   UNL     2     -11.318  16.101  68.732  1.00  0.00    -0.359 C  
BRANCH   4   5
HETATM    5  C   UNL     2     -11.012  16.287  70.220  1.00  0.00    -0.314 C  
BRANCH   5   6
HETATM    6  C   UNL     2     -11.959  15.490  71.127  1.00  0.00    -0.432 C  
BRANCH   6   7
HETATM    7  C   UNL     2     -12.561  14.282  70.410  1.00  0.00    -0.405 C  
BRANCH   7   8
HETATM    8  C   UNL     2     -12.859  13.117  71.350  1.00  0.00    -0.401 C  
BRANCH   8   9
HETATM    9  C   UNL     2     -12.174  11.821  70.892  1.00  0.00    -0.378 C  
BRANCH   9  10
HETATM   10  C   UNL     2     -12.002  11.682  69.373  1.00  0.00    -0.381 C  
BRANCH  10  11
HETATM   11  C   UNL     2     -11.165  10.463  68.978  1.00  0.00    -0.289 C  
BRANCH  11  12
HETATM   12  C   UNL     2     -10.119  10.072  70.029  1.00  0.00    -0.289 C  
BRANCH  12  13
HETATM   13  C   UNL     2      -9.841   8.568  70.097  1.00  0.00    -0.178 C  
BRANCH  13  14
HETATM   14  O   UNL     2     -10.064   8.119  71.423  1.00  0.00    -0.187 OA 
HETATM   15  S   UNL     2     -11.366   7.185  71.706  1.00  0.00    -0.263 S  
HETATM   16  O   UNL     2     -11.238   6.865  73.131  1.00  0.00    -0.230 OA 
HETATM   17  O   UNL     2     -11.176   6.031  70.835  1.00  0.00    -0.299 OA 
HETATM   18  O   UNL     2     -12.497   8.034  71.378  1.00  0.00    -0.311 OA 
ENDBRANCH  13  14
ENDBRANCH  12  13
ENDBRANCH  11  12
ENDBRANCH  10  11
ENDBRANCH   9  10
ENDBRANCH   8   9
ENDBRANCH   7   8
ENDBRANCH   6   7
ENDBRANCH   5   6
ENDBRANCH   4   5
ENDBRANCH   3   4
TORSDOF 11
ENDMDL
MODEL      246
REMARK 921   NORMALIZED FREE ENERGY PREDICTED BY IDOCK:   -3.10 KCAL/MOL
REMARK 922        TOTAL FREE ENERGY PREDICTED BY IDOCK:   -6.53 KCAL/MOL
REMARK 923 INTER-LIGAND FREE ENERGY PREDICTED BY IDOCK:   -5.77 KCAL/MOL
REMARK 924 INTRA-LIGAND FREE ENERGY PREDICTED BY IDOCK:   -0.76 KCAL/MOL
REMARK 927      BINDING AFFINITY PREDICTED BY RF-SCORE:    0.00 PKD
ROOT
HETATM    1 NA   UNL     1     -11.280  21.038  70.170  1.00  0.00    -0.900 Na 
HETATM    2  C   UNL     2      -5.884  19.299  66.460  1.00  0.00    -0.174 C  
HETATM    3  C   UNL     2      -7.161  19.163  67.276  1.00  0.00    -0.225 C  
ENDROOT
BRANCH   3   4
HETATM    4  C   UNL     2      -8.390  19.341  66.388  1.00  0.00    -0.330 C  
BRANCH   4   5
HETATM    5  C   UNL     2      -9.629  19.732  67.197  1.00  0.00    -0.483 C  
BRANCH   5   6
HETATM    6  C   UNL     2     -10.720  18.654  67.175  1.00  0.00    -0.433 C  
BRANCH   6   7
HETATM    7  C   UNL     2     -10.186  17.306  66.690  1.00  0.00    -0.319 C  
BRANCH   7   8
HETATM    8  C   UNL     2     -10.843  16.835  65.395  1.00  0.00    -0.149 C  
BRANCH   8   9
HETATM    9  C   UNL     2     -11.284  15.366  65.477  1.00  0.00    -0.234 C  
BRANCH   9  10
HETATM   10  C   UNL     2     -10.136  14.351  65.563  1.00  0.00    -0.382 C  
BRANCH  10  11
HETATM   11  C   UNL     2     -10.245  13.432  66.783  1.00  0.00    -0.259 C  
BRANCH  11  12
HETATM   12  C   UNL     2     -11.318  13.872  67.786  1.00  0.00    -0.335 C  
BRANCH  12  13
HETATM   13  C   UNL     2     -11.878  12.728  68.636  1.00  0.00    -0.304 C  
BRANCH  13  14
HETATM   14  O   UNL     2     -11.583  11.497  67.999  1.00  0.00    -0.361 OA 
HETATM   15  S   UNL     2     -10.851  10.338  68.876  1.00  0.00    -0.239 S  
HETATM   16  O   UNL     2     -10.769   9.216  67.936  1.00  0.00    -0.230 OA 
HETATM   17  O   UNL     2     -11.764  10.097  69.987  1.00  0.00    -0.256 OA 
HETATM   18  O   UNL     2      -9.569  10.916  69.238  1.00  0.00    -0.158 OA 
ENDBRANCH  13  14
ENDBRANCH  12  13
ENDBRANCH  11  12
ENDBRANCH  10  11
ENDBRANCH   9  10
ENDBRANCH   8   9
ENDBRANCH   7   8
ENDBRANCH   6   7
ENDBRANCH   5   6
ENDBRANCH   4   5
ENDBRANCH   3   4
TORSDOF 11
ENDMDL
MODEL      247
REMARK 921   NORMALIZED FREE ENERGY PREDICTED BY IDOCK:   -3.09 KCAL/MOL
REMARK 922        TOTAL FREE ENERGY PREDICTED BY IDOCK:   -6.51 KCAL/MOL
REMARK 923 INTER-LIGAND FREE ENERGY PREDICTED BY IDOCK:   -5.96 KCAL/MOL
REMARK 924 INTRA-LIGAND FREE ENERGY PREDICTED BY IDOCK:   -0.55 KCAL/MOL
REMARK 927      BINDING AFFINITY PREDICTED BY RF-SCORE:    0.00 PKD
ROOT
HETATM    1 NA   UNL     1     -12.405  11.024  62.462  1.00  0.00    -0.879 Na 
HETATM    2  C   UNL     2     -12.075  13.425  68.788  1.00  0.00    -0.281 C  
HETATM    3  C   UNL     2     -11.776  12.566  67.569  1.00  0.00    -0.439 C  
ENDROOT
BRANCH   3   4
HETATM    4  C   UNL     2     -10.724  13.232  66.685  1.00  0.00    -0.284 C  
BRANCH   4   5
HETATM    5  C   UNL     2     -10.185  14.521  67.309  1.00  0.00    -0.255 C  
BRANCH   5   6
HETATM    6  C   UNL     2     -10.238  15.716  66.348  1.00  0.00    -0.300 C  
BRANCH   6   7
HETATM    7  C   UNL     2      -8.843  16.219  65.979  1.00  0.00    -0.308 C  
BRANCH   7   8
HETATM    8  C   UNL     2      -7.789  15.882  67.032  1.00  0.00    -0.267 C  
BRANCH   8   9
HETATM    9  C   UNL     2      -6.487  16.665  66.810  1.00  0.00    -0.186 C  
BRANCH   9  10
HETATM   10  C   UNL     2      -6.653  18.002  66.076  1.00  0.00    -0.310 C  
BRANCH  10  11
HETATM   11  C   UNL     2      -5.668  19.071  66.557  1.00  0.00    -0.172 C  
BRANCH  11  12
HETATM   12  C   UNL     2      -6.339  20.228  67.307  1.00  0.00    -0.245 C  
BRANCH  12  13
HETATM   13  C   UNL     2      -7.504  19.795  68.202  1.00  0.00    -0.308 C  
BRANCH  13  14
HETATM   14  O   UNL     2      -8.637  19.543  67.389  1.00  0.00    -0.289 OA 
HETATM   15  S   UNL     2     -10.057  19.250  68.125  1.00  0.00    -0.431 S  
HETATM   16  O   UNL     2     -10.988  19.107  67.001  1.00  0.00    -0.426 OA 
HETATM   17  O   UNL     2     -10.299  20.442  68.929  1.00  0.00    -0.232 OA 
HETATM   18  O   UNL     2      -9.828  18.029  68.876  1.00  0.00    -0.352 OA 
ENDBRANCH  13  14
ENDBRANCH  12  13
ENDBRANCH  11  12
ENDBRANCH  10  11
ENDBRANCH   9  10
ENDBRANCH   8   9
ENDBRANCH   7   8
ENDBRANCH   6   7
ENDBRANCH   5   6
ENDBRANCH   4   5
ENDBRANCH   3   4
TORSDOF 11
ENDMDL
MODEL      248
REMARK 921   NORMALIZED FREE ENERGY PREDICTED BY IDOCK:   -3.09 KCAL/MOL
REMARK 922        TOTAL FREE ENERGY PREDICTED BY IDOCK:   -6.51 KCAL/MOL
REMARK 923 INTER-LIGAND FREE ENERGY PREDICTED BY IDOCK:   -5.66 KCAL/MOL
REMARK 924 INTRA-LIGAND FREE ENERGY PREDICTED BY IDOCK:   -0.85 KCAL/MOL
REMARK 927      BINDING AFFINITY PREDICTED BY RF-SCORE:    0.00 PKD
ROOT
HETATM    1 NA   UNL     1     -13.243  10.588  69.573  1.00  0.00    -0.508 Na 
HETATM    2  C   UNL     2     -12.078  12.260  63.112  1.00  0.00    -0.351 C  
HETATM    3  C   UNL     2     -12.600  12.346  64.538  1.00  0.00    -0.477 C  
ENDROOT
BRANCH   3   4
HETATM    4  C   UNL     2     -11.562  12.986  65.455  1.00  0.00    -0.374 C  
BRANCH   4   5
HETATM    5  C   UNL     2     -10.743  14.059  64.733  1.00  0.00    -0.442 C  
BRANCH   5   6
HETATM    6  C   UNL     2     -11.087  15.481  65.194  1.00  0.00    -0.382 C  
BRANCH   6   7
HETATM    7  C   UNL     2     -10.233  15.922  66.382  1.00  0.00    -0.311 C  
BRANCH   7   8
HETATM    8  C   UNL     2      -8.820  15.343  66.349  1.00  0.00    -0.340 C  
BRANCH   8   9
HETATM    9  C   UNL     2      -8.061  15.608  67.657  1.00  0.00    -0.166 C  
BRANCH   9  10
HETATM   10  C   UNL     2      -8.816  16.467  68.680  1.00  0.00    -0.234 C  
BRANCH  10  11
HETATM   11  C   UNL     2      -8.352  17.925  68.691  1.00  0.00    -0.276 C  
BRANCH  11  12
HETATM   12  C   UNL     2      -9.342  18.888  68.023  1.00  0.00    -0.349 C  
BRANCH  12  13
HETATM   13  C   UNL     2      -8.757  19.648  66.829  1.00  0.00    -0.334 C  
BRANCH  13  14
HETATM   14  O   UNL     2      -7.486  19.104  66.517  1.00  0.00    -0.227 OA 
HETATM   15  S   UNL     2      -6.331  20.117  65.981  1.00  0.00    -0.215 S  
HETATM   16  O   UNL     2      -5.167  19.239  65.831  1.00  0.00    -0.149 OA 
HETATM   17  O   UNL     2      -6.184  21.095  67.052  1.00  0.00    -0.269 OA 
HETATM   18  O   UNL     2      -6.859  20.636  64.732  1.00  0.00    -0.257 OA 
ENDBRANCH  13  14
ENDBRANCH  12  13
ENDBRANCH  11  12
ENDBRANCH  10  11
ENDBRANCH   9  10
ENDBRANCH   8   9
ENDBRANCH   7   8
ENDBRANCH   6   7
ENDBRANCH   5   6
ENDBRANCH   4   5
ENDBRANCH   3   4
TORSDOF 11
ENDMDL
MODEL      249
REMARK 921   NORMALIZED FREE ENERGY PREDICTED BY IDOCK:   -3.09 KCAL/MOL
REMARK 922        TOTAL FREE ENERGY PREDICTED BY IDOCK:   -6.51 KCAL/MOL
REMARK 923 INTER-LIGAND FREE ENERGY PREDICTED BY IDOCK:   -6.04 KCAL/MOL
REMARK 924 INTRA-LIGAND FREE ENERGY PREDICTED BY IDOCK:   -0.47 KCAL/MOL
REMARK 927      BINDING AFFINITY PREDICTED BY RF-SCORE:    0.00 PKD
ROOT
HETATM    1 NA   UNL     1     -11.505  16.359  63.731  1.00  0.00    -0.632 Na 
HETATM    2  C   UNL     2      -7.658  20.547  67.414  1.00  0.00    -0.380 C  
HETATM    3  C   UNL     2      -8.567  20.050  66.300  1.00  0.00    -0.337 C  
ENDROOT
BRANCH   3   4
HETATM    4  C   UNL     2     -10.033  20.168  66.708  1.00  0.00    -0.604 C  
BRANCH   4   5
HETATM    5  C   UNL     2     -10.273  19.664  68.133  1.00  0.00    -0.580 C  
BRANCH   5   6
HETATM    6  C   UNL     2     -10.691  18.189  68.183  1.00  0.00    -0.242 C  
BRANCH   6   7
HETATM    7  C   UNL     2      -9.488  17.249  68.122  1.00  0.00    -0.278 C  
BRANCH   7   8
HETATM    8  C   UNL     2      -9.698  15.960  68.914  1.00  0.00    -0.230 C  
BRANCH   8   9
HETATM    9  C   UNL     2     -10.021  14.771  67.997  1.00  0.00    -0.218 C  
BRANCH   9  10
HETATM   10  C   UNL     2     -11.299  14.003  68.361  1.00  0.00    -0.321 C  
BRANCH  10  11
HETATM   11  C   UNL     2     -11.056  12.506  68.567  1.00  0.00    -0.297 C  
BRANCH  11  12
HETATM   12  C   UNL     2     -11.614  11.972  69.892  1.00  0.00    -0.315 C  
BRANCH  12  13
HETATM   13  C   UNL     2     -11.944  10.477  69.869  1.00  0.00    -0.264 C  
BRANCH  13  14
HETATM   14  O   UNL     2     -12.388  10.086  71.156  1.00  0.00    -0.321 OA 
HETATM   15  S   UNL     2     -11.687   8.790  71.847  1.00  0.00    -0.375 S  
HETATM   16  O   UNL     2     -12.333   8.727  73.161  1.00  0.00    -0.015 OA 
HETATM   17  O   UNL     2     -10.273   9.139  71.913  1.00  0.00    -0.332 OA 
HETATM   18  O   UNL     2     -12.016   7.688  70.960  1.00  0.00    -0.299 OA 
ENDBRANCH  13  14
ENDBRANCH  12  13
ENDBRANCH  11  12
ENDBRANCH  10  11
ENDBRANCH   9  10
ENDBRANCH   8   9
ENDBRANCH   7   8
ENDBRANCH   6   7
ENDBRANCH   5   6
ENDBRANCH   4   5
ENDBRANCH   3   4
TORSDOF 11
ENDMDL
MODEL      250
REMARK 921   NORMALIZED FREE ENERGY PREDICTED BY IDOCK:   -3.08 KCAL/MOL
REMARK 922        TOTAL FREE ENERGY PREDICTED BY IDOCK:   -6.49 KCAL/MOL
REMARK 923 INTER-LIGAND FREE ENERGY PREDICTED BY IDOCK:   -5.70 KCAL/MOL
REMARK 924 INTRA-LIGAND FREE ENERGY PREDICTED BY IDOCK:   -0.79 KCAL/MOL
REMARK 927      BINDING AFFINITY PREDICTED BY RF-SCORE:    0.00 PKD
ROOT
HETATM    1 NA   UNL     1     -14.030  13.849  71.078  1.00  0.00    -0.324 Na 
HETATM    2  C   UNL     2     -10.872  14.996  65.195  1.00  0.00    -0.422 C  
HETATM    3  C   UNL     2     -11.145  14.444  66.586  1.00  0.00    -0.326 C  
ENDROOT
BRANCH   3   4
HETATM    4  C   UNL     2     -11.986  13.174  66.506  1.00  0.00    -0.459 C  
BRANCH   4   5
HETATM    5  C   UNL     2     -11.400  12.044  67.356  1.00  0.00    -0.393 C  
BRANCH   5   6
HETATM    6  C   UNL     2     -11.589  12.271  68.862  1.00  0.00    -0.367 C  
BRANCH   6   7
HETATM    7  C   UNL     2     -12.159  11.037  69.561  1.00  0.00    -0.400 C  
BRANCH   7   8
HETATM    8  C   UNL     2     -11.955  11.061  71.074  1.00  0.00    -0.334 C  
BRANCH   8   9
HETATM    9  C   UNL     2     -13.183  10.527  71.827  1.00  0.00    -0.522 C  
BRANCH   9  10
HETATM   10  C   UNL     2     -13.455   9.029  71.639  1.00  0.00    -0.442 C  
BRANCH  10  11
HETATM   11  C   UNL     2     -12.247   8.156  71.989  1.00  0.00    -0.385 C  
BRANCH  11  12
HETATM   12  C   UNL     2     -11.761   7.288  70.823  1.00  0.00    -0.333 C  
BRANCH  12  13
HETATM   13  C   UNL     2     -10.422   7.738  70.231  1.00  0.00    -0.225 C  
BRANCH  13  14
HETATM   14  O   UNL     2     -10.208   7.052  69.009  1.00  0.00    -0.175 OA 
HETATM   15  S   UNL     2      -9.303   7.782  67.870  1.00  0.00    -0.141 S  
HETATM   16  O   UNL     2      -9.243   6.777  66.804  1.00  0.00    -0.140 OA 
HETATM   17  O   UNL     2      -8.020   8.010  68.523  1.00  0.00    -0.116 OA 
HETATM   18  O   UNL     2     -10.050   8.979  67.529  1.00  0.00    -0.196 OA 
ENDBRANCH  13  14
ENDBRANCH  12  13
ENDBRANCH  11  12
ENDBRANCH  10  11
ENDBRANCH   9  10
ENDBRANCH   8   9
ENDBRANCH   7   8
ENDBRANCH   6   7
ENDBRANCH   5   6
ENDBRANCH   4   5
ENDBRANCH   3   4
TORSDOF 11
ENDMDL
MODEL      251
REMARK 921   NORMALIZED FREE ENERGY PREDICTED BY IDOCK:   -3.07 KCAL/MOL
REMARK 922        TOTAL FREE ENERGY PREDICTED BY IDOCK:   -6.48 KCAL/MOL
REMARK 923 INTER-LIGAND FREE ENERGY PREDICTED BY IDOCK:   -6.00 KCAL/MOL
REMARK 924 INTRA-LIGAND FREE ENERGY PREDICTED BY IDOCK:   -0.49 KCAL/MOL
REMARK 927      BINDING AFFINITY PREDICTED BY RF-SCORE:    0.00 PKD
ROOT
HETATM    1 NA   UNL     1     -13.686  13.723  70.999  1.00  0.00    -0.324 Na 
HETATM    2  C   UNL     2     -10.833  15.641  65.162  1.00  0.00    -0.448 C  
HETATM    3  C   UNL     2     -11.079  14.857  66.442  1.00  0.00    -0.342 C  
ENDROOT
BRANCH   3   4
HETATM    4  C   UNL     2     -12.093  13.741  66.204  1.00  0.00    -0.477 C  
BRANCH   4   5
HETATM    5  C   UNL     2     -11.591  12.391  66.723  1.00  0.00    -0.444 C  
BRANCH   5   6
HETATM    6  C   UNL     2     -11.381  12.376  68.242  1.00  0.00    -0.332 C  
BRANCH   6   7
HETATM    7  C   UNL     2     -12.017  11.151  68.898  1.00  0.00    -0.367 C  
BRANCH   7   8
HETATM    8  C   UNL     2     -11.652  11.007  70.374  1.00  0.00    -0.389 C  
BRANCH   8   9
HETATM    9  C   UNL     2     -12.896  10.851  71.260  1.00  0.00    -0.536 C  
BRANCH   9  10
HETATM   10  C   UNL     2     -13.455   9.424  71.345  1.00  0.00    -0.403 C  
BRANCH  10  11
HETATM   11  C   UNL     2     -12.645   8.524  72.282  1.00  0.00    -0.438 C  
BRANCH  11  12
HETATM   12  C   UNL     2     -12.123   7.250  71.606  1.00  0.00    -0.359 C  
BRANCH  12  13
HETATM   13  C   UNL     2     -11.269   6.368  72.521  1.00  0.00    -0.272 C  
BRANCH  13  14
HETATM   14  O   UNL     2     -10.757   5.284  71.765  1.00  0.00    -0.223 OA 
HETATM   15  S   UNL     2     -10.112   4.026  72.571  1.00  0.00    -0.167 S  
HETATM   16  O   UNL     2      -9.759   3.093  71.496  1.00  0.00    -0.150 OA 
HETATM   17  O   UNL     2     -11.197   3.548  73.419  1.00  0.00    -0.214 OA 
HETATM   18  O   UNL     2      -8.975   4.593  73.274  1.00  0.00    -0.113 OA 
ENDBRANCH  13  14
ENDBRANCH  12  13
ENDBRANCH  11  12
ENDBRANCH  10  11
ENDBRANCH   9  10
ENDBRANCH   8   9
ENDBRANCH   7   8
ENDBRANCH   6   7
ENDBRANCH   5   6
ENDBRANCH   4   5
ENDBRANCH   3   4
TORSDOF 11
ENDMDL
MODEL      252
REMARK 921   NORMALIZED FREE ENERGY PREDICTED BY IDOCK:   -3.07 KCAL/MOL
REMARK 922        TOTAL FREE ENERGY PREDICTED BY IDOCK:   -6.48 KCAL/MOL
REMARK 923 INTER-LIGAND FREE ENERGY PREDICTED BY IDOCK:   -5.78 KCAL/MOL
REMARK 924 INTRA-LIGAND FREE ENERGY PREDICTED BY IDOCK:   -0.70 KCAL/MOL
REMARK 927      BINDING AFFINITY PREDICTED BY RF-SCORE:    0.00 PKD
ROOT
HETATM    1 NA   UNL     1      -7.417   7.140  69.444  1.00  0.00    -0.074 Na 
HETATM    2  C   UNL     2     -10.779   2.644  73.236  1.00  0.00    -0.277 C  
HETATM    3  C   UNL     2      -9.689   3.608  72.794  1.00  0.00    -0.194 C  
ENDROOT
BRANCH   3   4
HETATM    4  C   UNL     2     -10.020   5.033  73.228  1.00  0.00    -0.182 C  
BRANCH   4   5
HETATM    5  C   UNL     2     -11.396   5.479  72.728  1.00  0.00    -0.359 C  
BRANCH   5   6
HETATM    6  C   UNL     2     -11.340   6.164  71.357  1.00  0.00    -0.336 C  
BRANCH   6   7
HETATM    7  C   UNL     2     -12.451   7.199  71.186  1.00  0.00    -0.400 C  
BRANCH   7   8
HETATM    8  C   UNL     2     -12.132   8.533  71.858  1.00  0.00    -0.411 C  
BRANCH   8   9
HETATM    9  C   UNL     2     -13.331   9.492  71.828  1.00  0.00    -0.501 C  
BRANCH   9  10
HETATM   10  C   UNL     2     -13.268  10.571  70.738  1.00  0.00    -0.221 C  
BRANCH  10  11
HETATM   11  C   UNL     2     -11.838  10.871  70.279  1.00  0.00    -0.450 C  
BRANCH  11  12
HETATM   12  C   UNL     2     -11.560  10.451  68.831  1.00  0.00    -0.208 C  
BRANCH  12  13
HETATM   13  C   UNL     2     -10.806  11.504  68.014  1.00  0.00    -0.213 C  
BRANCH  13  14
HETATM   14  O   UNL     2     -11.711  12.124  67.119  1.00  0.00    -0.465 OA 
HETATM   15  S   UNL     2     -11.796  13.749  67.119  1.00  0.00    -0.411 S  
HETATM   16  O   UNL     2     -12.759  14.029  66.049  1.00  0.00    -0.475 OA 
HETATM   17  O   UNL     2     -10.440  14.180  66.804  1.00  0.00    -0.273 OA 
HETATM   18  O   UNL     2     -12.263  14.085  68.452  1.00  0.00    -0.332 OA 
ENDBRANCH  13  14
ENDBRANCH  12  13
ENDBRANCH  11  12
ENDBRANCH  10  11
ENDBRANCH   9  10
ENDBRANCH   8   9
ENDBRANCH   7   8
ENDBRANCH   6   7
ENDBRANCH   5   6
ENDBRANCH   4   5
ENDBRANCH   3   4
TORSDOF 11
ENDMDL
MODEL      253
REMARK 921   NORMALIZED FREE ENERGY PREDICTED BY IDOCK:   -3.07 KCAL/MOL
REMARK 922        TOTAL FREE ENERGY PREDICTED BY IDOCK:   -6.47 KCAL/MOL
REMARK 923 INTER-LIGAND FREE ENERGY PREDICTED BY IDOCK:   -5.36 KCAL/MOL
REMARK 924 INTRA-LIGAND FREE ENERGY PREDICTED BY IDOCK:   -1.12 KCAL/MOL
REMARK 927      BINDING AFFINITY PREDICTED BY RF-SCORE:    0.00 PKD
ROOT
HETATM    1 NA   UNL     1      -7.982  13.100  69.149  1.00  0.00    -0.203 Na 
HETATM    2  C   UNL     2     -10.760   7.227  67.230  1.00  0.00    -0.391 C  
HETATM    3  C   UNL     2      -9.701   8.280  67.514  1.00  0.00    -0.212 C  
ENDROOT
BRANCH   3   4
HETATM    4  C   UNL     2      -9.248   8.211  68.970  1.00  0.00    -0.148 C  
BRANCH   4   5
HETATM    5  C   UNL     2      -9.846   7.006  69.699  1.00  0.00    -0.166 C  
BRANCH   5   6
HETATM    6  C   UNL     2     -10.134   7.287  71.179  1.00  0.00    -0.190 C  
BRANCH   6   7
HETATM    7  C   UNL     2     -11.575   7.742  71.407  1.00  0.00    -0.305 C  
BRANCH   7   8
HETATM    8  C   UNL     2     -11.670   9.118  72.064  1.00  0.00    -0.384 C  
BRANCH   8   9
HETATM    9  C   UNL     2     -12.916   9.888  71.605  1.00  0.00    -0.536 C  
BRANCH   9  10
HETATM   10  C   UNL     2     -12.860  10.408  70.162  1.00  0.00    -0.086 C  
BRANCH  10  11
HETATM   11  C   UNL     2     -11.685  11.359  69.919  1.00  0.00    -0.424 C  
BRANCH  11  12
HETATM   12  C   UNL     2     -11.723  12.039  68.545  1.00  0.00    -0.387 C  
BRANCH  12  13
HETATM   13  C   UNL     2     -11.886  13.560  68.610  1.00  0.00    -0.369 C  
BRANCH  13  14
HETATM   14  O   UNL     2     -11.307  14.032  69.815  1.00  0.00    -0.243 OA 
HETATM   15  S   UNL     2     -12.255  14.856  70.849  1.00  0.00    -0.358 S  
HETATM   16  O   UNL     2     -11.360  15.117  71.980  1.00  0.00    -0.418 OA 
HETATM   17  O   UNL     2     -13.333  13.926  71.166  1.00  0.00    -0.281 OA 
HETATM   18  O   UNL     2     -12.652  16.040  70.108  1.00  0.00    -0.259 OA 
ENDBRANCH  13  14
ENDBRANCH  12  13
ENDBRANCH  11  12
ENDBRANCH  10  11
ENDBRANCH   9  10
ENDBRANCH   8   9
ENDBRANCH   7   8
ENDBRANCH   6   7
ENDBRANCH   5   6
ENDBRANCH   4   5
ENDBRANCH   3   4
TORSDOF 11
ENDMDL
MODEL      254
REMARK 921   NORMALIZED FREE ENERGY PREDICTED BY IDOCK:   -3.07 KCAL/MOL
REMARK 922        TOTAL FREE ENERGY PREDICTED BY IDOCK:   -6.47 KCAL/MOL
REMARK 923 INTER-LIGAND FREE ENERGY PREDICTED BY IDOCK:   -5.77 KCAL/MOL
REMARK 924 INTRA-LIGAND FREE ENERGY PREDICTED BY IDOCK:   -0.71 KCAL/MOL
REMARK 927      BINDING AFFINITY PREDICTED BY RF-SCORE:    0.00 PKD
ROOT
HETATM    1 NA   UNL     1     -11.047  19.306  72.877  1.00  0.00    -0.391 Na 
HETATM    2  C   UNL     2      -5.958  17.929  68.622  1.00  0.00    -0.187 C  
HETATM    3  C   UNL     2      -7.365  17.978  69.198  1.00  0.00    -0.120 C  
ENDROOT
BRANCH   3   4
HETATM    4  C   UNL     2      -8.069  19.270  68.795  1.00  0.00    -0.391 C  
BRANCH   4   5
HETATM    5  C   UNL     2      -9.286  19.007  67.907  1.00  0.00    -0.354 C  
BRANCH   5   6
HETATM    6  C   UNL     2     -10.256  17.983  68.512  1.00  0.00    -0.392 C  
BRANCH   6   7
HETATM    7  C   UNL     2     -10.328  16.701  67.684  1.00  0.00    -0.305 C  
BRANCH   7   8
HETATM    8  C   UNL     2     -10.585  16.962  66.201  1.00  0.00    -0.195 C  
BRANCH   8   9
HETATM    9  C   UNL     2     -10.230  15.745  65.335  1.00  0.00    -0.380 C  
BRANCH   9  10
HETATM   10  C   UNL     2     -11.395  14.785  65.059  1.00  0.00    -0.391 C  
BRANCH  10  11
HETATM   11  C   UNL     2     -10.932  13.420  64.543  1.00  0.00    -0.404 C  
BRANCH  11  12
HETATM   12  C   UNL     2     -11.732  12.245  65.119  1.00  0.00    -0.414 C  
BRANCH  12  13
HETATM   13  C   UNL     2     -11.017  11.505  66.253  1.00  0.00    -0.275 C  
BRANCH  13  14
HETATM   14  O   UNL     2     -11.827  11.556  67.415  1.00  0.00    -0.607 OA 
HETATM   15  S   UNL     2     -11.131  12.013  68.813  1.00  0.00    -0.266 S  
HETATM   16  O   UNL     2     -12.254  12.015  69.755  1.00  0.00    -0.244 OA 
HETATM   17  O   UNL     2     -10.606  13.344  68.535  1.00  0.00    -0.244 OA 
HETATM   18  O   UNL     2     -10.131  10.991  69.068  1.00  0.00    -0.205 OA 
ENDBRANCH  13  14
ENDBRANCH  12  13
ENDBRANCH  11  12
ENDBRANCH  10  11
ENDBRANCH   9  10
ENDBRANCH   8   9
ENDBRANCH   7   8
ENDBRANCH   6   7
ENDBRANCH   5   6
ENDBRANCH   4   5
ENDBRANCH   3   4
TORSDOF 11
ENDMDL
MODEL      255
REMARK 921   NORMALIZED FREE ENERGY PREDICTED BY IDOCK:   -3.06 KCAL/MOL
REMARK 922        TOTAL FREE ENERGY PREDICTED BY IDOCK:   -6.47 KCAL/MOL
REMARK 923 INTER-LIGAND FREE ENERGY PREDICTED BY IDOCK:   -5.92 KCAL/MOL
REMARK 924 INTRA-LIGAND FREE ENERGY PREDICTED BY IDOCK:   -0.55 KCAL/MOL
REMARK 927      BINDING AFFINITY PREDICTED BY RF-SCORE:    0.00 PKD
ROOT
HETATM    1 NA   UNL     1     -13.422  14.465  65.784  1.00  0.00    -0.536 Na 
HETATM    2  C   UNL     2     -11.879  15.846  72.235  1.00  0.00    -0.617 C  
HETATM    3  C   UNL     2     -12.713  15.577  70.991  1.00  0.00    -0.526 C  
ENDROOT
BRANCH   3   4
HETATM    4  C   UNL     2     -12.926  14.078  70.798  1.00  0.00    -0.298 C  
BRANCH   4   5
HETATM    5  C   UNL     2     -13.232  13.368  72.118  1.00  0.00    -0.557 C  
BRANCH   5   6
HETATM    6  C   UNL     2     -13.374  11.849  71.959  1.00  0.00    -0.425 C  
BRANCH   6   7
HETATM    7  C   UNL     2     -12.384  11.283  70.942  1.00  0.00    -0.490 C  
BRANCH   7   8
HETATM    8  C   UNL     2     -11.690  10.012  71.427  1.00  0.00    -0.414 C  
BRANCH   8   9
HETATM    9  C   UNL     2     -10.500   9.632  70.534  1.00  0.00    -0.367 C  
BRANCH   9  10
HETATM   10  C   UNL     2     -10.785   9.669  69.027  1.00  0.00    -0.232 C  
BRANCH  10  11
HETATM   11  C   UNL     2      -9.940   8.667  68.236  1.00  0.00    -0.207 C  
BRANCH  11  12
HETATM   12  C   UNL     2     -10.724   7.936  67.140  1.00  0.00    -0.306 C  
BRANCH  12  13
HETATM   13  C   UNL     2     -10.777   6.416  67.323  1.00  0.00    -0.353 C  
BRANCH  13  14
HETATM   14  O   UNL     2      -9.883   5.812  66.405  1.00  0.00    -0.157 OA 
HETATM   15  S   UNL     2      -8.593   5.019  67.000  1.00  0.00    -0.103 S  
HETATM   16  O   UNL     2      -7.952   4.482  65.796  1.00  0.00    -0.094 OA 
HETATM   17  O   UNL     2      -9.169   3.989  67.857  1.00  0.00    -0.134 OA 
HETATM   18  O   UNL     2      -7.826   6.043  67.686  1.00  0.00    -0.099 OA 
ENDBRANCH  13  14
ENDBRANCH  12  13
ENDBRANCH  11  12
ENDBRANCH  10  11
ENDBRANCH   9  10
ENDBRANCH   8   9
ENDBRANCH   7   8
ENDBRANCH   6   7
ENDBRANCH   5   6
ENDBRANCH   4   5
ENDBRANCH   3   4
TORSDOF 11
ENDMDL
MODEL      256
REMARK 921   NORMALIZED FREE ENERGY PREDICTED BY IDOCK:   -3.06 KCAL/MOL
REMARK 922        TOTAL FREE ENERGY PREDICTED BY IDOCK:   -6.46 KCAL/MOL
REMARK 923 INTER-LIGAND FREE ENERGY PREDICTED BY IDOCK:   -5.81 KCAL/MOL
REMARK 924 INTRA-LIGAND FREE ENERGY PREDICTED BY IDOCK:   -0.66 KCAL/MOL
REMARK 927      BINDING AFFINITY PREDICTED BY RF-SCORE:    0.00 PKD
ROOT
HETATM    1 NA   UNL     1     -11.135  12.818  70.271  1.00  0.00    -0.456 Na 
HETATM    2  C   UNL     2      -9.943   7.168  66.728  1.00  0.00    -0.278 C  
HETATM    3  C   UNL     2     -10.597   8.471  67.162  1.00  0.00    -0.314 C  
ENDROOT
BRANCH   3   4
HETATM    4  C   UNL     2      -9.897   9.666  66.521  1.00  0.00    -0.298 C  
BRANCH   4   5
HETATM    5  C   UNL     2     -10.483  10.997  66.997  1.00  0.00    -0.284 C  
BRANCH   5   6
HETATM    6  C   UNL     2      -9.584  12.196  66.671  1.00  0.00    -0.226 C  
BRANCH   6   7
HETATM    7  C   UNL     2      -9.773  13.342  67.663  1.00  0.00    -0.222 C  
BRANCH   7   8
HETATM    8  C   UNL     2     -10.856  14.330  67.236  1.00  0.00    -0.285 C  
BRANCH   8   9
HETATM    9  C   UNL     2     -10.330  15.771  67.183  1.00  0.00    -0.291 C  
BRANCH   9  10
HETATM   10  C   UNL     2      -9.301  16.044  66.078  1.00  0.00    -0.380 C  
BRANCH  10  11
HETATM   11  C   UNL     2      -7.905  16.348  66.627  1.00  0.00    -0.316 C  
BRANCH  11  12
HETATM   12  C   UNL     2      -7.272  17.610  66.027  1.00  0.00    -0.316 C  
BRANCH  12  13
HETATM   13  C   UNL     2      -8.118  18.873  66.207  1.00  0.00    -0.269 C  
BRANCH  13  14
HETATM   14  O   UNL     2      -8.541  18.953  67.557  1.00  0.00    -0.271 OA 
HETATM   15  S   UNL     2      -9.922  19.750  67.881  1.00  0.00    -0.439 S  
HETATM   16  O   UNL     2     -10.074  19.572  69.329  1.00  0.00    -0.406 OA 
HETATM   17  O   UNL     2     -10.934  19.045  67.103  1.00  0.00    -0.433 OA 
HETATM   18  O   UNL     2      -9.656  21.115  67.466  1.00  0.00    -0.321 OA 
ENDBRANCH  13  14
ENDBRANCH  12  13
ENDBRANCH  11  12
ENDBRANCH  10  11
ENDBRANCH   9  10
ENDBRANCH   8   9
ENDBRANCH   7   8
ENDBRANCH   6   7
ENDBRANCH   5   6
ENDBRANCH   4   5
ENDBRANCH   3   4
TORSDOF 11
ENDMDL
MODEL      257
REMARK 921   NORMALIZED FREE ENERGY PREDICTED BY IDOCK:   -3.06 KCAL/MOL
REMARK 922        TOTAL FREE ENERGY PREDICTED BY IDOCK:   -6.46 KCAL/MOL
REMARK 923 INTER-LIGAND FREE ENERGY PREDICTED BY IDOCK:   -4.85 KCAL/MOL
REMARK 924 INTRA-LIGAND FREE ENERGY PREDICTED BY IDOCK:   -1.61 KCAL/MOL
REMARK 927      BINDING AFFINITY PREDICTED BY RF-SCORE:    0.00 PKD
ROOT
HETATM    1 NA   UNL     1     -11.732   9.304  67.608  1.00  0.00    -0.523 Na 
HETATM    2  C   UNL     2      -6.533  13.619  68.105  1.00  0.00    -0.125 C  
HETATM    3  C   UNL     2      -7.351  12.345  68.251  1.00  0.00    -0.113 C  
ENDROOT
BRANCH   3   4
HETATM    4  C   UNL     2      -7.202  11.463  67.015  1.00  0.00    -0.141 C  
BRANCH   4   5
HETATM    5  C   UNL     2      -8.479  10.674  66.717  1.00  0.00    -0.134 C  
BRANCH   5   6
HETATM    6  C   UNL     2      -8.347   9.769  65.485  1.00  0.00    -0.141 C  
BRANCH   6   7
HETATM    7  C   UNL     2      -8.226  10.575  64.191  1.00  0.00    -0.058 C  
BRANCH   7   8
HETATM    8  C   UNL     2      -9.398  10.352  63.238  1.00  0.00    -0.335 C  
BRANCH   8   9
HETATM    9  C   UNL     2     -10.502  11.402  63.431  1.00  0.00    -0.452 C  
BRANCH   9  10
HETATM   10  C   UNL     2     -10.053  12.689  64.136  1.00  0.00    -0.293 C  
BRANCH  10  11
HETATM   11  C   UNL     2     -11.095  13.219  65.125  1.00  0.00    -0.315 C  
BRANCH  11  12
HETATM   12  C   UNL     2     -11.605  12.156  66.105  1.00  0.00    -0.418 C  
BRANCH  12  13
HETATM   13  C   UNL     2     -11.638  12.622  67.563  1.00  0.00    -0.359 C  
BRANCH  13  14
HETATM   14  O   UNL     2     -12.314  11.649  68.340  1.00  0.00    -0.417 OA 
HETATM   15  S   UNL     2     -11.734  11.316  69.823  1.00  0.00    -0.379 S  
HETATM   16  O   UNL     2     -12.699  10.342  70.343  1.00  0.00    -0.273 OA 
HETATM   17  O   UNL     2     -11.771  12.596  70.520  1.00  0.00    -0.166 OA 
HETATM   18  O   UNL     2     -10.408  10.778  69.579  1.00  0.00    -0.215 OA 
ENDBRANCH  13  14
ENDBRANCH  12  13
ENDBRANCH  11  12
ENDBRANCH  10  11
ENDBRANCH   9  10
ENDBRANCH   8   9
ENDBRANCH   7   8
ENDBRANCH   6   7
ENDBRANCH   5   6
ENDBRANCH   4   5
ENDBRANCH   3   4
TORSDOF 11
ENDMDL
MODEL      258
REMARK 921   NORMALIZED FREE ENERGY PREDICTED BY IDOCK:   -3.06 KCAL/MOL
REMARK 922        TOTAL FREE ENERGY PREDICTED BY IDOCK:   -6.46 KCAL/MOL
REMARK 923 INTER-LIGAND FREE ENERGY PREDICTED BY IDOCK:   -5.36 KCAL/MOL
REMARK 924 INTRA-LIGAND FREE ENERGY PREDICTED BY IDOCK:   -1.10 KCAL/MOL
REMARK 927      BINDING AFFINITY PREDICTED BY RF-SCORE:    0.00 PKD
ROOT
HETATM    1 NA   UNL     1     -11.826   4.956  65.037  1.00  0.00    -0.669 Na 
HETATM    2  C   UNL     2      -9.977   6.681  71.322  1.00  0.00    -0.196 C  
HETATM    3  C   UNL     2     -10.503   5.842  70.167  1.00  0.00    -0.329 C  
ENDROOT
BRANCH   3   4
HETATM    4  C   UNL     2      -9.357   5.143  69.442  1.00  0.00    -0.176 C  
BRANCH   4   5
HETATM    5  C   UNL     2      -9.298   5.526  67.961  1.00  0.00    -0.120 C  
BRANCH   5   6
HETATM    6  C   UNL     2     -10.636   6.055  67.428  1.00  0.00    -0.355 C  
BRANCH   6   7
HETATM    7  C   UNL     2     -10.573   7.544  67.092  1.00  0.00    -0.415 C  
BRANCH   7   8
HETATM    8  C   UNL     2      -9.199   8.157  67.355  1.00  0.00    -0.159 C  
BRANCH   8   9
HETATM    9  C   UNL     2      -9.295   9.444  68.187  1.00  0.00    -0.142 C  
BRANCH   9  10
HETATM   10  C   UNL     2     -10.558   9.563  69.050  1.00  0.00    -0.238 C  
BRANCH  10  11
HETATM   11  C   UNL     2     -11.525  10.638  68.546  1.00  0.00    -0.333 C  
BRANCH  11  12
HETATM   12  C   UNL     2     -10.966  12.062  68.651  1.00  0.00    -0.281 C  
BRANCH  12  13
HETATM   13  C   UNL     2     -12.015  13.113  69.025  1.00  0.00    -0.285 C  
BRANCH  13  14
HETATM   14  O   UNL     2     -11.537  13.865  70.127  1.00  0.00    -0.251 OA 
HETATM   15  S   UNL     2     -12.573  14.188  71.340  1.00  0.00    -0.375 S  
HETATM   16  O   UNL     2     -11.735  14.903  72.307  1.00  0.00    -0.342 OA 
HETATM   17  O   UNL     2     -13.002  12.874  71.805  1.00  0.00    -0.362 OA 
HETATM   18  O   UNL     2     -13.608  14.999  70.723  1.00  0.00    -0.336 OA 
ENDBRANCH  13  14
ENDBRANCH  12  13
ENDBRANCH  11  12
ENDBRANCH  10  11
ENDBRANCH   9  10
ENDBRANCH   8   9
ENDBRANCH   7   8
ENDBRANCH   6   7
ENDBRANCH   5   6
ENDBRANCH   4   5
ENDBRANCH   3   4
TORSDOF 11
ENDMDL
MODEL      259
REMARK 921   NORMALIZED FREE ENERGY PREDICTED BY IDOCK:   -3.05 KCAL/MOL
REMARK 922        TOTAL FREE ENERGY PREDICTED BY IDOCK:   -6.45 KCAL/MOL
REMARK 923 INTER-LIGAND FREE ENERGY PREDICTED BY IDOCK:   -5.07 KCAL/MOL
REMARK 924 INTRA-LIGAND FREE ENERGY PREDICTED BY IDOCK:   -1.38 KCAL/MOL
REMARK 927      BINDING AFFINITY PREDICTED BY RF-SCORE:    0.00 PKD
ROOT
HETATM    1 NA   UNL     1      -7.227  13.542  70.536  1.00  0.00    -0.344 Na 
HETATM    2  C   UNL     2     -13.279  15.381  72.962  1.00  0.00    -0.638 C  
HETATM    3  C   UNL     2     -11.784  15.407  72.683  1.00  0.00    -0.556 C  
ENDROOT
BRANCH   3   4
HETATM    4  C   UNL     2     -11.493  16.120  71.366  1.00  0.00    -0.429 C  
BRANCH   4   5
HETATM    5  C   UNL     2     -10.822  15.194  70.349  1.00  0.00    -0.249 C  
BRANCH   5   6
HETATM    6  C   UNL     2     -11.645  15.020  69.066  1.00  0.00    -0.342 C  
BRANCH   6   7
HETATM    7  C   UNL     2     -12.008  13.558  68.811  1.00  0.00    -0.374 C  
BRANCH   7   8
HETATM    8  C   UNL     2     -12.306  12.784  70.093  1.00  0.00    -0.235 C  
BRANCH   8   9
HETATM    9  C   UNL     2     -11.841  11.323  70.003  1.00  0.00    -0.448 C  
BRANCH   9  10
HETATM   10  C   UNL     2     -10.697  11.069  69.012  1.00  0.00    -0.258 C  
BRANCH  10  11
HETATM   11  C   UNL     2     -10.448   9.580  68.760  1.00  0.00    -0.243 C  
BRANCH  11  12
HETATM   12  C   UNL     2      -9.726   8.876  69.916  1.00  0.00    -0.185 C  
BRANCH  12  13
HETATM   13  C   UNL     2      -8.574   9.689  70.514  1.00  0.00    -0.092 C  
BRANCH  13  14
HETATM   14  O   UNL     2      -7.454   9.599  69.650  1.00  0.00    -0.078 OA 
HETATM   15  S   UNL     2      -6.607  10.956  69.352  1.00  0.00    -0.109 S  
HETATM   16  O   UNL     2      -5.514  10.482  68.499  1.00  0.00    -0.038 OA 
HETATM   17  O   UNL     2      -6.163  11.399  70.668  1.00  0.00    -0.332 OA 
HETATM   18  O   UNL     2      -7.554  11.833  68.687  1.00  0.00    -0.121 OA 
ENDBRANCH  13  14
ENDBRANCH  12  13
ENDBRANCH  11  12
ENDBRANCH  10  11
ENDBRANCH   9  10
ENDBRANCH   8   9
ENDBRANCH   7   8
ENDBRANCH   6   7
ENDBRANCH   5   6
ENDBRANCH   4   5
ENDBRANCH   3   4
TORSDOF 11
ENDMDL
MODEL      260
REMARK 921   NORMALIZED FREE ENERGY PREDICTED BY IDOCK:   -3.04 KCAL/MOL
REMARK 922        TOTAL FREE ENERGY PREDICTED BY IDOCK:   -6.44 KCAL/MOL
REMARK 923 INTER-LIGAND FREE ENERGY PREDICTED BY IDOCK:   -5.87 KCAL/MOL
REMARK 924 INTRA-LIGAND FREE ENERGY PREDICTED BY IDOCK:   -0.57 KCAL/MOL
REMARK 927      BINDING AFFINITY PREDICTED BY RF-SCORE:    0.00 PKD
ROOT
HETATM    1 NA   UNL     1     -13.223   6.702  70.060  1.00  0.00    -0.565 Na 
HETATM    2  C   UNL     2      -6.926   7.956  72.224  1.00  0.00    -0.076 C  
HETATM    3  C   UNL     2      -8.106   7.216  71.611  1.00  0.00    -0.102 C  
ENDROOT
BRANCH   3   4
HETATM    4  C   UNL     2      -8.242   7.550  70.129  1.00  0.00    -0.132 C  
BRANCH   4   5
HETATM    5  C   UNL     2      -9.671   7.957  69.762  1.00  0.00    -0.176 C  
BRANCH   5   6
HETATM    6  C   UNL     2      -9.758   9.380  69.194  1.00  0.00    -0.165 C  
BRANCH   6   7
HETATM    7  C   UNL     2     -10.484   9.417  67.850  1.00  0.00    -0.296 C  
BRANCH   7   8
HETATM    8  C   UNL     2     -10.521  10.812  67.230  1.00  0.00    -0.282 C  
BRANCH   8   9
HETATM    9  C   UNL     2     -11.761  11.603  67.670  1.00  0.00    -0.300 C  
BRANCH   9  10
HETATM   10  C   UNL     2     -11.531  12.568  68.841  1.00  0.00    -0.355 C  
BRANCH  10  11
HETATM   11  C   UNL     2     -11.955  14.004  68.521  1.00  0.00    -0.383 C  
BRANCH  11  12
HETATM   12  C   UNL     2     -10.775  14.971  68.369  1.00  0.00    -0.245 C  
BRANCH  12  13
HETATM   13  C   UNL     2     -10.701  15.647  66.997  1.00  0.00    -0.314 C  
BRANCH  13  14
HETATM   14  O   UNL     2     -11.742  15.141  66.180  1.00  0.00    -0.174 OA 
HETATM   15  S   UNL     2     -11.499  15.096  64.571  1.00  0.00    -0.248 S  
HETATM   16  O   UNL     2     -12.725  14.467  64.071  1.00  0.00    -0.759 OA 
HETATM   17  O   UNL     2     -10.314  14.262  64.410  1.00  0.00    -0.240 OA 
HETATM   18  O   UNL     2     -11.337  16.488  64.192  1.00  0.00    -1.060 OA 
ENDBRANCH  13  14
ENDBRANCH  12  13
ENDBRANCH  11  12
ENDBRANCH  10  11
ENDBRANCH   9  10
ENDBRANCH   8   9
ENDBRANCH   7   8
ENDBRANCH   6   7
ENDBRANCH   5   6
ENDBRANCH   4   5
ENDBRANCH   3   4
TORSDOF 11
ENDMDL
MODEL      261
REMARK 921   NORMALIZED FREE ENERGY PREDICTED BY IDOCK:   -3.04 KCAL/MOL
REMARK 922        TOTAL FREE ENERGY PREDICTED BY IDOCK:   -6.44 KCAL/MOL
REMARK 923 INTER-LIGAND FREE ENERGY PREDICTED BY IDOCK:   -5.03 KCAL/MOL
REMARK 924 INTRA-LIGAND FREE ENERGY PREDICTED BY IDOCK:   -1.41 KCAL/MOL
REMARK 927      BINDING AFFINITY PREDICTED BY RF-SCORE:    0.00 PKD
ROOT
HETATM    1 NA   UNL     1      -7.444  16.575  65.456  1.00  0.00    -0.145 Na 
HETATM    2  C   UNL     2     -12.520  12.220  64.373  1.00  0.00    -0.484 C  
HETATM    3  C   UNL     2     -11.295  13.081  64.106  1.00  0.00    -0.442 C  
ENDROOT
BRANCH   3   4
HETATM    4  C   UNL     2     -10.018  12.337  64.485  1.00  0.00    -0.217 C  
BRANCH   4   5
HETATM    5  C   UNL     2     -10.121  10.838  64.193  1.00  0.00    -0.418 C  
BRANCH   5   6
HETATM    6  C   UNL     2      -9.488   9.972  65.290  1.00  0.00    -0.323 C  
BRANCH   6   7
HETATM    7  C   UNL     2     -10.512   9.529  66.334  1.00  0.00    -0.168 C  
BRANCH   7   8
HETATM    8  C   UNL     2     -10.711  10.555  67.448  1.00  0.00    -0.334 C  
BRANCH   8   9
HETATM    9  C   UNL     2      -9.567  10.518  68.473  1.00  0.00    -0.164 C  
BRANCH   9  10
HETATM   10  C   UNL     2      -8.525  11.634  68.319  1.00  0.00    -0.160 C  
BRANCH  10  11
HETATM   11  C   UNL     2      -9.150  13.032  68.293  1.00  0.00    -0.179 C  
BRANCH  11  12
HETATM   12  C   UNL     2      -8.178  14.129  67.842  1.00  0.00    -0.155 C  
BRANCH  12  13
HETATM   13  C   UNL     2      -8.652  15.548  68.164  1.00  0.00    -0.152 C  
BRANCH  13  14
HETATM   14  O   UNL     2      -8.934  16.223  66.950  1.00  0.00    -0.195 OA 
HETATM   15  S   UNL     2     -10.488  16.565  66.607  1.00  0.00    -0.226 S  
HETATM   16  O   UNL     2     -10.391  17.305  65.345  1.00  0.00    -0.626 OA 
HETATM   17  O   UNL     2     -10.931  17.387  67.727  1.00  0.00    -0.317 OA 
HETATM   18  O   UNL     2     -11.127  15.266  66.497  1.00  0.00    -0.325 OA 
ENDBRANCH  13  14
ENDBRANCH  12  13
ENDBRANCH  11  12
ENDBRANCH  10  11
ENDBRANCH   9  10
ENDBRANCH   8   9
ENDBRANCH   7   8
ENDBRANCH   6   7
ENDBRANCH   5   6
ENDBRANCH   4   5
ENDBRANCH   3   4
TORSDOF 11
ENDMDL
MODEL      262
REMARK 921   NORMALIZED FREE ENERGY PREDICTED BY IDOCK:   -3.04 KCAL/MOL
REMARK 922        TOTAL FREE ENERGY PREDICTED BY IDOCK:   -6.44 KCAL/MOL
REMARK 923 INTER-LIGAND FREE ENERGY PREDICTED BY IDOCK:   -5.88 KCAL/MOL
REMARK 924 INTRA-LIGAND FREE ENERGY PREDICTED BY IDOCK:   -0.55 KCAL/MOL
REMARK 927      BINDING AFFINITY PREDICTED BY RF-SCORE:    0.00 PKD
ROOT
HETATM    1 NA   UNL     1     -12.772   7.235  70.124  1.00  0.00    -0.525 Na 
HETATM    2  C   UNL     2      -8.471   3.442  66.518  1.00  0.00    -0.109 C  
HETATM    3  C   UNL     2      -9.687   4.289  66.860  1.00  0.00    -0.239 C  
ENDROOT
BRANCH   3   4
HETATM    4  C   UNL     2      -9.380   5.772  66.676  1.00  0.00    -0.155 C  
BRANCH   4   5
HETATM    5  C   UNL     2     -10.648   6.628  66.715  1.00  0.00    -0.315 C  
BRANCH   5   6
HETATM    6  C   UNL     2     -10.531   7.824  67.670  1.00  0.00    -0.308 C  
BRANCH   6   7
HETATM    7  C   UNL     2     -10.598   9.159  66.930  1.00  0.00    -0.237 C  
BRANCH   7   8
HETATM    8  C   UNL     2      -9.599   9.253  65.778  1.00  0.00    -0.341 C  
BRANCH   8   9
HETATM    9  C   UNL     2      -9.445  10.693  65.268  1.00  0.00    -0.270 C  
BRANCH   9  10
HETATM   10  C   UNL     2     -10.726  11.318  64.699  1.00  0.00    -0.371 C  
BRANCH  10  11
HETATM   11  C   UNL     2     -10.665  12.847  64.636  1.00  0.00    -0.373 C  
BRANCH  11  12
HETATM   12  C   UNL     2     -10.526  13.511  66.012  1.00  0.00    -0.299 C  
BRANCH  12  13
HETATM   13  C   UNL     2      -9.525  14.668  66.043  1.00  0.00    -0.238 C  
BRANCH  13  14
HETATM   14  O   UNL     2     -10.109  15.762  66.729  1.00  0.00    -0.257 OA 
HETATM   15  S   UNL     2     -10.098  17.217  66.001  1.00  0.00    -0.247 S  
HETATM   16  O   UNL     2     -10.828  18.065  66.948  1.00  0.00    -0.254 OA 
HETATM   17  O   UNL     2     -10.813  16.998  64.750  1.00  0.00    -0.820 OA 
HETATM   18  O   UNL     2      -8.689  17.540  65.865  1.00  0.00    -0.525 OA 
ENDBRANCH  13  14
ENDBRANCH  12  13
ENDBRANCH  11  12
ENDBRANCH  10  11
ENDBRANCH   9  10
ENDBRANCH   8   9
ENDBRANCH   7   8
ENDBRANCH   6   7
ENDBRANCH   5   6
ENDBRANCH   4   5
ENDBRANCH   3   4
TORSDOF 11
ENDMDL
MODEL      263
REMARK 921   NORMALIZED FREE ENERGY PREDICTED BY IDOCK:   -3.04 KCAL/MOL
REMARK 922        TOTAL FREE ENERGY PREDICTED BY IDOCK:   -6.43 KCAL/MOL
REMARK 923 INTER-LIGAND FREE ENERGY PREDICTED BY IDOCK:   -5.30 KCAL/MOL
REMARK 924 INTRA-LIGAND FREE ENERGY PREDICTED BY IDOCK:   -1.13 KCAL/MOL
REMARK 927      BINDING AFFINITY PREDICTED BY RF-SCORE:    0.00 PKD
ROOT
HETATM    1 NA   UNL     1     -10.673   3.541  64.119  1.00  0.00    -0.170 Na 
HETATM    2  C   UNL     2      -9.429   8.725  68.298  1.00  0.00    -0.150 C  
HETATM    3  C   UNL     2     -10.183   7.799  67.356  1.00  0.00    -0.320 C  
ENDROOT
BRANCH   3   4
HETATM    4  C   UNL     2     -10.782   6.623  68.122  1.00  0.00    -0.320 C  
BRANCH   4   5
HETATM    5  C   UNL     2     -10.581   6.760  69.632  1.00  0.00    -0.267 C  
BRANCH   5   6
HETATM    6  C   UNL     2     -11.899   6.712  70.417  1.00  0.00    -0.407 C  
BRANCH   6   7
HETATM    7  C   UNL     2     -11.795   7.437  71.758  1.00  0.00    -0.327 C  
BRANCH   7   8
HETATM    8  C   UNL     2     -13.095   8.128  72.165  1.00  0.00    -0.267 C  
BRANCH   8   9
HETATM    9  C   UNL     2     -12.949   9.657  72.186  1.00  0.00    -0.493 C  
BRANCH   9  10
HETATM   10  C   UNL     2     -13.133  10.343  70.826  1.00  0.00    -0.362 C  
BRANCH  10  11
HETATM   11  C   UNL     2     -11.823  10.893  70.255  1.00  0.00    -0.450 C  
BRANCH  11  12
HETATM   12  C   UNL     2     -11.919  11.292  68.778  1.00  0.00    -0.350 C  
BRANCH  12  13
HETATM   13  C   UNL     2     -11.367  12.687  68.475  1.00  0.00    -0.296 C  
BRANCH  13  14
HETATM   14  O   UNL     2      -9.954  12.614  68.398  1.00  0.00    -0.226 OA 
HETATM   15  S   UNL     2      -9.249  12.905  66.961  1.00  0.00    -0.231 S  
HETATM   16  O   UNL     2      -7.819  12.811  67.270  1.00  0.00    -0.173 OA 
HETATM   17  O   UNL     2      -9.679  14.255  66.617  1.00  0.00    -0.266 OA 
HETATM   18  O   UNL     2      -9.749  11.852  66.095  1.00  0.00    -0.221 OA 
ENDBRANCH  13  14
ENDBRANCH  12  13
ENDBRANCH  11  12
ENDBRANCH  10  11
ENDBRANCH   9  10
ENDBRANCH   8   9
ENDBRANCH   7   8
ENDBRANCH   6   7
ENDBRANCH   5   6
ENDBRANCH   4   5
ENDBRANCH   3   4
TORSDOF 11
ENDMDL
MODEL      264
REMARK 921   NORMALIZED FREE ENERGY PREDICTED BY IDOCK:   -3.04 KCAL/MOL
REMARK 922        TOTAL FREE ENERGY PREDICTED BY IDOCK:   -6.43 KCAL/MOL
REMARK 923 INTER-LIGAND FREE ENERGY PREDICTED BY IDOCK:   -5.34 KCAL/MOL
REMARK 924 INTRA-LIGAND FREE ENERGY PREDICTED BY IDOCK:   -1.08 KCAL/MOL
REMARK 927      BINDING AFFINITY PREDICTED BY RF-SCORE:    0.00 PKD
ROOT
HETATM    1 NA   UNL     1     -12.826  14.248  68.211  1.00  0.00    -0.559 Na 
HETATM    2  C   UNL     2     -13.473   9.182  72.662  1.00  0.00    -0.395 C  
HETATM    3  C   UNL     2     -13.360   9.908  71.330  1.00  0.00    -0.447 C  
ENDROOT
BRANCH   3   4
HETATM    4  C   UNL     2     -11.896  10.101  70.944  1.00  0.00    -0.468 C  
BRANCH   4   5
HETATM    5  C   UNL     2     -10.997   9.020  71.548  1.00  0.00    -0.418 C  
BRANCH   5   6
HETATM    6  C   UNL     2      -9.625   8.936  70.867  1.00  0.00    -0.298 C  
BRANCH   6   7
HETATM    7  C   UNL     2      -9.727   8.420  69.432  1.00  0.00    -0.177 C  
BRANCH   7   8
HETATM    8  C   UNL     2      -8.725   9.081  68.488  1.00  0.00    -0.133 C  
BRANCH   8   9
HETATM    9  C   UNL     2      -7.431   9.481  69.212  1.00  0.00    -0.078 C  
BRANCH   9  10
HETATM   10  C   UNL     2      -6.996  10.937  69.001  1.00  0.00    -0.089 C  
BRANCH  10  11
HETATM   11  C   UNL     2      -8.156  11.853  68.602  1.00  0.00    -0.086 C  
BRANCH  11  12
HETATM   12  C   UNL     2      -7.935  12.573  67.266  1.00  0.00    -0.173 C  
BRANCH  12  13
HETATM   13  C   UNL     2      -8.526  13.985  67.218  1.00  0.00    -0.207 C  
BRANCH  13  14
HETATM   14  O   UNL     2      -9.467  14.052  66.160  1.00  0.00    -0.263 OA 
HETATM   15  S   UNL     2     -10.262  15.453  65.930  1.00  0.00    -0.373 S  
HETATM   16  O   UNL     2     -11.076  15.179  64.742  1.00  0.00    -0.395 OA 
HETATM   17  O   UNL     2      -9.206  16.430  65.695  1.00  0.00    -0.465 OA 
HETATM   18  O   UNL     2     -11.023  15.641  67.152  1.00  0.00    -0.319 OA 
ENDBRANCH  13  14
ENDBRANCH  12  13
ENDBRANCH  11  12
ENDBRANCH  10  11
ENDBRANCH   9  10
ENDBRANCH   8   9
ENDBRANCH   7   8
ENDBRANCH   6   7
ENDBRANCH   5   6
ENDBRANCH   4   5
ENDBRANCH   3   4
TORSDOF 11
ENDMDL
MODEL      265
REMARK 921   NORMALIZED FREE ENERGY PREDICTED BY IDOCK:   -3.03 KCAL/MOL
REMARK 922        TOTAL FREE ENERGY PREDICTED BY IDOCK:   -6.42 KCAL/MOL
REMARK 923 INTER-LIGAND FREE ENERGY PREDICTED BY IDOCK:   -5.02 KCAL/MOL
REMARK 924 INTRA-LIGAND FREE ENERGY PREDICTED BY IDOCK:   -1.40 KCAL/MOL
REMARK 927      BINDING AFFINITY PREDICTED BY RF-SCORE:    0.00 PKD
ROOT
HETATM    1 NA   UNL     1     -10.770  17.455  68.162  1.00  0.00    -0.286 Na 
HETATM    2  C   UNL     2     -12.024  12.957  63.254  1.00  0.00    -0.516 C  
HETATM    3  C   UNL     2     -11.433  13.567  64.516  1.00  0.00    -0.407 C  
ENDROOT
BRANCH   3   4
HETATM    4  C   UNL     2     -12.351  13.329  65.711  1.00  0.00    -0.505 C  
BRANCH   4   5
HETATM    5  C   UNL     2     -11.877  12.156  66.573  1.00  0.00    -0.322 C  
BRANCH   5   6
HETATM    6  C   UNL     2     -10.439  11.727  66.257  1.00  0.00    -0.281 C  
BRANCH   6   7
HETATM    7  C   UNL     2     -10.177  10.270  66.638  1.00  0.00    -0.294 C  
BRANCH   7   8
HETATM    8  C   UNL     2      -8.840  10.070  67.348  1.00  0.00    -0.132 C  
BRANCH   8   9
HETATM    9  C   UNL     2      -8.516  11.230  68.300  1.00  0.00    -0.152 C  
BRANCH   9  10
HETATM   10  C   UNL     2      -7.286  12.061  67.912  1.00  0.00    -0.102 C  
BRANCH  10  11
HETATM   11  C   UNL     2      -7.631  13.512  67.568  1.00  0.00    -0.176 C  
BRANCH  11  12
HETATM   12  C   UNL     2      -8.191  14.306  68.754  1.00  0.00    -0.102 C  
BRANCH  12  13
HETATM   13  C   UNL     2      -9.629  14.790  68.554  1.00  0.00    -0.218 C  
BRANCH  13  14
HETATM   14  O   UNL     2     -10.040  15.497  69.711  1.00  0.00    -0.270 OA 
HETATM   15  S   UNL     2     -11.587  15.345  70.192  1.00  0.00    -0.361 S  
HETATM   16  O   UNL     2     -11.629  16.140  71.424  1.00  0.00    -0.445 OA 
HETATM   17  O   UNL     2     -11.753  13.915  70.421  1.00  0.00    -0.275 OA 
HETATM   18  O   UNL     2     -12.362  15.894  69.094  1.00  0.00    -0.178 OA 
ENDBRANCH  13  14
ENDBRANCH  12  13
ENDBRANCH  11  12
ENDBRANCH  10  11
ENDBRANCH   9  10
ENDBRANCH   8   9
ENDBRANCH   7   8
ENDBRANCH   6   7
ENDBRANCH   5   6
ENDBRANCH   4   5
ENDBRANCH   3   4
TORSDOF 11
ENDMDL
MODEL      266
REMARK 921   NORMALIZED FREE ENERGY PREDICTED BY IDOCK:   -3.03 KCAL/MOL
REMARK 922        TOTAL FREE ENERGY PREDICTED BY IDOCK:   -6.42 KCAL/MOL
REMARK 923 INTER-LIGAND FREE ENERGY PREDICTED BY IDOCK:   -5.63 KCAL/MOL
REMARK 924 INTRA-LIGAND FREE ENERGY PREDICTED BY IDOCK:   -0.79 KCAL/MOL
REMARK 927      BINDING AFFINITY PREDICTED BY RF-SCORE:    0.00 PKD
ROOT
HETATM    1 NA   UNL     1     -12.194  14.306  62.639  1.00  0.00    -0.923 Na 
HETATM    2  C   UNL     2      -9.951  15.545  68.911  1.00  0.00    -0.218 C  
HETATM    3  C   UNL     2     -10.879  15.512  67.706  1.00  0.00    -0.309 C  
ENDROOT
BRANCH   3   4
HETATM    4  C   UNL     2     -11.660  14.201  67.663  1.00  0.00    -0.394 C  
BRANCH   4   5
HETATM    5  C   UNL     2     -12.135  13.771  69.053  1.00  0.00    -0.359 C  
BRANCH   5   6
HETATM    6  C   UNL     2     -11.875  12.286  69.339  1.00  0.00    -0.370 C  
BRANCH   6   7
HETATM    7  C   UNL     2     -12.325  11.885  70.743  1.00  0.00    -0.416 C  
BRANCH   7   8
HETATM    8  C   UNL     2     -13.075  10.555  70.772  1.00  0.00    -0.335 C  
BRANCH   8   9
HETATM    9  C   UNL     2     -12.336   9.498  71.607  1.00  0.00    -0.480 C  
BRANCH   9  10
HETATM   10  C   UNL     2     -11.087   8.907  70.941  1.00  0.00    -0.328 C  
BRANCH  10  11
HETATM   11  C   UNL     2      -9.918   8.737  71.916  1.00  0.00    -0.401 C  
BRANCH  11  12
HETATM   12  C   UNL     2      -8.543   8.829  71.244  1.00  0.00    -0.258 C  
BRANCH  12  13
HETATM   13  C   UNL     2      -8.527   9.691  69.978  1.00  0.00    -0.204 C  
BRANCH  13  14
HETATM   14  O   UNL     2      -8.205   8.870  68.869  1.00  0.00    -0.114 OA 
HETATM   15  S   UNL     2      -8.616   9.395  67.384  1.00  0.00    -0.125 S  
HETATM   16  O   UNL     2      -8.079   8.351  66.506  1.00  0.00    -0.098 OA 
HETATM   17  O   UNL     2      -7.928  10.673  67.251  1.00  0.00    -0.113 OA 
HETATM   18  O   UNL     2     -10.066   9.468  67.417  1.00  0.00    -0.181 OA 
ENDBRANCH  13  14
ENDBRANCH  12  13
ENDBRANCH  11  12
ENDBRANCH  10  11
ENDBRANCH   9  10
ENDBRANCH   8   9
ENDBRANCH   7   8
ENDBRANCH   6   7
ENDBRANCH   5   6
ENDBRANCH   4   5
ENDBRANCH   3   4
TORSDOF 11
ENDMDL
MODEL      267
REMARK 921   NORMALIZED FREE ENERGY PREDICTED BY IDOCK:   -3.03 KCAL/MOL
REMARK 922        TOTAL FREE ENERGY PREDICTED BY IDOCK:   -6.41 KCAL/MOL
REMARK 923 INTER-LIGAND FREE ENERGY PREDICTED BY IDOCK:   -5.28 KCAL/MOL
REMARK 924 INTRA-LIGAND FREE ENERGY PREDICTED BY IDOCK:   -1.13 KCAL/MOL
REMARK 927      BINDING AFFINITY PREDICTED BY RF-SCORE:    0.00 PKD
ROOT
HETATM    1 NA   UNL     1     -10.525  11.819  70.006  1.00  0.00    -0.431 Na 
HETATM    2  C   UNL     2     -11.814  12.596  63.401  1.00  0.00    -0.594 C  
HETATM    3  C   UNL     2     -12.043  12.309  64.877  1.00  0.00    -0.422 C  
ENDROOT
BRANCH   3   4
HETATM    4  C   UNL     2     -12.337  13.599  65.638  1.00  0.00    -0.518 C  
BRANCH   4   5
HETATM    5  C   UNL     2     -11.493  13.719  66.908  1.00  0.00    -0.368 C  
BRANCH   5   6
HETATM    6  C   UNL     2     -10.020  14.037  66.619  1.00  0.00    -0.280 C  
BRANCH   6   7
HETATM    7  C   UNL     2      -9.072  13.175  67.451  1.00  0.00    -0.208 C  
BRANCH   7   8
HETATM    8  C   UNL     2      -9.443  11.694  67.435  1.00  0.00    -0.171 C  
BRANCH   8   9
HETATM    9  C   UNL     2      -8.249  10.808  67.049  1.00  0.00    -0.126 C  
BRANCH   9  10
HETATM   10  C   UNL     2      -7.352  10.385  68.220  1.00  0.00    -0.088 C  
BRANCH  10  11
HETATM   11  C   UNL     2      -8.118  10.257  69.539  1.00  0.00    -0.170 C  
BRANCH  11  12
HETATM   12  C   UNL     2      -7.863   8.933  70.269  1.00  0.00    -0.104 C  
BRANCH  12  13
HETATM   13  C   UNL     2      -8.818   8.675  71.438  1.00  0.00    -0.215 C  
BRANCH  13  14
HETATM   14  O   UNL     2      -9.940   9.530  71.310  1.00  0.00    -0.255 OA 
HETATM   15  S   UNL     2     -11.422   8.880  71.487  1.00  0.00    -0.349 S  
HETATM   16  O   UNL     2     -12.308  10.041  71.361  1.00  0.00    -0.355 OA 
HETATM   17  O   UNL     2     -11.405   8.308  72.828  1.00  0.00    -0.381 OA 
HETATM   18  O   UNL     2     -11.526   7.921  70.402  1.00  0.00    -0.246 OA 
ENDBRANCH  13  14
ENDBRANCH  12  13
ENDBRANCH  11  12
ENDBRANCH  10  11
ENDBRANCH   9  10
ENDBRANCH   8   9
ENDBRANCH   7   8
ENDBRANCH   6   7
ENDBRANCH   5   6
ENDBRANCH   4   5
ENDBRANCH   3   4
TORSDOF 11
ENDMDL
MODEL      268
REMARK 921   NORMALIZED FREE ENERGY PREDICTED BY IDOCK:   -3.03 KCAL/MOL
REMARK 922        TOTAL FREE ENERGY PREDICTED BY IDOCK:   -6.41 KCAL/MOL
REMARK 923 INTER-LIGAND FREE ENERGY PREDICTED BY IDOCK:   -5.64 KCAL/MOL
REMARK 924 INTRA-LIGAND FREE ENERGY PREDICTED BY IDOCK:   -0.77 KCAL/MOL
REMARK 927      BINDING AFFINITY PREDICTED BY RF-SCORE:    0.00 PKD
ROOT
HETATM    1 NA   UNL     1     -13.301  11.511  72.854  1.00  0.00    -0.569 Na 
HETATM    2  C   UNL     2     -10.782   5.874  70.065  1.00  0.00    -0.396 C  
HETATM    3  C   UNL     2     -11.235   7.319  70.205  1.00  0.00    -0.264 C  
ENDROOT
BRANCH   3   4
HETATM    4  C   UNL     2     -10.115   8.182  70.778  1.00  0.00    -0.211 C  
BRANCH   4   5
HETATM    5  C   UNL     2     -10.469   9.671  70.754  1.00  0.00    -0.375 C  
BRANCH   5   6
HETATM    6  C   UNL     2     -11.123  10.107  69.436  1.00  0.00    -0.288 C  
BRANCH   6   7
HETATM    7  C   UNL     2     -12.294  11.061  69.664  1.00  0.00    -0.303 C  
BRANCH   7   8
HETATM    8  C   UNL     2     -11.859  12.422  70.202  1.00  0.00    -0.341 C  
BRANCH   8   9
HETATM    9  C   UNL     2     -11.874  13.503  69.111  1.00  0.00    -0.386 C  
BRANCH   9  10
HETATM   10  C   UNL     2     -10.517  13.769  68.446  1.00  0.00    -0.256 C  
BRANCH  10  11
HETATM   11  C   UNL     2     -10.429  13.203  67.026  1.00  0.00    -0.248 C  
BRANCH  11  12
HETATM   12  C   UNL     2      -9.846  14.191  66.008  1.00  0.00    -0.329 C  
BRANCH  12  13
HETATM   13  C   UNL     2      -9.378  15.512  66.625  1.00  0.00    -0.266 C  
BRANCH  13  14
HETATM   14  O   UNL     2      -7.962  15.522  66.666  1.00  0.00    -0.226 OA 
HETATM   15  S   UNL     2      -7.208  16.962  66.748  1.00  0.00    -0.268 S  
HETATM   16  O   UNL     2      -5.793  16.589  66.842  1.00  0.00    -0.279 OA 
HETATM   17  O   UNL     2      -7.728  17.571  67.966  1.00  0.00    -0.200 OA 
HETATM   18  O   UNL     2      -7.574  17.630  65.512  1.00  0.00    -0.440 OA 
ENDBRANCH  13  14
ENDBRANCH  12  13
ENDBRANCH  11  12
ENDBRANCH  10  11
ENDBRANCH   9  10
ENDBRANCH   8   9
ENDBRANCH   7   8
ENDBRANCH   6   7
ENDBRANCH   5   6
ENDBRANCH   4   5
ENDBRANCH   3   4
TORSDOF 11
ENDMDL
MODEL      269
REMARK 921   NORMALIZED FREE ENERGY PREDICTED BY IDOCK:   -3.02 KCAL/MOL
REMARK 922        TOTAL FREE ENERGY PREDICTED BY IDOCK:   -6.40 KCAL/MOL
REMARK 923 INTER-LIGAND FREE ENERGY PREDICTED BY IDOCK:   -5.60 KCAL/MOL
REMARK 924 INTRA-LIGAND FREE ENERGY PREDICTED BY IDOCK:   -0.80 KCAL/MOL
REMARK 927      BINDING AFFINITY PREDICTED BY RF-SCORE:    0.00 PKD
ROOT
HETATM    1 NA   UNL     1     -10.780  20.088  70.870  1.00  0.00    -0.852 Na 
HETATM    2  C   UNL     2      -6.733  15.876  67.438  1.00  0.00    -0.229 C  
HETATM    3  C   UNL     2      -7.687  16.386  68.507  1.00  0.00    -0.195 C  
ENDROOT
BRANCH   3   4
HETATM    4  C   UNL     2      -9.137  16.225  68.058  1.00  0.00    -0.188 C  
BRANCH   4   5
HETATM    5  C   UNL     2     -10.122  16.489  69.198  1.00  0.00    -0.287 C  
BRANCH   5   6
HETATM    6  C   UNL     2     -11.134  15.351  69.387  1.00  0.00    -0.283 C  
BRANCH   6   7
HETATM    7  C   UNL     2     -11.909  15.052  68.104  1.00  0.00    -0.286 C  
BRANCH   7   8
HETATM    8  C   UNL     2     -11.901  13.571  67.733  1.00  0.00    -0.398 C  
BRANCH   8   9
HETATM    9  C   UNL     2     -11.309  12.703  68.853  1.00  0.00    -0.345 C  
BRANCH   9  10
HETATM   10  C   UNL     2      -9.917  12.129  68.559  1.00  0.00    -0.180 C  
BRANCH  10  11
HETATM   11  C   UNL     2      -9.933  10.615  68.333  1.00  0.00    -0.176 C  
BRANCH  11  12
HETATM   12  C   UNL     2     -10.750  10.188  67.108  1.00  0.00    -0.286 C  
BRANCH  12  13
HETATM   13  C   UNL     2      -9.999  10.331  65.781  1.00  0.00    -0.271 C  
BRANCH  13  14
HETATM   14  O   UNL     2      -9.860  11.708  65.479  1.00  0.00    -0.223 OA 
HETATM   15  S   UNL     2     -10.526  12.262  64.102  1.00  0.00    -0.406 S  
HETATM   16  O   UNL     2     -10.249  13.700  64.156  1.00  0.00    -0.297 OA 
HETATM   17  O   UNL     2     -11.942  11.940  64.233  1.00  0.00    -0.323 OA 
HETATM   18  O   UNL     2      -9.821  11.551  63.050  1.00  0.00    -0.375 OA 
ENDBRANCH  13  14
ENDBRANCH  12  13
ENDBRANCH  11  12
ENDBRANCH  10  11
ENDBRANCH   9  10
ENDBRANCH   8   9
ENDBRANCH   7   8
ENDBRANCH   6   7
ENDBRANCH   5   6
ENDBRANCH   4   5
ENDBRANCH   3   4
TORSDOF 11
ENDMDL
MODEL      270
REMARK 921   NORMALIZED FREE ENERGY PREDICTED BY IDOCK:   -3.02 KCAL/MOL
REMARK 922        TOTAL FREE ENERGY PREDICTED BY IDOCK:   -6.40 KCAL/MOL
REMARK 923 INTER-LIGAND FREE ENERGY PREDICTED BY IDOCK:   -4.93 KCAL/MOL
REMARK 924 INTRA-LIGAND FREE ENERGY PREDICTED BY IDOCK:   -1.46 KCAL/MOL
REMARK 927      BINDING AFFINITY PREDICTED BY RF-SCORE:    0.00 PKD
ROOT
HETATM    1 NA   UNL     1     -11.754  11.074  64.509  1.00  0.00    -0.210 Na 
HETATM    2  C   UNL     2     -12.233  10.750  71.259  1.00  0.00    -0.426 C  
HETATM    3  C   UNL     2     -11.645  11.001  69.879  1.00  0.00    -0.416 C  
ENDROOT
BRANCH   3   4
HETATM    4  C   UNL     2     -12.017  12.394  69.379  1.00  0.00    -0.319 C  
BRANCH   4   5
HETATM    5  C   UNL     2     -12.164  13.395  70.528  1.00  0.00    -0.425 C  
BRANCH   5   6
HETATM    6  C   UNL     2     -12.128  14.854  70.056  1.00  0.00    -0.387 C  
BRANCH   6   7
HETATM    7  C   UNL     2     -11.693  14.975  68.596  1.00  0.00    -0.363 C  
BRANCH   7   8
HETATM    8  C   UNL     2     -11.050  16.322  68.275  1.00  0.00    -0.346 C  
BRANCH   8   9
HETATM    9  C   UNL     2      -9.650  16.160  67.665  1.00  0.00    -0.222 C  
BRANCH   9  10
HETATM   10  C   UNL     2      -8.793  15.056  68.300  1.00  0.00    -0.172 C  
BRANCH  10  11
HETATM   11  C   UNL     2      -8.334  14.003  67.288  1.00  0.00    -0.209 C  
BRANCH  11  12
HETATM   12  C   UNL     2      -8.755  12.575  67.655  1.00  0.00    -0.177 C  
BRANCH  12  13
HETATM   13  C   UNL     2      -9.407  11.805  66.504  1.00  0.00    -0.210 C  
BRANCH  13  14
HETATM   14  O   UNL     2      -8.575  10.713  66.155  1.00  0.00    -0.148 OA 
HETATM   15  S   UNL     2      -9.255   9.443  65.397  1.00  0.00    -0.238 S  
HETATM   16  O   UNL     2      -8.112   8.562  65.139  1.00  0.00    -0.125 OA 
HETATM   17  O   UNL     2      -9.831  10.014  64.186  1.00  0.00    -0.257 OA 
HETATM   18  O   UNL     2     -10.213   8.923  66.357  1.00  0.00    -0.283 OA 
ENDBRANCH  13  14
ENDBRANCH  12  13
ENDBRANCH  11  12
ENDBRANCH  10  11
ENDBRANCH   9  10
ENDBRANCH   8   9
ENDBRANCH   7   8
ENDBRANCH   6   7
ENDBRANCH   5   6
ENDBRANCH   4   5
ENDBRANCH   3   4
TORSDOF 11
ENDMDL
MODEL      271
REMARK 921   NORMALIZED FREE ENERGY PREDICTED BY IDOCK:   -3.02 KCAL/MOL
REMARK 922        TOTAL FREE ENERGY PREDICTED BY IDOCK:   -6.39 KCAL/MOL
REMARK 923 INTER-LIGAND FREE ENERGY PREDICTED BY IDOCK:   -5.57 KCAL/MOL
REMARK 924 INTRA-LIGAND FREE ENERGY PREDICTED BY IDOCK:   -0.81 KCAL/MOL
REMARK 927      BINDING AFFINITY PREDICTED BY RF-SCORE:    0.00 PKD
ROOT
HETATM    1 NA   UNL     1     -12.543   9.558  69.722  1.00  0.00    -0.468 Na 
HETATM    2  C   UNL     2     -12.493  14.320  64.904  1.00  0.00    -0.403 C  
HETATM    3  C   UNL     2     -12.024  13.460  66.067  1.00  0.00    -0.460 C  
ENDROOT
BRANCH   3   4
HETATM    4  C   UNL     2     -11.374  12.176  65.561  1.00  0.00    -0.393 C  
BRANCH   4   5
HETATM    5  C   UNL     2      -9.858  12.179  65.773  1.00  0.00    -0.264 C  
BRANCH   5   6
HETATM    6  C   UNL     2      -9.371  10.990  66.611  1.00  0.00    -0.196 C  
BRANCH   6   7
HETATM    7  C   UNL     2     -10.524  10.263  67.302  1.00  0.00    -0.307 C  
BRANCH   7   8
HETATM    8  C   UNL     2     -10.359   8.745  67.300  1.00  0.00    -0.360 C  
BRANCH   8   9
HETATM    9  C   UNL     2      -9.969   8.209  68.686  1.00  0.00    -0.201 C  
BRANCH   9  10
HETATM   10  C   UNL     2      -9.576   9.284  69.708  1.00  0.00    -0.203 C  
BRANCH  10  11
HETATM   11  C   UNL     2      -8.583   8.774  70.755  1.00  0.00    -0.218 C  
BRANCH  11  12
HETATM   12  C   UNL     2      -9.180   8.669  72.164  1.00  0.00    -0.326 C  
BRANCH  12  13
HETATM   13  C   UNL     2     -10.710   8.649  72.190  1.00  0.00    -0.347 C  
BRANCH  13  14
HETATM   14  O   UNL     2     -11.142   7.486  72.875  1.00  0.00    -0.337 OA 
HETATM   15  S   UNL     2     -11.896   6.327  72.016  1.00  0.00    -0.271 S  
HETATM   16  O   UNL     2     -12.129   5.277  73.012  1.00  0.00    -0.163 OA 
HETATM   17  O   UNL     2     -10.928   5.950  70.993  1.00  0.00    -0.277 OA 
HETATM   18  O   UNL     2     -13.102   6.970  71.526  1.00  0.00    -0.380 OA 
ENDBRANCH  13  14
ENDBRANCH  12  13
ENDBRANCH  11  12
ENDBRANCH  10  11
ENDBRANCH   9  10
ENDBRANCH   8   9
ENDBRANCH   7   8
ENDBRANCH   6   7
ENDBRANCH   5   6
ENDBRANCH   4   5
ENDBRANCH   3   4
TORSDOF 11
ENDMDL
MODEL      272
REMARK 921   NORMALIZED FREE ENERGY PREDICTED BY IDOCK:   -3.01 KCAL/MOL
REMARK 922        TOTAL FREE ENERGY PREDICTED BY IDOCK:   -6.38 KCAL/MOL
REMARK 923 INTER-LIGAND FREE ENERGY PREDICTED BY IDOCK:   -5.90 KCAL/MOL
REMARK 924 INTRA-LIGAND FREE ENERGY PREDICTED BY IDOCK:   -0.48 KCAL/MOL
REMARK 927      BINDING AFFINITY PREDICTED BY RF-SCORE:    0.00 PKD
ROOT
HETATM    1 NA   UNL     1      -9.206  12.731  63.456  1.00  0.00    -0.536 Na 
HETATM    2  C   UNL     2     -10.344  18.831  66.173  1.00  0.00    -0.494 C  
HETATM    3  C   UNL     2     -10.473  17.339  65.907  1.00  0.00    -0.267 C  
ENDROOT
BRANCH   3   4
HETATM    4  C   UNL     2      -9.473  16.553  66.750  1.00  0.00    -0.266 C  
BRANCH   4   5
HETATM    5  C   UNL     2     -10.169  15.675  67.793  1.00  0.00    -0.252 C  
BRANCH   5   6
HETATM    6  C   UNL     2     -11.480  15.064  67.280  1.00  0.00    -0.312 C  
BRANCH   6   7
HETATM    7  C   UNL     2     -12.151  14.180  68.330  1.00  0.00    -0.308 C  
BRANCH   7   8
HETATM    8  C   UNL     2     -11.808  12.701  68.173  1.00  0.00    -0.366 C  
BRANCH   8   9
HETATM    9  C   UNL     2     -11.711  11.987  69.529  1.00  0.00    -0.408 C  
BRANCH   9  10
HETATM   10  C   UNL     2     -12.135  10.512  69.514  1.00  0.00    -0.208 C  
BRANCH  10  11
HETATM   11  C   UNL     2     -13.115  10.163  70.638  1.00  0.00    -0.274 C  
BRANCH  11  12
HETATM   12  C   UNL     2     -12.426   9.717  71.934  1.00  0.00    -0.451 C  
BRANCH  12  13
HETATM   13  C   UNL     2     -12.503   8.210  72.190  1.00  0.00    -0.322 C  
BRANCH  13  14
HETATM   14  O   UNL     2     -12.411   7.529  70.950  1.00  0.00    -0.266 OA 
HETATM   15  S   UNL     2     -11.108   6.590  70.688  1.00  0.00    -0.333 S  
HETATM   16  O   UNL     2     -11.381   6.009  69.369  1.00  0.00    -0.398 OA 
HETATM   17  O   UNL     2     -11.146   5.613  71.769  1.00  0.00    -0.256 OA 
HETATM   18  O   UNL     2      -9.987   7.512  70.720  1.00  0.00    -0.183 OA 
ENDBRANCH  13  14
ENDBRANCH  12  13
ENDBRANCH  11  12
ENDBRANCH  10  11
ENDBRANCH   9  10
ENDBRANCH   8   9
ENDBRANCH   7   8
ENDBRANCH   6   7
ENDBRANCH   5   6
ENDBRANCH   4   5
ENDBRANCH   3   4
TORSDOF 11
ENDMDL
MODEL      273
REMARK 921   NORMALIZED FREE ENERGY PREDICTED BY IDOCK:   -3.00 KCAL/MOL
REMARK 922        TOTAL FREE ENERGY PREDICTED BY IDOCK:   -6.37 KCAL/MOL
REMARK 923 INTER-LIGAND FREE ENERGY PREDICTED BY IDOCK:   -5.66 KCAL/MOL
REMARK 924 INTRA-LIGAND FREE ENERGY PREDICTED BY IDOCK:   -0.71 KCAL/MOL
REMARK 927      BINDING AFFINITY PREDICTED BY RF-SCORE:    0.00 PKD
ROOT
HETATM    1 NA   UNL     1      -9.923   3.822  68.661  1.00  0.00    -0.164 Na 
HETATM    2  C   UNL     2     -14.408   8.126  71.355  1.00  0.00    -0.472 C  
HETATM    3  C   UNL     2     -13.312   7.075  71.266  1.00  0.00    -0.282 C  
ENDROOT
BRANCH   3   4
HETATM    4  C   UNL     2     -11.941   7.734  71.143  1.00  0.00    -0.312 C  
BRANCH   4   5
HETATM    5  C   UNL     2     -10.923   6.814  70.463  1.00  0.00    -0.327 C  
BRANCH   5   6
HETATM    6  C   UNL     2      -9.890   7.582  69.628  1.00  0.00    -0.180 C  
BRANCH   6   7
HETATM    7  C   UNL     2     -10.486   8.837  68.990  1.00  0.00    -0.220 C  
BRANCH   7   8
HETATM    8  C   UNL     2     -10.419   8.819  67.464  1.00  0.00    -0.340 C  
BRANCH   8   9
HETATM    9  C   UNL     2     -10.580  10.224  66.867  1.00  0.00    -0.282 C  
BRANCH   9  10
HETATM   10  C   UNL     2     -10.344  11.377  67.852  1.00  0.00    -0.204 C  
BRANCH  10  11
HETATM   11  C   UNL     2     -11.428  12.455  67.778  1.00  0.00    -0.383 C  
BRANCH  11  12
HETATM   12  C   UNL     2     -11.905  12.746  66.350  1.00  0.00    -0.472 C  
BRANCH  12  13
HETATM   13  C   UNL     2     -11.393  14.073  65.784  1.00  0.00    -0.312 C  
BRANCH  13  14
HETATM   14  O   UNL     2     -11.288  15.012  66.840  1.00  0.00    -0.341 OA 
HETATM   15  S   UNL     2     -10.140  16.160  66.733  1.00  0.00    -0.280 S  
HETATM   16  O   UNL     2     -10.368  16.967  67.935  1.00  0.00    -0.308 OA 
HETATM   17  O   UNL     2     -10.450  16.864  65.495  1.00  0.00    -0.560 OA 
HETATM   18  O   UNL     2      -8.890  15.420  66.732  1.00  0.00    -0.227 OA 
ENDBRANCH  13  14
ENDBRANCH  12  13
ENDBRANCH  11  12
ENDBRANCH  10  11
ENDBRANCH   9  10
ENDBRANCH   8   9
ENDBRANCH   7   8
ENDBRANCH   6   7
ENDBRANCH   5   6
ENDBRANCH   4   5
ENDBRANCH   3   4
TORSDOF 11
ENDMDL
MODEL      274
REMARK 921   NORMALIZED FREE ENERGY PREDICTED BY IDOCK:   -3.00 KCAL/MOL
REMARK 922        TOTAL FREE ENERGY PREDICTED BY IDOCK:   -6.36 KCAL/MOL
REMARK 923 INTER-LIGAND FREE ENERGY PREDICTED BY IDOCK:   -5.27 KCAL/MOL
REMARK 924 INTRA-LIGAND FREE ENERGY PREDICTED BY IDOCK:   -1.09 KCAL/MOL
REMARK 927      BINDING AFFINITY PREDICTED BY RF-SCORE:    0.00 PKD
ROOT
HETATM    1 NA   UNL     1      -9.841   8.696  62.382  1.00  0.00    -0.534 Na 
HETATM    2  C   UNL     2     -12.860  14.021  65.286  1.00  0.00    -0.418 C  
HETATM    3  C   UNL     2     -12.146  12.686  65.144  1.00  0.00    -0.508 C  
ENDROOT
BRANCH   3   4
HETATM    4  C   UNL     2     -10.634  12.885  65.094  1.00  0.00    -0.321 C  
BRANCH   4   5
HETATM    5  C   UNL     2     -10.234  14.322  65.437  1.00  0.00    -0.395 C  
BRANCH   5   6
HETATM    6  C   UNL     2      -9.533  14.438  66.797  1.00  0.00    -0.280 C  
BRANCH   6   7
HETATM    7  C   UNL     2      -9.109  13.076  67.342  1.00  0.00    -0.201 C  
BRANCH   7   8
HETATM    8  C   UNL     2      -7.596  12.866  67.313  1.00  0.00    -0.104 C  
BRANCH   8   9
HETATM    9  C   UNL     2      -6.940  13.236  68.651  1.00  0.00    -0.101 C  
BRANCH   9  10
HETATM   10  C   UNL     2      -6.012  14.457  68.599  1.00  0.00    -0.085 C  
BRANCH  10  11
HETATM   11  C   UNL     2      -6.759  15.781  68.780  1.00  0.00    -0.119 C  
BRANCH  11  12
HETATM   12  C   UNL     2      -6.611  16.736  67.589  1.00  0.00    -0.165 C  
BRANCH  12  13
HETATM   13  C   UNL     2      -7.116  18.154  67.865  1.00  0.00    -0.218 C  
BRANCH  13  14
HETATM   14  O   UNL     2      -8.512  18.105  68.104  1.00  0.00    -0.259 OA 
HETATM   15  S   UNL     2      -9.505  18.715  66.968  1.00  0.00    -0.309 S  
HETATM   16  O   UNL     2     -10.838  18.436  67.511  1.00  0.00    -0.408 OA 
HETATM   17  O   UNL     2      -9.196  17.944  65.769  1.00  0.00    -0.498 OA 
HETATM   18  O   UNL     2      -9.161  20.124  66.908  1.00  0.00    -0.351 OA 
ENDBRANCH  13  14
ENDBRANCH  12  13
ENDBRANCH  11  12
ENDBRANCH  10  11
ENDBRANCH   9  10
ENDBRANCH   8   9
ENDBRANCH   7   8
ENDBRANCH   6   7
ENDBRANCH   5   6
ENDBRANCH   4   5
ENDBRANCH   3   4
TORSDOF 11
ENDMDL
MODEL      275
REMARK 921   NORMALIZED FREE ENERGY PREDICTED BY IDOCK:   -3.00 KCAL/MOL
REMARK 922        TOTAL FREE ENERGY PREDICTED BY IDOCK:   -6.36 KCAL/MOL
REMARK 923 INTER-LIGAND FREE ENERGY PREDICTED BY IDOCK:   -5.69 KCAL/MOL
REMARK 924 INTRA-LIGAND FREE ENERGY PREDICTED BY IDOCK:   -0.67 KCAL/MOL
REMARK 927      BINDING AFFINITY PREDICTED BY RF-SCORE:    0.00 PKD
ROOT
HETATM    1 NA   UNL     1      -5.973   9.247  69.621  1.00  0.00    -0.034 Na 
HETATM    2  C   UNL     2     -10.525   5.353  66.458  1.00  0.00    -0.352 C  
HETATM    3  C   UNL     2      -9.634   5.899  67.563  1.00  0.00    -0.114 C  
ENDROOT
BRANCH   3   4
HETATM    4  C   UNL     2     -10.324   7.047  68.294  1.00  0.00    -0.223 C  
BRANCH   4   5
HETATM    5  C   UNL     2     -10.543   8.257  67.382  1.00  0.00    -0.324 C  
BRANCH   5   6
HETATM    6  C   UNL     2      -9.313   9.170  67.297  1.00  0.00    -0.166 C  
BRANCH   6   7
HETATM    7  C   UNL     2      -9.677  10.643  67.484  1.00  0.00    -0.189 C  
BRANCH   7   8
HETATM    8  C   UNL     2     -11.182  10.877  67.586  1.00  0.00    -0.379 C  
BRANCH   8   9
HETATM    9  C   UNL     2     -11.544  11.770  68.782  1.00  0.00    -0.367 C  
BRANCH   9  10
HETATM   10  C   UNL     2     -10.926  13.174  68.750  1.00  0.00    -0.298 C  
BRANCH  10  11
HETATM   11  C   UNL     2     -11.821  14.203  68.053  1.00  0.00    -0.400 C  
BRANCH  11  12
HETATM   12  C   UNL     2     -11.594  14.286  66.539  1.00  0.00    -0.390 C  
BRANCH  12  13
HETATM   13  C   UNL     2     -10.563  15.340  66.124  1.00  0.00    -0.313 C  
BRANCH  13  14
HETATM   14  O   UNL     2     -10.775  16.514  66.888  1.00  0.00    -0.279 OA 
HETATM   15  S   UNL     2     -10.184  17.917  66.315  1.00  0.00    -0.327 S  
HETATM   16  O   UNL     2     -10.640  18.896  67.307  1.00  0.00    -0.417 OA 
HETATM   17  O   UNL     2     -10.823  18.071  65.014  1.00  0.00    -0.738 OA 
HETATM   18  O   UNL     2      -8.746  17.717  66.283  1.00  0.00    -0.387 OA 
ENDBRANCH  13  14
ENDBRANCH  12  13
ENDBRANCH  11  12
ENDBRANCH  10  11
ENDBRANCH   9  10
ENDBRANCH   8   9
ENDBRANCH   7   8
ENDBRANCH   6   7
ENDBRANCH   5   6
ENDBRANCH   4   5
ENDBRANCH   3   4
TORSDOF 11
ENDMDL
MODEL      276
REMARK 921   NORMALIZED FREE ENERGY PREDICTED BY IDOCK:   -2.99 KCAL/MOL
REMARK 922        TOTAL FREE ENERGY PREDICTED BY IDOCK:   -6.35 KCAL/MOL
REMARK 923 INTER-LIGAND FREE ENERGY PREDICTED BY IDOCK:   -5.49 KCAL/MOL
REMARK 924 INTRA-LIGAND FREE ENERGY PREDICTED BY IDOCK:   -0.87 KCAL/MOL
REMARK 927      BINDING AFFINITY PREDICTED BY RF-SCORE:    0.00 PKD
ROOT
HETATM    1 NA   UNL     1      -8.885  12.764  63.150  1.00  0.00    -0.264 Na 
HETATM    2  C   UNL     2     -11.917  13.251  69.189  1.00  0.00    -0.343 C  
HETATM    3  C   UNL     2     -10.879  13.436  68.093  1.00  0.00    -0.273 C  
ENDROOT
BRANCH   3   4
HETATM    4  C   UNL     2     -11.225  14.637  67.218  1.00  0.00    -0.344 C  
BRANCH   4   5
HETATM    5  C   UNL     2     -11.243  14.277  65.731  1.00  0.00    -0.317 C  
BRANCH   5   6
HETATM    6  C   UNL     2     -12.283  13.201  65.390  1.00  0.00    -0.510 C  
BRANCH   6   7
HETATM    7  C   UNL     2     -12.302  12.872  63.898  1.00  0.00    -0.476 C  
BRANCH   7   8
HETATM    8  C   UNL     2     -11.315  11.771  63.517  1.00  0.00    -0.496 C  
BRANCH   8   9
HETATM    9  C   UNL     2     -10.836  10.981  64.744  1.00  0.00    -0.234 C  
BRANCH   9  10
HETATM   10  C   UNL     2      -9.678  10.011  64.477  1.00  0.00    -0.310 C  
BRANCH  10  11
HETATM   11  C   UNL     2      -9.278   9.205  65.716  1.00  0.00    -0.294 C  
BRANCH  11  12
HETATM   12  C   UNL     2      -9.685   9.871  67.036  1.00  0.00    -0.230 C  
BRANCH  12  13
HETATM   13  C   UNL     2     -10.534   8.978  67.945  1.00  0.00    -0.234 C  
BRANCH  13  14
HETATM   14  O   UNL     2      -9.826   7.776  68.197  1.00  0.00    -0.157 OA 
HETATM   15  S   UNL     2     -10.646   6.373  68.114  1.00  0.00    -0.285 S  
HETATM   16  O   UNL     2      -9.606   5.369  68.357  1.00  0.00    -0.118 OA 
HETATM   17  O   UNL     2     -11.171   6.344  66.754  1.00  0.00    -0.327 OA 
HETATM   18  O   UNL     2     -11.643   6.475  69.164  1.00  0.00    -0.276 OA 
ENDBRANCH  13  14
ENDBRANCH  12  13
ENDBRANCH  11  12
ENDBRANCH  10  11
ENDBRANCH   9  10
ENDBRANCH   8   9
ENDBRANCH   7   8
ENDBRANCH   6   7
ENDBRANCH   5   6
ENDBRANCH   4   5
ENDBRANCH   3   4
TORSDOF 11
ENDMDL
MODEL      277
REMARK 921   NORMALIZED FREE ENERGY PREDICTED BY IDOCK:   -2.99 KCAL/MOL
REMARK 922        TOTAL FREE ENERGY PREDICTED BY IDOCK:   -6.34 KCAL/MOL
REMARK 923 INTER-LIGAND FREE ENERGY PREDICTED BY IDOCK:   -5.28 KCAL/MOL
REMARK 924 INTRA-LIGAND FREE ENERGY PREDICTED BY IDOCK:   -1.07 KCAL/MOL
REMARK 927      BINDING AFFINITY PREDICTED BY RF-SCORE:    0.00 PKD
ROOT
HETATM    1 NA   UNL     1     -10.707  20.097  70.739  1.00  0.00    -0.855 Na 
HETATM    2  C   UNL     2      -8.716  15.293  66.397  1.00  0.00    -0.265 C  
HETATM    3  C   UNL     2      -9.298  15.938  67.646  1.00  0.00    -0.217 C  
ENDROOT
BRANCH   3   4
HETATM    4  C   UNL     2     -10.775  16.267  67.444  1.00  0.00    -0.287 C  
BRANCH   4   5
HETATM    5  C   UNL     2     -11.684  15.353  68.269  1.00  0.00    -0.313 C  
BRANCH   5   6
HETATM    6  C   UNL     2     -12.077  14.072  67.522  1.00  0.00    -0.361 C  
BRANCH   6   7
HETATM    7  C   UNL     2     -12.405  14.340  66.054  1.00  0.00    -0.416 C  
BRANCH   7   8
HETATM    8  C   UNL     2     -12.155  13.131  65.156  1.00  0.00    -0.463 C  
BRANCH   8   9
HETATM    9  C   UNL     2     -11.425  12.004  65.902  1.00  0.00    -0.392 C  
BRANCH   9  10
HETATM   10  C   UNL     2     -10.055  11.628  65.322  1.00  0.00    -0.305 C  
BRANCH  10  11
HETATM   11  C   UNL     2      -9.844  10.114  65.228  1.00  0.00    -0.388 C  
BRANCH  11  12
HETATM   12  C   UNL     2      -9.835   9.412  66.592  1.00  0.00    -0.309 C  
BRANCH  12  13
HETATM   13  C   UNL     2      -8.445   9.301  67.223  1.00  0.00    -0.125 C  
BRANCH  13  14
HETATM   14  O   UNL     2      -7.555  10.153  66.524  1.00  0.00    -0.103 OA 
HETATM   15  S   UNL     2      -6.761  11.294  67.371  1.00  0.00    -0.094 S  
HETATM   16  O   UNL     2      -5.905  11.919  66.359  1.00  0.00    -0.214 OA 
HETATM   17  O   UNL     2      -6.017  10.543  68.375  1.00  0.00    -0.044 OA 
HETATM   18  O   UNL     2      -7.811  12.154  67.887  1.00  0.00    -0.126 OA 
ENDBRANCH  13  14
ENDBRANCH  12  13
ENDBRANCH  11  12
ENDBRANCH  10  11
ENDBRANCH   9  10
ENDBRANCH   8   9
ENDBRANCH   7   8
ENDBRANCH   6   7
ENDBRANCH   5   6
ENDBRANCH   4   5
ENDBRANCH   3   4
TORSDOF 11
ENDMDL
MODEL      278
REMARK 921   NORMALIZED FREE ENERGY PREDICTED BY IDOCK:   -2.99 KCAL/MOL
REMARK 922        TOTAL FREE ENERGY PREDICTED BY IDOCK:   -6.34 KCAL/MOL
REMARK 923 INTER-LIGAND FREE ENERGY PREDICTED BY IDOCK:   -5.59 KCAL/MOL
REMARK 924 INTRA-LIGAND FREE ENERGY PREDICTED BY IDOCK:   -0.75 KCAL/MOL
REMARK 927      BINDING AFFINITY PREDICTED BY RF-SCORE:    0.00 PKD
ROOT
HETATM    1 NA   UNL     1     -12.621  11.013  62.340  1.00  0.00    -0.915 Na 
HETATM    2  C   UNL     2     -11.786  14.825  67.878  1.00  0.00    -0.367 C  
HETATM    3  C   UNL     2     -12.350  13.764  66.946  1.00  0.00    -0.328 C  
ENDROOT
BRANCH   3   4
HETATM    4  C   UNL     2     -11.553  12.467  67.060  1.00  0.00    -0.437 C  
BRANCH   4   5
HETATM    5  C   UNL     2     -10.801  12.372  68.390  1.00  0.00    -0.263 C  
BRANCH   5   6
HETATM    6  C   UNL     2     -11.039  11.042  69.116  1.00  0.00    -0.301 C  
BRANCH   6   7
HETATM    7  C   UNL     2     -11.997  11.196  70.297  1.00  0.00    -0.460 C  
BRANCH   7   8
HETATM    8  C   UNL     2     -12.267   9.879  71.022  1.00  0.00    -0.446 C  
BRANCH   8   9
HETATM    9  C   UNL     2     -11.015   9.352  71.738  1.00  0.00    -0.288 C  
BRANCH   9  10
HETATM   10  C   UNL     2     -10.715   7.865  71.506  1.00  0.00    -0.267 C  
BRANCH  10  11
HETATM   11  C   UNL     2     -11.773   7.173  70.643  1.00  0.00    -0.348 C  
BRANCH  11  12
HETATM   12  C   UNL     2     -11.190   6.141  69.670  1.00  0.00    -0.488 C  
BRANCH  12  13
HETATM   13  C   UNL     2     -10.230   6.737  68.637  1.00  0.00    -0.175 C  
BRANCH  13  14
HETATM   14  O   UNL     2      -8.910   6.675  69.148  1.00  0.00    -0.129 OA 
HETATM   15  S   UNL     2      -7.761   7.560  68.411  1.00  0.00    -0.122 S  
HETATM   16  O   UNL     2      -6.573   7.308  69.232  1.00  0.00    -0.039 OA 
HETATM   17  O   UNL     2      -8.248   8.931  68.504  1.00  0.00    -0.114 OA 
HETATM   18  O   UNL     2      -7.692   7.013  67.068  1.00  0.00    -0.103 OA 
ENDBRANCH  13  14
ENDBRANCH  12  13
ENDBRANCH  11  12
ENDBRANCH  10  11
ENDBRANCH   9  10
ENDBRANCH   8   9
ENDBRANCH   7   8
ENDBRANCH   6   7
ENDBRANCH   5   6
ENDBRANCH   4   5
ENDBRANCH   3   4
TORSDOF 11
ENDMDL
MODEL      279
REMARK 921   NORMALIZED FREE ENERGY PREDICTED BY IDOCK:   -2.96 KCAL/MOL
REMARK 922        TOTAL FREE ENERGY PREDICTED BY IDOCK:   -6.31 KCAL/MOL
REMARK 923 INTER-LIGAND FREE ENERGY PREDICTED BY IDOCK:   -5.31 KCAL/MOL
REMARK 924 INTRA-LIGAND FREE ENERGY PREDICTED BY IDOCK:   -0.99 KCAL/MOL
REMARK 927      BINDING AFFINITY PREDICTED BY RF-SCORE:    0.00 PKD
ROOT
HETATM    1 NA   UNL     1     -12.230   6.814  68.659  1.00  0.00    -0.541 Na 
HETATM    2  C   UNL     2      -5.920   8.410  70.539  1.00  0.00    -0.031 C  
HETATM    3  C   UNL     2      -7.410   8.121  70.637  1.00  0.00    -0.053 C  
ENDROOT
BRANCH   3   4
HETATM    4  C   UNL     2      -7.660   6.625  70.805  1.00  0.00    -0.092 C  
BRANCH   4   5
HETATM    5  C   UNL     2      -8.773   6.340  71.817  1.00  0.00    -0.133 C  
BRANCH   5   6
HETATM    6  C   UNL     2      -9.021   7.511  72.776  1.00  0.00    -0.195 C  
BRANCH   6   7
HETATM    7  C   UNL     2     -10.507   7.851  72.894  1.00  0.00    -0.422 C  
BRANCH   7   8
HETATM    8  C   UNL     2     -11.374   7.091  71.893  1.00  0.00    -0.291 C  
BRANCH   8   9
HETATM    9  C   UNL     2     -12.502   7.967  71.330  1.00  0.00    -0.320 C  
BRANCH   9  10
HETATM   10  C   UNL     2     -12.889   9.166  72.207  1.00  0.00    -0.472 C  
BRANCH  10  11
HETATM   11  C   UNL     2     -12.550  10.511  71.559  1.00  0.00    -0.529 C  
BRANCH  11  12
HETATM   12  C   UNL     2     -12.351  10.426  70.040  1.00  0.00    -0.229 C  
BRANCH  12  13
HETATM   13  C   UNL     2     -11.606  11.623  69.445  1.00  0.00    -0.327 C  
BRANCH  13  14
HETATM   14  O   UNL     2     -12.289  12.055  68.281  1.00  0.00    -0.288 OA 
HETATM   15  S   UNL     2     -11.460  12.110  66.882  1.00  0.00    -0.338 S  
HETATM   16  O   UNL     2     -12.477  12.524  65.911  1.00  0.00    -0.596 OA 
HETATM   17  O   UNL     2     -10.995  10.742  66.685  1.00  0.00    -0.209 OA 
HETATM   18  O   UNL     2     -10.418  13.093  67.119  1.00  0.00    -0.245 OA 
ENDBRANCH  13  14
ENDBRANCH  12  13
ENDBRANCH  11  12
ENDBRANCH  10  11
ENDBRANCH   9  10
ENDBRANCH   8   9
ENDBRANCH   7   8
ENDBRANCH   6   7
ENDBRANCH   5   6
ENDBRANCH   4   5
ENDBRANCH   3   4
TORSDOF 11
ENDMDL
MODEL      280
REMARK 921   NORMALIZED FREE ENERGY PREDICTED BY IDOCK:   -2.96 KCAL/MOL
REMARK 922        TOTAL FREE ENERGY PREDICTED BY IDOCK:   -6.29 KCAL/MOL
REMARK 923 INTER-LIGAND FREE ENERGY PREDICTED BY IDOCK:   -5.62 KCAL/MOL
REMARK 924 INTRA-LIGAND FREE ENERGY PREDICTED BY IDOCK:   -0.67 KCAL/MOL
REMARK 927      BINDING AFFINITY PREDICTED BY RF-SCORE:    0.00 PKD
ROOT
HETATM    1 NA   UNL     1     -11.385   8.416  67.789  1.00  0.00    -0.457 Na 
HETATM    2  C   UNL     2     -10.464   5.848  73.990  1.00  0.00    -0.276 C  
HETATM    3  C   UNL     2     -10.170   6.575  72.686  1.00  0.00    -0.205 C  
ENDROOT
BRANCH   3   4
HETATM    4  C   UNL     2     -10.616   8.031  72.768  1.00  0.00    -0.420 C  
BRANCH   4   5
HETATM    5  C   UNL     2     -11.600   8.392  71.652  1.00  0.00    -0.348 C  
BRANCH   5   6
HETATM    6  C   UNL     2     -12.764   9.263  72.142  1.00  0.00    -0.465 C  
BRANCH   6   7
HETATM    7  C   UNL     2     -12.930  10.527  71.300  1.00  0.00    -0.532 C  
BRANCH   7   8
HETATM    8  C   UNL     2     -11.793  10.732  70.301  1.00  0.00    -0.438 C  
BRANCH   8   9
HETATM    9  C   UNL     2     -11.959  12.034  69.503  1.00  0.00    -0.346 C  
BRANCH   9  10
HETATM   10  C   UNL     2     -12.131  13.298  70.356  1.00  0.00    -0.401 C  
BRANCH  10  11
HETATM   11  C   UNL     2     -12.061  14.586  69.531  1.00  0.00    -0.348 C  
BRANCH  11  12
HETATM   12  C   UNL     2     -11.329  14.417  68.194  1.00  0.00    -0.317 C  
BRANCH  12  13
HETATM   13  C   UNL     2      -9.991  15.159  68.122  1.00  0.00    -0.221 C  
BRANCH  13  14
HETATM   14  O   UNL     2      -8.965  14.300  68.587  1.00  0.00    -0.189 OA 
HETATM   15  S   UNL     2      -7.435  14.854  68.569  1.00  0.00    -0.126 S  
HETATM   16  O   UNL     2      -6.678  13.751  69.167  1.00  0.00    -0.107 OA 
HETATM   17  O   UNL     2      -7.476  16.049  69.404  1.00  0.00    -0.226 OA 
HETATM   18  O   UNL     2      -7.153  15.086  67.163  1.00  0.00    -0.198 OA 
ENDBRANCH  13  14
ENDBRANCH  12  13
ENDBRANCH  11  12
ENDBRANCH  10  11
ENDBRANCH   9  10
ENDBRANCH   8   9
ENDBRANCH   7   8
ENDBRANCH   6   7
ENDBRANCH   5   6
ENDBRANCH   4   5
ENDBRANCH   3   4
TORSDOF 11
ENDMDL
MODEL      281
REMARK 921   NORMALIZED FREE ENERGY PREDICTED BY IDOCK:   -2.95 KCAL/MOL
REMARK 922        TOTAL FREE ENERGY PREDICTED BY IDOCK:   -6.29 KCAL/MOL
REMARK 923 INTER-LIGAND FREE ENERGY PREDICTED BY IDOCK:   -5.63 KCAL/MOL
REMARK 924 INTRA-LIGAND FREE ENERGY PREDICTED BY IDOCK:   -0.66 KCAL/MOL
REMARK 927      BINDING AFFINITY PREDICTED BY RF-SCORE:    0.00 PKD
ROOT
HETATM    1 NA   UNL     1     -10.961   5.427  64.907  1.00  0.00    -0.382 Na 
HETATM    2  C   UNL     2     -10.366  12.116  64.013  1.00  0.00    -0.412 C  
HETATM    3  C   UNL     2     -10.517  10.777  64.718  1.00  0.00    -0.335 C  
ENDROOT
BRANCH   3   4
HETATM    4  C   UNL     2      -9.152  10.145  64.972  1.00  0.00    -0.245 C  
BRANCH   4   5
HETATM    5  C   UNL     2      -8.413  10.822  66.129  1.00  0.00    -0.167 C  
BRANCH   5   6
HETATM    6  C   UNL     2      -8.553  10.061  67.454  1.00  0.00    -0.125 C  
BRANCH   6   7
HETATM    7  C   UNL     2      -9.955  10.193  68.047  1.00  0.00    -0.173 C  
BRANCH   7   8
HETATM    8  C   UNL     2      -9.959  10.199  69.574  1.00  0.00    -0.257 C  
BRANCH   8   9
HETATM    9  C   UNL     2     -11.318  10.634  70.142  1.00  0.00    -0.402 C  
BRANCH   9  10
HETATM   10  C   UNL     2     -12.125  11.575  69.238  1.00  0.00    -0.344 C  
BRANCH  10  11
HETATM   11  C   UNL     2     -11.626  13.022  69.289  1.00  0.00    -0.367 C  
BRANCH  11  12
HETATM   12  C   UNL     2     -12.033  13.853  68.066  1.00  0.00    -0.390 C  
BRANCH  12  13
HETATM   13  C   UNL     2     -10.861  14.559  67.379  1.00  0.00    -0.291 C  
BRANCH  13  14
HETATM   14  O   UNL     2     -10.915  15.942  67.687  1.00  0.00    -0.322 OA 
HETATM   15  S   UNL     2      -9.972  16.954  66.831  1.00  0.00    -0.289 S  
HETATM   16  O   UNL     2     -10.334  18.271  67.364  1.00  0.00    -0.356 OA 
HETATM   17  O   UNL     2     -10.391  16.754  65.449  1.00  0.00    -0.597 OA 
HETATM   18  O   UNL     2      -8.617  16.531  67.138  1.00  0.00    -0.175 OA 
ENDBRANCH  13  14
ENDBRANCH  12  13
ENDBRANCH  11  12
ENDBRANCH  10  11
ENDBRANCH   9  10
ENDBRANCH   8   9
ENDBRANCH   7   8
ENDBRANCH   6   7
ENDBRANCH   5   6
ENDBRANCH   4   5
ENDBRANCH   3   4
TORSDOF 11
ENDMDL
MODEL      282
REMARK 921   NORMALIZED FREE ENERGY PREDICTED BY IDOCK:   -2.95 KCAL/MOL
REMARK 922        TOTAL FREE ENERGY PREDICTED BY IDOCK:   -6.28 KCAL/MOL
REMARK 923 INTER-LIGAND FREE ENERGY PREDICTED BY IDOCK:   -5.41 KCAL/MOL
REMARK 924 INTRA-LIGAND FREE ENERGY PREDICTED BY IDOCK:   -0.87 KCAL/MOL
REMARK 927      BINDING AFFINITY PREDICTED BY RF-SCORE:    0.00 PKD
ROOT
HETATM    1 NA   UNL     1     -13.292   6.950  72.763  1.00  0.00    -0.473 Na 
HETATM    2  C   UNL     2      -8.538  10.298  69.285  1.00  0.00    -0.175 C  
HETATM    3  C   UNL     2      -9.825   9.543  69.583  1.00  0.00    -0.220 C  
ENDROOT
BRANCH   3   4
HETATM    4  C   UNL     2     -10.912  10.498  70.064  1.00  0.00    -0.351 C  
BRANCH   4   5
HETATM    5  C   UNL     2     -11.755  11.038  68.906  1.00  0.00    -0.400 C  
BRANCH   5   6
HETATM    6  C   UNL     2     -11.642  12.560  68.745  1.00  0.00    -0.366 C  
BRANCH   6   7
HETATM    7  C   UNL     2     -11.838  12.999  67.295  1.00  0.00    -0.419 C  
BRANCH   7   8
HETATM    8  C   UNL     2     -10.642  12.668  66.404  1.00  0.00    -0.272 C  
BRANCH   8   9
HETATM    9  C   UNL     2      -9.320  13.156  67.014  1.00  0.00    -0.238 C  
BRANCH   9  10
HETATM   10  C   UNL     2      -8.985  14.628  66.737  1.00  0.00    -0.283 C  
BRANCH  10  11
HETATM   11  C   UNL     2      -7.547  14.992  67.117  1.00  0.00    -0.174 C  
BRANCH  11  12
HETATM   12  C   UNL     2      -7.367  16.469  67.488  1.00  0.00    -0.167 C  
BRANCH  12  13
HETATM   13  C   UNL     2      -8.438  17.391  66.900  1.00  0.00    -0.241 C  
BRANCH  13  14
HETATM   14  O   UNL     2      -9.286  17.834  67.945  1.00  0.00    -0.256 OA 
HETATM   15  S   UNL     2      -9.252  19.411  68.343  1.00  0.00    -0.368 S  
HETATM   16  O   UNL     2     -10.279  19.510  69.385  1.00  0.00    -0.291 OA 
HETATM   17  O   UNL     2      -9.611  20.100  67.109  1.00  0.00    -0.367 OA 
HETATM   18  O   UNL     2      -7.896  19.636  68.809  1.00  0.00    -0.349 OA 
ENDBRANCH  13  14
ENDBRANCH  12  13
ENDBRANCH  11  12
ENDBRANCH  10  11
ENDBRANCH   9  10
ENDBRANCH   8   9
ENDBRANCH   7   8
ENDBRANCH   6   7
ENDBRANCH   5   6
ENDBRANCH   4   5
ENDBRANCH   3   4
TORSDOF 11
ENDMDL
MODEL      283
REMARK 921   NORMALIZED FREE ENERGY PREDICTED BY IDOCK:   -2.94 KCAL/MOL
REMARK 922        TOTAL FREE ENERGY PREDICTED BY IDOCK:   -6.27 KCAL/MOL
REMARK 923 INTER-LIGAND FREE ENERGY PREDICTED BY IDOCK:   -5.42 KCAL/MOL
REMARK 924 INTRA-LIGAND FREE ENERGY PREDICTED BY IDOCK:   -0.85 KCAL/MOL
REMARK 927      BINDING AFFINITY PREDICTED BY RF-SCORE:    0.00 PKD
ROOT
HETATM    1 NA   UNL     1      -6.718  15.616  70.480  1.00  0.00    -0.146 Na 
HETATM    2  C   UNL     2     -11.553  11.131  68.933  1.00  0.00    -0.385 C  
HETATM    3  C   UNL     2     -10.589  12.298  68.790  1.00  0.00    -0.223 C  
ENDROOT
BRANCH   3   4
HETATM    4  C   UNL     2      -9.229  11.818  68.291  1.00  0.00    -0.188 C  
BRANCH   4   5
HETATM    5  C   UNL     2      -8.661  12.735  67.206  1.00  0.00    -0.197 C  
BRANCH   5   6
HETATM    6  C   UNL     2      -7.500  13.603  67.707  1.00  0.00    -0.172 C  
BRANCH   6   7
HETATM    7  C   UNL     2      -7.618  15.051  67.232  1.00  0.00    -0.227 C  
BRANCH   7   8
HETATM    8  C   UNL     2      -8.347  15.949  68.229  1.00  0.00    -0.165 C  
BRANCH   8   9
HETATM    9  C   UNL     2      -8.823  17.257  67.582  1.00  0.00    -0.220 C  
BRANCH   9  10
HETATM   10  C   UNL     2     -10.243  17.211  67.001  1.00  0.00    -0.313 C  
BRANCH  10  11
HETATM   11  C   UNL     2     -11.167  16.258  67.763  1.00  0.00    -0.163 C  
BRANCH  11  12
HETATM   12  C   UNL     2     -11.446  14.948  67.017  1.00  0.00    -0.333 C  
BRANCH  12  13
HETATM   13  C   UNL     2     -11.048  14.980  65.539  1.00  0.00    -0.357 C  
BRANCH  13  14
HETATM   14  O   UNL     2     -12.073  14.370  64.775  1.00  0.00    -0.412 OA 
HETATM   15  S   UNL     2     -11.915  12.794  64.401  1.00  0.00    -0.431 S  
HETATM   16  O   UNL     2     -13.160  12.498  63.685  1.00  0.00    -0.690 OA 
HETATM   17  O   UNL     2     -11.818  12.126  65.693  1.00  0.00    -0.427 OA 
HETATM   18  O   UNL     2     -10.719  12.737  63.579  1.00  0.00    -0.372 OA 
ENDBRANCH  13  14
ENDBRANCH  12  13
ENDBRANCH  11  12
ENDBRANCH  10  11
ENDBRANCH   9  10
ENDBRANCH   8   9
ENDBRANCH   7   8
ENDBRANCH   6   7
ENDBRANCH   5   6
ENDBRANCH   4   5
ENDBRANCH   3   4
TORSDOF 11
ENDMDL
MODEL      284
REMARK 921   NORMALIZED FREE ENERGY PREDICTED BY IDOCK:   -2.94 KCAL/MOL
REMARK 922        TOTAL FREE ENERGY PREDICTED BY IDOCK:   -6.27 KCAL/MOL
REMARK 923 INTER-LIGAND FREE ENERGY PREDICTED BY IDOCK:   -5.55 KCAL/MOL
REMARK 924 INTRA-LIGAND FREE ENERGY PREDICTED BY IDOCK:   -0.72 KCAL/MOL
REMARK 927      BINDING AFFINITY PREDICTED BY RF-SCORE:    0.00 PKD
ROOT
HETATM    1 NA   UNL     1      -6.687  13.032  70.726  1.00  0.00    -0.376 Na 
HETATM    2  C   UNL     2     -12.950  15.547  71.305  1.00  0.00    -0.565 C  
HETATM    3  C   UNL     2     -11.435  15.502  71.178  1.00  0.00    -0.442 C  
ENDROOT
BRANCH   3   4
HETATM    4  C   UNL     2     -11.019  15.426  69.711  1.00  0.00    -0.294 C  
BRANCH   4   5
HETATM    5  C   UNL     2     -10.522  14.031  69.328  1.00  0.00    -0.038 C  
BRANCH   5   6
HETATM    6  C   UNL     2     -11.320  13.409  68.174  1.00  0.00    -0.321 C  
BRANCH   6   7
HETATM    7  C   UNL     2     -11.874  12.031  68.536  1.00  0.00    -0.369 C  
BRANCH   7   8
HETATM    8  C   UNL     2     -11.931  11.788  70.042  1.00  0.00    -0.421 C  
BRANCH   8   9
HETATM    9  C   UNL     2     -12.471  10.390  70.377  1.00  0.00    -0.348 C  
BRANCH   9  10
HETATM   10  C   UNL     2     -12.258   9.945  71.830  1.00  0.00    -0.425 C  
BRANCH  10  11
HETATM   11  C   UNL     2     -12.217   8.422  71.986  1.00  0.00    -0.419 C  
BRANCH  11  12
HETATM   12  C   UNL     2     -10.799   7.840  71.942  1.00  0.00    -0.281 C  
BRANCH  12  13
HETATM   13  C   UNL     2      -9.739   8.826  71.444  1.00  0.00    -0.280 C  
BRANCH  13  14
HETATM   14  O   UNL     2      -8.683   8.878  72.388  1.00  0.00    -0.400 OA 
HETATM   15  S   UNL     2      -7.157   8.932  71.826  1.00  0.00     0.062 S  
HETATM   16  O   UNL     2      -6.359   9.045  73.051  1.00  0.00    -0.296 OA 
HETATM   17  O   UNL     2      -7.120  10.132  70.999  1.00  0.00    -0.286 OA 
HETATM   18  O   UNL     2      -6.991   7.679  71.112  1.00  0.00    -0.049 OA 
ENDBRANCH  13  14
ENDBRANCH  12  13
ENDBRANCH  11  12
ENDBRANCH  10  11
ENDBRANCH   9  10
ENDBRANCH   8   9
ENDBRANCH   7   8
ENDBRANCH   6   7
ENDBRANCH   5   6
ENDBRANCH   4   5
ENDBRANCH   3   4
TORSDOF 11
ENDMDL
MODEL      285
REMARK 921   NORMALIZED FREE ENERGY PREDICTED BY IDOCK:   -2.94 KCAL/MOL
REMARK 922        TOTAL FREE ENERGY PREDICTED BY IDOCK:   -6.26 KCAL/MOL
REMARK 923 INTER-LIGAND FREE ENERGY PREDICTED BY IDOCK:   -5.53 KCAL/MOL
REMARK 924 INTRA-LIGAND FREE ENERGY PREDICTED BY IDOCK:   -0.72 KCAL/MOL
REMARK 927      BINDING AFFINITY PREDICTED BY RF-SCORE:    0.00 PKD
ROOT
HETATM    1 NA   UNL     1     -12.405  15.184  63.094  1.00  0.00    -0.832 Na 
HETATM    2  C   UNL     2      -9.366  20.193  66.497  1.00  0.00    -0.473 C  
HETATM    3  C   UNL     2     -10.436  19.199  66.071  1.00  0.00    -0.546 C  
ENDROOT
BRANCH   3   4
HETATM    4  C   UNL     2     -10.258  17.870  66.798  1.00  0.00    -0.360 C  
BRANCH   4   5
HETATM    5  C   UNL     2     -10.106  18.059  68.309  1.00  0.00    -0.390 C  
BRANCH   5   6
HETATM    6  C   UNL     2     -10.367  16.770  69.100  1.00  0.00    -0.326 C  
BRANCH   6   7
HETATM    7  C   UNL     2     -10.923  15.655  68.215  1.00  0.00    -0.315 C  
BRANCH   7   8
HETATM    8  C   UNL     2     -10.063  14.393  68.236  1.00  0.00    -0.239 C  
BRANCH   8   9
HETATM    9  C   UNL     2      -9.784  13.867  66.820  1.00  0.00    -0.282 C  
BRANCH   9  10
HETATM   10  C   UNL     2      -9.124  12.482  66.764  1.00  0.00    -0.214 C  
BRANCH  10  11
HETATM   11  C   UNL     2     -10.051  11.404  66.196  1.00  0.00    -0.271 C  
BRANCH  11  12
HETATM   12  C   UNL     2     -11.016  10.818  67.233  1.00  0.00    -0.359 C  
BRANCH  12  13
HETATM   13  C   UNL     2     -10.745   9.351  67.574  1.00  0.00    -0.222 C  
BRANCH  13  14
HETATM   14  O   UNL     2     -10.232   8.701  66.424  1.00  0.00    -0.282 OA 
HETATM   15  S   UNL     2      -8.862   7.837  66.579  1.00  0.00    -0.161 S  
HETATM   16  O   UNL     2      -8.677   7.269  65.240  1.00  0.00    -0.049 OA 
HETATM   17  O   UNL     2      -9.179   6.839  67.593  1.00  0.00    -0.120 OA 
HETATM   18  O   UNL     2      -7.861   8.817  66.962  1.00  0.00    -0.094 OA 
ENDBRANCH  13  14
ENDBRANCH  12  13
ENDBRANCH  11  12
ENDBRANCH  10  11
ENDBRANCH   9  10
ENDBRANCH   8   9
ENDBRANCH   7   8
ENDBRANCH   6   7
ENDBRANCH   5   6
ENDBRANCH   4   5
ENDBRANCH   3   4
TORSDOF 11
ENDMDL
MODEL      286
REMARK 921   NORMALIZED FREE ENERGY PREDICTED BY IDOCK:   -2.92 KCAL/MOL
REMARK 922        TOTAL FREE ENERGY PREDICTED BY IDOCK:   -6.24 KCAL/MOL
REMARK 923 INTER-LIGAND FREE ENERGY PREDICTED BY IDOCK:   -5.41 KCAL/MOL
REMARK 924 INTRA-LIGAND FREE ENERGY PREDICTED BY IDOCK:   -0.83 KCAL/MOL
REMARK 927      BINDING AFFINITY PREDICTED BY RF-SCORE:    0.00 PKD
ROOT
HETATM    1 NA   UNL     1     -13.295   6.962  69.875  1.00  0.00    -0.594 Na 
HETATM    2  C   UNL     2     -13.751  13.297  72.233  1.00  0.00    -0.686 C  
HETATM    3  C   UNL     2     -13.203  11.899  71.990  1.00  0.00    -0.461 C  
ENDROOT
BRANCH   3   4
HETATM    4  C   UNL     2     -12.375  11.860  70.708  1.00  0.00    -0.416 C  
BRANCH   4   5
HETATM    5  C   UNL     2     -12.136  10.429  70.224  1.00  0.00    -0.370 C  
BRANCH   5   6
HETATM    6  C   UNL     2     -10.665  10.003  70.325  1.00  0.00    -0.367 C  
BRANCH   6   7
HETATM    7  C   UNL     2     -10.410   9.102  71.533  1.00  0.00    -0.414 C  
BRANCH   7   8
HETATM    8  C   UNL     2     -11.694   8.552  72.150  1.00  0.00    -0.448 C  
BRANCH   8   9
HETATM    9  C   UNL     2     -11.649   7.025  72.301  1.00  0.00    -0.307 C  
BRANCH   9  10
HETATM   10  C   UNL     2     -10.272   6.392  72.065  1.00  0.00    -0.216 C  
BRANCH  10  11
HETATM   11  C   UNL     2     -10.352   5.043  71.345  1.00  0.00    -0.251 C  
BRANCH  11  12
HETATM   12  C   UNL     2      -9.222   4.821  70.332  1.00  0.00    -0.195 C  
BRANCH  12  13
HETATM   13  C   UNL     2      -9.710   4.429  68.935  1.00  0.00    -0.141 C  
BRANCH  13  14
HETATM   14  O   UNL     2      -9.109   5.289  67.982  1.00  0.00    -0.109 OA 
HETATM   15  S   UNL     2      -8.386   4.613  66.690  1.00  0.00    -0.105 S  
HETATM   16  O   UNL     2      -7.950   5.776  65.911  1.00  0.00    -0.102 OA 
HETATM   17  O   UNL     2      -9.445   3.848  66.044  1.00  0.00    -0.162 OA 
HETATM   18  O   UNL     2      -7.304   3.826  67.254  1.00  0.00    -0.066 OA 
ENDBRANCH  13  14
ENDBRANCH  12  13
ENDBRANCH  11  12
ENDBRANCH  10  11
ENDBRANCH   9  10
ENDBRANCH   8   9
ENDBRANCH   7   8
ENDBRANCH   6   7
ENDBRANCH   5   6
ENDBRANCH   4   5
ENDBRANCH   3   4
TORSDOF 11
ENDMDL
MODEL      287
REMARK 921   NORMALIZED FREE ENERGY PREDICTED BY IDOCK:   -2.92 KCAL/MOL
REMARK 922        TOTAL FREE ENERGY PREDICTED BY IDOCK:   -6.23 KCAL/MOL
REMARK 923 INTER-LIGAND FREE ENERGY PREDICTED BY IDOCK:   -4.99 KCAL/MOL
REMARK 924 INTRA-LIGAND FREE ENERGY PREDICTED BY IDOCK:   -1.24 KCAL/MOL
REMARK 927      BINDING AFFINITY PREDICTED BY RF-SCORE:    0.00 PKD
ROOT
HETATM    1 NA   UNL     1      -7.451   7.648  73.828  1.00  0.00    -0.094 Na 
HETATM    2  C   UNL     2     -12.648  10.706  70.742  1.00  0.00    -0.479 C  
HETATM    3  C   UNL     2     -11.371   9.902  70.929  1.00  0.00    -0.446 C  
ENDROOT
BRANCH   3   4
HETATM    4  C   UNL     2     -11.693   8.435  71.198  1.00  0.00    -0.315 C  
BRANCH   4   5
HETATM    5  C   UNL     2     -10.432   7.615  71.484  1.00  0.00    -0.231 C  
BRANCH   5   6
HETATM    6  C   UNL     2      -9.616   7.316  70.220  1.00  0.00    -0.165 C  
BRANCH   6   7
HETATM    7  C   UNL     2     -10.509   7.036  69.012  1.00  0.00    -0.219 C  
BRANCH   7   8
HETATM    8  C   UNL     2      -9.850   7.406  67.685  1.00  0.00    -0.194 C  
BRANCH   8   9
HETATM    9  C   UNL     2     -10.433   8.698  67.095  1.00  0.00    -0.360 C  
BRANCH   9  10
HETATM   10  C   UNL     2      -9.454   9.878  67.028  1.00  0.00    -0.196 C  
BRANCH  10  11
HETATM   11  C   UNL     2      -9.987  11.133  67.724  1.00  0.00    -0.193 C  
BRANCH  11  12
HETATM   12  C   UNL     2     -11.320  11.630  67.153  1.00  0.00    -0.373 C  
BRANCH  12  13
HETATM   13  C   UNL     2     -11.872  12.873  67.857  1.00  0.00    -0.339 C  
BRANCH  13  14
HETATM   14  O   UNL     2     -10.812  13.521  68.540  1.00  0.00    -0.248 OA 
HETATM   15  S   UNL     2     -10.671  15.134  68.378  1.00  0.00    -0.257 S  
HETATM   16  O   UNL     2      -9.540  15.455  69.254  1.00  0.00    -0.235 OA 
HETATM   17  O   UNL     2     -11.943  15.657  68.862  1.00  0.00    -0.367 OA 
HETATM   18  O   UNL     2     -10.413  15.333  66.963  1.00  0.00    -0.279 OA 
ENDBRANCH  13  14
ENDBRANCH  12  13
ENDBRANCH  11  12
ENDBRANCH  10  11
ENDBRANCH   9  10
ENDBRANCH   8   9
ENDBRANCH   7   8
ENDBRANCH   6   7
ENDBRANCH   5   6
ENDBRANCH   4   5
ENDBRANCH   3   4
TORSDOF 11
ENDMDL
MODEL      288
REMARK 921   NORMALIZED FREE ENERGY PREDICTED BY IDOCK:   -2.92 KCAL/MOL
REMARK 922        TOTAL FREE ENERGY PREDICTED BY IDOCK:   -6.23 KCAL/MOL
REMARK 923 INTER-LIGAND FREE ENERGY PREDICTED BY IDOCK:   -5.38 KCAL/MOL
REMARK 924 INTRA-LIGAND FREE ENERGY PREDICTED BY IDOCK:   -0.85 KCAL/MOL
REMARK 927      BINDING AFFINITY PREDICTED BY RF-SCORE:    0.00 PKD
ROOT
HETATM    1 NA   UNL     1     -13.462  14.506  69.862  1.00  0.00    -0.559 Na 
HETATM    2  C   UNL     2      -9.093  11.148  65.922  1.00  0.00    -0.218 C  
HETATM    3  C   UNL     2      -9.863  11.571  67.164  1.00  0.00    -0.210 C  
ENDROOT
BRANCH   3   4
HETATM    4  C   UNL     2     -11.189  10.821  67.257  1.00  0.00    -0.272 C  
BRANCH   4   5
HETATM    5  C   UNL     2     -11.436  10.267  68.662  1.00  0.00    -0.178 C  
BRANCH   5   6
HETATM    6  C   UNL     2     -12.078  11.294  69.604  1.00  0.00    -0.391 C  
BRANCH   6   7
HETATM    7  C   UNL     2     -11.947  10.887  71.072  1.00  0.00    -0.375 C  
BRANCH   7   8
HETATM    8  C   UNL     2     -13.296  10.736  71.771  1.00  0.00    -0.429 C  
BRANCH   8   9
HETATM    9  C   UNL     2     -13.592   9.273  72.135  1.00  0.00    -0.536 C  
BRANCH   9  10
HETATM   10  C   UNL     2     -12.354   8.374  72.257  1.00  0.00    -0.436 C  
BRANCH  10  11
HETATM   11  C   UNL     2     -12.618   6.935  71.806  1.00  0.00    -0.386 C  
BRANCH  11  12
HETATM   12  C   UNL     2     -11.754   6.498  70.617  1.00  0.00    -0.436 C  
BRANCH  12  13
HETATM   13  C   UNL     2     -10.717   5.427  70.964  1.00  0.00    -0.169 C  
BRANCH  13  14
HETATM   14  O   UNL     2     -10.103   5.766  72.196  1.00  0.00    -0.177 OA 
HETATM   15  S   UNL     2      -9.812   4.571  73.260  1.00  0.00    -0.142 S  
HETATM   16  O   UNL     2      -9.127   5.264  74.356  1.00  0.00    -0.116 OA 
HETATM   17  O   UNL     2      -8.951   3.644  72.535  1.00  0.00    -0.100 OA 
HETATM   18  O   UNL     2     -11.129   4.062  73.599  1.00  0.00    -0.248 OA 
ENDBRANCH  13  14
ENDBRANCH  12  13
ENDBRANCH  11  12
ENDBRANCH  10  11
ENDBRANCH   9  10
ENDBRANCH   8   9
ENDBRANCH   7   8
ENDBRANCH   6   7
ENDBRANCH   5   6
ENDBRANCH   4   5
ENDBRANCH   3   4
TORSDOF 11
ENDMDL
MODEL      289
REMARK 921   NORMALIZED FREE ENERGY PREDICTED BY IDOCK:   -2.91 KCAL/MOL
REMARK 922        TOTAL FREE ENERGY PREDICTED BY IDOCK:   -6.22 KCAL/MOL
REMARK 923 INTER-LIGAND FREE ENERGY PREDICTED BY IDOCK:   -5.54 KCAL/MOL
REMARK 924 INTRA-LIGAND FREE ENERGY PREDICTED BY IDOCK:   -0.68 KCAL/MOL
REMARK 927      BINDING AFFINITY PREDICTED BY RF-SCORE:    0.00 PKD
ROOT
HETATM    1 NA   UNL     1     -11.452  15.797  63.542  1.00  0.00    -0.650 Na 
HETATM    2  C   UNL     2      -8.014  20.030  67.561  1.00  0.00    -0.342 C  
HETATM    3  C   UNL     2      -8.784  19.515  66.355  1.00  0.00    -0.389 C  
ENDROOT
BRANCH   3   4
HETATM    4  C   UNL     2     -10.287  19.674  66.566  1.00  0.00    -0.601 C  
BRANCH   4   5
HETATM    5  C   UNL     2     -10.746  19.070  67.895  1.00  0.00    -0.378 C  
BRANCH   5   6
HETATM    6  C   UNL     2     -10.834  17.539  67.855  1.00  0.00    -0.255 C  
BRANCH   6   7
HETATM    7  C   UNL     2      -9.956  16.885  68.922  1.00  0.00    -0.279 C  
BRANCH   7   8
HETATM    8  C   UNL     2     -10.557  15.598  69.482  1.00  0.00    -0.266 C  
BRANCH   8   9
HETATM    9  C   UNL     2     -10.511  14.452  68.461  1.00  0.00    -0.254 C  
BRANCH   9  10
HETATM   10  C   UNL     2     -11.841  13.713  68.259  1.00  0.00    -0.404 C  
BRANCH  10  11
HETATM   11  C   UNL     2     -11.653  12.257  67.824  1.00  0.00    -0.416 C  
BRANCH  11  12
HETATM   12  C   UNL     2     -12.178  11.241  68.846  1.00  0.00    -0.160 C  
BRANCH  12  13
HETATM   13  C   UNL     2     -11.117  10.752  69.835  1.00  0.00    -0.271 C  
BRANCH  13  14
HETATM   14  O   UNL     2     -10.488   9.600  69.300  1.00  0.00    -0.200 OA 
HETATM   15  S   UNL     2      -8.863   9.527  69.338  1.00  0.00    -0.184 S  
HETATM   16  O   UNL     2      -8.579   8.201  68.779  1.00  0.00    -0.126 OA 
HETATM   17  O   UNL     2      -8.531   9.641  70.753  1.00  0.00    -0.245 OA 
HETATM   18  O   UNL     2      -8.433  10.636  68.506  1.00  0.00    -0.121 OA 
ENDBRANCH  13  14
ENDBRANCH  12  13
ENDBRANCH  11  12
ENDBRANCH  10  11
ENDBRANCH   9  10
ENDBRANCH   8   9
ENDBRANCH   7   8
ENDBRANCH   6   7
ENDBRANCH   5   6
ENDBRANCH   4   5
ENDBRANCH   3   4
TORSDOF 11
ENDMDL
MODEL      290
REMARK 921   NORMALIZED FREE ENERGY PREDICTED BY IDOCK:   -2.91 KCAL/MOL
REMARK 922        TOTAL FREE ENERGY PREDICTED BY IDOCK:   -6.22 KCAL/MOL
REMARK 923 INTER-LIGAND FREE ENERGY PREDICTED BY IDOCK:   -5.72 KCAL/MOL
REMARK 924 INTRA-LIGAND FREE ENERGY PREDICTED BY IDOCK:   -0.49 KCAL/MOL
REMARK 927      BINDING AFFINITY PREDICTED BY RF-SCORE:    0.00 PKD
ROOT
HETATM    1 NA   UNL     1     -13.694   6.740  70.948  1.00  0.00    -0.334 Na 
HETATM    2  C   UNL     2      -7.922   8.062  74.238  1.00  0.00    -0.297 C  
HETATM    3  C   UNL     2      -8.970   7.300  73.441  1.00  0.00    -0.203 C  
ENDROOT
BRANCH   3   4
HETATM    4  C   UNL     2      -8.811   7.568  71.948  1.00  0.00    -0.134 C  
BRANCH   4   5
HETATM    5  C   UNL     2     -10.131   7.990  71.298  1.00  0.00    -0.222 C  
BRANCH   5   6
HETATM    6  C   UNL     2     -10.058   9.376  70.645  1.00  0.00    -0.356 C  
BRANCH   6   7
HETATM    7  C   UNL     2     -10.492   9.344  69.180  1.00  0.00    -0.230 C  
BRANCH   7   8
HETATM    8  C   UNL     2     -10.521  10.729  68.536  1.00  0.00    -0.208 C  
BRANCH   8   9
HETATM    9  C   UNL     2     -11.851  11.453  68.793  1.00  0.00    -0.388 C  
BRANCH   9  10
HETATM   10  C   UNL     2     -11.824  12.464  69.947  1.00  0.00    -0.376 C  
BRANCH  10  11
HETATM   11  C   UNL     2     -12.245  13.871  69.515  1.00  0.00    -0.356 C  
BRANCH  11  12
HETATM   12  C   UNL     2     -11.078  14.733  69.016  1.00  0.00    -0.268 C  
BRANCH  12  13
HETATM   13  C   UNL     2     -11.277  15.289  67.604  1.00  0.00    -0.320 C  
BRANCH  13  14
HETATM   14  O   UNL     2     -10.013  15.631  67.063  1.00  0.00    -0.234 OA 
HETATM   15  S   UNL     2      -9.939  16.870  66.012  1.00  0.00    -0.259 S  
HETATM   16  O   UNL     2      -8.505  16.975  65.725  1.00  0.00    -0.508 OA 
HETATM   17  O   UNL     2     -10.464  18.007  66.759  1.00  0.00    -0.354 OA 
HETATM   18  O   UNL     2     -10.749  16.437  64.887  1.00  0.00    -0.675 OA 
ENDBRANCH  13  14
ENDBRANCH  12  13
ENDBRANCH  11  12
ENDBRANCH  10  11
ENDBRANCH   9  10
ENDBRANCH   8   9
ENDBRANCH   7   8
ENDBRANCH   6   7
ENDBRANCH   5   6
ENDBRANCH   4   5
ENDBRANCH   3   4
TORSDOF 11
ENDMDL
MODEL      291
REMARK 921   NORMALIZED FREE ENERGY PREDICTED BY IDOCK:   -2.91 KCAL/MOL
REMARK 922        TOTAL FREE ENERGY PREDICTED BY IDOCK:   -6.21 KCAL/MOL
REMARK 923 INTER-LIGAND FREE ENERGY PREDICTED BY IDOCK:   -5.49 KCAL/MOL
REMARK 924 INTRA-LIGAND FREE ENERGY PREDICTED BY IDOCK:   -0.72 KCAL/MOL
REMARK 927      BINDING AFFINITY PREDICTED BY RF-SCORE:    0.00 PKD
ROOT
HETATM    1 NA   UNL     1     -14.330   7.802  70.600  1.00  0.00    -0.589 Na 
HETATM    2  C   UNL     2     -13.757  14.335  72.299  1.00  0.00    -0.592 C  
HETATM    3  C   UNL     2     -13.433  12.853  72.193  1.00  0.00    -0.619 C  
ENDROOT
BRANCH   3   4
HETATM    4  C   UNL     2     -12.658  12.560  70.912  1.00  0.00    -0.331 C  
BRANCH   4   5
HETATM    5  C   UNL     2     -12.164  13.841  70.236  1.00  0.00    -0.429 C  
BRANCH   5   6
HETATM    6  C   UNL     2     -11.715  13.615  68.786  1.00  0.00    -0.383 C  
BRANCH   6   7
HETATM    7  C   UNL     2     -11.678  12.132  68.421  1.00  0.00    -0.388 C  
BRANCH   7   8
HETATM    8  C   UNL     2     -11.080  11.872  67.039  1.00  0.00    -0.354 C  
BRANCH   8   9
HETATM    9  C   UNL     2     -10.649  10.409  66.867  1.00  0.00    -0.293 C  
BRANCH   9  10
HETATM   10  C   UNL     2      -9.132  10.176  66.881  1.00  0.00    -0.160 C  
BRANCH  10  11
HETATM   11  C   UNL     2      -8.589   9.873  68.280  1.00  0.00    -0.115 C  
BRANCH  11  12
HETATM   12  C   UNL     2      -8.552   8.376  68.611  1.00  0.00    -0.132 C  
BRANCH  12  13
HETATM   13  C   UNL     2      -9.261   8.012  69.918  1.00  0.00    -0.152 C  
BRANCH  13  14
HETATM   14  O   UNL     2      -9.012   6.648  70.210  1.00  0.00    -0.150 OA 
HETATM   15  S   UNL     2     -10.002   5.897  71.261  1.00  0.00    -0.192 S  
HETATM   16  O   UNL     2      -9.496   4.521  71.264  1.00  0.00    -0.139 OA 
HETATM   17  O   UNL     2     -11.326   6.026  70.664  1.00  0.00    -0.311 OA 
HETATM   18  O   UNL     2      -9.809   6.612  72.510  1.00  0.00    -0.165 OA 
ENDBRANCH  13  14
ENDBRANCH  12  13
ENDBRANCH  11  12
ENDBRANCH  10  11
ENDBRANCH   9  10
ENDBRANCH   8   9
ENDBRANCH   7   8
ENDBRANCH   6   7
ENDBRANCH   5   6
ENDBRANCH   4   5
ENDBRANCH   3   4
TORSDOF 11
ENDMDL
MODEL      292
REMARK 921   NORMALIZED FREE ENERGY PREDICTED BY IDOCK:   -2.90 KCAL/MOL
REMARK 922        TOTAL FREE ENERGY PREDICTED BY IDOCK:   -6.20 KCAL/MOL
REMARK 923 INTER-LIGAND FREE ENERGY PREDICTED BY IDOCK:   -5.55 KCAL/MOL
REMARK 924 INTRA-LIGAND FREE ENERGY PREDICTED BY IDOCK:   -0.66 KCAL/MOL
REMARK 927      BINDING AFFINITY PREDICTED BY RF-SCORE:    0.00 PKD
ROOT
HETATM    1 NA   UNL     1     -13.016   7.219  70.179  1.00  0.00    -0.553 Na 
HETATM    2  C   UNL     2      -8.571   3.181  67.043  1.00  0.00    -0.121 C  
HETATM    3  C   UNL     2      -9.736   4.138  67.246  1.00  0.00    -0.214 C  
ENDROOT
BRANCH   3   4
HETATM    4  C   UNL     2      -9.254   5.585  67.228  1.00  0.00    -0.110 C  
BRANCH   4   5
HETATM    5  C   UNL     2     -10.330   6.541  66.705  1.00  0.00    -0.279 C  
BRANCH   5   6
HETATM    6  C   UNL     2     -10.374   7.867  67.475  1.00  0.00    -0.329 C  
BRANCH   6   7
HETATM    7  C   UNL     2     -10.195   9.072  66.552  1.00  0.00    -0.318 C  
BRANCH   7   8
HETATM    8  C   UNL     2      -8.848   9.077  65.831  1.00  0.00    -0.210 C  
BRANCH   8   9
HETATM    9  C   UNL     2      -8.623  10.377  65.045  1.00  0.00    -0.190 C  
BRANCH   9  10
HETATM   10  C   UNL     2      -9.170  10.369  63.612  1.00  0.00    -0.310 C  
BRANCH  10  11
HETATM   11  C   UNL     2      -9.880  11.673  63.238  1.00  0.00    -0.428 C  
BRANCH  11  12
HETATM   12  C   UNL     2     -11.336  11.735  63.713  1.00  0.00    -0.524 C  
BRANCH  12  13
HETATM   13  C   UNL     2     -11.707  13.047  64.410  1.00  0.00    -0.373 C  
BRANCH  13  14
HETATM   14  O   UNL     2     -10.710  13.352  65.370  1.00  0.00    -0.286 OA 
HETATM   15  S   UNL     2     -10.923  14.670  66.301  1.00  0.00    -0.332 S  
HETATM   16  O   UNL     2      -9.763  14.631  67.197  1.00  0.00    -0.227 OA 
HETATM   17  O   UNL     2     -12.188  14.427  66.984  1.00  0.00    -0.400 OA 
HETATM   18  O   UNL     2     -10.924  15.778  65.363  1.00  0.00    -0.345 OA 
ENDBRANCH  13  14
ENDBRANCH  12  13
ENDBRANCH  11  12
ENDBRANCH  10  11
ENDBRANCH   9  10
ENDBRANCH   8   9
ENDBRANCH   7   8
ENDBRANCH   6   7
ENDBRANCH   5   6
ENDBRANCH   4   5
ENDBRANCH   3   4
TORSDOF 11
ENDMDL
MODEL      293
REMARK 921   NORMALIZED FREE ENERGY PREDICTED BY IDOCK:   -2.90 KCAL/MOL
REMARK 922        TOTAL FREE ENERGY PREDICTED BY IDOCK:   -6.20 KCAL/MOL
REMARK 923 INTER-LIGAND FREE ENERGY PREDICTED BY IDOCK:   -5.35 KCAL/MOL
REMARK 924 INTRA-LIGAND FREE ENERGY PREDICTED BY IDOCK:   -0.85 KCAL/MOL
REMARK 927      BINDING AFFINITY PREDICTED BY RF-SCORE:    0.00 PKD
ROOT
HETATM    1 NA   UNL     1      -6.818   7.002  67.526  1.00  0.00    -0.052 Na 
HETATM    2  C   UNL     2     -10.550  12.613  66.833  1.00  0.00    -0.256 C  
HETATM    3  C   UNL     2     -10.189  11.164  67.121  1.00  0.00    -0.235 C  
ENDROOT
BRANCH   3   4
HETATM    4  C   UNL     2      -9.727  11.000  68.566  1.00  0.00    -0.189 C  
BRANCH   4   5
HETATM    5  C   UNL     2     -10.774  10.288  69.425  1.00  0.00    -0.272 C  
BRANCH   5   6
HETATM    6  C   UNL     2     -12.104  11.051  69.500  1.00  0.00    -0.400 C  
BRANCH   6   7
HETATM    7  C   UNL     2     -12.058  12.187  70.520  1.00  0.00    -0.383 C  
BRANCH   7   8
HETATM    8  C   UNL     2     -12.636  13.495  69.984  1.00  0.00    -0.131 C  
BRANCH   8   9
HETATM    9  C   UNL     2     -12.163  14.708  70.799  1.00  0.00    -0.394 C  
BRANCH   9  10
HETATM   10  C   UNL     2     -11.199  15.646  70.061  1.00  0.00    -0.332 C  
BRANCH  10  11
HETATM   11  C   UNL     2     -11.699  16.036  68.667  1.00  0.00    -0.273 C  
BRANCH  11  12
HETATM   12  C   UNL     2     -10.588  16.093  67.612  1.00  0.00    -0.315 C  
BRANCH  12  13
HETATM   13  C   UNL     2     -10.405  17.475  66.978  1.00  0.00    -0.324 C  
BRANCH  13  14
HETATM   14  O   UNL     2      -9.267  17.445  66.135  1.00  0.00    -0.424 OA 
HETATM   15  S   UNL     2      -8.126  18.586  66.347  1.00  0.00    -0.249 S  
HETATM   16  O   UNL     2      -7.097  18.209  65.373  1.00  0.00    -0.523 OA 
HETATM   17  O   UNL     2      -7.702  18.417  67.731  1.00  0.00    -0.227 OA 
HETATM   18  O   UNL     2      -8.807  19.834  66.052  1.00  0.00    -0.365 OA 
ENDBRANCH  13  14
ENDBRANCH  12  13
ENDBRANCH  11  12
ENDBRANCH  10  11
ENDBRANCH   9  10
ENDBRANCH   8   9
ENDBRANCH   7   8
ENDBRANCH   6   7
ENDBRANCH   5   6
ENDBRANCH   4   5
ENDBRANCH   3   4
TORSDOF 11
ENDMDL
MODEL      294
REMARK 921   NORMALIZED FREE ENERGY PREDICTED BY IDOCK:   -2.89 KCAL/MOL
REMARK 922        TOTAL FREE ENERGY PREDICTED BY IDOCK:   -6.19 KCAL/MOL
REMARK 923 INTER-LIGAND FREE ENERGY PREDICTED BY IDOCK:   -5.27 KCAL/MOL
REMARK 924 INTRA-LIGAND FREE ENERGY PREDICTED BY IDOCK:   -0.92 KCAL/MOL
REMARK 927      BINDING AFFINITY PREDICTED BY RF-SCORE:    0.00 PKD
ROOT
HETATM    1 NA   UNL     1     -13.523  10.223  69.591  1.00  0.00    -0.592 Na 
HETATM    2  C   UNL     2     -11.742  13.301  63.824  1.00  0.00    -0.475 C  
HETATM    3  C   UNL     2     -11.792  12.962  65.306  1.00  0.00    -0.429 C  
ENDROOT
BRANCH   3   4
HETATM    4  C   UNL     2     -10.822  11.831  65.634  1.00  0.00    -0.342 C  
BRANCH   4   5
HETATM    5  C   UNL     2     -10.750  11.557  67.138  1.00  0.00    -0.294 C  
BRANCH   5   6
HETATM    6  C   UNL     2      -9.608  12.314  67.828  1.00  0.00    -0.200 C  
BRANCH   6   7
HETATM    7  C   UNL     2     -10.115  13.514  68.627  1.00  0.00    -0.170 C  
BRANCH   7   8
HETATM    8  C   UNL     2      -9.315  14.788  68.363  1.00  0.00    -0.197 C  
BRANCH   8   9
HETATM    9  C   UNL     2     -10.110  15.801  67.526  1.00  0.00    -0.245 C  
BRANCH   9  10
HETATM   10  C   UNL     2     -10.823  16.891  68.338  1.00  0.00    -0.347 C  
BRANCH  10  11
HETATM   11  C   UNL     2     -10.487  18.306  67.858  1.00  0.00    -0.408 C  
BRANCH  11  12
HETATM   12  C   UNL     2      -9.587  19.083  68.826  1.00  0.00    -0.451 C  
BRANCH  12  13
HETATM   13  C   UNL     2      -8.092  18.955  68.522  1.00  0.00    -0.348 C  
BRANCH  13  14
HETATM   14  O   UNL     2      -7.512  18.050  69.445  1.00  0.00    -0.053 OA 
HETATM   15  S   UNL     2      -6.103  17.342  69.042  1.00  0.00    -0.213 S  
HETATM   16  O   UNL     2      -5.780  16.548  70.232  1.00  0.00    -0.203 OA 
HETATM   17  O   UNL     2      -5.190  18.458  68.825  1.00  0.00    -0.177 OA 
HETATM   18  O   UNL     2      -6.419  16.558  67.862  1.00  0.00    -0.122 OA 
ENDBRANCH  13  14
ENDBRANCH  12  13
ENDBRANCH  11  12
ENDBRANCH  10  11
ENDBRANCH   9  10
ENDBRANCH   8   9
ENDBRANCH   7   8
ENDBRANCH   6   7
ENDBRANCH   5   6
ENDBRANCH   4   5
ENDBRANCH   3   4
TORSDOF 11
ENDMDL
MODEL      295
REMARK 921   NORMALIZED FREE ENERGY PREDICTED BY IDOCK:   -2.89 KCAL/MOL
REMARK 922        TOTAL FREE ENERGY PREDICTED BY IDOCK:   -6.19 KCAL/MOL
REMARK 923 INTER-LIGAND FREE ENERGY PREDICTED BY IDOCK:   -4.77 KCAL/MOL
REMARK 924 INTRA-LIGAND FREE ENERGY PREDICTED BY IDOCK:   -1.41 KCAL/MOL
REMARK 927      BINDING AFFINITY PREDICTED BY RF-SCORE:    0.00 PKD
ROOT
HETATM    1 NA   UNL     1     -11.965   9.658  67.581  1.00  0.00    -0.503 Na 
HETATM    2  C   UNL     2      -5.607  11.932  67.036  1.00  0.00    -0.126 C  
HETATM    3  C   UNL     2      -6.767  10.967  67.223  1.00  0.00    -0.086 C  
ENDROOT
BRANCH   3   4
HETATM    4  C   UNL     2      -7.279  10.470  65.874  1.00  0.00    -0.135 C  
BRANCH   4   5
HETATM    5  C   UNL     2      -8.733  10.000  65.950  1.00  0.00    -0.154 C  
BRANCH   5   6
HETATM    6  C   UNL     2      -9.443  10.033  64.591  1.00  0.00    -0.367 C  
BRANCH   6   7
HETATM    7  C   UNL     2      -9.788  11.458  64.158  1.00  0.00    -0.307 C  
BRANCH   7   8
HETATM    8  C   UNL     2     -11.290  11.735  64.164  1.00  0.00    -0.430 C  
BRANCH   8   9
HETATM    9  C   UNL     2     -11.710  12.596  65.364  1.00  0.00    -0.428 C  
BRANCH   9  10
HETATM   10  C   UNL     2     -10.552  13.270  66.113  1.00  0.00    -0.293 C  
BRANCH  10  11
HETATM   11  C   UNL     2     -10.917  13.659  67.548  1.00  0.00    -0.282 C  
BRANCH  11  12
HETATM   12  C   UNL     2     -11.430  12.483  68.388  1.00  0.00    -0.355 C  
BRANCH  12  13
HETATM   13  C   UNL     2     -10.354  11.448  68.727  1.00  0.00    -0.204 C  
BRANCH  13  14
HETATM   14  O   UNL     2     -10.833  10.614  69.768  1.00  0.00    -0.259 OA 
HETATM   15  S   UNL     2     -10.072   9.199  70.026  1.00  0.00    -0.221 S  
HETATM   16  O   UNL     2     -10.778   8.653  71.190  1.00  0.00    -0.216 OA 
HETATM   17  O   UNL     2      -8.694   9.578  70.311  1.00  0.00    -0.207 OA 
HETATM   18  O   UNL     2     -10.272   8.453  68.796  1.00  0.00    -0.199 OA 
ENDBRANCH  13  14
ENDBRANCH  12  13
ENDBRANCH  11  12
ENDBRANCH  10  11
ENDBRANCH   9  10
ENDBRANCH   8   9
ENDBRANCH   7   8
ENDBRANCH   6   7
ENDBRANCH   5   6
ENDBRANCH   4   5
ENDBRANCH   3   4
TORSDOF 11
ENDMDL
MODEL      296
REMARK 921   NORMALIZED FREE ENERGY PREDICTED BY IDOCK:   -2.89 KCAL/MOL
REMARK 922        TOTAL FREE ENERGY PREDICTED BY IDOCK:   -6.19 KCAL/MOL
REMARK 923 INTER-LIGAND FREE ENERGY PREDICTED BY IDOCK:   -4.99 KCAL/MOL
REMARK 924 INTRA-LIGAND FREE ENERGY PREDICTED BY IDOCK:   -1.19 KCAL/MOL
REMARK 927      BINDING AFFINITY PREDICTED BY RF-SCORE:    0.00 PKD
ROOT
HETATM    1 NA   UNL     1      -6.123  13.932  72.689  1.00  0.00    -0.226 Na 
HETATM    2  C   UNL     2      -7.540  16.663  66.653  1.00  0.00    -0.314 C  
HETATM    3  C   UNL     2      -7.582  15.703  67.832  1.00  0.00    -0.143 C  
ENDROOT
BRANCH   3   4
HETATM    4  C   UNL     2      -8.571  16.188  68.887  1.00  0.00    -0.245 C  
BRANCH   4   5
HETATM    5  C   UNL     2      -9.482  17.295  68.353  1.00  0.00    -0.283 C  
BRANCH   5   6
HETATM    6  C   UNL     2     -10.878  16.786  67.969  1.00  0.00    -0.341 C  
BRANCH   6   7
HETATM    7  C   UNL     2     -11.442  15.818  69.008  1.00  0.00    -0.394 C  
BRANCH   7   8
HETATM    8  C   UNL     2     -11.882  14.485  68.406  1.00  0.00    -0.351 C  
BRANCH   8   9
HETATM    9  C   UNL     2     -11.472  14.359  66.932  1.00  0.00    -0.379 C  
BRANCH   9  10
HETATM   10  C   UNL     2     -10.274  13.435  66.671  1.00  0.00    -0.274 C  
BRANCH  10  11
HETATM   11  C   UNL     2     -10.603  12.292  65.707  1.00  0.00    -0.289 C  
BRANCH  11  12
HETATM   12  C   UNL     2     -10.510  10.903  66.350  1.00  0.00    -0.307 C  
BRANCH  12  13
HETATM   13  C   UNL     2     -11.203  10.802  67.711  1.00  0.00    -0.316 C  
BRANCH  13  14
HETATM   14  O   UNL     2     -10.930   9.529  68.271  1.00  0.00    -0.182 OA 
HETATM   15  S   UNL     2     -10.278   9.472  69.760  1.00  0.00    -0.246 S  
HETATM   16  O   UNL     2     -10.202   8.033  70.032  1.00  0.00    -0.197 OA 
HETATM   17  O   UNL     2     -11.242  10.169  70.603  1.00  0.00    -0.305 OA 
HETATM   18  O   UNL     2      -8.990  10.126  69.615  1.00  0.00    -0.202 OA 
ENDBRANCH  13  14
ENDBRANCH  12  13
ENDBRANCH  11  12
ENDBRANCH  10  11
ENDBRANCH   9  10
ENDBRANCH   8   9
ENDBRANCH   7   8
ENDBRANCH   6   7
ENDBRANCH   5   6
ENDBRANCH   4   5
ENDBRANCH   3   4
TORSDOF 11
ENDMDL
MODEL      297
REMARK 921   NORMALIZED FREE ENERGY PREDICTED BY IDOCK:   -2.89 KCAL/MOL
REMARK 922        TOTAL FREE ENERGY PREDICTED BY IDOCK:   -6.18 KCAL/MOL
REMARK 923 INTER-LIGAND FREE ENERGY PREDICTED BY IDOCK:   -4.83 KCAL/MOL
REMARK 924 INTRA-LIGAND FREE ENERGY PREDICTED BY IDOCK:   -1.36 KCAL/MOL
REMARK 927      BINDING AFFINITY PREDICTED BY RF-SCORE:    0.00 PKD
ROOT
HETATM    1 NA   UNL     1     -12.492   6.673  66.913  1.00  0.00    -0.469 Na 
HETATM    2  C   UNL     2      -6.127   6.321  64.620  1.00  0.00    -0.030 C  
HETATM    3  C   UNL     2      -7.599   6.694  64.695  1.00  0.00    -0.105 C  
ENDROOT
BRANCH   3   4
HETATM    4  C   UNL     2      -7.796   7.945  65.547  1.00  0.00    -0.112 C  
BRANCH   4   5
HETATM    5  C   UNL     2      -6.814   8.000  66.719  1.00  0.00    -0.072 C  
BRANCH   5   6
HETATM    6  C   UNL     2      -7.351   8.805  67.910  1.00  0.00    -0.088 C  
BRANCH   6   7
HETATM    7  C   UNL     2      -8.851   8.596  68.114  1.00  0.00    -0.142 C  
BRANCH   7   8
HETATM    8  C   UNL     2      -9.557   9.837  68.656  1.00  0.00    -0.155 C  
BRANCH   8   9
HETATM    9  C   UNL     2      -8.808  11.128  68.293  1.00  0.00    -0.155 C  
BRANCH   9  10
HETATM   10  C   UNL     2      -9.453  11.957  67.174  1.00  0.00    -0.180 C  
BRANCH  10  11
HETATM   11  C   UNL     2      -9.056  11.478  65.775  1.00  0.00    -0.164 C  
BRANCH  11  12
HETATM   12  C   UNL     2     -10.157  10.682  65.065  1.00  0.00    -0.388 C  
BRANCH  12  13
HETATM   13  C   UNL     2     -10.798  11.423  63.888  1.00  0.00    -0.393 C  
BRANCH  13  14
HETATM   14  O   UNL     2     -10.581  12.814  64.050  1.00  0.00    -0.392 OA 
HETATM   15  S   UNL     2     -11.863  13.753  64.402  1.00  0.00    -0.430 S  
HETATM   16  O   UNL     2     -11.264  15.082  64.560  1.00  0.00    -0.343 OA 
HETATM   17  O   UNL     2     -12.382  13.200  65.647  1.00  0.00    -0.443 OA 
HETATM   18  O   UNL     2     -12.735  13.618  63.249  1.00  0.00    -0.765 OA 
ENDBRANCH  13  14
ENDBRANCH  12  13
ENDBRANCH  11  12
ENDBRANCH  10  11
ENDBRANCH   9  10
ENDBRANCH   8   9
ENDBRANCH   7   8
ENDBRANCH   6   7
ENDBRANCH   5   6
ENDBRANCH   4   5
ENDBRANCH   3   4
TORSDOF 11
ENDMDL
MODEL      298
REMARK 921   NORMALIZED FREE ENERGY PREDICTED BY IDOCK:   -2.89 KCAL/MOL
REMARK 922        TOTAL FREE ENERGY PREDICTED BY IDOCK:   -6.18 KCAL/MOL
REMARK 923 INTER-LIGAND FREE ENERGY PREDICTED BY IDOCK:   -4.59 KCAL/MOL
REMARK 924 INTRA-LIGAND FREE ENERGY PREDICTED BY IDOCK:   -1.59 KCAL/MOL
REMARK 927      BINDING AFFINITY PREDICTED BY RF-SCORE:    0.00 PKD
ROOT
HETATM    1 NA   UNL     1     -12.497  13.025  68.754  1.00  0.00    -0.298 Na 
HETATM    2  C   UNL     2      -6.982   9.095  68.935  1.00  0.00    -0.064 C  
HETATM    3  C   UNL     2      -7.989  10.163  69.334  1.00  0.00    -0.155 C  
ENDROOT
BRANCH   3   4
HETATM    4  C   UNL     2      -9.106   9.561  70.181  1.00  0.00    -0.276 C  
BRANCH   4   5
HETATM    5  C   UNL     2     -10.470  10.169  69.845  1.00  0.00    -0.322 C  
BRANCH   5   6
HETATM    6  C   UNL     2     -11.555   9.799  70.865  1.00  0.00    -0.441 C  
BRANCH   6   7
HETATM    7  C   UNL     2     -11.020   8.886  71.968  1.00  0.00    -0.412 C  
BRANCH   7   8
HETATM    8  C   UNL     2     -11.894   7.655  72.200  1.00  0.00    -0.352 C  
BRANCH   8   9
HETATM    9  C   UNL     2     -11.992   6.777  70.944  1.00  0.00    -0.437 C  
BRANCH   9  10
HETATM   10  C   UNL     2     -10.786   5.861  70.700  1.00  0.00    -0.353 C  
BRANCH  10  11
HETATM   11  C   UNL     2     -10.368   5.808  69.228  1.00  0.00    -0.326 C  
BRANCH  11  12
HETATM   12  C   UNL     2     -11.272   6.634  68.305  1.00  0.00    -0.208 C  
BRANCH  12  13
HETATM   13  C   UNL     2     -10.541   7.249  67.108  1.00  0.00    -0.346 C  
BRANCH  13  14
HETATM   14  O   UNL     2      -9.154   6.988  67.235  1.00  0.00    -0.123 OA 
HETATM   15  S   UNL     2      -8.337   6.528  65.906  1.00  0.00    -0.144 S  
HETATM   16  O   UNL     2      -6.957   6.418  66.389  1.00  0.00    -0.063 OA 
HETATM   17  O   UNL     2      -8.535   7.625  64.965  1.00  0.00    -0.113 OA 
HETATM   18  O   UNL     2      -8.946   5.266  65.527  1.00  0.00    -0.157 OA 
ENDBRANCH  13  14
ENDBRANCH  12  13
ENDBRANCH  11  12
ENDBRANCH  10  11
ENDBRANCH   9  10
ENDBRANCH   8   9
ENDBRANCH   7   8
ENDBRANCH   6   7
ENDBRANCH   5   6
ENDBRANCH   4   5
ENDBRANCH   3   4
TORSDOF 11
ENDMDL
MODEL      299
REMARK 921   NORMALIZED FREE ENERGY PREDICTED BY IDOCK:   -2.89 KCAL/MOL
REMARK 922        TOTAL FREE ENERGY PREDICTED BY IDOCK:   -6.18 KCAL/MOL
REMARK 923 INTER-LIGAND FREE ENERGY PREDICTED BY IDOCK:   -5.47 KCAL/MOL
REMARK 924 INTRA-LIGAND FREE ENERGY PREDICTED BY IDOCK:   -0.70 KCAL/MOL
REMARK 927      BINDING AFFINITY PREDICTED BY RF-SCORE:    0.00 PKD
ROOT
HETATM    1 NA   UNL     1      -9.676   3.484  67.744  1.00  0.00    -0.153 Na 
HETATM    2  C   UNL     2     -11.745   8.581  71.698  1.00  0.00    -0.369 C  
HETATM    3  C   UNL     2     -10.965   7.362  71.230  1.00  0.00    -0.263 C  
ENDROOT
BRANCH   3   4
HETATM    4  C   UNL     2      -9.756   7.782  70.400  1.00  0.00    -0.179 C  
BRANCH   4   5
HETATM    5  C   UNL     2      -9.498   6.822  69.236  1.00  0.00    -0.142 C  
BRANCH   5   6
HETATM    6  C   UNL     2      -8.848   7.509  68.028  1.00  0.00    -0.127 C  
BRANCH   6   7
HETATM    7  C   UNL     2      -9.352   8.940  67.841  1.00  0.00    -0.155 C  
BRANCH   7   8
HETATM    8  C   UNL     2      -9.922   9.193  66.447  1.00  0.00    -0.358 C  
BRANCH   8   9
HETATM    9  C   UNL     2     -10.006  10.693  66.126  1.00  0.00    -0.283 C  
BRANCH   9  10
HETATM   10  C   UNL     2      -9.192  11.600  67.058  1.00  0.00    -0.185 C  
BRANCH  10  11
HETATM   11  C   UNL     2      -9.834  12.975  67.259  1.00  0.00    -0.227 C  
BRANCH  11  12
HETATM   12  C   UNL     2     -11.337  12.912  67.555  1.00  0.00    -0.354 C  
BRANCH  12  13
HETATM   13  C   UNL     2     -12.204  13.632  66.518  1.00  0.00    -0.404 C  
BRANCH  13  14
HETATM   14  O   UNL     2     -11.624  14.893  66.233  1.00  0.00    -0.328 OA 
HETATM   15  S   UNL     2     -11.329  15.266  64.677  1.00  0.00    -0.294 S  
HETATM   16  O   UNL     2     -10.807  16.633  64.758  1.00  0.00    -0.732 OA 
HETATM   17  O   UNL     2     -12.634  15.182  64.033  1.00  0.00    -0.791 OA 
HETATM   18  O   UNL     2     -10.358  14.275  64.247  1.00  0.00    -0.134 OA 
ENDBRANCH  13  14
ENDBRANCH  12  13
ENDBRANCH  11  12
ENDBRANCH  10  11
ENDBRANCH   9  10
ENDBRANCH   8   9
ENDBRANCH   7   8
ENDBRANCH   6   7
ENDBRANCH   5   6
ENDBRANCH   4   5
ENDBRANCH   3   4
TORSDOF 11
ENDMDL
MODEL      300
REMARK 921   NORMALIZED FREE ENERGY PREDICTED BY IDOCK:   -2.88 KCAL/MOL
REMARK 922        TOTAL FREE ENERGY PREDICTED BY IDOCK:   -6.17 KCAL/MOL
REMARK 923 INTER-LIGAND FREE ENERGY PREDICTED BY IDOCK:   -5.55 KCAL/MOL
REMARK 924 INTRA-LIGAND FREE ENERGY PREDICTED BY IDOCK:   -0.62 KCAL/MOL
REMARK 927      BINDING AFFINITY PREDICTED BY RF-SCORE:    0.00 PKD
ROOT
HETATM    1 NA   UNL     1     -11.379  16.242  63.435  1.00  0.00    -0.685 Na 
HETATM    2  C   UNL     2      -7.465  20.240  67.255  1.00  0.00    -0.338 C  
HETATM    3  C   UNL     2      -8.365  19.791  66.114  1.00  0.00    -0.368 C  
ENDROOT
BRANCH   3   4
HETATM    4  C   UNL     2      -9.835  19.962  66.486  1.00  0.00    -0.567 C  
BRANCH   4   5
HETATM    5  C   UNL     2     -10.218  19.120  67.706  1.00  0.00    -0.492 C  
BRANCH   5   6
HETATM    6  C   UNL     2     -10.833  17.766  67.327  1.00  0.00    -0.164 C  
BRANCH   6   7
HETATM    7  C   UNL     2      -9.766  16.726  66.988  1.00  0.00    -0.254 C  
BRANCH   7   8
HETATM    8  C   UNL     2      -9.936  15.422  67.763  1.00  0.00    -0.225 C  
BRANCH   8   9
HETATM    9  C   UNL     2     -11.139  14.609  67.260  1.00  0.00    -0.331 C  
BRANCH   9  10
HETATM   10  C   UNL     2     -11.098  13.114  67.604  1.00  0.00    -0.295 C  
BRANCH  10  11
HETATM   11  C   UNL     2     -11.751  12.239  66.530  1.00  0.00    -0.420 C  
BRANCH  11  12
HETATM   12  C   UNL     2     -11.343  12.618  65.101  1.00  0.00    -0.343 C  
BRANCH  12  13
HETATM   13  C   UNL     2     -10.646  11.489  64.336  1.00  0.00    -0.334 C  
BRANCH  13  14
HETATM   14  O   UNL     2      -9.256  11.544  64.604  1.00  0.00    -0.094 OA 
HETATM   15  S   UNL     2      -8.475  10.144  64.887  1.00  0.00    -0.180 S  
HETATM   16  O   UNL     2      -7.082  10.571  65.051  1.00  0.00    -0.099 OA 
HETATM   17  O   UNL     2      -8.701   9.357  63.680  1.00  0.00    -0.213 OA 
HETATM   18  O   UNL     2      -9.093   9.625  66.094  1.00  0.00    -0.147 OA 
ENDBRANCH  13  14
ENDBRANCH  12  13
ENDBRANCH  11  12
ENDBRANCH  10  11
ENDBRANCH   9  10
ENDBRANCH   8   9
ENDBRANCH   7   8
ENDBRANCH   6   7
ENDBRANCH   5   6
ENDBRANCH   4   5
ENDBRANCH   3   4
TORSDOF 11
ENDMDL
MODEL      301
REMARK 921   NORMALIZED FREE ENERGY PREDICTED BY IDOCK:   -2.88 KCAL/MOL
REMARK 922        TOTAL FREE ENERGY PREDICTED BY IDOCK:   -6.16 KCAL/MOL
REMARK 923 INTER-LIGAND FREE ENERGY PREDICTED BY IDOCK:   -4.50 KCAL/MOL
REMARK 924 INTRA-LIGAND FREE ENERGY PREDICTED BY IDOCK:   -1.66 KCAL/MOL
REMARK 927      BINDING AFFINITY PREDICTED BY RF-SCORE:    0.00 PKD
ROOT
HETATM    1 NA   UNL     1     -12.835  12.233  69.442  1.00  0.00    -0.099 Na 
HETATM    2  C   UNL     2      -7.119   8.602  69.627  1.00  0.00    -0.055 C  
HETATM    3  C   UNL     2      -8.148   9.665  69.979  1.00  0.00    -0.190 C  
ENDROOT
BRANCH   3   4
HETATM    4  C   UNL     2      -9.163   9.122  70.981  1.00  0.00    -0.321 C  
BRANCH   4   5
HETATM    5  C   UNL     2     -10.542   9.760  70.801  1.00  0.00    -0.371 C  
BRANCH   5   6
HETATM    6  C   UNL     2     -11.644   9.029  71.580  1.00  0.00    -0.426 C  
BRANCH   6   7
HETATM    7  C   UNL     2     -11.122   7.765  72.262  1.00  0.00    -0.355 C  
BRANCH   7   8
HETATM    8  C   UNL     2     -11.813   6.494  71.772  1.00  0.00    -0.384 C  
BRANCH   8   9
HETATM    9  C   UNL     2     -11.602   6.271  70.267  1.00  0.00    -0.379 C  
BRANCH   9  10
HETATM   10  C   UNL     2     -10.218   5.731  69.881  1.00  0.00    -0.302 C  
BRANCH  10  11
HETATM   11  C   UNL     2      -9.685   6.337  68.580  1.00  0.00    -0.137 C  
BRANCH  11  12
HETATM   12  C   UNL     2     -10.734   7.145  67.806  1.00  0.00    -0.282 C  
BRANCH  12  13
HETATM   13  C   UNL     2     -10.307   8.583  67.500  1.00  0.00    -0.267 C  
BRANCH  13  14
HETATM   14  O   UNL     2     -10.160   8.729  66.099  1.00  0.00    -0.269 OA 
HETATM   15  S   UNL     2      -8.864   9.542  65.546  1.00  0.00    -0.181 S  
HETATM   16  O   UNL     2      -9.004   9.435  64.090  1.00  0.00    -0.214 OA 
HETATM   17  O   UNL     2      -7.723   8.801  66.073  1.00  0.00    -0.094 OA 
HETATM   18  O   UNL     2      -9.030  10.885  66.070  1.00  0.00    -0.174 OA 
ENDBRANCH  13  14
ENDBRANCH  12  13
ENDBRANCH  11  12
ENDBRANCH  10  11
ENDBRANCH   9  10
ENDBRANCH   8   9
ENDBRANCH   7   8
ENDBRANCH   6   7
ENDBRANCH   5   6
ENDBRANCH   4   5
ENDBRANCH   3   4
TORSDOF 11
ENDMDL
MODEL      302
REMARK 921   NORMALIZED FREE ENERGY PREDICTED BY IDOCK:   -2.88 KCAL/MOL
REMARK 922        TOTAL FREE ENERGY PREDICTED BY IDOCK:   -6.16 KCAL/MOL
REMARK 923 INTER-LIGAND FREE ENERGY PREDICTED BY IDOCK:   -5.59 KCAL/MOL
REMARK 924 INTRA-LIGAND FREE ENERGY PREDICTED BY IDOCK:   -0.57 KCAL/MOL
REMARK 927      BINDING AFFINITY PREDICTED BY RF-SCORE:    0.00 PKD
ROOT
HETATM    1 NA   UNL     1     -13.672  13.076  72.429  1.00  0.00    -0.373 Na 
HETATM    2  C   UNL     2     -12.072   6.511  71.942  1.00  0.00    -0.388 C  
HETATM    3  C   UNL     2     -12.333   7.952  71.531  1.00  0.00    -0.340 C  
ENDROOT
BRANCH   3   4
HETATM    4  C   UNL     2     -11.077   8.800  71.711  1.00  0.00    -0.417 C  
BRANCH   4   5
HETATM    5  C   UNL     2     -11.182  10.141  70.981  1.00  0.00    -0.322 C  
BRANCH   5   6
HETATM    6  C   UNL     2     -10.941  10.019  69.471  1.00  0.00    -0.289 C  
BRANCH   6   7
HETATM    7  C   UNL     2     -11.633  11.133  68.687  1.00  0.00    -0.383 C  
BRANCH   7   8
HETATM    8  C   UNL     2     -11.244  11.154  67.210  1.00  0.00    -0.347 C  
BRANCH   8   9
HETATM    9  C   UNL     2     -11.285  12.574  66.626  1.00  0.00    -0.357 C  
BRANCH   9  10
HETATM   10  C   UNL     2     -11.752  13.661  67.602  1.00  0.00    -0.398 C  
BRANCH  10  11
HETATM   11  C   UNL     2     -11.373  15.073  67.146  1.00  0.00    -0.323 C  
BRANCH  11  12
HETATM   12  C   UNL     2     -11.258  16.078  68.299  1.00  0.00    -0.350 C  
BRANCH  12  13
HETATM   13  C   UNL     2     -10.071  17.036  68.169  1.00  0.00    -0.308 C  
BRANCH  13  14
HETATM   14  O   UNL     2      -8.950  16.468  68.824  1.00  0.00    -0.232 OA 
HETATM   15  S   UNL     2      -7.482  16.685  68.156  1.00  0.00    -0.175 S  
HETATM   16  O   UNL     2      -6.584  16.037  69.117  1.00  0.00    -0.141 OA 
HETATM   17  O   UNL     2      -7.323  18.133  68.102  1.00  0.00    -0.236 OA 
HETATM   18  O   UNL     2      -7.570  16.019  66.869  1.00  0.00    -0.212 OA 
ENDBRANCH  13  14
ENDBRANCH  12  13
ENDBRANCH  11  12
ENDBRANCH  10  11
ENDBRANCH   9  10
ENDBRANCH   8   9
ENDBRANCH   7   8
ENDBRANCH   6   7
ENDBRANCH   5   6
ENDBRANCH   4   5
ENDBRANCH   3   4
TORSDOF 11
ENDMDL
MODEL      303
REMARK 921   NORMALIZED FREE ENERGY PREDICTED BY IDOCK:   -2.87 KCAL/MOL
REMARK 922        TOTAL FREE ENERGY PREDICTED BY IDOCK:   -6.15 KCAL/MOL
REMARK 923 INTER-LIGAND FREE ENERGY PREDICTED BY IDOCK:   -5.50 KCAL/MOL
REMARK 924 INTRA-LIGAND FREE ENERGY PREDICTED BY IDOCK:   -0.65 KCAL/MOL
REMARK 927      BINDING AFFINITY PREDICTED BY RF-SCORE:    0.00 PKD
ROOT
HETATM    1 NA   UNL     1     -10.088   2.328  67.298  1.00  0.00    -0.401 Na 
HETATM    2  C   UNL     2     -10.874   4.059  73.801  1.00  0.00    -0.333 C  
HETATM    3  C   UNL     2     -10.193   3.770  72.472  1.00  0.00    -0.232 C  
ENDROOT
BRANCH   3   4
HETATM    4  C   UNL     2     -10.202   5.008  71.580  1.00  0.00    -0.275 C  
BRANCH   4   5
HETATM    5  C   UNL     2      -8.905   5.148  70.780  1.00  0.00    -0.154 C  
BRANCH   5   6
HETATM    6  C   UNL     2      -8.966   4.444  69.418  1.00  0.00    -0.148 C  
BRANCH   6   7
HETATM    7  C   UNL     2      -9.061   5.439  68.262  1.00  0.00    -0.116 C  
BRANCH   7   8
HETATM    8  C   UNL     2     -10.502   5.770  67.877  1.00  0.00    -0.290 C  
BRANCH   8   9
HETATM    9  C   UNL     2     -10.688   7.267  67.589  1.00  0.00    -0.294 C  
BRANCH   9  10
HETATM   10  C   UNL     2      -9.472   7.962  66.964  1.00  0.00    -0.222 C  
BRANCH  10  11
HETATM   11  C   UNL     2      -9.678   9.467  66.776  1.00  0.00    -0.254 C  
BRANCH  11  12
HETATM   12  C   UNL     2     -10.067   9.858  65.345  1.00  0.00    -0.270 C  
BRANCH  12  13
HETATM   13  C   UNL     2      -9.809  11.331  65.013  1.00  0.00    -0.261 C  
BRANCH  13  14
HETATM   14  O   UNL     2     -10.971  11.875  64.411  1.00  0.00    -0.304 OA 
HETATM   15  S   UNL     2     -11.818  12.984  65.248  1.00  0.00    -0.403 S  
HETATM   16  O   UNL     2     -12.882  13.361  64.311  1.00  0.00    -0.637 OA 
HETATM   17  O   UNL     2     -10.861  14.055  65.497  1.00  0.00    -0.292 OA 
HETATM   18  O   UNL     2     -12.278  12.272  66.427  1.00  0.00    -0.613 OA 
ENDBRANCH  13  14
ENDBRANCH  12  13
ENDBRANCH  11  12
ENDBRANCH  10  11
ENDBRANCH   9  10
ENDBRANCH   8   9
ENDBRANCH   7   8
ENDBRANCH   6   7
ENDBRANCH   5   6
ENDBRANCH   4   5
ENDBRANCH   3   4
TORSDOF 11
ENDMDL
MODEL      304
REMARK 921   NORMALIZED FREE ENERGY PREDICTED BY IDOCK:   -2.86 KCAL/MOL
REMARK 922        TOTAL FREE ENERGY PREDICTED BY IDOCK:   -6.14 KCAL/MOL
REMARK 923 INTER-LIGAND FREE ENERGY PREDICTED BY IDOCK:   -5.03 KCAL/MOL
REMARK 924 INTRA-LIGAND FREE ENERGY PREDICTED BY IDOCK:   -1.11 KCAL/MOL
REMARK 927      BINDING AFFINITY PREDICTED BY RF-SCORE:    0.00 PKD
ROOT
HETATM    1 NA   UNL     1     -10.803  20.202  70.968  1.00  0.00    -0.832 Na 
HETATM    2  C   UNL     2      -8.171  14.591  68.231  1.00  0.00    -0.149 C  
HETATM    3  C   UNL     2      -9.013  15.482  69.132  1.00  0.00    -0.256 C  
ENDROOT
BRANCH   3   4
HETATM    4  C   UNL     2     -10.330  15.845  68.453  1.00  0.00    -0.240 C  
BRANCH   4   5
HETATM    5  C   UNL     2     -11.540  15.468  69.311  1.00  0.00    -0.369 C  
BRANCH   5   6
HETATM    6  C   UNL     2     -12.132  14.102  68.941  1.00  0.00    -0.339 C  
BRANCH   6   7
HETATM    7  C   UNL     2     -12.033  13.820  67.443  1.00  0.00    -0.423 C  
BRANCH   7   8
HETATM    8  C   UNL     2     -11.584  12.394  67.132  1.00  0.00    -0.435 C  
BRANCH   8   9
HETATM    9  C   UNL     2     -11.249  11.607  68.408  1.00  0.00    -0.307 C  
BRANCH   9  10
HETATM   10  C   UNL     2      -9.758  11.308  68.611  1.00  0.00    -0.200 C  
BRANCH  10  11
HETATM   11  C   UNL     2      -9.480   9.827  68.882  1.00  0.00    -0.161 C  
BRANCH  11  12
HETATM   12  C   UNL     2      -9.645   9.433  70.355  1.00  0.00    -0.319 C  
BRANCH  12  13
HETATM   13  C   UNL     2      -9.778   7.925  70.583  1.00  0.00    -0.173 C  
BRANCH  13  14
HETATM   14  O   UNL     2      -9.202   7.243  69.482  1.00  0.00    -0.149 OA 
HETATM   15  S   UNL     2     -10.100   6.117  68.725  1.00  0.00    -0.185 S  
HETATM   16  O   UNL     2      -9.229   5.684  67.627  1.00  0.00    -0.107 OA 
HETATM   17  O   UNL     2     -11.282   6.842  68.274  1.00  0.00    -0.115 OA 
HETATM   18  O   UNL     2     -10.339   5.105  69.738  1.00  0.00    -0.271 OA 
ENDBRANCH  13  14
ENDBRANCH  12  13
ENDBRANCH  11  12
ENDBRANCH  10  11
ENDBRANCH   9  10
ENDBRANCH   8   9
ENDBRANCH   7   8
ENDBRANCH   6   7
ENDBRANCH   5   6
ENDBRANCH   4   5
ENDBRANCH   3   4
TORSDOF 11
ENDMDL
MODEL      305
REMARK 921   NORMALIZED FREE ENERGY PREDICTED BY IDOCK:   -2.86 KCAL/MOL
REMARK 922        TOTAL FREE ENERGY PREDICTED BY IDOCK:   -6.14 KCAL/MOL
REMARK 923 INTER-LIGAND FREE ENERGY PREDICTED BY IDOCK:   -5.05 KCAL/MOL
REMARK 924 INTRA-LIGAND FREE ENERGY PREDICTED BY IDOCK:   -1.08 KCAL/MOL
REMARK 927      BINDING AFFINITY PREDICTED BY RF-SCORE:    0.00 PKD
ROOT
HETATM    1 NA   UNL     1     -12.337  13.334  69.472  1.00  0.00    -0.265 Na 
HETATM    2  C   UNL     2      -8.162  10.333  65.061  1.00  0.00    -0.154 C  
HETATM    3  C   UNL     2      -8.896  10.627  66.360  1.00  0.00    -0.164 C  
ENDROOT
BRANCH   3   4
HETATM    4  C   UNL     2     -10.248   9.920  66.388  1.00  0.00    -0.292 C  
BRANCH   4   5
HETATM    5  C   UNL     2     -10.656   9.518  67.807  1.00  0.00    -0.318 C  
BRANCH   5   6
HETATM    6  C   UNL     2     -10.827  10.722  68.742  1.00  0.00    -0.262 C  
BRANCH   6   7
HETATM    7  C   UNL     2     -10.825  10.311  70.214  1.00  0.00    -0.349 C  
BRANCH   7   8
HETATM    8  C   UNL     2     -12.169  10.544  70.900  1.00  0.00    -0.490 C  
BRANCH   8   9
HETATM    9  C   UNL     2     -12.778   9.236  71.427  1.00  0.00    -0.402 C  
BRANCH   9  10
HETATM   10  C   UNL     2     -11.825   8.370  72.262  1.00  0.00    -0.456 C  
BRANCH  10  11
HETATM   11  C   UNL     2     -11.881   6.888  71.881  1.00  0.00    -0.351 C  
BRANCH  11  12
HETATM   12  C   UNL     2     -11.756   6.639  70.373  1.00  0.00    -0.446 C  
BRANCH  12  13
HETATM   13  C   UNL     2     -10.320   6.397  69.901  1.00  0.00    -0.196 C  
BRANCH  13  14
HETATM   14  O   UNL     2     -10.197   5.050  69.479  1.00  0.00    -0.234 OA 
HETATM   15  S   UNL     2      -9.622   4.766  67.983  1.00  0.00    -0.147 S  
HETATM   16  O   UNL     2      -9.571   3.302  67.923  1.00  0.00    -0.186 OA 
HETATM   17  O   UNL     2      -8.305   5.391  67.980  1.00  0.00    -0.099 OA 
HETATM   18  O   UNL     2     -10.602   5.372  67.100  1.00  0.00    -0.242 OA 
ENDBRANCH  13  14
ENDBRANCH  12  13
ENDBRANCH  11  12
ENDBRANCH  10  11
ENDBRANCH   9  10
ENDBRANCH   8   9
ENDBRANCH   7   8
ENDBRANCH   6   7
ENDBRANCH   5   6
ENDBRANCH   4   5
ENDBRANCH   3   4
TORSDOF 11
ENDMDL
MODEL      306
REMARK 921   NORMALIZED FREE ENERGY PREDICTED BY IDOCK:   -2.86 KCAL/MOL
REMARK 922        TOTAL FREE ENERGY PREDICTED BY IDOCK:   -6.14 KCAL/MOL
REMARK 923 INTER-LIGAND FREE ENERGY PREDICTED BY IDOCK:   -5.28 KCAL/MOL
REMARK 924 INTRA-LIGAND FREE ENERGY PREDICTED BY IDOCK:   -0.85 KCAL/MOL
REMARK 927      BINDING AFFINITY PREDICTED BY RF-SCORE:    0.00 PKD
ROOT
HETATM    1 NA   UNL     1     -10.457  17.091  65.249  1.00  0.00    -0.307 Na 
HETATM    2  C   UNL     2     -11.849  14.878  71.498  1.00  0.00    -0.419 C  
HETATM    3  C   UNL     2     -12.059  15.462  70.110  1.00  0.00    -0.400 C  
ENDROOT
BRANCH   3   4
HETATM    4  C   UNL     2     -12.277  14.352  69.085  1.00  0.00    -0.255 C  
BRANCH   4   5
HETATM    5  C   UNL     2     -11.419  13.120  69.384  1.00  0.00    -0.321 C  
BRANCH   5   6
HETATM    6  C   UNL     2     -11.642  11.980  68.382  1.00  0.00    -0.368 C  
BRANCH   6   7
HETATM    7  C   UNL     2     -11.667  12.481  66.938  1.00  0.00    -0.447 C  
BRANCH   7   8
HETATM    8  C   UNL     2     -10.271  12.726  66.368  1.00  0.00    -0.263 C  
BRANCH   8   9
HETATM    9  C   UNL     2      -9.452  11.430  66.280  1.00  0.00    -0.229 C  
BRANCH   9  10
HETATM   10  C   UNL     2     -10.263  10.176  65.929  1.00  0.00    -0.281 C  
BRANCH  10  11
HETATM   11  C   UNL     2      -9.629   8.889  66.465  1.00  0.00    -0.297 C  
BRANCH  11  12
HETATM   12  C   UNL     2      -9.370   8.917  67.976  1.00  0.00    -0.153 C  
BRANCH  12  13
HETATM   13  C   UNL     2     -10.379   8.106  68.793  1.00  0.00    -0.202 C  
BRANCH  13  14
HETATM   14  O   UNL     2     -11.183   8.999  69.544  1.00  0.00    -0.098 OA 
HETATM   15  S   UNL     2     -11.109   8.915  71.168  1.00  0.00    -0.313 S  
HETATM   16  O   UNL     2     -11.996  10.001  71.595  1.00  0.00    -0.376 OA 
HETATM   17  O   UNL     2      -9.705   9.158  71.476  1.00  0.00    -0.298 OA 
HETATM   18  O   UNL     2     -11.593   7.582  71.482  1.00  0.00    -0.258 OA 
ENDBRANCH  13  14
ENDBRANCH  12  13
ENDBRANCH  11  12
ENDBRANCH  10  11
ENDBRANCH   9  10
ENDBRANCH   8   9
ENDBRANCH   7   8
ENDBRANCH   6   7
ENDBRANCH   5   6
ENDBRANCH   4   5
ENDBRANCH   3   4
TORSDOF 11
ENDMDL
MODEL      307
REMARK 921   NORMALIZED FREE ENERGY PREDICTED BY IDOCK:   -2.85 KCAL/MOL
REMARK 922        TOTAL FREE ENERGY PREDICTED BY IDOCK:   -6.12 KCAL/MOL
REMARK 923 INTER-LIGAND FREE ENERGY PREDICTED BY IDOCK:   -5.18 KCAL/MOL
REMARK 924 INTRA-LIGAND FREE ENERGY PREDICTED BY IDOCK:   -0.93 KCAL/MOL
REMARK 927      BINDING AFFINITY PREDICTED BY RF-SCORE:    0.00 PKD
ROOT
HETATM    1 NA   UNL     1      -6.557  14.073  73.545  1.00  0.00    -0.155 Na 
HETATM    2  C   UNL     2      -8.200  14.314  66.977  1.00  0.00    -0.116 C  
HETATM    3  C   UNL     2      -8.307  14.027  68.467  1.00  0.00    -0.143 C  
ENDROOT
BRANCH   3   4
HETATM    4  C   UNL     2      -8.878  15.232  69.209  1.00  0.00    -0.242 C  
BRANCH   4   5
HETATM    5  C   UNL     2      -9.824  16.051  68.328  1.00  0.00    -0.219 C  
BRANCH   5   6
HETATM    6  C   UNL     2     -11.299  15.679  68.529  1.00  0.00    -0.361 C  
BRANCH   6   7
HETATM    7  C   UNL     2     -11.480  14.191  68.829  1.00  0.00    -0.333 C  
BRANCH   7   8
HETATM    8  C   UNL     2     -11.767  13.361  67.580  1.00  0.00    -0.406 C  
BRANCH   8   9
HETATM    9  C   UNL     2     -12.102  14.245  66.369  1.00  0.00    -0.442 C  
BRANCH   9  10
HETATM   10  C   UNL     2     -11.237  13.994  65.127  1.00  0.00    -0.329 C  
BRANCH  10  11
HETATM   11  C   UNL     2     -11.934  13.115  64.084  1.00  0.00    -0.499 C  
BRANCH  11  12
HETATM   12  C   UNL     2     -11.183  11.813  63.782  1.00  0.00    -0.518 C  
BRANCH  12  13
HETATM   13  C   UNL     2     -10.136  11.441  64.836  1.00  0.00    -0.274 C  
BRANCH  13  14
HETATM   14  O   UNL     2     -10.100  10.031  64.969  1.00  0.00    -0.323 OA 
HETATM   15  S   UNL     2      -9.872   9.408  66.455  1.00  0.00    -0.282 S  
HETATM   16  O   UNL     2      -9.959   7.963  66.223  1.00  0.00    -0.166 OA 
HETATM   17  O   UNL     2     -10.981   9.936  67.240  1.00  0.00    -0.251 OA 
HETATM   18  O   UNL     2      -8.554   9.878  66.844  1.00  0.00    -0.127 OA 
ENDBRANCH  13  14
ENDBRANCH  12  13
ENDBRANCH  11  12
ENDBRANCH  10  11
ENDBRANCH   9  10
ENDBRANCH   8   9
ENDBRANCH   7   8
ENDBRANCH   6   7
ENDBRANCH   5   6
ENDBRANCH   4   5
ENDBRANCH   3   4
TORSDOF 11
ENDMDL
MODEL      308
REMARK 921   NORMALIZED FREE ENERGY PREDICTED BY IDOCK:   -2.85 KCAL/MOL
REMARK 922        TOTAL FREE ENERGY PREDICTED BY IDOCK:   -6.12 KCAL/MOL
REMARK 923 INTER-LIGAND FREE ENERGY PREDICTED BY IDOCK:   -5.31 KCAL/MOL
REMARK 924 INTRA-LIGAND FREE ENERGY PREDICTED BY IDOCK:   -0.81 KCAL/MOL
REMARK 927      BINDING AFFINITY PREDICTED BY RF-SCORE:    0.00 PKD
ROOT
HETATM    1 NA   UNL     1      -8.947   9.877  62.728  1.00  0.00    -0.150 Na 
HETATM    2  C   UNL     2     -12.236  13.544  67.379  1.00  0.00    -0.278 C  
HETATM    3  C   UNL     2     -11.287  12.518  66.778  1.00  0.00    -0.390 C  
ENDROOT
BRANCH   3   4
HETATM    4  C   UNL     2      -9.944  13.159  66.438  1.00  0.00    -0.282 C  
BRANCH   4   5
HETATM    5  C   UNL     2      -9.915  14.648  66.789  1.00  0.00    -0.265 C  
BRANCH   5   6
HETATM    6  C   UNL     2      -8.555  15.301  66.509  1.00  0.00    -0.264 C  
BRANCH   6   7
HETATM    7  C   UNL     2      -7.443  14.702  67.369  1.00  0.00    -0.212 C  
BRANCH   7   8
HETATM    8  C   UNL     2      -7.337  15.353  68.746  1.00  0.00    -0.135 C  
BRANCH   8   9
HETATM    9  C   UNL     2      -6.035  16.152  68.904  1.00  0.00    -0.123 C  
BRANCH   9  10
HETATM   10  C   UNL     2      -6.046  17.541  68.253  1.00  0.00    -0.167 C  
BRANCH  10  11
HETATM   11  C   UNL     2      -6.735  18.599  69.119  1.00  0.00    -0.291 C  
BRANCH  11  12
HETATM   12  C   UNL     2      -8.167  18.916  68.674  1.00  0.00    -0.380 C  
BRANCH  12  13
HETATM   13  C   UNL     2      -8.255  19.587  67.300  1.00  0.00    -0.288 C  
BRANCH  13  14
HETATM   14  O   UNL     2      -8.835  18.676  66.382  1.00  0.00    -0.300 OA 
HETATM   15  S   UNL     2     -10.451  18.705  66.192  1.00  0.00    -0.356 S  
HETATM   16  O   UNL     2     -10.678  17.704  65.145  1.00  0.00    -0.658 OA 
HETATM   17  O   UNL     2     -10.738  20.068  65.762  1.00  0.00    -0.432 OA 
HETATM   18  O   UNL     2     -10.973  18.341  67.497  1.00  0.00    -0.335 OA 
ENDBRANCH  13  14
ENDBRANCH  12  13
ENDBRANCH  11  12
ENDBRANCH  10  11
ENDBRANCH   9  10
ENDBRANCH   8   9
ENDBRANCH   7   8
ENDBRANCH   6   7
ENDBRANCH   5   6
ENDBRANCH   4   5
ENDBRANCH   3   4
TORSDOF 11
ENDMDL
MODEL      309
REMARK 921   NORMALIZED FREE ENERGY PREDICTED BY IDOCK:   -2.84 KCAL/MOL
REMARK 922        TOTAL FREE ENERGY PREDICTED BY IDOCK:   -6.10 KCAL/MOL
REMARK 923 INTER-LIGAND FREE ENERGY PREDICTED BY IDOCK:   -5.07 KCAL/MOL
REMARK 924 INTRA-LIGAND FREE ENERGY PREDICTED BY IDOCK:   -1.02 KCAL/MOL
REMARK 927      BINDING AFFINITY PREDICTED BY RF-SCORE:    0.00 PKD
ROOT
HETATM    1 NA   UNL     1     -12.065  12.966  64.606  1.00  0.00    -0.321 Na 
HETATM    2  C   UNL     2      -9.853  17.608  69.017  1.00  0.00    -0.231 C  
HETATM    3  C   UNL     2     -10.796  16.842  68.102  1.00  0.00    -0.351 C  
ENDROOT
BRANCH   3   4
HETATM    4  C   UNL     2     -11.412  15.654  68.835  1.00  0.00    -0.367 C  
BRANCH   4   5
HETATM    5  C   UNL     2     -10.985  15.603  70.304  1.00  0.00    -0.363 C  
BRANCH   5   6
HETATM    6  C   UNL     2     -11.832  14.633  71.138  1.00  0.00    -0.378 C  
BRANCH   6   7
HETATM    7  C   UNL     2     -12.475  13.546  70.278  1.00  0.00    -0.309 C  
BRANCH   7   8
HETATM    8  C   UNL     2     -12.353  12.152  70.889  1.00  0.00    -0.370 C  
BRANCH   8   9
HETATM    9  C   UNL     2     -11.709  11.153  69.917  1.00  0.00    -0.433 C  
BRANCH   9  10
HETATM   10  C   UNL     2     -11.018   9.955  70.584  1.00  0.00    -0.405 C  
BRANCH  10  11
HETATM   11  C   UNL     2     -10.100   9.190  69.627  1.00  0.00    -0.206 C  
BRANCH  11  12
HETATM   12  C   UNL     2     -10.660   9.072  68.204  1.00  0.00    -0.225 C  
BRANCH  12  13
HETATM   13  C   UNL     2      -9.589   9.122  67.111  1.00  0.00    -0.164 C  
BRANCH  13  14
HETATM   14  O   UNL     2     -10.025   9.994  66.083  1.00  0.00    -0.229 OA 
HETATM   15  S   UNL     2      -9.141  11.328  65.784  1.00  0.00    -0.176 S  
HETATM   16  O   UNL     2      -9.836  11.935  64.644  1.00  0.00    -0.245 OA 
HETATM   17  O   UNL     2      -7.818  10.815  65.450  1.00  0.00    -0.111 OA 
HETATM   18  O   UNL     2      -9.220  12.094  67.015  1.00  0.00    -0.189 OA 
ENDBRANCH  13  14
ENDBRANCH  12  13
ENDBRANCH  11  12
ENDBRANCH  10  11
ENDBRANCH   9  10
ENDBRANCH   8   9
ENDBRANCH   7   8
ENDBRANCH   6   7
ENDBRANCH   5   6
ENDBRANCH   4   5
ENDBRANCH   3   4
TORSDOF 11
ENDMDL
MODEL      310
REMARK 921   NORMALIZED FREE ENERGY PREDICTED BY IDOCK:   -2.83 KCAL/MOL
REMARK 922        TOTAL FREE ENERGY PREDICTED BY IDOCK:   -6.09 KCAL/MOL
REMARK 923 INTER-LIGAND FREE ENERGY PREDICTED BY IDOCK:   -5.41 KCAL/MOL
REMARK 924 INTRA-LIGAND FREE ENERGY PREDICTED BY IDOCK:   -0.68 KCAL/MOL
REMARK 927      BINDING AFFINITY PREDICTED BY RF-SCORE:    0.00 PKD
ROOT
HETATM    1 NA   UNL     1     -12.544   6.678  69.644  1.00  0.00    -0.621 Na 
HETATM    2  C   UNL     2      -5.907   5.886  68.542  1.00  0.00    -0.016 C  
HETATM    3  C   UNL     2      -7.404   5.930  68.276  1.00  0.00    -0.081 C  
ENDROOT
BRANCH   3   4
HETATM    4  C   UNL     2      -7.845   7.343  67.909  1.00  0.00    -0.118 C  
BRANCH   4   5
HETATM    5  C   UNL     2      -9.267   7.371  67.344  1.00  0.00    -0.146 C  
BRANCH   5   6
HETATM    6  C   UNL     2      -9.902   8.767  67.393  1.00  0.00    -0.250 C  
BRANCH   6   7
HETATM    7  C   UNL     2     -10.305   9.164  68.813  1.00  0.00    -0.235 C  
BRANCH   7   8
HETATM    8  C   UNL     2     -11.401  10.227  68.847  1.00  0.00    -0.230 C  
BRANCH   8   9
HETATM    9  C   UNL     2     -11.221  11.199  70.022  1.00  0.00    -0.261 C  
BRANCH   9  10
HETATM   10  C   UNL     2     -11.695  12.634  69.753  1.00  0.00    -0.354 C  
BRANCH  10  11
HETATM   11  C   UNL     2     -10.974  13.286  68.570  1.00  0.00    -0.291 C  
BRANCH  11  12
HETATM   12  C   UNL     2     -11.838  14.301  67.811  1.00  0.00    -0.414 C  
BRANCH  12  13
HETATM   13  C   UNL     2     -11.504  14.406  66.320  1.00  0.00    -0.359 C  
BRANCH  13  14
HETATM   14  O   UNL     2     -12.551  13.810  65.573  1.00  0.00    -0.482 OA 
HETATM   15  S   UNL     2     -12.178  12.567  64.591  1.00  0.00    -0.448 S  
HETATM   16  O   UNL     2     -13.483  12.173  64.050  1.00  0.00    -0.603 OA 
HETATM   17  O   UNL     2     -11.595  11.569  65.480  1.00  0.00    -0.146 OA 
HETATM   18  O   UNL     2     -11.269  13.140  63.615  1.00  0.00    -0.355 OA 
ENDBRANCH  13  14
ENDBRANCH  12  13
ENDBRANCH  11  12
ENDBRANCH  10  11
ENDBRANCH   9  10
ENDBRANCH   8   9
ENDBRANCH   7   8
ENDBRANCH   6   7
ENDBRANCH   5   6
ENDBRANCH   4   5
ENDBRANCH   3   4
TORSDOF 11
ENDMDL
MODEL      311
REMARK 921   NORMALIZED FREE ENERGY PREDICTED BY IDOCK:   -2.83 KCAL/MOL
REMARK 922        TOTAL FREE ENERGY PREDICTED BY IDOCK:   -6.09 KCAL/MOL
REMARK 923 INTER-LIGAND FREE ENERGY PREDICTED BY IDOCK:   -5.24 KCAL/MOL
REMARK 924 INTRA-LIGAND FREE ENERGY PREDICTED BY IDOCK:   -0.84 KCAL/MOL
REMARK 927      BINDING AFFINITY PREDICTED BY RF-SCORE:    0.00 PKD
ROOT
HETATM    1 NA   UNL     1     -12.020  10.616  63.431  1.00  0.00    -0.469 Na 
HETATM    2  C   UNL     2     -10.014   5.208  66.984  1.00  0.00    -0.222 C  
HETATM    3  C   UNL     2      -9.944   6.518  66.215  1.00  0.00     0.006 C  
ENDROOT
BRANCH   3   4
HETATM    4  C   UNL     2     -10.210   7.702  67.141  1.00  0.00    -0.360 C  
BRANCH   4   5
HETATM    5  C   UNL     2     -10.008   9.041  66.430  1.00  0.00    -0.370 C  
BRANCH   5   6
HETATM    6  C   UNL     2      -8.866   9.870  67.032  1.00  0.00    -0.144 C  
BRANCH   6   7
HETATM    7  C   UNL     2      -9.232  11.349  67.155  1.00  0.00    -0.170 C  
BRANCH   7   8
HETATM    8  C   UNL     2      -9.546  11.768  68.590  1.00  0.00    -0.122 C  
BRANCH   8   9
HETATM    9  C   UNL     2      -9.496  10.579  69.559  1.00  0.00    -0.106 C  
BRANCH   9  10
HETATM   10  C   UNL     2     -10.802  10.308  70.318  1.00  0.00    -0.349 C  
BRANCH  10  11
HETATM   11  C   UNL     2     -11.906  11.313  69.979  1.00  0.00    -0.448 C  
BRANCH  11  12
HETATM   12  C   UNL     2     -12.902  11.537  71.124  1.00  0.00    -0.414 C  
BRANCH  12  13
HETATM   13  C   UNL     2     -12.677  12.839  71.896  1.00  0.00    -0.089 C  
BRANCH  13  14
HETATM   14  O   UNL     2     -12.221  13.834  70.995  1.00  0.00    -0.348 OA 
HETATM   15  S   UNL     2     -12.522  15.391  71.357  1.00  0.00    -0.433 S  
HETATM   16  O   UNL     2     -11.864  16.116  70.266  1.00  0.00    -0.292 OA 
HETATM   17  O   UNL     2     -11.883  15.589  72.652  1.00  0.00    -0.406 OA 
HETATM   18  O   UNL     2     -13.971  15.488  71.356  1.00  0.00    -0.509 OA 
ENDBRANCH  13  14
ENDBRANCH  12  13
ENDBRANCH  11  12
ENDBRANCH  10  11
ENDBRANCH   9  10
ENDBRANCH   8   9
ENDBRANCH   7   8
ENDBRANCH   6   7
ENDBRANCH   5   6
ENDBRANCH   4   5
ENDBRANCH   3   4
TORSDOF 11
ENDMDL
MODEL      312
REMARK 921   NORMALIZED FREE ENERGY PREDICTED BY IDOCK:   -2.83 KCAL/MOL
REMARK 922        TOTAL FREE ENERGY PREDICTED BY IDOCK:   -6.09 KCAL/MOL
REMARK 923 INTER-LIGAND FREE ENERGY PREDICTED BY IDOCK:   -5.65 KCAL/MOL
REMARK 924 INTRA-LIGAND FREE ENERGY PREDICTED BY IDOCK:   -0.44 KCAL/MOL
REMARK 927      BINDING AFFINITY PREDICTED BY RF-SCORE:    0.00 PKD
ROOT
HETATM    1 NA   UNL     1     -12.150  13.567  71.838  1.00  0.00    -0.278 Na 
HETATM    2  C   UNL     2     -12.134   6.792  71.845  1.00  0.00    -0.375 C  
HETATM    3  C   UNL     2     -12.295   8.220  71.346  1.00  0.00    -0.326 C  
ENDROOT
BRANCH   3   4
HETATM    4  C   UNL     2     -10.967   8.760  70.823  1.00  0.00    -0.294 C  
BRANCH   4   5
HETATM    5  C   UNL     2     -11.073  10.227  70.400  1.00  0.00    -0.391 C  
BRANCH   5   6
HETATM    6  C   UNL     2     -11.241  10.401  68.885  1.00  0.00    -0.290 C  
BRANCH   6   7
HETATM    7  C   UNL     2     -11.504  11.856  68.499  1.00  0.00    -0.349 C  
BRANCH   7   8
HETATM    8  C   UNL     2     -11.396  12.104  66.996  1.00  0.00    -0.398 C  
BRANCH   8   9
HETATM    9  C   UNL     2     -11.358  13.603  66.663  1.00  0.00    -0.343 C  
BRANCH   9  10
HETATM   10  C   UNL     2     -10.758  14.493  67.760  1.00  0.00    -0.256 C  
BRANCH  10  11
HETATM   11  C   UNL     2     -11.036  15.982  67.535  1.00  0.00    -0.261 C  
BRANCH  11  12
HETATM   12  C   UNL     2     -10.414  16.532  66.245  1.00  0.00    -0.285 C  
BRANCH  12  13
HETATM   13  C   UNL     2      -9.948  17.987  66.353  1.00  0.00    -0.362 C  
BRANCH  13  14
HETATM   14  O   UNL     2      -9.330  18.178  67.614  1.00  0.00    -0.257 OA 
HETATM   15  S   UNL     2      -8.641  19.620  67.918  1.00  0.00    -0.318 S  
HETATM   16  O   UNL     2      -8.178  19.479  69.302  1.00  0.00    -0.248 OA 
HETATM   17  O   UNL     2      -9.730  20.578  67.767  1.00  0.00    -0.375 OA 
HETATM   18  O   UNL     2      -7.578  19.726  66.935  1.00  0.00    -0.243 OA 
ENDBRANCH  13  14
ENDBRANCH  12  13
ENDBRANCH  11  12
ENDBRANCH  10  11
ENDBRANCH   9  10
ENDBRANCH   8   9
ENDBRANCH   7   8
ENDBRANCH   6   7
ENDBRANCH   5   6
ENDBRANCH   4   5
ENDBRANCH   3   4
TORSDOF 11
ENDMDL
MODEL      313
REMARK 921   NORMALIZED FREE ENERGY PREDICTED BY IDOCK:   -2.83 KCAL/MOL
REMARK 922        TOTAL FREE ENERGY PREDICTED BY IDOCK:   -6.09 KCAL/MOL
REMARK 923 INTER-LIGAND FREE ENERGY PREDICTED BY IDOCK:   -5.59 KCAL/MOL
REMARK 924 INTRA-LIGAND FREE ENERGY PREDICTED BY IDOCK:   -0.49 KCAL/MOL
REMARK 927      BINDING AFFINITY PREDICTED BY RF-SCORE:    0.00 PKD
ROOT
HETATM    1 NA   UNL     1     -11.637   8.394  67.428  1.00  0.00    -0.492 Na 
HETATM    2  C   UNL     2      -9.747   3.553  71.775  1.00  0.00    -0.235 C  
HETATM    3  C   UNL     2      -9.706   4.838  70.961  1.00  0.00    -0.257 C  
ENDROOT
BRANCH   3   4
HETATM    4  C   UNL     2     -10.434   5.962  71.691  1.00  0.00    -0.285 C  
BRANCH   4   5
HETATM    5  C   UNL     2      -9.636   7.268  71.672  1.00  0.00    -0.162 C  
BRANCH   5   6
HETATM    6  C   UNL     2     -10.371   8.426  72.360  1.00  0.00    -0.399 C  
BRANCH   6   7
HETATM    7  C   UNL     2     -10.848   9.479  71.360  1.00  0.00    -0.382 C  
BRANCH   7   8
HETATM    8  C   UNL     2     -12.326   9.826  71.518  1.00  0.00    -0.495 C  
BRANCH   8   9
HETATM    9  C   UNL     2     -12.784  10.869  70.488  1.00  0.00    -0.363 C  
BRANCH   9  10
HETATM   10  C   UNL     2     -11.893  10.982  69.243  1.00  0.00    -0.411 C  
BRANCH  10  11
HETATM   11  C   UNL     2     -11.927  12.376  68.612  1.00  0.00    -0.272 C  
BRANCH  11  12
HETATM   12  C   UNL     2     -10.551  12.874  68.153  1.00  0.00    -0.249 C  
BRANCH  12  13
HETATM   13  C   UNL     2     -10.176  14.253  68.701  1.00  0.00    -0.246 C  
BRANCH  13  14
HETATM   14  O   UNL     2     -10.570  15.241  67.764  1.00  0.00    -0.255 OA 
HETATM   15  S   UNL     2     -10.072  16.771  68.010  1.00  0.00    -0.298 S  
HETATM   16  O   UNL     2     -10.597  17.480  66.839  1.00  0.00    -0.305 OA 
HETATM   17  O   UNL     2      -8.617  16.677  68.025  1.00  0.00    -0.186 OA 
HETATM   18  O   UNL     2     -10.685  17.151  69.270  1.00  0.00    -0.300 OA 
ENDBRANCH  13  14
ENDBRANCH  12  13
ENDBRANCH  11  12
ENDBRANCH  10  11
ENDBRANCH   9  10
ENDBRANCH   8   9
ENDBRANCH   7   8
ENDBRANCH   6   7
ENDBRANCH   5   6
ENDBRANCH   4   5
ENDBRANCH   3   4
TORSDOF 11
ENDMDL
MODEL      314
REMARK 921   NORMALIZED FREE ENERGY PREDICTED BY IDOCK:   -2.83 KCAL/MOL
REMARK 922        TOTAL FREE ENERGY PREDICTED BY IDOCK:   -6.08 KCAL/MOL
REMARK 923 INTER-LIGAND FREE ENERGY PREDICTED BY IDOCK:   -5.59 KCAL/MOL
REMARK 924 INTRA-LIGAND FREE ENERGY PREDICTED BY IDOCK:   -0.48 KCAL/MOL
REMARK 927      BINDING AFFINITY PREDICTED BY RF-SCORE:    0.00 PKD
ROOT
HETATM    1 NA   UNL     1      -9.448   2.629  63.847  1.00  0.00    -0.099 Na 
HETATM    2  C   UNL     2      -8.573   8.274  67.488  1.00  0.00    -0.129 C  
HETATM    3  C   UNL     2      -9.274   7.115  66.796  1.00  0.00    -0.188 C  
ENDROOT
BRANCH   3   4
HETATM    4  C   UNL     2      -9.316   5.890  67.704  1.00  0.00    -0.107 C  
BRANCH   4   5
HETATM    5  C   UNL     2      -9.139   6.263  69.178  1.00  0.00    -0.130 C  
BRANCH   5   6
HETATM    6  C   UNL     2     -10.459   6.654  69.856  1.00  0.00    -0.247 C  
BRANCH   6   7
HETATM    7  C   UNL     2     -10.265   7.758  70.896  1.00  0.00    -0.207 C  
BRANCH   7   8
HETATM    8  C   UNL     2     -11.581   8.375  71.363  1.00  0.00    -0.332 C  
BRANCH   8   9
HETATM    9  C   UNL     2     -11.554   9.909  71.289  1.00  0.00    -0.456 C  
BRANCH   9  10
HETATM   10  C   UNL     2     -11.715  10.490  69.878  1.00  0.00    -0.372 C  
BRANCH  10  11
HETATM   11  C   UNL     2     -11.903  12.010  69.879  1.00  0.00    -0.405 C  
BRANCH  11  12
HETATM   12  C   UNL     2     -11.245  12.709  68.683  1.00  0.00    -0.323 C  
BRANCH  12  13
HETATM   13  C   UNL     2     -12.137  13.754  68.008  1.00  0.00    -0.280 C  
BRANCH  13  14
HETATM   14  O   UNL     2     -11.558  14.119  66.767  1.00  0.00    -0.353 OA 
HETATM   15  S   UNL     2     -12.237  13.541  65.406  1.00  0.00    -0.477 S  
HETATM   16  O   UNL     2     -11.436  14.165  64.348  1.00  0.00    -0.377 OA 
HETATM   17  O   UNL     2     -13.610  14.027  65.455  1.00  0.00    -0.596 OA 
HETATM   18  O   UNL     2     -12.081  12.101  65.510  1.00  0.00    -0.517 OA 
ENDBRANCH  13  14
ENDBRANCH  12  13
ENDBRANCH  11  12
ENDBRANCH  10  11
ENDBRANCH   9  10
ENDBRANCH   8   9
ENDBRANCH   7   8
ENDBRANCH   6   7
ENDBRANCH   5   6
ENDBRANCH   4   5
ENDBRANCH   3   4
TORSDOF 11
ENDMDL
MODEL      315
REMARK 921   NORMALIZED FREE ENERGY PREDICTED BY IDOCK:   -2.82 KCAL/MOL
REMARK 922        TOTAL FREE ENERGY PREDICTED BY IDOCK:   -6.07 KCAL/MOL
REMARK 923 INTER-LIGAND FREE ENERGY PREDICTED BY IDOCK:   -5.41 KCAL/MOL
REMARK 924 INTRA-LIGAND FREE ENERGY PREDICTED BY IDOCK:   -0.66 KCAL/MOL
REMARK 927      BINDING AFFINITY PREDICTED BY RF-SCORE:    0.00 PKD
ROOT
HETATM    1 NA   UNL     1     -12.150  14.752  63.319  1.00  0.00    -0.771 Na 
HETATM    2  C   UNL     2     -11.017  15.864  69.905  1.00  0.00    -0.343 C  
HETATM    3  C   UNL     2     -11.771  15.654  68.601  1.00  0.00    -0.364 C  
ENDROOT
BRANCH   3   4
HETATM    4  C   UNL     2     -11.984  14.166  68.335  1.00  0.00    -0.366 C  
BRANCH   4   5
HETATM    5  C   UNL     2     -11.805  13.326  69.601  1.00  0.00    -0.391 C  
BRANCH   5   6
HETATM    6  C   UNL     2     -11.216  11.938  69.318  1.00  0.00    -0.304 C  
BRANCH   6   7
HETATM    7  C   UNL     2     -11.370  11.537  67.851  1.00  0.00    -0.372 C  
BRANCH   7   8
HETATM    8  C   UNL     2     -10.123  10.865  67.282  1.00  0.00    -0.225 C  
BRANCH   8   9
HETATM    9  C   UNL     2     -10.422   9.454  66.755  1.00  0.00    -0.265 C  
BRANCH   9  10
HETATM   10  C   UNL     2     -10.396   8.348  67.818  1.00  0.00    -0.297 C  
BRANCH  10  11
HETATM   11  C   UNL     2      -9.119   7.506  67.770  1.00  0.00    -0.130 C  
BRANCH  11  12
HETATM   12  C   UNL     2      -8.763   6.856  69.112  1.00  0.00    -0.135 C  
BRANCH  12  13
HETATM   13  C   UNL     2      -9.980   6.422  69.933  1.00  0.00    -0.168 C  
BRANCH  13  14
HETATM   14  O   UNL     2      -9.951   7.089  71.184  1.00  0.00    -0.184 OA 
HETATM   15  S   UNL     2     -10.705   6.387  72.443  1.00  0.00    -0.237 S  
HETATM   16  O   UNL     2     -10.413   7.300  73.552  1.00  0.00    -0.349 OA 
HETATM   17  O   UNL     2     -10.052   5.090  72.576  1.00  0.00    -0.171 OA 
HETATM   18  O   UNL     2     -12.101   6.344  72.049  1.00  0.00    -0.335 OA 
ENDBRANCH  13  14
ENDBRANCH  12  13
ENDBRANCH  11  12
ENDBRANCH  10  11
ENDBRANCH   9  10
ENDBRANCH   8   9
ENDBRANCH   7   8
ENDBRANCH   6   7
ENDBRANCH   5   6
ENDBRANCH   4   5
ENDBRANCH   3   4
TORSDOF 11
ENDMDL
MODEL      316
REMARK 921   NORMALIZED FREE ENERGY PREDICTED BY IDOCK:   -2.82 KCAL/MOL
REMARK 922        TOTAL FREE ENERGY PREDICTED BY IDOCK:   -6.06 KCAL/MOL
REMARK 923 INTER-LIGAND FREE ENERGY PREDICTED BY IDOCK:   -4.58 KCAL/MOL
REMARK 924 INTRA-LIGAND FREE ENERGY PREDICTED BY IDOCK:   -1.48 KCAL/MOL
REMARK 927      BINDING AFFINITY PREDICTED BY RF-SCORE:    0.00 PKD
ROOT
HETATM    1 NA   UNL     1      -6.718  13.937  71.845  1.00  0.00    -0.387 Na 
HETATM    2  C   UNL     2      -7.321  10.555  66.006  1.00  0.00    -0.137 C  
HETATM    3  C   UNL     2      -7.711  11.239  67.307  1.00  0.00    -0.138 C  
ENDROOT
BRANCH   3   4
HETATM    4  C   UNL     2      -7.923  12.735  67.087  1.00  0.00    -0.112 C  
BRANCH   4   5
HETATM    5  C   UNL     2      -8.049  13.496  68.409  1.00  0.00    -0.145 C  
BRANCH   5   6
HETATM    6  C   UNL     2      -9.179  14.534  68.394  1.00  0.00    -0.196 C  
BRANCH   6   7
HETATM    7  C   UNL     2      -9.929  14.547  67.063  1.00  0.00    -0.255 C  
BRANCH   7   8
HETATM    8  C   UNL     2     -11.445  14.482  67.231  1.00  0.00    -0.381 C  
BRANCH   8   9
HETATM    9  C   UNL     2     -11.877  13.272  68.072  1.00  0.00    -0.392 C  
BRANCH   9  10
HETATM   10  C   UNL     2     -11.611  11.906  67.424  1.00  0.00    -0.367 C  
BRANCH  10  11
HETATM   11  C   UNL     2     -11.090  10.867  68.420  1.00  0.00    -0.320 C  
BRANCH  11  12
HETATM   12  C   UNL     2     -10.711   9.531  67.769  1.00  0.00    -0.302 C  
BRANCH  12  13
HETATM   13  C   UNL     2     -10.604   8.367  68.758  1.00  0.00    -0.125 C  
BRANCH  13  14
HETATM   14  O   UNL     2      -9.760   8.752  69.829  1.00  0.00    -0.172 OA 
HETATM   15  S   UNL     2     -10.271   8.465  71.347  1.00  0.00    -0.240 S  
HETATM   16  O   UNL     2      -9.143   8.919  72.166  1.00  0.00    -0.375 OA 
HETATM   17  O   UNL     2     -10.474   7.022  71.391  1.00  0.00    -0.209 OA 
HETATM   18  O   UNL     2     -11.474   9.268  71.480  1.00  0.00    -0.331 OA 
ENDBRANCH  13  14
ENDBRANCH  12  13
ENDBRANCH  11  12
ENDBRANCH  10  11
ENDBRANCH   9  10
ENDBRANCH   8   9
ENDBRANCH   7   8
ENDBRANCH   6   7
ENDBRANCH   5   6
ENDBRANCH   4   5
ENDBRANCH   3   4
TORSDOF 11
ENDMDL
MODEL      317
REMARK 921   NORMALIZED FREE ENERGY PREDICTED BY IDOCK:   -2.82 KCAL/MOL
REMARK 922        TOTAL FREE ENERGY PREDICTED BY IDOCK:   -6.06 KCAL/MOL
REMARK 923 INTER-LIGAND FREE ENERGY PREDICTED BY IDOCK:   -5.19 KCAL/MOL
REMARK 924 INTRA-LIGAND FREE ENERGY PREDICTED BY IDOCK:   -0.87 KCAL/MOL
REMARK 927      BINDING AFFINITY PREDICTED BY RF-SCORE:    0.00 PKD
ROOT
HETATM    1 NA   UNL     1     -11.816   5.301  65.429  1.00  0.00    -0.707 Na 
HETATM    2  C   UNL     2      -7.230  10.288  65.420  1.00  0.00    -0.143 C  
HETATM    3  C   UNL     2      -8.373   9.399  65.886  1.00  0.00    -0.125 C  
ENDROOT
BRANCH   3   4
HETATM    4  C   UNL     2      -7.839   8.178  66.628  1.00  0.00    -0.094 C  
BRANCH   4   5
HETATM    5  C   UNL     2      -7.497   8.498  68.085  1.00  0.00    -0.097 C  
BRANCH   5   6
HETATM    6  C   UNL     2      -8.299   7.654  69.085  1.00  0.00    -0.131 C  
BRANCH   6   7
HETATM    7  C   UNL     2      -9.445   8.446  69.715  1.00  0.00    -0.162 C  
BRANCH   7   8
HETATM    8  C   UNL     2      -9.165   8.852  71.161  1.00  0.00    -0.324 C  
BRANCH   8   9
HETATM    9  C   UNL     2     -10.301   8.432  72.105  1.00  0.00    -0.397 C  
BRANCH   9  10
HETATM   10  C   UNL     2     -11.707   8.502  71.495  1.00  0.00    -0.354 C  
BRANCH  10  11
HETATM   11  C   UNL     2     -12.441   9.801  71.839  1.00  0.00    -0.451 C  
BRANCH  11  12
HETATM   12  C   UNL     2     -12.997  10.533  70.611  1.00  0.00    -0.362 C  
BRANCH  12  13
HETATM   13  C   UNL     2     -11.957  11.378  69.869  1.00  0.00    -0.359 C  
BRANCH  13  14
HETATM   14  O   UNL     2     -11.843  10.900  68.540  1.00  0.00    -0.464 OA 
HETATM   15  S   UNL     2     -11.082  11.841  67.452  1.00  0.00    -0.302 S  
HETATM   16  O   UNL     2     -11.094  11.017  66.239  1.00  0.00    -0.178 OA 
HETATM   17  O   UNL     2      -9.748  12.030  68.010  1.00  0.00    -0.185 OA 
HETATM   18  O   UNL     2     -11.900  13.038  67.375  1.00  0.00    -0.358 OA 
ENDBRANCH  13  14
ENDBRANCH  12  13
ENDBRANCH  11  12
ENDBRANCH  10  11
ENDBRANCH   9  10
ENDBRANCH   8   9
ENDBRANCH   7   8
ENDBRANCH   6   7
ENDBRANCH   5   6
ENDBRANCH   4   5
ENDBRANCH   3   4
TORSDOF 11
ENDMDL
MODEL      318
REMARK 921   NORMALIZED FREE ENERGY PREDICTED BY IDOCK:   -2.81 KCAL/MOL
REMARK 922        TOTAL FREE ENERGY PREDICTED BY IDOCK:   -6.06 KCAL/MOL
REMARK 923 INTER-LIGAND FREE ENERGY PREDICTED BY IDOCK:   -5.54 KCAL/MOL
REMARK 924 INTRA-LIGAND FREE ENERGY PREDICTED BY IDOCK:   -0.52 KCAL/MOL
REMARK 927      BINDING AFFINITY PREDICTED BY RF-SCORE:    0.00 PKD
ROOT
HETATM    1 NA   UNL     1     -11.805   5.678  65.581  1.00  0.00    -0.673 Na 
HETATM    2  C   UNL     2     -10.971  12.348  66.421  1.00  0.00    -0.315 C  
HETATM    3  C   UNL     2     -11.005  10.862  66.740  1.00  0.00    -0.248 C  
ENDROOT
BRANCH   3   4
HETATM    4  C   UNL     2      -9.684  10.198  66.361  1.00  0.00    -0.259 C  
BRANCH   4   5
HETATM    5  C   UNL     2      -8.596  10.449  67.407  1.00  0.00    -0.125 C  
BRANCH   5   6
HETATM    6  C   UNL     2      -8.383   9.253  68.344  1.00  0.00    -0.119 C  
BRANCH   6   7
HETATM    7  C   UNL     2      -9.550   9.068  69.313  1.00  0.00    -0.162 C  
BRANCH   7   8
HETATM    8  C   UNL     2      -9.173   8.261  70.554  1.00  0.00    -0.160 C  
BRANCH   8   9
HETATM    9  C   UNL     2     -10.377   7.503  71.132  1.00  0.00    -0.208 C  
BRANCH   9  10
HETATM   10  C   UNL     2     -11.733   8.192  70.931  1.00  0.00    -0.259 C  
BRANCH  10  11
HETATM   11  C   UNL     2     -11.894   9.449  71.790  1.00  0.00    -0.452 C  
BRANCH  11  12
HETATM   12  C   UNL     2     -13.067  10.338  71.360  1.00  0.00    -0.512 C  
BRANCH  12  13
HETATM   13  C   UNL     2     -12.673  11.790  71.073  1.00  0.00    -0.275 C  
BRANCH  13  14
HETATM   14  O   UNL     2     -12.957  12.576  72.217  1.00  0.00    -0.304 OA 
HETATM   15  S   UNL     2     -13.200  14.171  72.008  1.00  0.00    -0.440 S  
HETATM   16  O   UNL     2     -13.526  14.635  73.361  1.00  0.00    -0.513 OA 
HETATM   17  O   UNL     2     -14.326  14.245  71.084  1.00  0.00    -0.172 OA 
HETATM   18  O   UNL     2     -11.936  14.664  71.491  1.00  0.00    -0.343 OA 
ENDBRANCH  13  14
ENDBRANCH  12  13
ENDBRANCH  11  12
ENDBRANCH  10  11
ENDBRANCH   9  10
ENDBRANCH   8   9
ENDBRANCH   7   8
ENDBRANCH   6   7
ENDBRANCH   5   6
ENDBRANCH   4   5
ENDBRANCH   3   4
TORSDOF 11
ENDMDL
MODEL      319
REMARK 921   NORMALIZED FREE ENERGY PREDICTED BY IDOCK:   -2.81 KCAL/MOL
REMARK 922        TOTAL FREE ENERGY PREDICTED BY IDOCK:   -6.05 KCAL/MOL
REMARK 923 INTER-LIGAND FREE ENERGY PREDICTED BY IDOCK:   -4.62 KCAL/MOL
REMARK 924 INTRA-LIGAND FREE ENERGY PREDICTED BY IDOCK:   -1.42 KCAL/MOL
REMARK 927      BINDING AFFINITY PREDICTED BY RF-SCORE:    0.00 PKD
ROOT
HETATM    1 NA   UNL     1      -9.063   9.267  71.900  1.00  0.00    -0.207 Na 
HETATM    2  C   UNL     2      -5.559  11.584  66.585  1.00  0.00    -0.140 C  
HETATM    3  C   UNL     2      -6.465  10.692  67.420  1.00  0.00    -0.059 C  
ENDROOT
BRANCH   3   4
HETATM    4  C   UNL     2      -7.906  11.191  67.374  1.00  0.00    -0.121 C  
BRANCH   4   5
HETATM    5  C   UNL     2      -8.014  12.667  67.767  1.00  0.00    -0.158 C  
BRANCH   5   6
HETATM    6  C   UNL     2      -8.763  13.508  66.725  1.00  0.00    -0.100 C  
BRANCH   6   7
HETATM    7  C   UNL     2      -8.934  14.959  67.174  1.00  0.00    -0.230 C  
BRANCH   7   8
HETATM    8  C   UNL     2      -8.890  15.123  68.692  1.00  0.00    -0.186 C  
BRANCH   8   9
HETATM    9  C   UNL     2     -10.208  15.684  69.246  1.00  0.00    -0.250 C  
BRANCH   9  10
HETATM   10  C   UNL     2     -11.181  14.630  69.792  1.00  0.00    -0.296 C  
BRANCH  10  11
HETATM   11  C   UNL     2     -12.096  14.049  68.712  1.00  0.00    -0.338 C  
BRANCH  11  12
HETATM   12  C   UNL     2     -11.872  12.553  68.459  1.00  0.00    -0.341 C  
BRANCH  12  13
HETATM   13  C   UNL     2     -11.540  11.754  69.722  1.00  0.00    -0.299 C  
BRANCH  13  14
HETATM   14  O   UNL     2     -12.496  10.719  69.874  1.00  0.00    -0.322 OA 
HETATM   15  S   UNL     2     -12.786  10.159  71.374  1.00  0.00    -0.462 S  
HETATM   16  O   UNL     2     -13.849   9.173  71.158  1.00  0.00    -0.269 OA 
HETATM   17  O   UNL     2     -13.228  11.334  72.117  1.00  0.00    -0.481 OA 
HETATM   18  O   UNL     2     -11.518   9.594  71.799  1.00  0.00    -0.365 OA 
ENDBRANCH  13  14
ENDBRANCH  12  13
ENDBRANCH  11  12
ENDBRANCH  10  11
ENDBRANCH   9  10
ENDBRANCH   8   9
ENDBRANCH   7   8
ENDBRANCH   6   7
ENDBRANCH   5   6
ENDBRANCH   4   5
ENDBRANCH   3   4
TORSDOF 11
ENDMDL
MODEL      320
REMARK 921   NORMALIZED FREE ENERGY PREDICTED BY IDOCK:   -2.80 KCAL/MOL
REMARK 922        TOTAL FREE ENERGY PREDICTED BY IDOCK:   -6.04 KCAL/MOL
REMARK 923 INTER-LIGAND FREE ENERGY PREDICTED BY IDOCK:   -4.65 KCAL/MOL
REMARK 924 INTRA-LIGAND FREE ENERGY PREDICTED BY IDOCK:   -1.39 KCAL/MOL
REMARK 927      BINDING AFFINITY PREDICTED BY RF-SCORE:    0.00 PKD
ROOT
HETATM    1 NA   UNL     1      -9.030   7.791  65.718  1.00  0.00    -0.138 Na 
HETATM    2  C   UNL     2      -9.946   4.146  71.354  1.00  0.00    -0.223 C  
HETATM    3  C   UNL     2      -9.316   5.118  70.368  1.00  0.00    -0.210 C  
ENDROOT
BRANCH   3   4
HETATM    4  C   UNL     2      -9.918   6.511  70.525  1.00  0.00    -0.206 C  
BRANCH   4   5
HETATM    5  C   UNL     2     -11.423   6.457  70.797  1.00  0.00    -0.415 C  
BRANCH   5   6
HETATM    6  C   UNL     2     -11.800   7.006  72.179  1.00  0.00    -0.314 C  
BRANCH   6   7
HETATM    7  C   UNL     2     -11.894   8.532  72.185  1.00  0.00    -0.448 C  
BRANCH   7   8
HETATM    8  C   UNL     2     -13.244   9.049  71.692  1.00  0.00    -0.427 C  
BRANCH   8   9
HETATM    9  C   UNL     2     -13.273  10.581  71.603  1.00  0.00    -0.493 C  
BRANCH   9  10
HETATM   10  C   UNL     2     -12.077  11.210  70.875  1.00  0.00    -0.427 C  
BRANCH  10  11
HETATM   11  C   UNL     2     -12.106  10.967  69.363  1.00  0.00    -0.389 C  
BRANCH  11  12
HETATM   12  C   UNL     2     -10.943  10.105  68.859  1.00  0.00    -0.261 C  
BRANCH  12  13
HETATM   13  C   UNL     2     -10.098  10.776  67.773  1.00  0.00    -0.174 C  
BRANCH  13  14
HETATM   14  O   UNL     2      -9.236   9.809  67.200  1.00  0.00    -0.136 OA 
HETATM   15  S   UNL     2      -7.639  10.119  67.187  1.00  0.00    -0.092 S  
HETATM   16  O   UNL     2      -7.071   8.903  66.598  1.00  0.00    -0.082 OA 
HETATM   17  O   UNL     2      -7.295  10.295  68.593  1.00  0.00    -0.078 OA 
HETATM   18  O   UNL     2      -7.509  11.306  66.361  1.00  0.00    -0.133 OA 
ENDBRANCH  13  14
ENDBRANCH  12  13
ENDBRANCH  11  12
ENDBRANCH  10  11
ENDBRANCH   9  10
ENDBRANCH   8   9
ENDBRANCH   7   8
ENDBRANCH   6   7
ENDBRANCH   5   6
ENDBRANCH   4   5
ENDBRANCH   3   4
TORSDOF 11
ENDMDL
MODEL      321
REMARK 921   NORMALIZED FREE ENERGY PREDICTED BY IDOCK:   -2.79 KCAL/MOL
REMARK 922        TOTAL FREE ENERGY PREDICTED BY IDOCK:   -6.02 KCAL/MOL
REMARK 923 INTER-LIGAND FREE ENERGY PREDICTED BY IDOCK:   -5.32 KCAL/MOL
REMARK 924 INTRA-LIGAND FREE ENERGY PREDICTED BY IDOCK:   -0.71 KCAL/MOL
REMARK 927      BINDING AFFINITY PREDICTED BY RF-SCORE:    0.00 PKD
ROOT
HETATM    1 NA   UNL     1      -7.771   9.370  69.887  1.00  0.00    -0.060 Na 
HETATM    2  C   UNL     2     -11.261   4.607  73.208  1.00  0.00    -0.411 C  
HETATM    3  C   UNL     2     -10.609   5.947  72.900  1.00  0.00    -0.265 C  
ENDROOT
BRANCH   3   4
HETATM    4  C   UNL     2     -11.547   6.827  72.079  1.00  0.00    -0.327 C  
BRANCH   4   5
HETATM    5  C   UNL     2     -11.487   6.492  70.587  1.00  0.00    -0.433 C  
BRANCH   5   6
HETATM    6  C   UNL     2     -10.224   7.033  69.904  1.00  0.00    -0.213 C  
BRANCH   6   7
HETATM    7  C   UNL     2     -10.512   8.282  69.072  1.00  0.00    -0.212 C  
BRANCH   7   8
HETATM    8  C   UNL     2     -10.593   7.995  67.574  1.00  0.00    -0.302 C  
BRANCH   8   9
HETATM    9  C   UNL     2     -10.022   9.150  66.737  1.00  0.00    -0.322 C  
BRANCH   9  10
HETATM   10  C   UNL     2      -9.398  10.291  67.551  1.00  0.00    -0.164 C  
BRANCH  10  11
HETATM   11  C   UNL     2      -9.962  11.665  67.179  1.00  0.00    -0.219 C  
BRANCH  11  12
HETATM   12  C   UNL     2     -11.494  11.723  67.194  1.00  0.00    -0.366 C  
BRANCH  12  13
HETATM   13  C   UNL     2     -12.071  13.030  66.644  1.00  0.00    -0.319 C  
BRANCH  13  14
HETATM   14  O   UNL     2     -11.060  14.023  66.667  1.00  0.00    -0.300 OA 
HETATM   15  S   UNL     2     -10.648  14.729  65.260  1.00  0.00    -0.425 S  
HETATM   16  O   UNL     2      -9.651  15.723  65.670  1.00  0.00    -0.329 OA 
HETATM   17  O   UNL     2     -11.890  15.320  64.778  1.00  0.00    -0.324 OA 
HETATM   18  O   UNL     2     -10.121  13.643  64.453  1.00  0.00    -0.325 OA 
ENDBRANCH  13  14
ENDBRANCH  12  13
ENDBRANCH  11  12
ENDBRANCH  10  11
ENDBRANCH   9  10
ENDBRANCH   8   9
ENDBRANCH   7   8
ENDBRANCH   6   7
ENDBRANCH   5   6
ENDBRANCH   4   5
ENDBRANCH   3   4
TORSDOF 11
ENDMDL
MODEL      322
REMARK 921   NORMALIZED FREE ENERGY PREDICTED BY IDOCK:   -2.79 KCAL/MOL
REMARK 922        TOTAL FREE ENERGY PREDICTED BY IDOCK:   -6.02 KCAL/MOL
REMARK 923 INTER-LIGAND FREE ENERGY PREDICTED BY IDOCK:   -5.30 KCAL/MOL
REMARK 924 INTRA-LIGAND FREE ENERGY PREDICTED BY IDOCK:   -0.72 KCAL/MOL
REMARK 927      BINDING AFFINITY PREDICTED BY RF-SCORE:    0.00 PKD
ROOT
HETATM    1 NA   UNL     1      -7.044  13.147  70.507  1.00  0.00    -0.351 Na 
HETATM    2  C   UNL     2     -13.380  15.393  71.349  1.00  0.00    -0.601 C  
HETATM    3  C   UNL     2     -11.872  15.413  71.153  1.00  0.00    -0.422 C  
ENDROOT
BRANCH   3   4
HETATM    4  C   UNL     2     -11.520  15.338  69.670  1.00  0.00    -0.321 C  
BRANCH   4   5
HETATM    5  C   UNL     2     -10.913  13.985  69.292  1.00  0.00    -0.242 C  
BRANCH   5   6
HETATM    6  C   UNL     2     -11.682  13.279  68.168  1.00  0.00    -0.397 C  
BRANCH   6   7
HETATM    7  C   UNL     2     -11.950  11.809  68.491  1.00  0.00    -0.279 C  
BRANCH   7   8
HETATM    8  C   UNL     2     -11.964  11.521  69.991  1.00  0.00    -0.435 C  
BRANCH   8   9
HETATM    9  C   UNL     2     -11.907  10.015  70.286  1.00  0.00    -0.291 C  
BRANCH   9  10
HETATM   10  C   UNL     2     -11.765   9.652  71.770  1.00  0.00    -0.356 C  
BRANCH  10  11
HETATM   11  C   UNL     2     -10.979   8.357  71.993  1.00  0.00    -0.394 C  
BRANCH  11  12
HETATM   12  C   UNL     2      -9.507   8.589  72.357  1.00  0.00    -0.350 C  
BRANCH  12  13
HETATM   13  C   UNL     2      -8.684   7.303  72.463  1.00  0.00    -0.122 C  
BRANCH  13  14
HETATM   14  O   UNL     2      -9.523   6.259  72.926  1.00  0.00    -0.147 OA 
HETATM   15  S   UNL     2      -9.521   4.854  72.105  1.00  0.00    -0.148 S  
HETATM   16  O   UNL     2     -10.428   4.012  72.890  1.00  0.00    -0.165 OA 
HETATM   17  O   UNL     2      -8.133   4.411  72.155  1.00  0.00    -0.095 OA 
HETATM   18  O   UNL     2     -10.015   5.206  70.786  1.00  0.00    -0.187 OA 
ENDBRANCH  13  14
ENDBRANCH  12  13
ENDBRANCH  11  12
ENDBRANCH  10  11
ENDBRANCH   9  10
ENDBRANCH   8   9
ENDBRANCH   7   8
ENDBRANCH   6   7
ENDBRANCH   5   6
ENDBRANCH   4   5
ENDBRANCH   3   4
TORSDOF 11
ENDMDL
MODEL      323
REMARK 921   NORMALIZED FREE ENERGY PREDICTED BY IDOCK:   -2.79 KCAL/MOL
REMARK 922        TOTAL FREE ENERGY PREDICTED BY IDOCK:   -6.02 KCAL/MOL
REMARK 923 INTER-LIGAND FREE ENERGY PREDICTED BY IDOCK:   -5.13 KCAL/MOL
REMARK 924 INTRA-LIGAND FREE ENERGY PREDICTED BY IDOCK:   -0.89 KCAL/MOL
REMARK 927      BINDING AFFINITY PREDICTED BY RF-SCORE:    0.00 PKD
ROOT
HETATM    1 NA   UNL     1     -12.570  11.062  70.011  1.00  0.00    -0.262 Na 
HETATM    2  C   UNL     2     -11.977  12.085  63.341  1.00  0.00    -0.571 C  
HETATM    3  C   UNL     2     -12.100  12.386  64.827  1.00  0.00    -0.483 C  
ENDROOT
BRANCH   3   4
HETATM    4  C   UNL     2     -10.728  12.378  65.494  1.00  0.00    -0.315 C  
BRANCH   4   5
HETATM    5  C   UNL     2      -9.820  11.286  64.925  1.00  0.00    -0.310 C  
BRANCH   5   6
HETATM    6  C   UNL     2      -9.330  10.300  65.994  1.00  0.00    -0.224 C  
BRANCH   6   7
HETATM    7  C   UNL     2     -10.473   9.785  66.867  1.00  0.00    -0.281 C  
BRANCH   7   8
HETATM    8  C   UNL     2     -10.095   8.545  67.674  1.00  0.00    -0.271 C  
BRANCH   8   9
HETATM    9  C   UNL     2     -10.692   7.265  67.071  1.00  0.00    -0.406 C  
BRANCH   9  10
HETATM   10  C   UNL     2      -9.680   6.140  66.810  1.00  0.00    -0.191 C  
BRANCH  10  11
HETATM   11  C   UNL     2     -10.157   4.780  67.325  1.00  0.00    -0.192 C  
BRANCH  11  12
HETATM   12  C   UNL     2      -9.230   4.166  68.381  1.00  0.00    -0.198 C  
BRANCH  12  13
HETATM   13  C   UNL     2      -9.723   4.344  69.819  1.00  0.00    -0.221 C  
BRANCH  13  14
HETATM   14  O   UNL     2      -9.586   5.706  70.185  1.00  0.00    -0.157 OA 
HETATM   15  S   UNL     2     -10.814   6.411  70.986  1.00  0.00    -0.275 S  
HETATM   16  O   UNL     2     -10.304   7.761  71.250  1.00  0.00    -0.198 OA 
HETATM   17  O   UNL     2     -10.968   5.605  72.190  1.00  0.00    -0.239 OA 
HETATM   18  O   UNL     2     -11.928   6.360  70.055  1.00  0.00    -0.333 OA 
ENDBRANCH  13  14
ENDBRANCH  12  13
ENDBRANCH  11  12
ENDBRANCH  10  11
ENDBRANCH   9  10
ENDBRANCH   8   9
ENDBRANCH   7   8
ENDBRANCH   6   7
ENDBRANCH   5   6
ENDBRANCH   4   5
ENDBRANCH   3   4
TORSDOF 11
ENDMDL
MODEL      324
REMARK 921   NORMALIZED FREE ENERGY PREDICTED BY IDOCK:   -2.79 KCAL/MOL
REMARK 922        TOTAL FREE ENERGY PREDICTED BY IDOCK:   -6.01 KCAL/MOL
REMARK 923 INTER-LIGAND FREE ENERGY PREDICTED BY IDOCK:   -5.41 KCAL/MOL
REMARK 924 INTRA-LIGAND FREE ENERGY PREDICTED BY IDOCK:   -0.60 KCAL/MOL
REMARK 927      BINDING AFFINITY PREDICTED BY RF-SCORE:    0.00 PKD
ROOT
HETATM    1 NA   UNL     1     -11.108  17.327  68.901  1.00  0.00    -0.303 Na 
HETATM    2  C   UNL     2     -12.067  13.114  63.683  1.00  0.00    -0.583 C  
HETATM    3  C   UNL     2     -11.490  13.689  64.967  1.00  0.00    -0.338 C  
ENDROOT
BRANCH   3   4
HETATM    4  C   UNL     2     -12.313  13.248  66.173  1.00  0.00    -0.423 C  
BRANCH   4   5
HETATM    5  C   UNL     2     -11.429  12.771  67.328  1.00  0.00    -0.393 C  
BRANCH   5   6
HETATM    6  C   UNL     2     -10.472  11.643  66.919  1.00  0.00    -0.262 C  
BRANCH   6   7
HETATM    7  C   UNL     2     -10.988  10.269  67.344  1.00  0.00    -0.317 C  
BRANCH   7   8
HETATM    8  C   UNL     2     -10.413   9.803  68.680  1.00  0.00    -0.233 C  
BRANCH   8   9
HETATM    9  C   UNL     2     -11.140  10.441  69.872  1.00  0.00    -0.367 C  
BRANCH   9  10
HETATM   10  C   UNL     2     -11.704   9.446  70.894  1.00  0.00    -0.378 C  
BRANCH  10  11
HETATM   11  C   UNL     2     -11.302   7.998  70.600  1.00  0.00    -0.256 C  
BRANCH  11  12
HETATM   12  C   UNL     2     -12.406   6.981  70.908  1.00  0.00    -0.361 C  
BRANCH  12  13
HETATM   13  C   UNL     2     -12.090   6.061  72.091  1.00  0.00    -0.142 C  
BRANCH  13  14
HETATM   14  O   UNL     2     -10.990   6.596  72.806  1.00  0.00    -0.241 OA 
HETATM   15  S   UNL     2      -9.948   5.556  73.499  1.00  0.00    -0.190 S  
HETATM   16  O   UNL     2      -8.931   6.442  74.074  1.00  0.00    -0.133 OA 
HETATM   17  O   UNL     2      -9.452   4.751  72.389  1.00  0.00    -0.131 OA 
HETATM   18  O   UNL     2     -10.748   4.842  74.477  1.00  0.00    -0.360 OA 
ENDBRANCH  13  14
ENDBRANCH  12  13
ENDBRANCH  11  12
ENDBRANCH  10  11
ENDBRANCH   9  10
ENDBRANCH   8   9
ENDBRANCH   7   8
ENDBRANCH   6   7
ENDBRANCH   5   6
ENDBRANCH   4   5
ENDBRANCH   3   4
TORSDOF 11
ENDMDL
MODEL      325
REMARK 921   NORMALIZED FREE ENERGY PREDICTED BY IDOCK:   -2.78 KCAL/MOL
REMARK 922        TOTAL FREE ENERGY PREDICTED BY IDOCK:   -6.01 KCAL/MOL
REMARK 923 INTER-LIGAND FREE ENERGY PREDICTED BY IDOCK:   -5.67 KCAL/MOL
REMARK 924 INTRA-LIGAND FREE ENERGY PREDICTED BY IDOCK:   -0.34 KCAL/MOL
REMARK 927      BINDING AFFINITY PREDICTED BY RF-SCORE:    0.00 PKD
ROOT
HETATM    1 NA   UNL     1     -12.614  10.731  62.414  1.00  0.00    -0.897 Na 
HETATM    2  C   UNL     2      -8.986   7.172  66.893  1.00  0.00    -0.145 C  
HETATM    3  C   UNL     2      -9.311   8.075  65.713  1.00  0.00    -0.010 C  
ENDROOT
BRANCH   3   4
HETATM    4  C   UNL     2      -9.452   9.525  66.166  1.00  0.00    -0.281 C  
BRANCH   4   5
HETATM    5  C   UNL     2      -8.169  10.326  65.932  1.00  0.00    -0.148 C  
BRANCH   5   6
HETATM    6  C   UNL     2      -7.697  11.075  67.184  1.00  0.00    -0.131 C  
BRANCH   6   7
HETATM    7  C   UNL     2      -7.919  12.583  67.070  1.00  0.00    -0.086 C  
BRANCH   7   8
HETATM    8  C   UNL     2      -9.065  13.085  67.946  1.00  0.00    -0.207 C  
BRANCH   8   9
HETATM    9  C   UNL     2      -9.834  11.930  68.602  1.00  0.00    -0.139 C  
BRANCH   9  10
HETATM   10  C   UNL     2     -11.190  12.318  69.208  1.00  0.00    -0.275 C  
BRANCH  10  11
HETATM   11  C   UNL     2     -11.734  13.636  68.652  1.00  0.00    -0.389 C  
BRANCH  11  12
HETATM   12  C   UNL     2     -11.344  14.861  69.488  1.00  0.00    -0.307 C  
BRANCH  12  13
HETATM   13  C   UNL     2     -12.493  15.434  70.322  1.00  0.00    -0.374 C  
BRANCH  13  14
HETATM   14  O   UNL     2     -13.227  14.363  70.889  1.00  0.00    -0.357 OA 
HETATM   15  S   UNL     2     -13.613  14.450  72.467  1.00  0.00    -0.497 S  
HETATM   16  O   UNL     2     -14.406  13.235  72.680  1.00  0.00    -0.679 OA 
HETATM   17  O   UNL     2     -14.392  15.677  72.580  1.00  0.00    -0.537 OA 
HETATM   18  O   UNL     2     -12.332  14.460  73.152  1.00  0.00    -0.213 OA 
ENDBRANCH  13  14
ENDBRANCH  12  13
ENDBRANCH  11  12
ENDBRANCH  10  11
ENDBRANCH   9  10
ENDBRANCH   8   9
ENDBRANCH   7   8
ENDBRANCH   6   7
ENDBRANCH   5   6
ENDBRANCH   4   5
ENDBRANCH   3   4
TORSDOF 11
ENDMDL
MODEL      326
REMARK 921   NORMALIZED FREE ENERGY PREDICTED BY IDOCK:   -2.78 KCAL/MOL
REMARK 922        TOTAL FREE ENERGY PREDICTED BY IDOCK:   -6.01 KCAL/MOL
REMARK 923 INTER-LIGAND FREE ENERGY PREDICTED BY IDOCK:   -5.36 KCAL/MOL
REMARK 924 INTRA-LIGAND FREE ENERGY PREDICTED BY IDOCK:   -0.65 KCAL/MOL
REMARK 927      BINDING AFFINITY PREDICTED BY RF-SCORE:    0.00 PKD
ROOT
HETATM    1 NA   UNL     1     -11.074  20.605  69.665  1.00  0.00    -0.643 Na 
HETATM    2  C   UNL     2      -5.937  17.415  66.609  1.00  0.00    -0.235 C  
HETATM    3  C   UNL     2      -7.210  17.628  67.413  1.00  0.00    -0.198 C  
ENDROOT
BRANCH   3   4
HETATM    4  C   UNL     2      -8.424  17.699  66.491  1.00  0.00    -0.294 C  
BRANCH   4   5
HETATM    5  C   UNL     2      -9.718  17.956  67.267  1.00  0.00    -0.289 C  
BRANCH   5   6
HETATM    6  C   UNL     2     -10.633  16.726  67.326  1.00  0.00    -0.275 C  
BRANCH   6   7
HETATM    7  C   UNL     2     -10.122  15.588  66.443  1.00  0.00    -0.301 C  
BRANCH   7   8
HETATM    8  C   UNL     2     -11.105  15.201  65.340  1.00  0.00    -0.371 C  
BRANCH   8   9
HETATM    9  C   UNL     2     -10.666  13.929  64.601  1.00  0.00    -0.422 C  
BRANCH   9  10
HETATM   10  C   UNL     2     -11.806  13.132  63.953  1.00  0.00    -0.533 C  
BRANCH  10  11
HETATM   11  C   UNL     2     -11.520  11.629  63.888  1.00  0.00    -0.433 C  
BRANCH  11  12
HETATM   12  C   UNL     2     -10.154  11.292  63.278  1.00  0.00    -0.428 C  
BRANCH  12  13
HETATM   13  C   UNL     2      -9.370  10.234  64.059  1.00  0.00    -0.289 C  
BRANCH  13  14
HETATM   14  O   UNL     2      -8.753  10.852  65.175  1.00  0.00    -0.187 OA 
HETATM   15  S   UNL     2      -7.452  10.126  65.829  1.00  0.00    -0.136 S  
HETATM   16  O   UNL     2      -7.053  11.059  66.888  1.00  0.00    -0.109 OA 
HETATM   17  O   UNL     2      -6.494  10.050  64.733  1.00  0.00    -0.114 OA 
HETATM   18  O   UNL     2      -7.954   8.851  66.308  1.00  0.00    -0.100 OA 
ENDBRANCH  13  14
ENDBRANCH  12  13
ENDBRANCH  11  12
ENDBRANCH  10  11
ENDBRANCH   9  10
ENDBRANCH   8   9
ENDBRANCH   7   8
ENDBRANCH   6   7
ENDBRANCH   5   6
ENDBRANCH   4   5
ENDBRANCH   3   4
TORSDOF 11
ENDMDL
MODEL      327
REMARK 921   NORMALIZED FREE ENERGY PREDICTED BY IDOCK:   -2.78 KCAL/MOL
REMARK 922        TOTAL FREE ENERGY PREDICTED BY IDOCK:   -6.00 KCAL/MOL
REMARK 923 INTER-LIGAND FREE ENERGY PREDICTED BY IDOCK:   -5.40 KCAL/MOL
REMARK 924 INTRA-LIGAND FREE ENERGY PREDICTED BY IDOCK:   -0.61 KCAL/MOL
REMARK 927      BINDING AFFINITY PREDICTED BY RF-SCORE:    0.00 PKD
ROOT
HETATM    1 NA   UNL     1     -10.886  19.119  73.343  1.00  0.00    -0.548 Na 
HETATM    2  C   UNL     2      -7.863  18.807  67.289  1.00  0.00    -0.243 C  
HETATM    3  C   UNL     2      -8.536  18.352  68.574  1.00  0.00    -0.341 C  
ENDROOT
BRANCH   3   4
HETATM    4  C   UNL     2     -10.054  18.355  68.418  1.00  0.00    -0.418 C  
BRANCH   4   5
HETATM    5  C   UNL     2     -10.596  16.969  68.061  1.00  0.00    -0.373 C  
BRANCH   5   6
HETATM    6  C   UNL     2      -9.870  15.836  68.800  1.00  0.00    -0.214 C  
BRANCH   6   7
HETATM    7  C   UNL     2     -10.122  14.475  68.152  1.00  0.00    -0.227 C  
BRANCH   7   8
HETATM    8  C   UNL     2     -11.575  14.275  67.730  1.00  0.00    -0.383 C  
BRANCH   8   9
HETATM    9  C   UNL     2     -11.712  13.209  66.633  1.00  0.00    -0.427 C  
BRANCH   9  10
HETATM   10  C   UNL     2     -11.878  11.772  67.145  1.00  0.00    -0.157 C  
BRANCH  10  11
HETATM   11  C   UNL     2     -10.615  10.926  66.960  1.00  0.00    -0.307 C  
BRANCH  11  12
HETATM   12  C   UNL     2     -10.651   9.597  67.725  1.00  0.00    -0.320 C  
BRANCH  12  13
HETATM   13  C   UNL     2      -9.965   9.649  69.092  1.00  0.00    -0.185 C  
BRANCH  13  14
HETATM   14  O   UNL     2     -10.056   8.372  69.699  1.00  0.00    -0.190 OA 
HETATM   15  S   UNL     2     -10.475   8.299  71.270  1.00  0.00    -0.221 S  
HETATM   16  O   UNL     2     -10.533   6.857  71.529  1.00  0.00    -0.211 OA 
HETATM   17  O   UNL     2     -11.779   8.949  71.325  1.00  0.00    -0.276 OA 
HETATM   18  O   UNL     2      -9.403   8.992  71.961  1.00  0.00    -0.358 OA 
ENDBRANCH  13  14
ENDBRANCH  12  13
ENDBRANCH  11  12
ENDBRANCH  10  11
ENDBRANCH   9  10
ENDBRANCH   8   9
ENDBRANCH   7   8
ENDBRANCH   6   7
ENDBRANCH   5   6
ENDBRANCH   4   5
ENDBRANCH   3   4
TORSDOF 11
ENDMDL
MODEL      328
REMARK 921   NORMALIZED FREE ENERGY PREDICTED BY IDOCK:   -2.78 KCAL/MOL
REMARK 922        TOTAL FREE ENERGY PREDICTED BY IDOCK:   -6.00 KCAL/MOL
REMARK 923 INTER-LIGAND FREE ENERGY PREDICTED BY IDOCK:   -4.80 KCAL/MOL
REMARK 924 INTRA-LIGAND FREE ENERGY PREDICTED BY IDOCK:   -1.20 KCAL/MOL
REMARK 927      BINDING AFFINITY PREDICTED BY RF-SCORE:    0.00 PKD
ROOT
HETATM    1 NA   UNL     1     -10.723   8.884  66.891  1.00  0.00    -0.226 Na 
HETATM    2  C   UNL     2      -7.295   3.449  69.039  1.00  0.00    -0.049 C  
HETATM    3  C   UNL     2      -8.167   4.695  69.076  1.00  0.00    -0.081 C  
ENDROOT
BRANCH   3   4
HETATM    4  C   UNL     2      -9.627   4.340  68.811  1.00  0.00    -0.219 C  
BRANCH   4   5
HETATM    5  C   UNL     2     -10.280   5.305  67.819  1.00  0.00    -0.211 C  
BRANCH   5   6
HETATM    6  C   UNL     2     -11.086   6.414  68.508  1.00  0.00    -0.385 C  
BRANCH   6   7
HETATM    7  C   UNL     2     -11.328   6.114  69.987  1.00  0.00    -0.443 C  
BRANCH   7   8
HETATM    8  C   UNL     2     -10.749   7.179  70.915  1.00  0.00    -0.251 C  
BRANCH   8   9
HETATM    9  C   UNL     2     -11.572   8.476  70.883  1.00  0.00    -0.295 C  
BRANCH   9  10
HETATM   10  C   UNL     2     -10.765   9.746  70.583  1.00  0.00    -0.394 C  
BRANCH  10  11
HETATM   11  C   UNL     2      -9.385   9.449  69.991  1.00  0.00    -0.253 C  
BRANCH  11  12
HETATM   12  C   UNL     2      -8.886  10.532  69.027  1.00  0.00    -0.174 C  
BRANCH  12  13
HETATM   13  C   UNL     2     -10.004  11.384  68.420  1.00  0.00    -0.204 C  
BRANCH  13  14
HETATM   14  O   UNL     2      -9.922  11.309  67.007  1.00  0.00    -0.192 OA 
HETATM   15  S   UNL     2     -10.663  12.465  66.135  1.00  0.00    -0.269 S  
HETATM   16  O   UNL     2     -10.316  12.110  64.755  1.00  0.00    -0.271 OA 
HETATM   17  O   UNL     2     -10.047  13.707  66.585  1.00  0.00    -0.265 OA 
HETATM   18  O   UNL     2     -12.071  12.315  66.460  1.00  0.00    -0.616 OA 
ENDBRANCH  13  14
ENDBRANCH  12  13
ENDBRANCH  11  12
ENDBRANCH  10  11
ENDBRANCH   9  10
ENDBRANCH   8   9
ENDBRANCH   7   8
ENDBRANCH   6   7
ENDBRANCH   5   6
ENDBRANCH   4   5
ENDBRANCH   3   4
TORSDOF 11
ENDMDL
MODEL      329
REMARK 921   NORMALIZED FREE ENERGY PREDICTED BY IDOCK:   -2.77 KCAL/MOL
REMARK 922        TOTAL FREE ENERGY PREDICTED BY IDOCK:   -5.99 KCAL/MOL
REMARK 923 INTER-LIGAND FREE ENERGY PREDICTED BY IDOCK:   -4.35 KCAL/MOL
REMARK 924 INTRA-LIGAND FREE ENERGY PREDICTED BY IDOCK:   -1.64 KCAL/MOL
REMARK 927      BINDING AFFINITY PREDICTED BY RF-SCORE:    0.00 PKD
ROOT
HETATM    1 NA   UNL     1      -6.984  17.577  65.914  1.00  0.00    -0.176 Na 
HETATM    2  C   UNL     2     -12.563  13.736  66.011  1.00  0.00    -0.458 C  
HETATM    3  C   UNL     2     -11.518  14.724  65.518  1.00  0.00    -0.329 C  
ENDROOT
BRANCH   3   4
HETATM    4  C   UNL     2     -10.375  13.996  64.817  1.00  0.00    -0.407 C  
BRANCH   4   5
HETATM    5  C   UNL     2     -10.868  12.779  64.029  1.00  0.00    -0.458 C  
BRANCH   5   6
HETATM    6  C   UNL     2      -9.910  11.584  64.116  1.00  0.00    -0.288 C  
BRANCH   6   7
HETATM    7  C   UNL     2     -10.406  10.521  65.097  1.00  0.00    -0.310 C  
BRANCH   7   8
HETATM    8  C   UNL     2      -9.971  10.788  66.536  1.00  0.00    -0.260 C  
BRANCH   8   9
HETATM    9  C   UNL     2      -8.442  10.812  66.678  1.00  0.00    -0.142 C  
BRANCH   9  10
HETATM   10  C   UNL     2      -7.830  12.210  66.839  1.00  0.00    -0.069 C  
BRANCH  10  11
HETATM   11  C   UNL     2      -8.584  13.077  67.851  1.00  0.00    -0.189 C  
BRANCH  11  12
HETATM   12  C   UNL     2      -8.100  14.531  67.892  1.00  0.00    -0.151 C  
BRANCH  12  13
HETATM   13  C   UNL     2      -8.782  15.381  68.967  1.00  0.00    -0.231 C  
BRANCH  13  14
HETATM   14  O   UNL     2     -10.070  15.755  68.508  1.00  0.00    -0.210 OA 
HETATM   15  S   UNL     2     -11.351  15.397  69.445  1.00  0.00    -0.335 S  
HETATM   16  O   UNL     2     -12.474  15.979  68.703  1.00  0.00     0.273 OA 
HETATM   17  O   UNL     2     -11.076  16.077  70.705  1.00  0.00    -0.348 OA 
HETATM   18  O   UNL     2     -11.357  13.947  69.508  1.00  0.00    -0.261 OA 
ENDBRANCH  13  14
ENDBRANCH  12  13
ENDBRANCH  11  12
ENDBRANCH  10  11
ENDBRANCH   9  10
ENDBRANCH   8   9
ENDBRANCH   7   8
ENDBRANCH   6   7
ENDBRANCH   5   6
ENDBRANCH   4   5
ENDBRANCH   3   4
TORSDOF 11
ENDMDL
MODEL      330
REMARK 921   NORMALIZED FREE ENERGY PREDICTED BY IDOCK:   -2.77 KCAL/MOL
REMARK 922        TOTAL FREE ENERGY PREDICTED BY IDOCK:   -5.98 KCAL/MOL
REMARK 923 INTER-LIGAND FREE ENERGY PREDICTED BY IDOCK:   -4.76 KCAL/MOL
REMARK 924 INTRA-LIGAND FREE ENERGY PREDICTED BY IDOCK:   -1.22 KCAL/MOL
REMARK 927      BINDING AFFINITY PREDICTED BY RF-SCORE:    0.00 PKD
ROOT
HETATM    1 NA   UNL     1      -8.206   9.854  70.804  1.00  0.00    -0.163 Na 
HETATM    2  C   UNL     2     -11.999  12.514  65.861  1.00  0.00    -0.472 C  
HETATM    3  C   UNL     2     -10.788  11.939  66.581  1.00  0.00    -0.315 C  
ENDROOT
BRANCH   3   4
HETATM    4  C   UNL     2     -10.783  10.416  66.494  1.00  0.00    -0.162 C  
BRANCH   4   5
HETATM    5  C   UNL     2      -9.494   9.814  67.059  1.00  0.00    -0.195 C  
BRANCH   5   6
HETATM    6  C   UNL     2      -8.649   9.106  65.993  1.00  0.00    -0.162 C  
BRANCH   6   7
HETATM    7  C   UNL     2      -7.813   7.971  66.583  1.00  0.00    -0.098 C  
BRANCH   7   8
HETATM    8  C   UNL     2      -8.074   6.625  65.910  1.00  0.00    -0.126 C  
BRANCH   8   9
HETATM    9  C   UNL     2      -8.781   5.640  66.852  1.00  0.00    -0.113 C  
BRANCH   9  10
HETATM   10  C   UNL     2     -10.307   5.582  66.699  1.00  0.00    -0.322 C  
BRANCH  10  11
HETATM   11  C   UNL     2     -11.041   6.440  67.733  1.00  0.00    -0.376 C  
BRANCH  11  12
HETATM   12  C   UNL     2     -10.740   6.042  69.183  1.00  0.00    -0.399 C  
BRANCH  12  13
HETATM   13  C   UNL     2     -11.778   6.543  70.192  1.00  0.00    -0.353 C  
BRANCH  13  14
HETATM   14  O   UNL     2     -11.329   6.238  71.501  1.00  0.00    -0.278 OA 
HETATM   15  S   UNL     2     -10.992   7.475  72.503  1.00  0.00    -0.342 S  
HETATM   16  O   UNL     2     -10.634   6.798  73.753  1.00  0.00    -0.337 OA 
HETATM   17  O   UNL     2     -12.243   8.220  72.586  1.00  0.00    -0.364 OA 
HETATM   18  O   UNL     2      -9.894   8.172  71.858  1.00  0.00    -0.179 OA 
ENDBRANCH  13  14
ENDBRANCH  12  13
ENDBRANCH  11  12
ENDBRANCH  10  11
ENDBRANCH   9  10
ENDBRANCH   8   9
ENDBRANCH   7   8
ENDBRANCH   6   7
ENDBRANCH   5   6
ENDBRANCH   4   5
ENDBRANCH   3   4
TORSDOF 11
ENDMDL
MODEL      331
REMARK 921   NORMALIZED FREE ENERGY PREDICTED BY IDOCK:   -2.77 KCAL/MOL
REMARK 922        TOTAL FREE ENERGY PREDICTED BY IDOCK:   -5.98 KCAL/MOL
REMARK 923 INTER-LIGAND FREE ENERGY PREDICTED BY IDOCK:   -5.35 KCAL/MOL
REMARK 924 INTRA-LIGAND FREE ENERGY PREDICTED BY IDOCK:   -0.63 KCAL/MOL
REMARK 927      BINDING AFFINITY PREDICTED BY RF-SCORE:    0.00 PKD
ROOT
HETATM    1 NA   UNL     1     -11.902   5.409  65.376  1.00  0.00    -0.715 Na 
HETATM    2  C   UNL     2      -8.459  10.615  62.742  1.00  0.00    -0.211 C  
HETATM    3  C   UNL     2      -9.236   9.779  63.747  1.00  0.00    -0.237 C  
ENDROOT
BRANCH   3   4
HETATM    4  C   UNL     2      -8.301   8.847  64.512  1.00  0.00    -0.178 C  
BRANCH   4   5
HETATM    5  C   UNL     2      -7.737   9.509  65.771  1.00  0.00    -0.100 C  
BRANCH   5   6
HETATM    6  C   UNL     2      -8.182   8.809  67.063  1.00  0.00    -0.103 C  
BRANCH   6   7
HETATM    7  C   UNL     2      -9.177   9.652  67.859  1.00  0.00    -0.134 C  
BRANCH   7   8
HETATM    8  C   UNL     2      -8.581  10.223  69.144  1.00  0.00    -0.167 C  
BRANCH   8   9
HETATM    9  C   UNL     2      -9.205   9.590  70.396  1.00  0.00    -0.305 C  
BRANCH   9  10
HETATM   10  C   UNL     2     -10.711   9.316  70.300  1.00  0.00    -0.284 C  
BRANCH  10  11
HETATM   11  C   UNL     2     -11.544  10.258  71.173  1.00  0.00    -0.385 C  
BRANCH  11  12
HETATM   12  C   UNL     2     -12.464  11.184  70.368  1.00  0.00    -0.382 C  
BRANCH  12  13
HETATM   13  C   UNL     2     -11.919  12.605  70.198  1.00  0.00    -0.299 C  
BRANCH  13  14
HETATM   14  O   UNL     2     -12.918  13.530  70.590  1.00  0.00    -0.167 OA 
HETATM   15  S   UNL     2     -12.490  15.090  70.763  1.00  0.00    -0.385 S  
HETATM   16  O   UNL     2     -13.759  15.744  71.099  1.00  0.00    -0.560 OA 
HETATM   17  O   UNL     2     -11.974  15.469  69.454  1.00  0.00    -0.345 OA 
HETATM   18  O   UNL     2     -11.515  15.079  71.839  1.00  0.00    -0.389 OA 
ENDBRANCH  13  14
ENDBRANCH  12  13
ENDBRANCH  11  12
ENDBRANCH  10  11
ENDBRANCH   9  10
ENDBRANCH   8   9
ENDBRANCH   7   8
ENDBRANCH   6   7
ENDBRANCH   5   6
ENDBRANCH   4   5
ENDBRANCH   3   4
TORSDOF 11
ENDMDL
MODEL      332
REMARK 921   NORMALIZED FREE ENERGY PREDICTED BY IDOCK:   -2.76 KCAL/MOL
REMARK 922        TOTAL FREE ENERGY PREDICTED BY IDOCK:   -5.97 KCAL/MOL
REMARK 923 INTER-LIGAND FREE ENERGY PREDICTED BY IDOCK:   -4.83 KCAL/MOL
REMARK 924 INTRA-LIGAND FREE ENERGY PREDICTED BY IDOCK:   -1.14 KCAL/MOL
REMARK 927      BINDING AFFINITY PREDICTED BY RF-SCORE:    0.00 PKD
ROOT
HETATM    1 NA   UNL     1      -8.452  20.056  68.163  1.00  0.00    -0.286 Na 
HETATM    2  C   UNL     2     -11.475  14.271  69.978  1.00  0.00    -0.280 C  
HETATM    3  C   UNL     2     -11.260  15.758  69.745  1.00  0.00    -0.330 C  
ENDROOT
BRANCH   3   4
HETATM    4  C   UNL     2     -11.645  16.143  68.319  1.00  0.00    -0.181 C  
BRANCH   4   5
HETATM    5  C   UNL     2     -10.687  15.544  67.286  1.00  0.00    -0.308 C  
BRANCH   5   6
HETATM    6  C   UNL     2      -9.257  16.083  67.417  1.00  0.00    -0.214 C  
BRANCH   6   7
HETATM    7  C   UNL     2      -8.210  14.998  67.170  1.00  0.00    -0.251 C  
BRANCH   7   8
HETATM    8  C   UNL     2      -8.328  13.823  68.138  1.00  0.00    -0.165 C  
BRANCH   8   9
HETATM    9  C   UNL     2      -8.579  12.498  67.404  1.00  0.00    -0.187 C  
BRANCH   9  10
HETATM   10  C   UNL     2     -10.056  12.163  67.160  1.00  0.00    -0.220 C  
BRANCH  10  11
HETATM   11  C   UNL     2     -10.262  10.752  66.602  1.00  0.00    -0.283 C  
BRANCH  11  12
HETATM   12  C   UNL     2     -10.550   9.703  67.682  1.00  0.00    -0.334 C  
BRANCH  12  13
HETATM   13  C   UNL     2     -11.264  10.262  68.916  1.00  0.00    -0.207 C  
BRANCH  13  14
HETATM   14  O   UNL     2     -10.483   9.981  70.064  1.00  0.00    -0.256 OA 
HETATM   15  S   UNL     2     -11.156   9.093  71.249  1.00  0.00    -0.366 S  
HETATM   16  O   UNL     2     -10.063   8.950  72.216  1.00  0.00    -0.294 OA 
HETATM   17  O   UNL     2     -11.520   7.840  70.598  1.00  0.00    -0.279 OA 
HETATM   18  O   UNL     2     -12.271   9.899  71.714  1.00  0.00    -0.389 OA 
ENDBRANCH  13  14
ENDBRANCH  12  13
ENDBRANCH  11  12
ENDBRANCH  10  11
ENDBRANCH   9  10
ENDBRANCH   8   9
ENDBRANCH   7   8
ENDBRANCH   6   7
ENDBRANCH   5   6
ENDBRANCH   4   5
ENDBRANCH   3   4
TORSDOF 11
ENDMDL
MODEL      333
REMARK 921   NORMALIZED FREE ENERGY PREDICTED BY IDOCK:   -2.76 KCAL/MOL
REMARK 922        TOTAL FREE ENERGY PREDICTED BY IDOCK:   -5.97 KCAL/MOL
REMARK 923 INTER-LIGAND FREE ENERGY PREDICTED BY IDOCK:   -5.45 KCAL/MOL
REMARK 924 INTRA-LIGAND FREE ENERGY PREDICTED BY IDOCK:   -0.52 KCAL/MOL
REMARK 927      BINDING AFFINITY PREDICTED BY RF-SCORE:    0.00 PKD
ROOT
HETATM    1 NA   UNL     1     -12.624  10.733  63.253  1.00  0.00    -0.528 Na 
HETATM    2  C   UNL     2     -10.113   6.639  68.031  1.00  0.00    -0.175 C  
HETATM    3  C   UNL     2     -10.167   7.545  66.811  1.00  0.00    -0.324 C  
ENDROOT
BRANCH   3   4
HETATM    4  C   UNL     2     -10.008   9.007  67.217  1.00  0.00    -0.275 C  
BRANCH   4   5
HETATM    5  C   UNL     2      -8.585   9.321  67.682  1.00  0.00    -0.116 C  
BRANCH   5   6
HETATM    6  C   UNL     2      -8.514  10.550  68.599  1.00  0.00    -0.138 C  
BRANCH   6   7
HETATM    7  C   UNL     2      -7.994  11.785  67.865  1.00  0.00    -0.141 C  
BRANCH   7   8
HETATM    8  C   UNL     2      -9.061  12.862  67.678  1.00  0.00    -0.194 C  
BRANCH   8   9
HETATM    9  C   UNL     2     -10.293  12.606  68.558  1.00  0.00    -0.232 C  
BRANCH   9  10
HETATM   10  C   UNL     2     -11.079  13.864  68.951  1.00  0.00    -0.296 C  
BRANCH  10  11
HETATM   11  C   UNL     2     -11.800  14.510  67.765  1.00  0.00    -0.390 C  
BRANCH  11  12
HETATM   12  C   UNL     2     -10.988  15.618  67.085  1.00  0.00    -0.270 C  
BRANCH  12  13
HETATM   13  C   UNL     2     -10.720  16.830  67.982  1.00  0.00    -0.355 C  
BRANCH  13  14
HETATM   14  O   UNL     2      -9.581  17.517  67.494  1.00  0.00    -0.258 OA 
HETATM   15  S   UNL     2      -9.818  18.882  66.641  1.00  0.00    -0.381 S  
HETATM   16  O   UNL     2      -8.452  19.342  66.368  1.00  0.00    -0.311 OA 
HETATM   17  O   UNL     2     -10.550  19.753  67.552  1.00  0.00    -0.433 OA 
HETATM   18  O   UNL     2     -10.554  18.450  65.466  1.00  0.00    -0.627 OA 
ENDBRANCH  13  14
ENDBRANCH  12  13
ENDBRANCH  11  12
ENDBRANCH  10  11
ENDBRANCH   9  10
ENDBRANCH   8   9
ENDBRANCH   7   8
ENDBRANCH   6   7
ENDBRANCH   5   6
ENDBRANCH   4   5
ENDBRANCH   3   4
TORSDOF 11
ENDMDL
MODEL      334
REMARK 921   NORMALIZED FREE ENERGY PREDICTED BY IDOCK:   -2.75 KCAL/MOL
REMARK 922        TOTAL FREE ENERGY PREDICTED BY IDOCK:   -5.95 KCAL/MOL
REMARK 923 INTER-LIGAND FREE ENERGY PREDICTED BY IDOCK:   -4.51 KCAL/MOL
REMARK 924 INTRA-LIGAND FREE ENERGY PREDICTED BY IDOCK:   -1.44 KCAL/MOL
REMARK 927      BINDING AFFINITY PREDICTED BY RF-SCORE:    0.00 PKD
ROOT
HETATM    1 NA   UNL     1      -6.817  11.981  66.031  1.00  0.00    -0.352 Na 
HETATM    2  C   UNL     2      -6.811   5.359  67.463  1.00  0.00    -0.060 C  
HETATM    3  C   UNL     2      -6.780   6.866  67.670  1.00  0.00    -0.067 C  
ENDROOT
BRANCH   3   4
HETATM    4  C   UNL     2      -8.196   7.430  67.740  1.00  0.00    -0.119 C  
BRANCH   4   5
HETATM    5  C   UNL     2      -9.043   6.724  68.801  1.00  0.00    -0.132 C  
BRANCH   5   6
HETATM    6  C   UNL     2     -10.525   6.630  68.416  1.00  0.00    -0.248 C  
BRANCH   6   7
HETATM    7  C   UNL     2     -11.402   6.232  69.602  1.00  0.00    -0.492 C  
BRANCH   7   8
HETATM    8  C   UNL     2     -11.083   7.019  70.871  1.00  0.00    -0.300 C  
BRANCH   8   9
HETATM    9  C   UNL     2     -12.101   8.141  71.122  1.00  0.00    -0.281 C  
BRANCH   9  10
HETATM   10  C   UNL     2     -11.501   9.550  71.213  1.00  0.00    -0.447 C  
BRANCH  10  11
HETATM   11  C   UNL     2     -11.302  10.201  69.841  1.00  0.00    -0.335 C  
BRANCH  11  12
HETATM   12  C   UNL     2      -9.836  10.253  69.395  1.00  0.00    -0.247 C  
BRANCH  12  13
HETATM   13  C   UNL     2      -9.502  11.450  68.500  1.00  0.00    -0.183 C  
BRANCH  13  14
HETATM   14  O   UNL     2     -10.512  11.582  67.516  1.00  0.00    -0.189 OA 
HETATM   15  S   UNL     2     -10.105  12.240  66.084  1.00  0.00    -0.250 S  
HETATM   16  O   UNL     2     -11.351  12.155  65.316  1.00  0.00    -0.324 OA 
HETATM   17  O   UNL     2      -9.052  11.370  65.576  1.00  0.00    -0.205 OA 
HETATM   18  O   UNL     2      -9.691  13.592  66.414  1.00  0.00    -0.282 OA 
ENDBRANCH  13  14
ENDBRANCH  12  13
ENDBRANCH  11  12
ENDBRANCH  10  11
ENDBRANCH   9  10
ENDBRANCH   8   9
ENDBRANCH   7   8
ENDBRANCH   6   7
ENDBRANCH   5   6
ENDBRANCH   4   5
ENDBRANCH   3   4
TORSDOF 11
ENDMDL
MODEL      335
REMARK 921   NORMALIZED FREE ENERGY PREDICTED BY IDOCK:   -2.74 KCAL/MOL
REMARK 922        TOTAL FREE ENERGY PREDICTED BY IDOCK:   -5.93 KCAL/MOL
REMARK 923 INTER-LIGAND FREE ENERGY PREDICTED BY IDOCK:   -4.93 KCAL/MOL
REMARK 924 INTRA-LIGAND FREE ENERGY PREDICTED BY IDOCK:   -1.00 KCAL/MOL
REMARK 927      BINDING AFFINITY PREDICTED BY RF-SCORE:    0.00 PKD
ROOT
HETATM    1 NA   UNL     1     -10.580   4.981  69.251  1.00  0.00    -0.193 Na 
HETATM    2  C   UNL     2      -9.237   9.900  64.791  1.00  0.00    -0.309 C  
HETATM    3  C   UNL     2      -9.792   9.201  66.022  1.00  0.00    -0.342 C  
ENDROOT
BRANCH   3   4
HETATM    4  C   UNL     2      -8.766   9.204  67.152  1.00  0.00    -0.130 C  
BRANCH   4   5
HETATM    5  C   UNL     2      -9.352   8.667  68.460  1.00  0.00    -0.138 C  
BRANCH   5   6
HETATM    6  C   UNL     2      -9.311   9.694  69.599  1.00  0.00    -0.226 C  
BRANCH   6   7
HETATM    7  C   UNL     2     -10.710  10.152  70.011  1.00  0.00    -0.356 C  
BRANCH   7   8
HETATM    8  C   UNL     2     -11.538  10.670  68.837  1.00  0.00    -0.320 C  
BRANCH   8   9
HETATM    9  C   UNL     2     -11.374  12.185  68.645  1.00  0.00    -0.330 C  
BRANCH   9  10
HETATM   10  C   UNL     2      -9.947  12.645  68.316  1.00  0.00    -0.229 C  
BRANCH  10  11
HETATM   11  C   UNL     2      -9.731  12.887  66.820  1.00  0.00    -0.246 C  
BRANCH  11  12
HETATM   12  C   UNL     2     -10.774  13.820  66.194  1.00  0.00    -0.283 C  
BRANCH  12  13
HETATM   13  C   UNL     2     -10.645  15.280  66.637  1.00  0.00    -0.304 C  
BRANCH  13  14
HETATM   14  O   UNL     2     -11.275  15.434  67.897  1.00  0.00    -0.313 OA 
HETATM   15  S   UNL     2     -10.597  16.449  68.973  1.00  0.00    -0.330 S  
HETATM   16  O   UNL     2     -11.533  16.406  70.101  1.00  0.00    -0.279 OA 
HETATM   17  O   UNL     2     -10.575  17.736  68.288  1.00  0.00    -0.369 OA 
HETATM   18  O   UNL     2      -9.296  15.867  69.247  1.00  0.00    -0.238 OA 
ENDBRANCH  13  14
ENDBRANCH  12  13
ENDBRANCH  11  12
ENDBRANCH  10  11
ENDBRANCH   9  10
ENDBRANCH   8   9
ENDBRANCH   7   8
ENDBRANCH   6   7
ENDBRANCH   5   6
ENDBRANCH   4   5
ENDBRANCH   3   4
TORSDOF 11
ENDMDL
MODEL      336
REMARK 921   NORMALIZED FREE ENERGY PREDICTED BY IDOCK:   -2.73 KCAL/MOL
REMARK 922        TOTAL FREE ENERGY PREDICTED BY IDOCK:   -5.93 KCAL/MOL
REMARK 923 INTER-LIGAND FREE ENERGY PREDICTED BY IDOCK:   -5.29 KCAL/MOL
REMARK 924 INTRA-LIGAND FREE ENERGY PREDICTED BY IDOCK:   -0.64 KCAL/MOL
REMARK 927      BINDING AFFINITY PREDICTED BY RF-SCORE:    0.00 PKD
ROOT
HETATM    1 NA   UNL     1     -14.330   7.802  70.600  1.00  0.00    -0.589 Na 
HETATM    2  C   UNL     2     -13.816  14.326  72.349  1.00  0.00    -0.619 C  
HETATM    3  C   UNL     2     -13.478  12.848  72.232  1.00  0.00    -0.631 C  
ENDROOT
BRANCH   3   4
HETATM    4  C   UNL     2     -12.702  12.572  70.948  1.00  0.00    -0.270 C  
BRANCH   4   5
HETATM    5  C   UNL     2     -12.219  13.863  70.282  1.00  0.00    -0.428 C  
BRANCH   5   6
HETATM    6  C   UNL     2     -11.769  13.653  68.830  1.00  0.00    -0.377 C  
BRANCH   6   7
HETATM    7  C   UNL     2     -11.718  12.173  68.453  1.00  0.00    -0.388 C  
BRANCH   7   8
HETATM    8  C   UNL     2     -11.119  11.929  67.070  1.00  0.00    -0.354 C  
BRANCH   8   9
HETATM    9  C   UNL     2     -10.674  10.471  66.886  1.00  0.00    -0.281 C  
BRANCH   9  10
HETATM   10  C   UNL     2      -9.155  10.252  66.897  1.00  0.00    -0.159 C  
BRANCH  10  11
HETATM   11  C   UNL     2      -8.609   9.943  68.294  1.00  0.00    -0.115 C  
BRANCH  11  12
HETATM   12  C   UNL     2      -8.558   8.444  68.613  1.00  0.00    -0.132 C  
BRANCH  12  13
HETATM   13  C   UNL     2      -8.710   7.543  67.385  1.00  0.00    -0.124 C  
BRANCH  13  14
HETATM   14  O   UNL     2      -8.826   6.197  67.815  1.00  0.00    -0.113 OA 
HETATM   15  S   UNL     2     -10.200   5.399  67.469  1.00  0.00    -0.184 S  
HETATM   16  O   UNL     2      -9.941   4.054  67.993  1.00  0.00    -0.056 OA 
HETATM   17  O   UNL     2     -10.287   5.446  66.014  1.00  0.00    -0.152 OA 
HETATM   18  O   UNL     2     -11.232   6.133  68.179  1.00  0.00    -0.314 OA 
ENDBRANCH  13  14
ENDBRANCH  12  13
ENDBRANCH  11  12
ENDBRANCH  10  11
ENDBRANCH   9  10
ENDBRANCH   8   9
ENDBRANCH   7   8
ENDBRANCH   6   7
ENDBRANCH   5   6
ENDBRANCH   4   5
ENDBRANCH   3   4
TORSDOF 11
ENDMDL
MODEL      337
REMARK 921   NORMALIZED FREE ENERGY PREDICTED BY IDOCK:   -2.73 KCAL/MOL
REMARK 922        TOTAL FREE ENERGY PREDICTED BY IDOCK:   -5.92 KCAL/MOL
REMARK 923 INTER-LIGAND FREE ENERGY PREDICTED BY IDOCK:   -5.22 KCAL/MOL
REMARK 924 INTRA-LIGAND FREE ENERGY PREDICTED BY IDOCK:   -0.70 KCAL/MOL
REMARK 927      BINDING AFFINITY PREDICTED BY RF-SCORE:    0.00 PKD
ROOT
HETATM    1 NA   UNL     1      -7.213   7.382  69.238  1.00  0.00    -0.061 Na 
HETATM    2  C   UNL     2     -11.491   4.152  73.381  1.00  0.00    -0.234 C  
HETATM    3  C   UNL     2     -10.325   5.013  72.921  1.00  0.00    -0.238 C  
ENDROOT
BRANCH   3   4
HETATM    4  C   UNL     2     -10.774   6.455  72.701  1.00  0.00    -0.262 C  
BRANCH   4   5
HETATM    5  C   UNL     2     -11.375   6.663  71.309  1.00  0.00    -0.346 C  
BRANCH   5   6
HETATM    6  C   UNL     2     -10.539   6.017  70.197  1.00  0.00    -0.341 C  
BRANCH   6   7
HETATM    7  C   UNL     2     -11.084   6.342  68.806  1.00  0.00    -0.424 C  
BRANCH   7   8
HETATM    8  C   UNL     2     -10.096   6.021  67.688  1.00  0.00    -0.190 C  
BRANCH   8   9
HETATM    9  C   UNL     2     -10.013   7.153  66.653  1.00  0.00    -0.234 C  
BRANCH   9  10
HETATM   10  C   UNL     2      -8.728   7.989  66.712  1.00  0.00    -0.142 C  
BRANCH  10  11
HETATM   11  C   UNL     2      -8.986   9.489  66.549  1.00  0.00    -0.173 C  
BRANCH  11  12
HETATM   12  C   UNL     2     -10.244   9.976  67.277  1.00  0.00    -0.275 C  
BRANCH  12  13
HETATM   13  C   UNL     2     -10.810  11.289  66.728  1.00  0.00    -0.282 C  
BRANCH  13  14
HETATM   14  O   UNL     2     -11.117  11.117  65.355  1.00  0.00    -0.145 OA 
HETATM   15  S   UNL     2     -11.679  12.401  64.529  1.00  0.00    -0.377 S  
HETATM   16  O   UNL     2     -11.816  11.882  63.165  1.00  0.00    -0.351 OA 
HETATM   17  O   UNL     2     -10.629  13.403  64.664  1.00  0.00    -0.372 OA 
HETATM   18  O   UNL     2     -12.936  12.725  65.180  1.00  0.00    -0.768 OA 
ENDBRANCH  13  14
ENDBRANCH  12  13
ENDBRANCH  11  12
ENDBRANCH  10  11
ENDBRANCH   9  10
ENDBRANCH   8   9
ENDBRANCH   7   8
ENDBRANCH   6   7
ENDBRANCH   5   6
ENDBRANCH   4   5
ENDBRANCH   3   4
TORSDOF 11
ENDMDL
MODEL      338
REMARK 921   NORMALIZED FREE ENERGY PREDICTED BY IDOCK:   -2.73 KCAL/MOL
REMARK 922        TOTAL FREE ENERGY PREDICTED BY IDOCK:   -5.91 KCAL/MOL
REMARK 923 INTER-LIGAND FREE ENERGY PREDICTED BY IDOCK:   -5.12 KCAL/MOL
REMARK 924 INTRA-LIGAND FREE ENERGY PREDICTED BY IDOCK:   -0.79 KCAL/MOL
REMARK 927      BINDING AFFINITY PREDICTED BY RF-SCORE:    0.00 PKD
ROOT
HETATM    1 NA   UNL     1      -7.514   8.308  72.793  1.00  0.00    -0.084 Na 
HETATM    2  C   UNL     2     -10.895  12.168  68.369  1.00  0.00    -0.255 C  
HETATM    3  C   UNL     2     -10.007  11.057  68.909  1.00  0.00    -0.201 C  
ENDROOT
BRANCH   3   4
HETATM    4  C   UNL     2     -10.844   9.849  69.319  1.00  0.00    -0.255 C  
BRANCH   4   5
HETATM    5  C   UNL     2      -9.991   8.752  69.960  1.00  0.00    -0.196 C  
BRANCH   5   6
HETATM    6  C   UNL     2      -9.088   8.031  68.950  1.00  0.00    -0.144 C  
BRANCH   6   7
HETATM    7  C   UNL     2      -9.645   8.104  67.529  1.00  0.00    -0.196 C  
BRANCH   7   8
HETATM    8  C   UNL     2      -8.683   7.544  66.483  1.00  0.00    -0.151 C  
BRANCH   8   9
HETATM    9  C   UNL     2      -8.646   8.411  65.216  1.00  0.00    -0.177 C  
BRANCH   9  10
HETATM   10  C   UNL     2      -8.099   9.831  65.420  1.00  0.00    -0.127 C  
BRANCH  10  11
HETATM   11  C   UNL     2      -9.166  10.912  65.229  1.00  0.00    -0.236 C  
BRANCH  11  12
HETATM   12  C   UNL     2      -9.414  11.276  63.760  1.00  0.00    -0.222 C  
BRANCH  12  13
HETATM   13  C   UNL     2     -10.695  12.080  63.527  1.00  0.00    -0.455 C  
BRANCH  13  14
HETATM   14  O   UNL     2     -11.117  12.637  64.760  1.00  0.00    -0.283 OA 
HETATM   15  S   UNL     2     -12.577  13.354  64.817  1.00  0.00    -0.266 S  
HETATM   16  O   UNL     2     -12.699  13.740  66.227  1.00  0.00    -0.373 OA 
HETATM   17  O   UNL     2     -13.508  12.304  64.422  1.00  0.00    -0.686 OA 
HETATM   18  O   UNL     2     -12.467  14.469  63.894  1.00  0.00    -0.814 OA 
ENDBRANCH  13  14
ENDBRANCH  12  13
ENDBRANCH  11  12
ENDBRANCH  10  11
ENDBRANCH   9  10
ENDBRANCH   8   9
ENDBRANCH   7   8
ENDBRANCH   6   7
ENDBRANCH   5   6
ENDBRANCH   4   5
ENDBRANCH   3   4
TORSDOF 11
ENDMDL
MODEL      339
REMARK 921   NORMALIZED FREE ENERGY PREDICTED BY IDOCK:   -2.72 KCAL/MOL
REMARK 922        TOTAL FREE ENERGY PREDICTED BY IDOCK:   -5.90 KCAL/MOL
REMARK 923 INTER-LIGAND FREE ENERGY PREDICTED BY IDOCK:   -4.72 KCAL/MOL
REMARK 924 INTRA-LIGAND FREE ENERGY PREDICTED BY IDOCK:   -1.18 KCAL/MOL
REMARK 927      BINDING AFFINITY PREDICTED BY RF-SCORE:    0.00 PKD
ROOT
HETATM    1 NA   UNL     1     -12.683  13.562  68.335  1.00  0.00    -0.309 Na 
HETATM    2  C   UNL     2      -8.704   8.173  69.341  1.00  0.00    -0.143 C  
HETATM    3  C   UNL     2      -9.231   9.596  69.435  1.00  0.00    -0.196 C  
ENDROOT
BRANCH   3   4
HETATM    4  C   UNL     2     -10.268   9.715  70.548  1.00  0.00    -0.351 C  
BRANCH   4   5
HETATM    5  C   UNL     2     -11.577  10.331  70.049  1.00  0.00    -0.349 C  
BRANCH   5   6
HETATM    6  C   UNL     2     -12.759  10.062  70.989  1.00  0.00    -0.455 C  
BRANCH   6   7
HETATM    7  C   UNL     2     -12.493   8.885  71.926  1.00  0.00    -0.445 C  
BRANCH   7   8
HETATM    8  C   UNL     2     -13.097   7.575  71.425  1.00  0.00    -0.373 C  
BRANCH   8   9
HETATM    9  C   UNL     2     -12.020   6.596  70.936  1.00  0.00    -0.413 C  
BRANCH   9  10
HETATM   10  C   UNL     2     -10.940   6.254  71.971  1.00  0.00    -0.299 C  
BRANCH  10  11
HETATM   11  C   UNL     2      -9.756   5.493  71.367  1.00  0.00    -0.205 C  
BRANCH  11  12
HETATM   12  C   UNL     2     -10.107   4.741  70.077  1.00  0.00    -0.308 C  
BRANCH  12  13
HETATM   13  C   UNL     2      -8.960   4.681  69.064  1.00  0.00    -0.110 C  
BRANCH  13  14
HETATM   14  O   UNL     2      -9.313   3.783  68.026  1.00  0.00    -0.157 OA 
HETATM   15  S   UNL     2      -9.313   4.341  66.498  1.00  0.00    -0.181 S  
HETATM   16  O   UNL     2      -9.649   3.150  65.712  1.00  0.00    -0.104 OA 
HETATM   17  O   UNL     2      -7.948   4.808  66.285  1.00  0.00    -0.102 OA 
HETATM   18  O   UNL     2     -10.332   5.375  66.492  1.00  0.00    -0.223 OA 
ENDBRANCH  13  14
ENDBRANCH  12  13
ENDBRANCH  11  12
ENDBRANCH  10  11
ENDBRANCH   9  10
ENDBRANCH   8   9
ENDBRANCH   7   8
ENDBRANCH   6   7
ENDBRANCH   5   6
ENDBRANCH   4   5
ENDBRANCH   3   4
TORSDOF 11
ENDMDL
MODEL      340
REMARK 921   NORMALIZED FREE ENERGY PREDICTED BY IDOCK:   -2.72 KCAL/MOL
REMARK 922        TOTAL FREE ENERGY PREDICTED BY IDOCK:   -5.90 KCAL/MOL
REMARK 923 INTER-LIGAND FREE ENERGY PREDICTED BY IDOCK:   -5.01 KCAL/MOL
REMARK 924 INTRA-LIGAND FREE ENERGY PREDICTED BY IDOCK:   -0.89 KCAL/MOL
REMARK 927      BINDING AFFINITY PREDICTED BY RF-SCORE:    0.00 PKD
ROOT
HETATM    1 NA   UNL     1      -7.248  13.507  70.479  1.00  0.00    -0.344 Na 
HETATM    2  C   UNL     2     -13.239  15.324  73.067  1.00  0.00    -0.617 C  
HETATM    3  C   UNL     2     -11.763  15.381  72.705  1.00  0.00    -0.556 C  
ENDROOT
BRANCH   3   4
HETATM    4  C   UNL     2     -11.571  15.985  71.317  1.00  0.00    -0.506 C  
BRANCH   4   5
HETATM    5  C   UNL     2     -10.992  14.972  70.326  1.00  0.00    -0.238 C  
BRANCH   5   6
HETATM    6  C   UNL     2     -11.941  14.671  69.159  1.00  0.00    -0.329 C  
BRANCH   6   7
HETATM    7  C   UNL     2     -12.139  13.170  68.953  1.00  0.00    -0.232 C  
BRANCH   7   8
HETATM    8  C   UNL     2     -12.123  12.381  70.260  1.00  0.00    -0.377 C  
BRANCH   8   9
HETATM    9  C   UNL     2     -11.424  11.023  70.102  1.00  0.00    -0.383 C  
BRANCH   9  10
HETATM   10  C   UNL     2     -10.282  10.999  69.077  1.00  0.00    -0.217 C  
BRANCH  10  11
HETATM   11  C   UNL     2      -9.953   9.587  68.586  1.00  0.00    -0.181 C  
BRANCH  11  12
HETATM   12  C   UNL     2      -9.251   8.721  69.640  1.00  0.00    -0.150 C  
BRANCH  12  13
HETATM   13  C   UNL     2      -8.656   7.426  69.081  1.00  0.00    -0.136 C  
BRANCH  13  14
HETATM   14  O   UNL     2      -9.702   6.635  68.545  1.00  0.00    -0.131 OA 
HETATM   15  S   UNL     2      -9.440   5.876  67.130  1.00  0.00    -0.122 S  
HETATM   16  O   UNL     2     -10.680   5.120  66.926  1.00  0.00    -0.230 OA 
HETATM   17  O   UNL     2      -8.282   5.028  67.386  1.00  0.00    -0.106 OA 
HETATM   18  O   UNL     2      -9.226   6.952  66.178  1.00  0.00    -0.152 OA 
ENDBRANCH  13  14
ENDBRANCH  12  13
ENDBRANCH  11  12
ENDBRANCH  10  11
ENDBRANCH   9  10
ENDBRANCH   8   9
ENDBRANCH   7   8
ENDBRANCH   6   7
ENDBRANCH   5   6
ENDBRANCH   4   5
ENDBRANCH   3   4
TORSDOF 11
ENDMDL
MODEL      341
REMARK 921   NORMALIZED FREE ENERGY PREDICTED BY IDOCK:   -2.72 KCAL/MOL
REMARK 922        TOTAL FREE ENERGY PREDICTED BY IDOCK:   -5.90 KCAL/MOL
REMARK 923 INTER-LIGAND FREE ENERGY PREDICTED BY IDOCK:   -5.12 KCAL/MOL
REMARK 924 INTRA-LIGAND FREE ENERGY PREDICTED BY IDOCK:   -0.78 KCAL/MOL
REMARK 927      BINDING AFFINITY PREDICTED BY RF-SCORE:    0.00 PKD
ROOT
HETATM    1 NA   UNL     1      -6.339  14.869  71.409  1.00  0.00    -0.094 Na 
HETATM    2  C   UNL     2      -9.104   9.688  68.030  1.00  0.00    -0.128 C  
HETATM    3  C   UNL     2      -8.564  11.081  68.318  1.00  0.00    -0.143 C  
ENDROOT
BRANCH   3   4
HETATM    4  C   UNL     2      -7.058  11.136  68.081  1.00  0.00    -0.071 C  
BRANCH   4   5
HETATM    5  C   UNL     2      -6.655  12.341  67.228  1.00  0.00    -0.146 C  
BRANCH   5   6
HETATM    6  C   UNL     2      -6.610  13.649  68.029  1.00  0.00    -0.136 C  
BRANCH   6   7
HETATM    7  C   UNL     2      -7.298  14.798  67.293  1.00  0.00    -0.147 C  
BRANCH   7   8
HETATM    8  C   UNL     2      -8.790  14.557  67.074  1.00  0.00    -0.256 C  
BRANCH   8   9
HETATM    9  C   UNL     2      -9.519  15.836  66.636  1.00  0.00    -0.279 C  
BRANCH   9  10
HETATM   10  C   UNL     2     -10.127  16.657  67.781  1.00  0.00    -0.275 C  
BRANCH  10  11
HETATM   11  C   UNL     2     -10.224  15.870  69.091  1.00  0.00    -0.234 C  
BRANCH  11  12
HETATM   12  C   UNL     2     -11.568  16.039  69.809  1.00  0.00    -0.297 C  
BRANCH  12  13
HETATM   13  C   UNL     2     -11.515  15.728  71.307  1.00  0.00    -0.422 C  
BRANCH  13  14
HETATM   14  O   UNL     2     -12.165  14.491  71.542  1.00  0.00    -0.332 OA 
HETATM   15  S   UNL     2     -13.363  14.452  72.642  1.00  0.00    -0.516 S  
HETATM   16  O   UNL     2     -13.833  13.065  72.569  1.00  0.00    -0.625 OA 
HETATM   17  O   UNL     2     -14.336  15.419  72.148  1.00  0.00    -0.550 OA 
HETATM   18  O   UNL     2     -12.715  14.804  73.893  1.00  0.00    -0.475 OA 
ENDBRANCH  13  14
ENDBRANCH  12  13
ENDBRANCH  11  12
ENDBRANCH  10  11
ENDBRANCH   9  10
ENDBRANCH   8   9
ENDBRANCH   7   8
ENDBRANCH   6   7
ENDBRANCH   5   6
ENDBRANCH   4   5
ENDBRANCH   3   4
TORSDOF 11
ENDMDL
MODEL      342
REMARK 921   NORMALIZED FREE ENERGY PREDICTED BY IDOCK:   -2.72 KCAL/MOL
REMARK 922        TOTAL FREE ENERGY PREDICTED BY IDOCK:   -5.90 KCAL/MOL
REMARK 923 INTER-LIGAND FREE ENERGY PREDICTED BY IDOCK:   -5.05 KCAL/MOL
REMARK 924 INTRA-LIGAND FREE ENERGY PREDICTED BY IDOCK:   -0.85 KCAL/MOL
REMARK 927      BINDING AFFINITY PREDICTED BY RF-SCORE:    0.00 PKD
ROOT
HETATM    1 NA   UNL     1      -9.307  13.121  63.666  1.00  0.00    -0.520 Na 
HETATM    2  C   UNL     2     -11.741  13.587  69.971  1.00  0.00    -0.311 C  
HETATM    3  C   UNL     2     -10.923  13.904  68.728  1.00  0.00    -0.286 C  
ENDROOT
BRANCH   3   4
HETATM    4  C   UNL     2     -11.711  14.803  67.780  1.00  0.00    -0.368 C  
BRANCH   4   5
HETATM    5  C   UNL     2     -11.715  14.261  66.348  1.00  0.00    -0.403 C  
BRANCH   5   6
HETATM    6  C   UNL     2     -12.071  12.771  66.275  1.00  0.00    -0.400 C  
BRANCH   6   7
HETATM    7  C   UNL     2     -11.221  12.026  65.247  1.00  0.00    -0.374 C  
BRANCH   7   8
HETATM    8  C   UNL     2     -10.343  10.943  65.870  1.00  0.00    -0.310 C  
BRANCH   8   9
HETATM    9  C   UNL     2     -10.880  10.484  67.233  1.00  0.00    -0.338 C  
BRANCH   9  10
HETATM   10  C   UNL     2      -9.864   9.742  68.112  1.00  0.00    -0.170 C  
BRANCH  10  11
HETATM   11  C   UNL     2     -10.312   8.322  68.470  1.00  0.00    -0.230 C  
BRANCH  11  12
HETATM   12  C   UNL     2     -10.703   7.478  67.252  1.00  0.00    -0.365 C  
BRANCH  12  13
HETATM   13  C   UNL     2     -10.760   5.974  67.532  1.00  0.00    -0.301 C  
BRANCH  13  14
HETATM   14  O   UNL     2     -10.291   5.277  66.391  1.00  0.00    -0.227 OA 
HETATM   15  S   UNL     2      -8.840   4.545  66.482  1.00  0.00    -0.115 S  
HETATM   16  O   UNL     2      -8.720   3.887  65.178  1.00  0.00    -0.112 OA 
HETATM   17  O   UNL     2      -8.979   3.610  67.592  1.00  0.00    -0.115 OA 
HETATM   18  O   UNL     2      -7.902   5.632  66.698  1.00  0.00    -0.099 OA 
ENDBRANCH  13  14
ENDBRANCH  12  13
ENDBRANCH  11  12
ENDBRANCH  10  11
ENDBRANCH   9  10
ENDBRANCH   8   9
ENDBRANCH   7   8
ENDBRANCH   6   7
ENDBRANCH   5   6
ENDBRANCH   4   5
ENDBRANCH   3   4
TORSDOF 11
ENDMDL
MODEL      343
REMARK 921   NORMALIZED FREE ENERGY PREDICTED BY IDOCK:   -2.72 KCAL/MOL
REMARK 922        TOTAL FREE ENERGY PREDICTED BY IDOCK:   -5.90 KCAL/MOL
REMARK 923 INTER-LIGAND FREE ENERGY PREDICTED BY IDOCK:   -5.01 KCAL/MOL
REMARK 924 INTRA-LIGAND FREE ENERGY PREDICTED BY IDOCK:   -0.89 KCAL/MOL
REMARK 927      BINDING AFFINITY PREDICTED BY RF-SCORE:    0.00 PKD
ROOT
HETATM    1 NA   UNL     1     -11.961   5.918  65.583  1.00  0.00    -0.552 Na 
HETATM    2  C   UNL     2      -7.895   1.705  68.990  1.00  0.00    -0.051 C  
HETATM    3  C   UNL     2      -8.445   2.995  68.403  1.00  0.00    -0.103 C  
ENDROOT
BRANCH   3   4
HETATM    4  C   UNL     2      -9.484   3.612  69.335  1.00  0.00    -0.249 C  
BRANCH   4   5
HETATM    5  C   UNL     2      -9.988   4.962  68.819  1.00  0.00    -0.206 C  
BRANCH   5   6
HETATM    6  C   UNL     2     -10.730   5.771  69.890  1.00  0.00    -0.412 C  
BRANCH   6   7
HETATM    7  C   UNL     2     -10.477   5.229  71.297  1.00  0.00    -0.274 C  
BRANCH   7   8
HETATM    8  C   UNL     2     -10.286   6.332  72.336  1.00  0.00    -0.215 C  
BRANCH   8   9
HETATM    9  C   UNL     2     -11.481   7.296  72.375  1.00  0.00    -0.327 C  
BRANCH   9  10
HETATM   10  C   UNL     2     -11.126   8.774  72.167  1.00  0.00    -0.406 C  
BRANCH  10  11
HETATM   11  C   UNL     2     -11.647   9.330  70.839  1.00  0.00    -0.364 C  
BRANCH  11  12
HETATM   12  C   UNL     2     -10.542   9.884  69.931  1.00  0.00    -0.312 C  
BRANCH  12  13
HETATM   13  C   UNL     2     -10.639   9.411  68.478  1.00  0.00    -0.197 C  
BRANCH  13  14
HETATM   14  O   UNL     2     -11.194  10.452  67.693  1.00  0.00    -0.318 OA 
HETATM   15  S   UNL     2     -10.306  11.038  66.461  1.00  0.00    -0.252 S  
HETATM   16  O   UNL     2     -11.202  12.025  65.850  1.00  0.00    -0.317 OA 
HETATM   17  O   UNL     2     -10.058   9.878  65.613  1.00  0.00    -0.289 OA 
HETATM   18  O   UNL     2      -9.132  11.605  67.101  1.00  0.00    -0.164 OA 
ENDBRANCH  13  14
ENDBRANCH  12  13
ENDBRANCH  11  12
ENDBRANCH  10  11
ENDBRANCH   9  10
ENDBRANCH   8   9
ENDBRANCH   7   8
ENDBRANCH   6   7
ENDBRANCH   5   6
ENDBRANCH   4   5
ENDBRANCH   3   4
TORSDOF 11
ENDMDL
MODEL      344
REMARK 921   NORMALIZED FREE ENERGY PREDICTED BY IDOCK:   -2.71 KCAL/MOL
REMARK 922        TOTAL FREE ENERGY PREDICTED BY IDOCK:   -5.89 KCAL/MOL
REMARK 923 INTER-LIGAND FREE ENERGY PREDICTED BY IDOCK:   -5.44 KCAL/MOL
REMARK 924 INTRA-LIGAND FREE ENERGY PREDICTED BY IDOCK:   -0.46 KCAL/MOL
REMARK 927      BINDING AFFINITY PREDICTED BY RF-SCORE:    0.00 PKD
ROOT
HETATM    1 NA   UNL     1      -7.013   8.328  70.311  1.00  0.00    -0.036 Na 
HETATM    2  C   UNL     2      -9.345   2.309  68.254  1.00  0.00    -0.267 C  
HETATM    3  C   UNL     2      -8.431   3.346  68.889  1.00  0.00    -0.102 C  
ENDROOT
BRANCH   3   4
HETATM    4  C   UNL     2      -8.846   3.619  70.332  1.00  0.00    -0.144 C  
BRANCH   4   5
HETATM    5  C   UNL     2      -9.492   4.998  70.491  1.00  0.00    -0.236 C  
BRANCH   5   6
HETATM    6  C   UNL     2     -10.327   5.410  69.271  1.00  0.00    -0.322 C  
BRANCH   6   7
HETATM    7  C   UNL     2     -11.139   6.677  69.532  1.00  0.00    -0.378 C  
BRANCH   7   8
HETATM    8  C   UNL     2     -10.292   7.830  70.064  1.00  0.00    -0.221 C  
BRANCH   8   9
HETATM    9  C   UNL     2     -11.141   8.870  70.810  1.00  0.00    -0.312 C  
BRANCH   9  10
HETATM   10  C   UNL     2     -10.864  10.329  70.422  1.00  0.00    -0.320 C  
BRANCH  10  11
HETATM   11  C   UNL     2     -11.936  10.911  69.496  1.00  0.00    -0.401 C  
BRANCH  11  12
HETATM   12  C   UNL     2     -11.670  12.366  69.092  1.00  0.00    -0.376 C  
BRANCH  12  13
HETATM   13  C   UNL     2     -12.160  12.718  67.685  1.00  0.00    -0.140 C  
BRANCH  13  14
HETATM   14  O   UNL     2     -11.632  11.777  66.767  1.00  0.00    -0.489 OA 
HETATM   15  S   UNL     2     -11.494  12.222  65.208  1.00  0.00    -0.345 S  
HETATM   16  O   UNL     2     -10.865  11.053  64.586  1.00  0.00    -0.296 OA 
HETATM   17  O   UNL     2     -10.628  13.394  65.244  1.00  0.00    -0.301 OA 
HETATM   18  O   UNL     2     -12.860  12.469  64.782  1.00  0.00    -0.755 OA 
ENDBRANCH  13  14
ENDBRANCH  12  13
ENDBRANCH  11  12
ENDBRANCH  10  11
ENDBRANCH   9  10
ENDBRANCH   8   9
ENDBRANCH   7   8
ENDBRANCH   6   7
ENDBRANCH   5   6
ENDBRANCH   4   5
ENDBRANCH   3   4
TORSDOF 11
ENDMDL
MODEL      345
REMARK 921   NORMALIZED FREE ENERGY PREDICTED BY IDOCK:   -2.71 KCAL/MOL
REMARK 922        TOTAL FREE ENERGY PREDICTED BY IDOCK:   -5.89 KCAL/MOL
REMARK 923 INTER-LIGAND FREE ENERGY PREDICTED BY IDOCK:   -5.43 KCAL/MOL
REMARK 924 INTRA-LIGAND FREE ENERGY PREDICTED BY IDOCK:   -0.46 KCAL/MOL
REMARK 927      BINDING AFFINITY PREDICTED BY RF-SCORE:    0.00 PKD
ROOT
HETATM    1 NA   UNL     1     -12.924  14.214  65.960  1.00  0.00    -0.422 Na 
HETATM    2  C   UNL     2     -12.308  16.027  72.458  1.00  0.00    -0.584 C  
HETATM    3  C   UNL     2     -12.945  15.545  71.164  1.00  0.00    -0.560 C  
ENDROOT
BRANCH   3   4
HETATM    4  C   UNL     2     -12.775  14.037  71.008  1.00  0.00    -0.431 C  
BRANCH   4   5
HETATM    5  C   UNL     2     -13.276  13.273  72.235  1.00  0.00    -0.567 C  
BRANCH   5   6
HETATM    6  C   UNL     2     -13.503  11.781  71.958  1.00  0.00    -0.319 C  
BRANCH   6   7
HETATM    7  C   UNL     2     -12.447  11.205  71.015  1.00  0.00    -0.506 C  
BRANCH   7   8
HETATM    8  C   UNL     2     -12.049   9.774  71.369  1.00  0.00    -0.486 C  
BRANCH   8   9
HETATM    9  C   UNL     2     -10.778   9.333  70.629  1.00  0.00    -0.331 C  
BRANCH   9  10
HETATM   10  C   UNL     2     -10.825   7.911  70.054  1.00  0.00    -0.238 C  
BRANCH  10  11
HETATM   11  C   UNL     2      -9.723   7.007  70.612  1.00  0.00    -0.174 C  
BRANCH  11  12
HETATM   12  C   UNL     2      -9.661   5.630  69.938  1.00  0.00    -0.208 C  
BRANCH  12  13
HETATM   13  C   UNL     2      -9.960   4.463  70.883  1.00  0.00    -0.172 C  
BRANCH  13  14
HETATM   14  O   UNL     2      -8.736   3.950  71.379  1.00  0.00    -0.089 OA 
HETATM   15  S   UNL     2      -8.569   3.791  72.990  1.00  0.00    -0.094 S  
HETATM   16  O   UNL     2      -7.241   3.184  73.125  1.00  0.00    -0.043 OA 
HETATM   17  O   UNL     2      -9.655   2.899  73.378  1.00  0.00    -0.091 OA 
HETATM   18  O   UNL     2      -8.665   5.148  73.498  1.00  0.00    -0.114 OA 
ENDBRANCH  13  14
ENDBRANCH  12  13
ENDBRANCH  11  12
ENDBRANCH  10  11
ENDBRANCH   9  10
ENDBRANCH   8   9
ENDBRANCH   7   8
ENDBRANCH   6   7
ENDBRANCH   5   6
ENDBRANCH   4   5
ENDBRANCH   3   4
TORSDOF 11
ENDMDL
MODEL      346
REMARK 921   NORMALIZED FREE ENERGY PREDICTED BY IDOCK:   -2.71 KCAL/MOL
REMARK 922        TOTAL FREE ENERGY PREDICTED BY IDOCK:   -5.89 KCAL/MOL
REMARK 923 INTER-LIGAND FREE ENERGY PREDICTED BY IDOCK:   -5.00 KCAL/MOL
REMARK 924 INTRA-LIGAND FREE ENERGY PREDICTED BY IDOCK:   -0.88 KCAL/MOL
REMARK 927      BINDING AFFINITY PREDICTED BY RF-SCORE:    0.00 PKD
ROOT
HETATM    1 NA   UNL     1      -8.593  13.334  69.294  1.00  0.00    -0.331 Na 
HETATM    2  C   UNL     2     -10.543  19.310  66.766  1.00  0.00    -0.543 C  
HETATM    3  C   UNL     2      -9.694  18.269  67.480  1.00  0.00    -0.305 C  
ENDROOT
BRANCH   3   4
HETATM    4  C   UNL     2      -8.797  17.533  66.489  1.00  0.00    -0.291 C  
BRANCH   4   5
HETATM    5  C   UNL     2      -9.265  16.095  66.253  1.00  0.00    -0.366 C  
BRANCH   5   6
HETATM    6  C   UNL     2     -10.387  15.997  65.210  1.00  0.00    -0.319 C  
BRANCH   6   7
HETATM    7  C   UNL     2     -11.538  15.112  65.687  1.00  0.00    -0.118 C  
BRANCH   7   8
HETATM    8  C   UNL     2     -11.086  14.008  66.641  1.00  0.00    -0.312 C  
BRANCH   8   9
HETATM    9  C   UNL     2     -10.737  12.712  65.895  1.00  0.00    -0.293 C  
BRANCH   9  10
HETATM   10  C   UNL     2     -11.152  11.421  66.613  1.00  0.00    -0.333 C  
BRANCH  10  11
HETATM   11  C   UNL     2     -10.488  11.262  67.983  1.00  0.00    -0.215 C  
BRANCH  11  12
HETATM   12  C   UNL     2     -11.473  11.362  69.155  1.00  0.00    -0.365 C  
BRANCH  12  13
HETATM   13  C   UNL     2     -11.333  12.647  69.975  1.00  0.00     0.131 C  
BRANCH  13  14
HETATM   14  O   UNL     2     -12.626  13.150  70.263  1.00  0.00    -0.191 OA 
HETATM   15  S   UNL     2     -12.737  14.544  71.094  1.00  0.00    -0.361 S  
HETATM   16  O   UNL     2     -14.183  14.784  71.144  1.00  0.00    -0.369 OA 
HETATM   17  O   UNL     2     -12.019  15.511  70.273  1.00  0.00    -0.322 OA 
HETATM   18  O   UNL     2     -12.131  14.246  72.380  1.00  0.00    -0.099 OA 
ENDBRANCH  13  14
ENDBRANCH  12  13
ENDBRANCH  11  12
ENDBRANCH  10  11
ENDBRANCH   9  10
ENDBRANCH   8   9
ENDBRANCH   7   8
ENDBRANCH   6   7
ENDBRANCH   5   6
ENDBRANCH   4   5
ENDBRANCH   3   4
TORSDOF 11
ENDMDL
MODEL      347
REMARK 921   NORMALIZED FREE ENERGY PREDICTED BY IDOCK:   -2.70 KCAL/MOL
REMARK 922        TOTAL FREE ENERGY PREDICTED BY IDOCK:   -5.88 KCAL/MOL
REMARK 923 INTER-LIGAND FREE ENERGY PREDICTED BY IDOCK:   -4.79 KCAL/MOL
REMARK 924 INTRA-LIGAND FREE ENERGY PREDICTED BY IDOCK:   -1.08 KCAL/MOL
REMARK 927      BINDING AFFINITY PREDICTED BY RF-SCORE:    0.00 PKD
ROOT
HETATM    1 NA   UNL     1      -6.002  15.891  71.119  1.00  0.00    -0.108 Na 
HETATM    2  C   UNL     2      -5.353   9.760  68.311  1.00  0.00    -0.039 C  
HETATM    3  C   UNL     2      -5.980  11.082  68.725  1.00  0.00    -0.043 C  
ENDROOT
BRANCH   3   4
HETATM    4  C   UNL     2      -5.651  12.175  67.712  1.00  0.00    -0.081 C  
BRANCH   4   5
HETATM    5  C   UNL     2      -6.789  13.188  67.573  1.00  0.00    -0.156 C  
BRANCH   5   6
HETATM    6  C   UNL     2      -6.461  14.545  68.210  1.00  0.00    -0.118 C  
BRANCH   6   7
HETATM    7  C   UNL     2      -7.614  15.539  68.069  1.00  0.00    -0.133 C  
BRANCH   7   8
HETATM    8  C   UNL     2      -8.607  15.469  69.227  1.00  0.00    -0.263 C  
BRANCH   8   9
HETATM    9  C   UNL     2     -10.006  15.947  68.812  1.00  0.00    -0.220 C  
BRANCH   9  10
HETATM   10  C   UNL     2     -10.684  15.099  67.727  1.00  0.00    -0.279 C  
BRANCH  10  11
HETATM   11  C   UNL     2     -10.853  13.634  68.138  1.00  0.00    -0.262 C  
BRANCH  11  12
HETATM   12  C   UNL     2     -10.215  12.645  67.154  1.00  0.00    -0.230 C  
BRANCH  12  13
HETATM   13  C   UNL     2     -11.221  11.952  66.231  1.00  0.00    -0.337 C  
BRANCH  13  14
HETATM   14  O   UNL     2     -11.279  12.658  65.004  1.00  0.00    -0.284 OA 
HETATM   15  S   UNL     2     -12.731  13.184  64.491  1.00  0.00    -0.129 S  
HETATM   16  O   UNL     2     -12.403  13.909  63.259  1.00  0.00    -0.749 OA 
HETATM   17  O   UNL     2     -13.199  14.051  65.565  1.00  0.00    -0.710 OA 
HETATM   18  O   UNL     2     -13.503  11.971  64.289  1.00  0.00    -0.654 OA 
ENDBRANCH  13  14
ENDBRANCH  12  13
ENDBRANCH  11  12
ENDBRANCH  10  11
ENDBRANCH   9  10
ENDBRANCH   8   9
ENDBRANCH   7   8
ENDBRANCH   6   7
ENDBRANCH   5   6
ENDBRANCH   4   5
ENDBRANCH   3   4
TORSDOF 11
ENDMDL
MODEL      348
REMARK 921   NORMALIZED FREE ENERGY PREDICTED BY IDOCK:   -2.70 KCAL/MOL
REMARK 922        TOTAL FREE ENERGY PREDICTED BY IDOCK:   -5.87 KCAL/MOL
REMARK 923 INTER-LIGAND FREE ENERGY PREDICTED BY IDOCK:   -5.09 KCAL/MOL
REMARK 924 INTRA-LIGAND FREE ENERGY PREDICTED BY IDOCK:   -0.79 KCAL/MOL
REMARK 927      BINDING AFFINITY PREDICTED BY RF-SCORE:    0.00 PKD
ROOT
HETATM    1 NA   UNL     1     -11.968   4.535  65.600  1.00  0.00    -0.626 Na 
HETATM    2  C   UNL     2     -10.237   4.772  72.146  1.00  0.00    -0.258 C  
HETATM    3  C   UNL     2     -10.294   5.133  70.669  1.00  0.00    -0.305 C  
ENDROOT
BRANCH   3   4
HETATM    4  C   UNL     2     -11.465   6.070  70.388  1.00  0.00    -0.234 C  
BRANCH   4   5
HETATM    5  C   UNL     2     -12.441   6.137  71.565  1.00  0.00     0.257 C  
BRANCH   5   6
HETATM    6  C   UNL     2     -12.548   7.542  72.173  1.00  0.00    -0.196 C  
BRANCH   6   7
HETATM    7  C   UNL     2     -11.231   8.312  72.074  1.00  0.00    -0.389 C  
BRANCH   7   8
HETATM    8  C   UNL     2     -11.356   9.607  71.275  1.00  0.00    -0.458 C  
BRANCH   8   9
HETATM    9  C   UNL     2     -12.668  10.345  71.581  1.00  0.00    -0.560 C  
BRANCH   9  10
HETATM   10  C   UNL     2     -12.696  11.819  71.154  1.00  0.00    -0.405 C  
BRANCH  10  11
HETATM   11  C   UNL     2     -11.610  12.162  70.131  1.00  0.00    -0.202 C  
BRANCH  11  12
HETATM   12  C   UNL     2     -11.673  13.612  69.635  1.00  0.00    -0.383 C  
BRANCH  12  13
HETATM   13  C   UNL     2     -10.932  13.848  68.316  1.00  0.00    -0.255 C  
BRANCH  13  14
HETATM   14  O   UNL     2      -9.984  12.812  68.131  1.00  0.00    -0.218 OA 
HETATM   15  S   UNL     2      -9.883  12.120  66.661  1.00  0.00    -0.215 S  
HETATM   16  O   UNL     2      -8.781  11.166  66.821  1.00  0.00    -0.147 OA 
HETATM   17  O   UNL     2      -9.566  13.225  65.765  1.00  0.00    -0.181 OA 
HETATM   18  O   UNL     2     -11.185  11.509  66.461  1.00  0.00    -0.310 OA 
ENDBRANCH  13  14
ENDBRANCH  12  13
ENDBRANCH  11  12
ENDBRANCH  10  11
ENDBRANCH   9  10
ENDBRANCH   8   9
ENDBRANCH   7   8
ENDBRANCH   6   7
ENDBRANCH   5   6
ENDBRANCH   4   5
ENDBRANCH   3   4
TORSDOF 11
ENDMDL
MODEL      349
REMARK 921   NORMALIZED FREE ENERGY PREDICTED BY IDOCK:   -2.69 KCAL/MOL
REMARK 922        TOTAL FREE ENERGY PREDICTED BY IDOCK:   -5.86 KCAL/MOL
REMARK 923 INTER-LIGAND FREE ENERGY PREDICTED BY IDOCK:   -4.94 KCAL/MOL
REMARK 924 INTRA-LIGAND FREE ENERGY PREDICTED BY IDOCK:   -0.92 KCAL/MOL
REMARK 927      BINDING AFFINITY PREDICTED BY RF-SCORE:    0.00 PKD
ROOT
HETATM    1 NA   UNL     1     -10.760  20.174  70.794  1.00  0.00    -0.855 Na 
HETATM    2  C   UNL     2      -8.333  15.318  66.742  1.00  0.00    -0.258 C  
HETATM    3  C   UNL     2      -9.075  15.979  67.893  1.00  0.00    -0.187 C  
ENDROOT
BRANCH   3   4
HETATM    4  C   UNL     2     -10.484  16.381  67.467  1.00  0.00    -0.304 C  
BRANCH   4   5
HETATM    5  C   UNL     2     -11.554  15.762  68.369  1.00  0.00    -0.343 C  
BRANCH   5   6
HETATM    6  C   UNL     2     -11.979  14.359  67.914  1.00  0.00    -0.348 C  
BRANCH   6   7
HETATM    7  C   UNL     2     -12.054  14.248  66.392  1.00  0.00    -0.442 C  
BRANCH   7   8
HETATM    8  C   UNL     2     -11.905  12.813  65.891  1.00  0.00    -0.490 C  
BRANCH   8   9
HETATM    9  C   UNL     2     -11.506  11.850  67.019  1.00  0.00    -0.384 C  
BRANCH   9  10
HETATM   10  C   UNL     2     -10.131  11.190  66.849  1.00  0.00    -0.250 C  
BRANCH  10  11
HETATM   11  C   UNL     2     -10.178   9.668  67.008  1.00  0.00    -0.308 C  
BRANCH  11  12
HETATM   12  C   UNL     2     -10.197   9.205  68.470  1.00  0.00    -0.223 C  
BRANCH  12  13
HETATM   13  C   UNL     2      -9.605   7.810  68.686  1.00  0.00    -0.154 C  
BRANCH  13  14
HETATM   14  O   UNL     2      -8.752   7.500  67.598  1.00  0.00    -0.122 OA 
HETATM   15  S   UNL     2      -7.170   7.275  67.906  1.00  0.00    -0.093 S  
HETATM   16  O   UNL     2      -6.627   6.915  66.592  1.00  0.00    -0.045 OA 
HETATM   17  O   UNL     2      -7.142   6.177  68.864  1.00  0.00    -0.076 OA 
HETATM   18  O   UNL     2      -6.716   8.557  68.414  1.00  0.00    -0.062 OA 
ENDBRANCH  13  14
ENDBRANCH  12  13
ENDBRANCH  11  12
ENDBRANCH  10  11
ENDBRANCH   9  10
ENDBRANCH   8   9
ENDBRANCH   7   8
ENDBRANCH   6   7
ENDBRANCH   5   6
ENDBRANCH   4   5
ENDBRANCH   3   4
TORSDOF 11
ENDMDL
MODEL      350
REMARK 921   NORMALIZED FREE ENERGY PREDICTED BY IDOCK:   -2.69 KCAL/MOL
REMARK 922        TOTAL FREE ENERGY PREDICTED BY IDOCK:   -5.86 KCAL/MOL
REMARK 923 INTER-LIGAND FREE ENERGY PREDICTED BY IDOCK:   -5.05 KCAL/MOL
REMARK 924 INTRA-LIGAND FREE ENERGY PREDICTED BY IDOCK:   -0.81 KCAL/MOL
REMARK 927      BINDING AFFINITY PREDICTED BY RF-SCORE:    0.00 PKD
ROOT
HETATM    1 NA   UNL     1     -13.295   6.962  69.875  1.00  0.00    -0.594 Na 
HETATM    2  C   UNL     2     -13.751  13.297  72.233  1.00  0.00    -0.686 C  
HETATM    3  C   UNL     2     -13.203  11.899  71.990  1.00  0.00    -0.461 C  
ENDROOT
BRANCH   3   4
HETATM    4  C   UNL     2     -12.375  11.860  70.708  1.00  0.00    -0.416 C  
BRANCH   4   5
HETATM    5  C   UNL     2     -12.136  10.429  70.224  1.00  0.00    -0.370 C  
BRANCH   5   6
HETATM    6  C   UNL     2     -10.665  10.003  70.325  1.00  0.00    -0.367 C  
BRANCH   6   7
HETATM    7  C   UNL     2     -10.410   9.102  71.533  1.00  0.00    -0.414 C  
BRANCH   7   8
HETATM    8  C   UNL     2     -11.694   8.552  72.150  1.00  0.00    -0.448 C  
BRANCH   8   9
HETATM    9  C   UNL     2     -11.649   7.025  72.301  1.00  0.00    -0.307 C  
BRANCH   9  10
HETATM   10  C   UNL     2     -10.272   6.392  72.065  1.00  0.00    -0.216 C  
BRANCH  10  11
HETATM   11  C   UNL     2     -10.000   6.092  70.588  1.00  0.00    -0.232 C  
BRANCH  11  12
HETATM   12  C   UNL     2      -8.548   6.350  70.168  1.00  0.00    -0.135 C  
BRANCH  12  13
HETATM   13  C   UNL     2      -8.409   7.258  68.943  1.00  0.00    -0.126 C  
BRANCH  13  14
HETATM   14  O   UNL     2      -7.505   8.305  69.250  1.00  0.00    -0.081 OA 
HETATM   15  S   UNL     2      -6.293   8.601  68.205  1.00  0.00    -0.056 S  
HETATM   16  O   UNL     2      -5.623   9.762  68.798  1.00  0.00    -0.036 OA 
HETATM   17  O   UNL     2      -6.968   8.902  66.948  1.00  0.00    -0.076 OA 
HETATM   18  O   UNL     2      -5.506   7.381  68.213  1.00  0.00    -0.024 OA 
ENDBRANCH  13  14
ENDBRANCH  12  13
ENDBRANCH  11  12
ENDBRANCH  10  11
ENDBRANCH   9  10
ENDBRANCH   8   9
ENDBRANCH   7   8
ENDBRANCH   6   7
ENDBRANCH   5   6
ENDBRANCH   4   5
ENDBRANCH   3   4
TORSDOF 11
ENDMDL
MODEL      351
REMARK 921   NORMALIZED FREE ENERGY PREDICTED BY IDOCK:   -2.69 KCAL/MOL
REMARK 922        TOTAL FREE ENERGY PREDICTED BY IDOCK:   -5.85 KCAL/MOL
REMARK 923 INTER-LIGAND FREE ENERGY PREDICTED BY IDOCK:   -4.85 KCAL/MOL
REMARK 924 INTRA-LIGAND FREE ENERGY PREDICTED BY IDOCK:   -1.00 KCAL/MOL
REMARK 927      BINDING AFFINITY PREDICTED BY RF-SCORE:    0.00 PKD
ROOT
HETATM    1 NA   UNL     1     -10.895  20.155  70.891  1.00  0.00    -0.855 Na 
HETATM    2  C   UNL     2      -8.275  14.817  67.646  1.00  0.00    -0.187 C  
HETATM    3  C   UNL     2      -9.110  15.621  68.631  1.00  0.00    -0.205 C  
ENDROOT
BRANCH   3   4
HETATM    4  C   UNL     2     -10.436  16.036  68.001  1.00  0.00    -0.275 C  
BRANCH   4   5
HETATM    5  C   UNL     2     -11.615  15.815  68.951  1.00  0.00    -0.400 C  
BRANCH   5   6
HETATM    6  C   UNL     2     -12.280  14.444  68.769  1.00  0.00    -0.200 C  
BRANCH   6   7
HETATM    7  C   UNL     2     -11.999  13.849  67.389  1.00  0.00    -0.436 C  
BRANCH   7   8
HETATM    8  C   UNL     2     -11.476  12.416  67.453  1.00  0.00    -0.418 C  
BRANCH   8   9
HETATM    9  C   UNL     2     -11.191  11.973  68.895  1.00  0.00    -0.315 C  
BRANCH   9  10
HETATM   10  C   UNL     2      -9.904  11.157  69.079  1.00  0.00    -0.132 C  
BRANCH  10  11
HETATM   11  C   UNL     2     -10.080   9.977  70.039  1.00  0.00    -0.289 C  
BRANCH  11  12
HETATM   12  C   UNL     2      -8.974   8.921  69.919  1.00  0.00    -0.160 C  
BRANCH  12  13
HETATM   13  C   UNL     2      -8.995   7.873  71.035  1.00  0.00    -0.142 C  
BRANCH  13  14
HETATM   14  O   UNL     2      -8.969   8.536  72.287  1.00  0.00    -0.218 OA 
HETATM   15  S   UNL     2      -7.918   8.008  73.412  1.00  0.00    -0.192 S  
HETATM   16  O   UNL     2      -8.120   8.948  74.519  1.00  0.00    -0.241 OA 
HETATM   17  O   UNL     2      -6.613   8.137  72.774  1.00  0.00    -0.074 OA 
HETATM   18  O   UNL     2      -8.343   6.648  73.691  1.00  0.00    -0.113 OA 
ENDBRANCH  13  14
ENDBRANCH  12  13
ENDBRANCH  11  12
ENDBRANCH  10  11
ENDBRANCH   9  10
ENDBRANCH   8   9
ENDBRANCH   7   8
ENDBRANCH   6   7
ENDBRANCH   5   6
ENDBRANCH   4   5
ENDBRANCH   3   4
TORSDOF 11
ENDMDL
MODEL      352
REMARK 921   NORMALIZED FREE ENERGY PREDICTED BY IDOCK:   -2.68 KCAL/MOL
REMARK 922        TOTAL FREE ENERGY PREDICTED BY IDOCK:   -5.84 KCAL/MOL
REMARK 923 INTER-LIGAND FREE ENERGY PREDICTED BY IDOCK:   -5.29 KCAL/MOL
REMARK 924 INTRA-LIGAND FREE ENERGY PREDICTED BY IDOCK:   -0.55 KCAL/MOL
REMARK 927      BINDING AFFINITY PREDICTED BY RF-SCORE:    0.00 PKD
ROOT
HETATM    1 NA   UNL     1     -11.966   5.870  69.084  1.00  0.00    -0.343 Na 
HETATM    2  C   UNL     2      -8.281   7.777  74.439  1.00  0.00    -0.279 C  
HETATM    3  C   UNL     2      -8.626   7.361  73.017  1.00  0.00    -0.165 C  
ENDROOT
BRANCH   3   4
HETATM    4  C   UNL     2      -9.032   8.573  72.184  1.00  0.00    -0.300 C  
BRANCH   4   5
HETATM    5  C   UNL     2      -8.037   8.853  71.056  1.00  0.00    -0.205 C  
BRANCH   5   6
HETATM    6  C   UNL     2      -8.604   8.533  69.667  1.00  0.00    -0.131 C  
BRANCH   6   7
HETATM    7  C   UNL     2      -8.775   9.789  68.813  1.00  0.00    -0.128 C  
BRANCH   7   8
HETATM    8  C   UNL     2     -10.063  10.549  69.120  1.00  0.00    -0.240 C  
BRANCH   8   9
HETATM    9  C   UNL     2     -10.998  10.608  67.903  1.00  0.00    -0.351 C  
BRANCH   9  10
HETATM   10  C   UNL     2     -11.313  12.022  67.398  1.00  0.00    -0.393 C  
BRANCH  10  11
HETATM   11  C   UNL     2     -10.988  12.210  65.914  1.00  0.00    -0.332 C  
BRANCH  11  12
HETATM   12  C   UNL     2      -9.886  13.245  65.655  1.00  0.00    -0.177 C  
BRANCH  12  13
HETATM   13  C   UNL     2      -9.721  14.270  66.780  1.00  0.00    -0.275 C  
BRANCH  13  14
HETATM   14  O   UNL     2      -8.875  15.313  66.329  1.00  0.00    -0.297 OA 
HETATM   15  S   UNL     2      -9.498  16.813  66.226  1.00  0.00    -0.275 S  
HETATM   16  O   UNL     2      -8.349  17.619  65.803  1.00  0.00    -0.537 OA 
HETATM   17  O   UNL     2      -9.946  17.110  67.581  1.00  0.00    -0.266 OA 
HETATM   18  O   UNL     2     -10.552  16.697  65.233  1.00  0.00    -0.596 OA 
ENDBRANCH  13  14
ENDBRANCH  12  13
ENDBRANCH  11  12
ENDBRANCH  10  11
ENDBRANCH   9  10
ENDBRANCH   8   9
ENDBRANCH   7   8
ENDBRANCH   6   7
ENDBRANCH   5   6
ENDBRANCH   4   5
ENDBRANCH   3   4
TORSDOF 11
ENDMDL
MODEL      353
REMARK 921   NORMALIZED FREE ENERGY PREDICTED BY IDOCK:   -2.68 KCAL/MOL
REMARK 922        TOTAL FREE ENERGY PREDICTED BY IDOCK:   -5.83 KCAL/MOL
REMARK 923 INTER-LIGAND FREE ENERGY PREDICTED BY IDOCK:   -4.94 KCAL/MOL
REMARK 924 INTRA-LIGAND FREE ENERGY PREDICTED BY IDOCK:   -0.89 KCAL/MOL
REMARK 927      BINDING AFFINITY PREDICTED BY RF-SCORE:    0.00 PKD
ROOT
HETATM    1 NA   UNL     1     -10.983  17.346  65.179  1.00  0.00    -0.394 Na 
HETATM    2  C   UNL     2     -11.813  15.098  71.515  1.00  0.00    -0.436 C  
HETATM    3  C   UNL     2     -12.156  15.568  70.110  1.00  0.00    -0.404 C  
ENDROOT
BRANCH   3   4
HETATM    4  C   UNL     2     -12.117  14.403  69.126  1.00  0.00    -0.316 C  
BRANCH   4   5
HETATM    5  C   UNL     2     -10.695  13.876  68.917  1.00  0.00    -0.256 C  
BRANCH   5   6
HETATM    6  C   UNL     2     -10.643  12.645  68.003  1.00  0.00    -0.233 C  
BRANCH   6   7
HETATM    7  C   UNL     2     -11.888  12.530  67.124  1.00  0.00    -0.386 C  
BRANCH   7   8
HETATM    8  C   UNL     2     -11.651  12.999  65.690  1.00  0.00    -0.391 C  
BRANCH   8   9
HETATM    9  C   UNL     2     -10.477  12.261  65.031  1.00  0.00    -0.322 C  
BRANCH   9  10
HETATM   10  C   UNL     2     -10.717  10.768  64.770  1.00  0.00    -0.168 C  
BRANCH  10  11
HETATM   11  C   UNL     2      -9.418   9.982  64.574  1.00  0.00    -0.359 C  
BRANCH  11  12
HETATM   12  C   UNL     2      -8.371  10.250  65.662  1.00  0.00    -0.159 C  
BRANCH  12  13
HETATM   13  C   UNL     2      -8.345   9.194  66.770  1.00  0.00    -0.123 C  
BRANCH  13  14
HETATM   14  O   UNL     2      -9.273   8.171  66.451  1.00  0.00    -0.176 OA 
HETATM   15  S   UNL     2      -9.969   7.359  67.677  1.00  0.00    -0.181 S  
HETATM   16  O   UNL     2     -10.894   6.453  66.989  1.00  0.00    -0.325 OA 
HETATM   17  O   UNL     2     -10.643   8.392  68.455  1.00  0.00    -0.191 OA 
HETATM   18  O   UNL     2      -8.863   6.697  68.345  1.00  0.00    -0.122 OA 
ENDBRANCH  13  14
ENDBRANCH  12  13
ENDBRANCH  11  12
ENDBRANCH  10  11
ENDBRANCH   9  10
ENDBRANCH   8   9
ENDBRANCH   7   8
ENDBRANCH   6   7
ENDBRANCH   5   6
ENDBRANCH   4   5
ENDBRANCH   3   4
TORSDOF 11
ENDMDL
MODEL      354
REMARK 921   NORMALIZED FREE ENERGY PREDICTED BY IDOCK:   -2.68 KCAL/MOL
REMARK 922        TOTAL FREE ENERGY PREDICTED BY IDOCK:   -5.83 KCAL/MOL
REMARK 923 INTER-LIGAND FREE ENERGY PREDICTED BY IDOCK:   -4.38 KCAL/MOL
REMARK 924 INTRA-LIGAND FREE ENERGY PREDICTED BY IDOCK:   -1.45 KCAL/MOL
REMARK 927      BINDING AFFINITY PREDICTED BY RF-SCORE:    0.00 PKD
ROOT
HETATM    1 NA   UNL     1     -10.188   3.913  69.943  1.00  0.00    -0.202 Na 
HETATM    2  C   UNL     2      -9.653   9.133  65.658  1.00  0.00    -0.287 C  
HETATM    3  C   UNL     2     -10.279   8.123  66.608  1.00  0.00    -0.329 C  
ENDROOT
BRANCH   3   4
HETATM    4  C   UNL     2     -10.167   8.599  68.053  1.00  0.00    -0.261 C  
BRANCH   4   5
HETATM    5  C   UNL     2     -10.663  10.036  68.222  1.00  0.00    -0.280 C  
BRANCH   5   6
HETATM    6  C   UNL     2      -9.757  10.878  69.130  1.00  0.00    -0.141 C  
BRANCH   6   7
HETATM    7  C   UNL     2      -8.324  10.951  68.603  1.00  0.00    -0.148 C  
BRANCH   7   8
HETATM    8  C   UNL     2      -7.299  10.381  69.581  1.00  0.00    -0.156 C  
BRANCH   8   9
HETATM    9  C   UNL     2      -7.965   9.569  70.702  1.00  0.00    -0.152 C  
BRANCH   9  10
HETATM   10  C   UNL     2      -7.635   8.070  70.697  1.00  0.00    -0.076 C  
BRANCH  10  11
HETATM   11  C   UNL     2      -8.836   7.197  71.071  1.00  0.00    -0.145 C  
BRANCH  11  12
HETATM   12  C   UNL     2      -9.959   7.968  71.775  1.00  0.00    -0.245 C  
BRANCH  12  13
HETATM   13  C   UNL     2     -11.265   7.180  71.905  1.00  0.00    -0.249 C  
BRANCH  13  14
HETATM   14  O   UNL     2     -12.208   7.969  72.610  1.00  0.00    -0.293 OA 
HETATM   15  S   UNL     2     -13.486   8.552  71.788  1.00  0.00    -0.375 S  
HETATM   16  O   UNL     2     -14.258   9.242  72.826  1.00  0.00    -0.502 OA 
HETATM   17  O   UNL     2     -14.150   7.364  71.266  1.00  0.00    -0.396 OA 
HETATM   18  O   UNL     2     -12.902   9.429  70.789  1.00  0.00    -0.143 OA 
ENDBRANCH  13  14
ENDBRANCH  12  13
ENDBRANCH  11  12
ENDBRANCH  10  11
ENDBRANCH   9  10
ENDBRANCH   8   9
ENDBRANCH   7   8
ENDBRANCH   6   7
ENDBRANCH   5   6
ENDBRANCH   4   5
ENDBRANCH   3   4
TORSDOF 11
ENDMDL
MODEL      355
REMARK 921   NORMALIZED FREE ENERGY PREDICTED BY IDOCK:   -2.67 KCAL/MOL
REMARK 922        TOTAL FREE ENERGY PREDICTED BY IDOCK:   -5.83 KCAL/MOL
REMARK 923 INTER-LIGAND FREE ENERGY PREDICTED BY IDOCK:   -5.06 KCAL/MOL
REMARK 924 INTRA-LIGAND FREE ENERGY PREDICTED BY IDOCK:   -0.77 KCAL/MOL
REMARK 927      BINDING AFFINITY PREDICTED BY RF-SCORE:    0.00 PKD
ROOT
HETATM    1 NA   UNL     1     -11.572  12.650  71.098  1.00  0.00    -0.440 Na 
HETATM    2  C   UNL     2      -9.940   6.085  70.731  1.00  0.00    -0.237 C  
HETATM    3  C   UNL     2     -10.790   7.346  70.758  1.00  0.00    -0.257 C  
ENDROOT
BRANCH   3   4
HETATM    4  C   UNL     2     -10.901   7.952  69.362  1.00  0.00    -0.114 C  
BRANCH   4   5
HETATM    5  C   UNL     2     -10.570   9.446  69.358  1.00  0.00    -0.235 C  
BRANCH   5   6
HETATM    6  C   UNL     2     -11.134  10.178  68.134  1.00  0.00    -0.290 C  
BRANCH   6   7
HETATM    7  C   UNL     2     -10.553   9.643  66.826  1.00  0.00    -0.209 C  
BRANCH   7   8
HETATM    8  C   UNL     2      -9.035   9.786  66.744  1.00  0.00    -0.156 C  
BRANCH   8   9
HETATM    9  C   UNL     2      -8.616  11.180  66.254  1.00  0.00    -0.180 C  
BRANCH   9  10
HETATM   10  C   UNL     2      -8.087  12.118  67.348  1.00  0.00    -0.171 C  
BRANCH  10  11
HETATM   11  C   UNL     2      -9.107  13.181  67.765  1.00  0.00    -0.200 C  
BRANCH  11  12
HETATM   12  C   UNL     2      -8.702  14.606  67.369  1.00  0.00    -0.209 C  
BRANCH  12  13
HETATM   13  C   UNL     2      -9.681  15.285  66.407  1.00  0.00    -0.285 C  
BRANCH  13  14
HETATM   14  O   UNL     2      -9.165  16.555  66.048  1.00  0.00    -0.369 OA 
HETATM   15  S   UNL     2     -10.212  17.792  65.899  1.00  0.00    -0.134 S  
HETATM   16  O   UNL     2      -9.337  18.928  65.595  1.00  0.00    -0.289 OA 
HETATM   17  O   UNL     2     -10.847  17.885  67.208  1.00  0.00    -0.312 OA 
HETATM   18  O   UNL     2     -11.085  17.395  64.809  1.00  0.00    -0.973 OA 
ENDBRANCH  13  14
ENDBRANCH  12  13
ENDBRANCH  11  12
ENDBRANCH  10  11
ENDBRANCH   9  10
ENDBRANCH   8   9
ENDBRANCH   7   8
ENDBRANCH   6   7
ENDBRANCH   5   6
ENDBRANCH   4   5
ENDBRANCH   3   4
TORSDOF 11
ENDMDL
MODEL      356
REMARK 921   NORMALIZED FREE ENERGY PREDICTED BY IDOCK:   -2.67 KCAL/MOL
REMARK 922        TOTAL FREE ENERGY PREDICTED BY IDOCK:   -5.82 KCAL/MOL
REMARK 923 INTER-LIGAND FREE ENERGY PREDICTED BY IDOCK:   -5.14 KCAL/MOL
REMARK 924 INTRA-LIGAND FREE ENERGY PREDICTED BY IDOCK:   -0.68 KCAL/MOL
REMARK 927      BINDING AFFINITY PREDICTED BY RF-SCORE:    0.00 PKD
ROOT
HETATM    1 NA   UNL     1      -8.895  12.748  63.164  1.00  0.00    -0.264 Na 
HETATM    2  C   UNL     2     -11.809  13.369  69.248  1.00  0.00    -0.385 C  
HETATM    3  C   UNL     2     -10.788  13.521  68.131  1.00  0.00    -0.271 C  
ENDROOT
BRANCH   3   4
HETATM    4  C   UNL     2     -11.131  14.716  67.246  1.00  0.00    -0.331 C  
BRANCH   4   5
HETATM    5  C   UNL     2     -11.139  14.345  65.761  1.00  0.00    -0.316 C  
BRANCH   5   6
HETATM    6  C   UNL     2     -12.179  13.269  65.421  1.00  0.00    -0.501 C  
BRANCH   6   7
HETATM    7  C   UNL     2     -12.162  12.902  63.938  1.00  0.00    -0.525 C  
BRANCH   7   8
HETATM    8  C   UNL     2     -11.182  11.777  63.613  1.00  0.00    -0.519 C  
BRANCH   8   9
HETATM    9  C   UNL     2     -10.783  10.985  64.867  1.00  0.00    -0.278 C  
BRANCH   9  10
HETATM   10  C   UNL     2      -9.617  10.007  64.669  1.00  0.00    -0.363 C  
BRANCH  10  11
HETATM   11  C   UNL     2      -9.341   9.151  65.908  1.00  0.00    -0.306 C  
BRANCH  11  12
HETATM   12  C   UNL     2      -7.973   9.420  66.546  1.00  0.00    -0.108 C  
BRANCH  12  13
HETATM   13  C   UNL     2      -8.038   9.748  68.040  1.00  0.00    -0.105 C  
BRANCH  13  14
HETATM   14  O   UNL     2      -8.700   8.692  68.712  1.00  0.00    -0.133 OA 
HETATM   15  S   UNL     2      -9.809   9.077  69.839  1.00  0.00    -0.193 S  
HETATM   16  O   UNL     2     -10.320   7.769  70.261  1.00  0.00    -0.207 OA 
HETATM   17  O   UNL     2     -10.792   9.876  69.117  1.00  0.00    -0.218 OA 
HETATM   18  O   UNL     2      -9.056   9.787  70.858  1.00  0.00    -0.120 OA 
ENDBRANCH  13  14
ENDBRANCH  12  13
ENDBRANCH  11  12
ENDBRANCH  10  11
ENDBRANCH   9  10
ENDBRANCH   8   9
ENDBRANCH   7   8
ENDBRANCH   6   7
ENDBRANCH   5   6
ENDBRANCH   4   5
ENDBRANCH   3   4
TORSDOF 11
ENDMDL
MODEL      357
REMARK 921   NORMALIZED FREE ENERGY PREDICTED BY IDOCK:   -2.67 KCAL/MOL
REMARK 922        TOTAL FREE ENERGY PREDICTED BY IDOCK:   -5.81 KCAL/MOL
REMARK 923 INTER-LIGAND FREE ENERGY PREDICTED BY IDOCK:   -5.18 KCAL/MOL
REMARK 924 INTRA-LIGAND FREE ENERGY PREDICTED BY IDOCK:   -0.64 KCAL/MOL
REMARK 927      BINDING AFFINITY PREDICTED BY RF-SCORE:    0.00 PKD
ROOT
HETATM    1 NA   UNL     1      -8.630  13.410  69.372  1.00  0.00    -0.340 Na 
HETATM    2  C   UNL     2     -10.597  18.868  65.873  1.00  0.00    -0.438 C  
HETATM    3  C   UNL     2      -9.731  17.954  66.726  1.00  0.00    -0.314 C  
ENDROOT
BRANCH   3   4
HETATM    4  C   UNL     2      -8.904  17.020  65.847  1.00  0.00    -0.036 C  
BRANCH   4   5
HETATM    5  C   UNL     2      -9.343  15.561  65.988  1.00  0.00    -0.379 C  
BRANCH   5   6
HETATM    6  C   UNL     2     -10.709  15.284  65.346  1.00  0.00    -0.407 C  
BRANCH   6   7
HETATM    7  C   UNL     2     -11.638  14.512  66.283  1.00  0.00    -0.364 C  
BRANCH   7   8
HETATM    8  C   UNL     2     -10.904  13.475  67.130  1.00  0.00    -0.291 C  
BRANCH   8   9
HETATM    9  C   UNL     2     -10.693  12.158  66.369  1.00  0.00    -0.292 C  
BRANCH   9  10
HETATM   10  C   UNL     2     -11.102  10.895  67.137  1.00  0.00    -0.308 C  
BRANCH  10  11
HETATM   11  C   UNL     2     -10.261  10.666  68.396  1.00  0.00    -0.191 C  
BRANCH  11  12
HETATM   12  C   UNL     2     -10.296   9.218  68.901  1.00  0.00    -0.231 C  
BRANCH  12  13
HETATM   13  C   UNL     2     -10.773   9.077  70.348  1.00  0.00    -0.227 C  
BRANCH  13  14
HETATM   14  O   UNL     2     -11.873   8.185  70.384  1.00  0.00    -0.093 OA 
HETATM   15  S   UNL     2     -12.479   7.773  71.837  1.00  0.00    -0.302 S  
HETATM   16  O   UNL     2     -13.617   6.916  71.489  1.00  0.00    -0.301 OA 
HETATM   17  O   UNL     2     -12.873   9.043  72.435  1.00  0.00    -0.401 OA 
HETATM   18  O   UNL     2     -11.387   7.084  72.500  1.00  0.00    -0.263 OA 
ENDBRANCH  13  14
ENDBRANCH  12  13
ENDBRANCH  11  12
ENDBRANCH  10  11
ENDBRANCH   9  10
ENDBRANCH   8   9
ENDBRANCH   7   8
ENDBRANCH   6   7
ENDBRANCH   5   6
ENDBRANCH   4   5
ENDBRANCH   3   4
TORSDOF 11
ENDMDL
MODEL      358
REMARK 921   NORMALIZED FREE ENERGY PREDICTED BY IDOCK:   -2.66 KCAL/MOL
REMARK 922        TOTAL FREE ENERGY PREDICTED BY IDOCK:   -5.80 KCAL/MOL
REMARK 923 INTER-LIGAND FREE ENERGY PREDICTED BY IDOCK:   -4.92 KCAL/MOL
REMARK 924 INTRA-LIGAND FREE ENERGY PREDICTED BY IDOCK:   -0.88 KCAL/MOL
REMARK 927      BINDING AFFINITY PREDICTED BY RF-SCORE:    0.00 PKD
ROOT
HETATM    1 NA   UNL     1      -7.006  11.859  70.536  1.00  0.00    -0.359 Na 
HETATM    2  C   UNL     2     -12.403  15.655  69.000  1.00  0.00     0.044 C  
HETATM    3  C   UNL     2     -10.955  15.271  69.265  1.00  0.00    -0.261 C  
ENDROOT
BRANCH   3   4
HETATM    4  C   UNL     2     -10.300  14.729  67.998  1.00  0.00    -0.237 C  
BRANCH   4   5
HETATM    5  C   UNL     2     -10.005  13.231  68.101  1.00  0.00    -0.234 C  
BRANCH   5   6
HETATM    6  C   UNL     2     -10.882  12.385  67.168  1.00  0.00    -0.280 C  
BRANCH   6   7
HETATM    7  C   UNL     2     -11.732  11.376  67.938  1.00  0.00    -0.300 C  
BRANCH   7   8
HETATM    8  C   UNL     2     -11.736  11.625  69.444  1.00  0.00    -0.405 C  
BRANCH   8   9
HETATM    9  C   UNL     2     -12.899  10.904  70.142  1.00  0.00    -0.144 C  
BRANCH   9  10
HETATM   10  C   UNL     2     -12.796  10.841  71.671  1.00  0.00    -0.562 C  
BRANCH  10  11
HETATM   11  C   UNL     2     -12.799   9.407  72.209  1.00  0.00    -0.452 C  
BRANCH  11  12
HETATM   12  C   UNL     2     -11.547   8.608  71.826  1.00  0.00    -0.403 C  
BRANCH  12  13
HETATM   13  C   UNL     2     -11.753   7.091  71.839  1.00  0.00    -0.296 C  
BRANCH  13  14
HETATM   14  O   UNL     2     -11.456   6.577  70.552  1.00  0.00    -0.338 OA 
HETATM   15  S   UNL     2     -10.166   5.597  70.398  1.00  0.00    -0.256 S  
HETATM   16  O   UNL     2     -10.209   5.217  68.983  1.00  0.00    -0.202 OA 
HETATM   17  O   UNL     2     -10.445   4.490  71.304  1.00  0.00    -0.091 OA 
HETATM   18  O   UNL     2      -9.035   6.431  70.764  1.00  0.00    -0.143 OA 
ENDBRANCH  13  14
ENDBRANCH  12  13
ENDBRANCH  11  12
ENDBRANCH  10  11
ENDBRANCH   9  10
ENDBRANCH   8   9
ENDBRANCH   7   8
ENDBRANCH   6   7
ENDBRANCH   5   6
ENDBRANCH   4   5
ENDBRANCH   3   4
TORSDOF 11
ENDMDL
MODEL      359
REMARK 921   NORMALIZED FREE ENERGY PREDICTED BY IDOCK:   -2.65 KCAL/MOL
REMARK 922        TOTAL FREE ENERGY PREDICTED BY IDOCK:   -5.80 KCAL/MOL
REMARK 923 INTER-LIGAND FREE ENERGY PREDICTED BY IDOCK:   -4.65 KCAL/MOL
REMARK 924 INTRA-LIGAND FREE ENERGY PREDICTED BY IDOCK:   -1.14 KCAL/MOL
REMARK 927      BINDING AFFINITY PREDICTED BY RF-SCORE:    0.00 PKD
ROOT
HETATM    1 NA   UNL     1      -6.514  14.018  72.198  1.00  0.00    -0.292 Na 
HETATM    2  C   UNL     2      -6.793  10.945  66.167  1.00  0.00    -0.100 C  
HETATM    3  C   UNL     2      -7.251  11.535  67.492  1.00  0.00    -0.111 C  
ENDROOT
BRANCH   3   4
HETATM    4  C   UNL     2      -7.533  13.028  67.349  1.00  0.00    -0.136 C  
BRANCH   4   5
HETATM    5  C   UNL     2      -7.415  13.764  68.685  1.00  0.00    -0.116 C  
BRANCH   5   6
HETATM    6  C   UNL     2      -7.143  15.265  68.518  1.00  0.00    -0.110 C  
BRANCH   6   7
HETATM    7  C   UNL     2      -7.539  15.769  67.131  1.00  0.00    -0.259 C  
BRANCH   7   8
HETATM    8  C   UNL     2      -8.475  16.975  67.179  1.00  0.00    -0.222 C  
BRANCH   8   9
HETATM    9  C   UNL     2      -8.944  17.280  68.609  1.00  0.00    -0.265 C  
BRANCH   9  10
HETATM   10  C   UNL     2     -10.465  17.241  68.813  1.00  0.00    -0.340 C  
BRANCH  10  11
HETATM   11  C   UNL     2     -11.100  15.946  68.299  1.00  0.00    -0.345 C  
BRANCH  11  12
HETATM   12  C   UNL     2     -11.412  14.935  69.409  1.00  0.00    -0.324 C  
BRANCH  12  13
HETATM   13  C   UNL     2     -11.718  13.525  68.896  1.00  0.00    -0.339 C  
BRANCH  13  14
HETATM   14  O   UNL     2     -10.797  13.202  67.868  1.00  0.00    -0.233 OA 
HETATM   15  S   UNL     2     -11.333  12.318  66.611  1.00  0.00    -0.359 S  
HETATM   16  O   UNL     2     -10.157  12.241  65.738  1.00  0.00    -0.243 OA 
HETATM   17  O   UNL     2     -12.419  13.112  66.050  1.00  0.00    -0.402 OA 
HETATM   18  O   UNL     2     -11.728  11.052  67.203  1.00  0.00    -0.456 OA 
ENDBRANCH  13  14
ENDBRANCH  12  13
ENDBRANCH  11  12
ENDBRANCH  10  11
ENDBRANCH   9  10
ENDBRANCH   8   9
ENDBRANCH   7   8
ENDBRANCH   6   7
ENDBRANCH   5   6
ENDBRANCH   4   5
ENDBRANCH   3   4
TORSDOF 11
ENDMDL
MODEL      360
REMARK 921   NORMALIZED FREE ENERGY PREDICTED BY IDOCK:   -2.65 KCAL/MOL
REMARK 922        TOTAL FREE ENERGY PREDICTED BY IDOCK:   -5.78 KCAL/MOL
REMARK 923 INTER-LIGAND FREE ENERGY PREDICTED BY IDOCK:   -4.81 KCAL/MOL
REMARK 924 INTRA-LIGAND FREE ENERGY PREDICTED BY IDOCK:   -0.97 KCAL/MOL
REMARK 927      BINDING AFFINITY PREDICTED BY RF-SCORE:    0.00 PKD
ROOT
HETATM    1 NA   UNL     1      -9.884   8.704  62.331  1.00  0.00    -0.534 Na 
HETATM    2  C   UNL     2     -12.908  13.969  65.335  1.00  0.00    -0.442 C  
HETATM    3  C   UNL     2     -12.325  12.578  65.139  1.00  0.00    -0.496 C  
ENDROOT
BRANCH   3   4
HETATM    4  C   UNL     2     -10.829  12.574  65.440  1.00  0.00    -0.316 C  
BRANCH   4   5
HETATM    5  C   UNL     2     -10.504  11.794  66.715  1.00  0.00    -0.260 C  
BRANCH   5   6
HETATM    6  C   UNL     2      -9.079  11.223  66.719  1.00  0.00    -0.181 C  
BRANCH   6   7
HETATM    7  C   UNL     2      -8.866  10.202  65.602  1.00  0.00    -0.185 C  
BRANCH   7   8
HETATM    8  C   UNL     2      -7.977   9.035  66.023  1.00  0.00    -0.103 C  
BRANCH   8   9
HETATM    9  C   UNL     2      -8.648   7.679  65.762  1.00  0.00    -0.156 C  
BRANCH   9  10
HETATM   10  C   UNL     2      -9.842   7.362  66.672  1.00  0.00    -0.263 C  
BRANCH  10  11
HETATM   11  C   UNL     2      -9.506   7.491  68.161  1.00  0.00    -0.147 C  
BRANCH  11  12
HETATM   12  C   UNL     2     -10.326   8.567  68.883  1.00  0.00    -0.226 C  
BRANCH  12  13
HETATM   13  C   UNL     2     -10.859   8.127  70.249  1.00  0.00    -0.244 C  
BRANCH  13  14
HETATM   14  O   UNL     2      -9.984   8.603  71.257  1.00  0.00    -0.204 OA 
HETATM   15  S   UNL     2      -9.781   7.689  72.588  1.00  0.00    -0.219 S  
HETATM   16  O   UNL     2      -8.784   8.442  73.356  1.00  0.00    -0.283 OA 
HETATM   17  O   UNL     2      -9.279   6.418  72.078  1.00  0.00    -0.148 OA 
HETATM   18  O   UNL     2     -11.099   7.639  73.196  1.00  0.00    -0.404 OA 
ENDBRANCH  13  14
ENDBRANCH  12  13
ENDBRANCH  11  12
ENDBRANCH  10  11
ENDBRANCH   9  10
ENDBRANCH   8   9
ENDBRANCH   7   8
ENDBRANCH   6   7
ENDBRANCH   5   6
ENDBRANCH   4   5
ENDBRANCH   3   4
TORSDOF 11
ENDMDL
MODEL      361
REMARK 921   NORMALIZED FREE ENERGY PREDICTED BY IDOCK:   -2.64 KCAL/MOL
REMARK 922        TOTAL FREE ENERGY PREDICTED BY IDOCK:   -5.78 KCAL/MOL
REMARK 923 INTER-LIGAND FREE ENERGY PREDICTED BY IDOCK:   -4.94 KCAL/MOL
REMARK 924 INTRA-LIGAND FREE ENERGY PREDICTED BY IDOCK:   -0.84 KCAL/MOL
REMARK 927      BINDING AFFINITY PREDICTED BY RF-SCORE:    0.00 PKD
ROOT
HETATM    1 NA   UNL     1      -9.322  12.834  63.575  1.00  0.00    -0.539 Na 
HETATM    2  C   UNL     2     -10.062  19.063  66.133  1.00  0.00    -0.462 C  
HETATM    3  C   UNL     2     -10.243  17.565  65.947  1.00  0.00    -0.251 C  
ENDROOT
BRANCH   3   4
HETATM    4  C   UNL     2      -9.172  16.793  66.711  1.00  0.00    -0.263 C  
BRANCH   4   5
HETATM    5  C   UNL     2      -9.649  16.378  68.105  1.00  0.00    -0.227 C  
BRANCH   5   6
HETATM    6  C   UNL     2     -11.152  16.070  68.153  1.00  0.00    -0.344 C  
BRANCH   6   7
HETATM    7  C   UNL     2     -11.641  15.820  69.579  1.00  0.00    -0.368 C  
BRANCH   7   8
HETATM    8  C   UNL     2     -11.779  14.336  69.911  1.00  0.00    -0.373 C  
BRANCH   8   9
HETATM    9  C   UNL     2     -11.852  13.470  68.645  1.00  0.00    -0.404 C  
BRANCH   9  10
HETATM   10  C   UNL     2     -11.015  12.184  68.692  1.00  0.00    -0.284 C  
BRANCH  10  11
HETATM   11  C   UNL     2     -10.056  12.055  67.505  1.00  0.00    -0.205 C  
BRANCH  11  12
HETATM   12  C   UNL     2     -10.691  11.400  66.273  1.00  0.00    -0.322 C  
BRANCH  12  13
HETATM   13  C   UNL     2     -10.121  10.018  65.942  1.00  0.00    -0.249 C  
BRANCH  13  14
HETATM   14  O   UNL     2      -9.635   9.425  67.134  1.00  0.00    -0.143 OA 
HETATM   15  S   UNL     2      -8.647   8.140  67.003  1.00  0.00    -0.125 S  
HETATM   16  O   UNL     2      -8.300   7.846  68.397  1.00  0.00    -0.123 OA 
HETATM   17  O   UNL     2      -7.521   8.631  66.218  1.00  0.00    -0.087 OA 
HETATM   18  O   UNL     2      -9.461   7.125  66.357  1.00  0.00    -0.173 OA 
ENDBRANCH  13  14
ENDBRANCH  12  13
ENDBRANCH  11  12
ENDBRANCH  10  11
ENDBRANCH   9  10
ENDBRANCH   8   9
ENDBRANCH   7   8
ENDBRANCH   6   7
ENDBRANCH   5   6
ENDBRANCH   4   5
ENDBRANCH   3   4
TORSDOF 11
ENDMDL
MODEL      362
REMARK 921   NORMALIZED FREE ENERGY PREDICTED BY IDOCK:   -2.64 KCAL/MOL
REMARK 922        TOTAL FREE ENERGY PREDICTED BY IDOCK:   -5.77 KCAL/MOL
REMARK 923 INTER-LIGAND FREE ENERGY PREDICTED BY IDOCK:   -5.07 KCAL/MOL
REMARK 924 INTRA-LIGAND FREE ENERGY PREDICTED BY IDOCK:   -0.70 KCAL/MOL
REMARK 927      BINDING AFFINITY PREDICTED BY RF-SCORE:    0.00 PKD
ROOT
HETATM    1 NA   UNL     1     -11.815  14.298  63.135  1.00  0.00    -0.632 Na 
HETATM    2  C   UNL     2      -9.798  19.917  66.336  1.00  0.00    -0.572 C  
HETATM    3  C   UNL     2     -10.654  18.719  65.957  1.00  0.00    -0.442 C  
ENDROOT
BRANCH   3   4
HETATM    4  C   UNL     2     -10.208  17.475  66.721  1.00  0.00    -0.327 C  
BRANCH   4   5
HETATM    5  C   UNL     2      -9.622  17.823  68.091  1.00  0.00    -0.303 C  
BRANCH   5   6
HETATM    6  C   UNL     2      -9.000  16.613  68.799  1.00  0.00    -0.253 C  
BRANCH   6   7
HETATM    7  C   UNL     2      -9.916  15.390  68.757  1.00  0.00    -0.208 C  
BRANCH   7   8
HETATM    8  C   UNL     2      -9.259  14.175  68.106  1.00  0.00    -0.194 C  
BRANCH   8   9
HETATM    9  C   UNL     2      -9.826  13.898  66.705  1.00  0.00    -0.274 C  
BRANCH   9  10
HETATM   10  C   UNL     2     -10.169  12.429  66.426  1.00  0.00    -0.253 C  
BRANCH  10  11
HETATM   11  C   UNL     2     -10.932  12.236  65.113  1.00  0.00    -0.344 C  
BRANCH  11  12
HETATM   12  C   UNL     2     -10.453  11.028  64.298  1.00  0.00    -0.427 C  
BRANCH  12  13
HETATM   13  C   UNL     2      -9.314  10.247  64.959  1.00  0.00    -0.237 C  
BRANCH  13  14
HETATM   14  O   UNL     2      -8.126  10.451  64.213  1.00  0.00    -0.160 OA 
HETATM   15  S   UNL     2      -6.710  10.045  64.904  1.00  0.00    -0.126 S  
HETATM   16  O   UNL     2      -5.735  10.321  63.844  1.00  0.00    -0.125 OA 
HETATM   17  O   UNL     2      -6.850   8.625  65.205  1.00  0.00    -0.067 OA 
HETATM   18  O   UNL     2      -6.609  10.919  66.059  1.00  0.00    -0.126 OA 
ENDBRANCH  13  14
ENDBRANCH  12  13
ENDBRANCH  11  12
ENDBRANCH  10  11
ENDBRANCH   9  10
ENDBRANCH   8   9
ENDBRANCH   7   8
ENDBRANCH   6   7
ENDBRANCH   5   6
ENDBRANCH   4   5
ENDBRANCH   3   4
TORSDOF 11
ENDMDL
MODEL      363
REMARK 921   NORMALIZED FREE ENERGY PREDICTED BY IDOCK:   -2.64 KCAL/MOL
REMARK 922        TOTAL FREE ENERGY PREDICTED BY IDOCK:   -5.77 KCAL/MOL
REMARK 923 INTER-LIGAND FREE ENERGY PREDICTED BY IDOCK:   -5.03 KCAL/MOL
REMARK 924 INTRA-LIGAND FREE ENERGY PREDICTED BY IDOCK:   -0.74 KCAL/MOL
REMARK 927      BINDING AFFINITY PREDICTED BY RF-SCORE:    0.00 PKD
ROOT
HETATM    1 NA   UNL     1     -12.685  12.799  67.012  1.00  0.00    -0.274 Na 
HETATM    2  C   UNL     2     -10.195   6.530  67.644  1.00  0.00    -0.210 C  
HETATM    3  C   UNL     2     -10.686   7.813  66.991  1.00  0.00    -0.316 C  
ENDROOT
BRANCH   3   4
HETATM    4  C   UNL     2      -9.555   8.833  66.890  1.00  0.00    -0.249 C  
BRANCH   4   5
HETATM    5  C   UNL     2      -9.030   8.966  65.459  1.00  0.00    -0.246 C  
BRANCH   5   6
HETATM    6  C   UNL     2      -8.698  10.415  65.078  1.00  0.00    -0.195 C  
BRANCH   6   7
HETATM    7  C   UNL     2      -9.952  11.281  64.965  1.00  0.00    -0.323 C  
BRANCH   7   8
HETATM    8  C   UNL     2     -10.036  12.354  66.047  1.00  0.00    -0.270 C  
BRANCH   8   9
HETATM    9  C   UNL     2      -8.739  12.447  66.865  1.00  0.00    -0.191 C  
BRANCH   9  10
HETATM   10  C   UNL     2      -8.814  13.362  68.095  1.00  0.00    -0.180 C  
BRANCH  10  11
HETATM   11  C   UNL     2      -9.935  14.400  67.996  1.00  0.00    -0.225 C  
BRANCH  11  12
HETATM   12  C   UNL     2      -9.476  15.745  67.420  1.00  0.00    -0.213 C  
BRANCH  12  13
HETATM   13  C   UNL     2      -9.529  16.900  68.423  1.00  0.00    -0.258 C  
BRANCH  13  14
HETATM   14  O   UNL     2      -8.951  18.049  67.831  1.00  0.00    -0.256 OA 
HETATM   15  S   UNL     2      -9.797  19.439  67.868  1.00  0.00    -0.386 S  
HETATM   16  O   UNL     2      -8.883  20.399  67.241  1.00  0.00    -0.347 OA 
HETATM   17  O   UNL     2     -10.014  19.689  69.288  1.00  0.00    -0.436 OA 
HETATM   18  O   UNL     2     -10.993  19.153  67.097  1.00  0.00    -0.453 OA 
ENDBRANCH  13  14
ENDBRANCH  12  13
ENDBRANCH  11  12
ENDBRANCH  10  11
ENDBRANCH   9  10
ENDBRANCH   8   9
ENDBRANCH   7   8
ENDBRANCH   6   7
ENDBRANCH   5   6
ENDBRANCH   4   5
ENDBRANCH   3   4
TORSDOF 11
ENDMDL
MODEL      364
REMARK 921   NORMALIZED FREE ENERGY PREDICTED BY IDOCK:   -2.64 KCAL/MOL
REMARK 922        TOTAL FREE ENERGY PREDICTED BY IDOCK:   -5.77 KCAL/MOL
REMARK 923 INTER-LIGAND FREE ENERGY PREDICTED BY IDOCK:   -4.91 KCAL/MOL
REMARK 924 INTRA-LIGAND FREE ENERGY PREDICTED BY IDOCK:   -0.86 KCAL/MOL
REMARK 927      BINDING AFFINITY PREDICTED BY RF-SCORE:    0.00 PKD
ROOT
HETATM    1 NA   UNL     1     -10.247   1.647  67.414  1.00  0.00    -0.397 Na 
HETATM    2  C   UNL     2     -11.302   5.092  73.151  1.00  0.00    -0.397 C  
HETATM    3  C   UNL     2     -10.563   4.392  72.020  1.00  0.00    -0.058 C  
ENDROOT
BRANCH   3   4
HETATM    4  C   UNL     2     -10.334   5.348  70.853  1.00  0.00    -0.312 C  
BRANCH   4   5
HETATM    5  C   UNL     2      -9.218   4.861  69.925  1.00  0.00    -0.178 C  
BRANCH   5   6
HETATM    6  C   UNL     2      -9.740   4.385  68.563  1.00  0.00    -0.181 C  
BRANCH   6   7
HETATM    7  C   UNL     2      -9.525   5.429  67.469  1.00  0.00    -0.129 C  
BRANCH   7   8
HETATM    8  C   UNL     2     -10.819   6.110  67.030  1.00  0.00    -0.435 C  
BRANCH   8   9
HETATM    9  C   UNL     2     -10.746   7.636  67.185  1.00  0.00    -0.361 C  
BRANCH   9  10
HETATM   10  C   UNL     2      -9.826   8.128  68.311  1.00  0.00    -0.191 C  
BRANCH  10  11
HETATM   11  C   UNL     2     -10.477   9.206  69.182  1.00  0.00    -0.230 C  
BRANCH  11  12
HETATM   12  C   UNL     2     -11.028  10.391  68.381  1.00  0.00    -0.312 C  
BRANCH  12  13
HETATM   13  C   UNL     2     -11.647  11.491  69.247  1.00  0.00    -0.322 C  
BRANCH  13  14
HETATM   14  O   UNL     2     -12.108  12.533  68.404  1.00  0.00    -0.272 OA 
HETATM   15  S   UNL     2     -11.645  14.055  68.747  1.00  0.00    -0.355 S  
HETATM   16  O   UNL     2     -12.238  14.834  67.655  1.00  0.00    -0.215 OA 
HETATM   17  O   UNL     2     -10.189  14.008  68.699  1.00  0.00    -0.236 OA 
HETATM   18  O   UNL     2     -12.217  14.320  70.055  1.00  0.00    -0.323 OA 
ENDBRANCH  13  14
ENDBRANCH  12  13
ENDBRANCH  11  12
ENDBRANCH  10  11
ENDBRANCH   9  10
ENDBRANCH   8   9
ENDBRANCH   7   8
ENDBRANCH   6   7
ENDBRANCH   5   6
ENDBRANCH   4   5
ENDBRANCH   3   4
TORSDOF 11
ENDMDL
MODEL      365
REMARK 921   NORMALIZED FREE ENERGY PREDICTED BY IDOCK:   -2.63 KCAL/MOL
REMARK 922        TOTAL FREE ENERGY PREDICTED BY IDOCK:   -5.76 KCAL/MOL
REMARK 923 INTER-LIGAND FREE ENERGY PREDICTED BY IDOCK:   -4.95 KCAL/MOL
REMARK 924 INTRA-LIGAND FREE ENERGY PREDICTED BY IDOCK:   -0.81 KCAL/MOL
REMARK 927      BINDING AFFINITY PREDICTED BY RF-SCORE:    0.00 PKD
ROOT
HETATM    1 NA   UNL     1     -12.947   6.788  72.172  1.00  0.00    -0.301 Na 
HETATM    2  C   UNL     2      -8.556   9.882  68.045  1.00  0.00    -0.121 C  
HETATM    3  C   UNL     2      -9.858   9.286  68.557  1.00  0.00    -0.173 C  
ENDROOT
BRANCH   3   4
HETATM    4  C   UNL     2     -10.630  10.308  69.385  1.00  0.00    -0.262 C  
BRANCH   4   5
HETATM    5  C   UNL     2     -11.586  11.138  68.525  1.00  0.00    -0.385 C  
BRANCH   5   6
HETATM    6  C   UNL     2     -11.575  12.628  68.888  1.00  0.00    -0.363 C  
BRANCH   6   7
HETATM    7  C   UNL     2     -11.807  13.518  67.668  1.00  0.00    -0.399 C  
BRANCH   7   8
HETATM    8  C   UNL     2     -10.824  13.242  66.532  1.00  0.00    -0.288 C  
BRANCH   8   9
HETATM    9  C   UNL     2      -9.366  13.417  66.980  1.00  0.00    -0.243 C  
BRANCH   9  10
HETATM   10  C   UNL     2      -8.919  14.873  67.172  1.00  0.00    -0.230 C  
BRANCH  10  11
HETATM   11  C   UNL     2      -7.441  14.996  67.550  1.00  0.00    -0.226 C  
BRANCH  11  12
HETATM   12  C   UNL     2      -7.006  16.434  67.859  1.00  0.00    -0.154 C  
BRANCH  12  13
HETATM   13  C   UNL     2      -7.868  17.502  67.180  1.00  0.00    -0.207 C  
BRANCH  13  14
HETATM   14  O   UNL     2      -7.319  17.792  65.906  1.00  0.00    -0.438 OA 
HETATM   15  S   UNL     2      -6.894  19.330  65.588  1.00  0.00    -0.268 S  
HETATM   16  O   UNL     2      -6.317  19.241  64.243  1.00  0.00    -0.436 OA 
HETATM   17  O   UNL     2      -5.913  19.653  66.617  1.00  0.00    -0.167 OA 
HETATM   18  O   UNL     2      -8.141  20.071  65.661  1.00  0.00    -0.286 OA 
ENDBRANCH  13  14
ENDBRANCH  12  13
ENDBRANCH  11  12
ENDBRANCH  10  11
ENDBRANCH   9  10
ENDBRANCH   8   9
ENDBRANCH   7   8
ENDBRANCH   6   7
ENDBRANCH   5   6
ENDBRANCH   4   5
ENDBRANCH   3   4
TORSDOF 11
ENDMDL
MODEL      366
REMARK 921   NORMALIZED FREE ENERGY PREDICTED BY IDOCK:   -2.62 KCAL/MOL
REMARK 922        TOTAL FREE ENERGY PREDICTED BY IDOCK:   -5.74 KCAL/MOL
REMARK 923 INTER-LIGAND FREE ENERGY PREDICTED BY IDOCK:   -5.16 KCAL/MOL
REMARK 924 INTRA-LIGAND FREE ENERGY PREDICTED BY IDOCK:   -0.58 KCAL/MOL
REMARK 927      BINDING AFFINITY PREDICTED BY RF-SCORE:    0.00 PKD
ROOT
HETATM    1 NA   UNL     1      -7.661   7.911  66.725  1.00  0.00    -0.080 Na 
HETATM    2  C   UNL     2      -9.479   2.840  70.833  1.00  0.00    -0.224 C  
HETATM    3  C   UNL     2      -8.656   3.974  70.242  1.00  0.00    -0.106 C  
ENDROOT
BRANCH   3   4
HETATM    4  C   UNL     2      -9.096   5.317  70.817  1.00  0.00    -0.168 C  
BRANCH   4   5
HETATM    5  C   UNL     2     -10.608   5.375  71.046  1.00  0.00    -0.275 C  
BRANCH   5   6
HETATM    6  C   UNL     2     -10.980   5.874  72.448  1.00  0.00    -0.310 C  
BRANCH   6   7
HETATM    7  C   UNL     2     -11.477   7.319  72.431  1.00  0.00    -0.327 C  
BRANCH   7   8
HETATM    8  C   UNL     2     -12.831   7.476  71.743  1.00  0.00    -0.359 C  
BRANCH   8   9
HETATM    9  C   UNL     2     -13.481   8.831  72.059  1.00  0.00    -0.461 C  
BRANCH   9  10
HETATM   10  C   UNL     2     -12.612  10.055  71.742  1.00  0.00    -0.504 C  
BRANCH  10  11
HETATM   11  C   UNL     2     -12.854  10.608  70.335  1.00  0.00    -0.277 C  
BRANCH  11  12
HETATM   12  C   UNL     2     -11.605  11.231  69.699  1.00  0.00    -0.401 C  
BRANCH  12  13
HETATM   13  C   UNL     2     -11.860  12.583  69.028  1.00  0.00    -0.296 C  
BRANCH  13  14
HETATM   14  O   UNL     2     -10.628  13.102  68.559  1.00  0.00    -0.250 OA 
HETATM   15  S   UNL     2     -10.557  13.640  67.025  1.00  0.00    -0.274 S  
HETATM   16  O   UNL     2      -9.187  14.151  66.917  1.00  0.00    -0.237 OA 
HETATM   17  O   UNL     2     -11.571  14.685  66.963  1.00  0.00    -0.362 OA 
HETATM   18  O   UNL     2     -10.826  12.463  66.218  1.00  0.00    -0.252 OA 
ENDBRANCH  13  14
ENDBRANCH  12  13
ENDBRANCH  11  12
ENDBRANCH  10  11
ENDBRANCH   9  10
ENDBRANCH   8   9
ENDBRANCH   7   8
ENDBRANCH   6   7
ENDBRANCH   5   6
ENDBRANCH   4   5
ENDBRANCH   3   4
TORSDOF 11
ENDMDL
MODEL      367
REMARK 921   NORMALIZED FREE ENERGY PREDICTED BY IDOCK:   -2.62 KCAL/MOL
REMARK 922        TOTAL FREE ENERGY PREDICTED BY IDOCK:   -5.74 KCAL/MOL
REMARK 923 INTER-LIGAND FREE ENERGY PREDICTED BY IDOCK:   -4.91 KCAL/MOL
REMARK 924 INTRA-LIGAND FREE ENERGY PREDICTED BY IDOCK:   -0.83 KCAL/MOL
REMARK 927      BINDING AFFINITY PREDICTED BY RF-SCORE:    0.00 PKD
ROOT
HETATM    1 NA   UNL     1      -8.653  12.097  63.199  1.00  0.00    -0.464 Na 
HETATM    2  C   UNL     2     -11.380  15.718  68.235  1.00  0.00    -0.354 C  
HETATM    3  C   UNL     2     -10.394  15.277  67.163  1.00  0.00    -0.265 C  
ENDROOT
BRANCH   3   4
HETATM    4  C   UNL     2     -10.767  15.873  65.809  1.00  0.00    -0.325 C  
BRANCH   4   5
HETATM    5  C   UNL     2     -11.175  14.795  64.802  1.00  0.00    -0.392 C  
BRANCH   5   6
HETATM    6  C   UNL     2     -12.248  13.844  65.348  1.00  0.00    -0.463 C  
BRANCH   6   7
HETATM    7  C   UNL     2     -12.420  12.606  64.468  1.00  0.00    -0.525 C  
BRANCH   7   8
HETATM    8  C   UNL     2     -11.106  11.873  64.207  1.00  0.00    -0.418 C  
BRANCH   8   9
HETATM    9  C   UNL     2     -10.507  11.291  65.495  1.00  0.00    -0.323 C  
BRANCH   9  10
HETATM   10  C   UNL     2     -11.525  10.995  66.605  1.00  0.00     0.159 C  
BRANCH  10  11
HETATM   11  C   UNL     2     -11.058  11.471  67.983  1.00  0.00    -0.313 C  
BRANCH  11  12
HETATM   12  C   UNL     2     -11.688  10.694  69.145  1.00  0.00    -0.324 C  
BRANCH  12  13
HETATM   13  C   UNL     2     -10.867   9.484  69.600  1.00  0.00    -0.235 C  
BRANCH  13  14
HETATM   14  O   UNL     2      -9.497   9.844  69.627  1.00  0.00    -0.206 OA 
HETATM   15  S   UNL     2      -8.430   8.852  68.902  1.00  0.00    -0.132 S  
HETATM   16  O   UNL     2      -7.157   9.560  69.066  1.00  0.00    -0.064 OA 
HETATM   17  O   UNL     2      -8.882   8.787  67.517  1.00  0.00    -0.133 OA 
HETATM   18  O   UNL     2      -8.530   7.610  69.648  1.00  0.00    -0.132 OA 
ENDBRANCH  13  14
ENDBRANCH  12  13
ENDBRANCH  11  12
ENDBRANCH  10  11
ENDBRANCH   9  10
ENDBRANCH   8   9
ENDBRANCH   7   8
ENDBRANCH   6   7
ENDBRANCH   5   6
ENDBRANCH   4   5
ENDBRANCH   3   4
TORSDOF 11
ENDMDL
MODEL      368
REMARK 921   NORMALIZED FREE ENERGY PREDICTED BY IDOCK:   -2.60 KCAL/MOL
REMARK 922        TOTAL FREE ENERGY PREDICTED BY IDOCK:   -5.71 KCAL/MOL
REMARK 923 INTER-LIGAND FREE ENERGY PREDICTED BY IDOCK:   -4.80 KCAL/MOL
REMARK 924 INTRA-LIGAND FREE ENERGY PREDICTED BY IDOCK:   -0.92 KCAL/MOL
REMARK 927      BINDING AFFINITY PREDICTED BY RF-SCORE:    0.00 PKD
ROOT
HETATM    1 NA   UNL     1     -11.369  20.742  70.343  1.00  0.00    -0.825 Na 
HETATM    2  C   UNL     2      -5.987  20.716  66.228  1.00  0.00    -0.252 C  
HETATM    3  C   UNL     2      -6.993  20.246  67.268  1.00  0.00    -0.308 C  
ENDROOT
BRANCH   3   4
HETATM    4  C   UNL     2      -8.186  19.571  66.598  1.00  0.00    -0.329 C  
BRANCH   4   5
HETATM    5  C   UNL     2      -9.387  19.461  67.541  1.00  0.00    -0.386 C  
BRANCH   5   6
HETATM    6  C   UNL     2      -9.858  18.015  67.741  1.00  0.00    -0.306 C  
BRANCH   6   7
HETATM    7  C   UNL     2      -9.178  17.050  66.771  1.00  0.00    -0.270 C  
BRANCH   7   8
HETATM    8  C   UNL     2     -10.052  16.698  65.569  1.00  0.00    -0.163 C  
BRANCH   8   9
HETATM    9  C   UNL     2      -9.824  15.255  65.097  1.00  0.00    -0.164 C  
BRANCH   9  10
HETATM   10  C   UNL     2     -11.006  14.304  65.332  1.00  0.00    -0.335 C  
BRANCH  10  11
HETATM   11  C   UNL     2     -10.672  13.167  66.300  1.00  0.00    -0.295 C  
BRANCH  11  12
HETATM   12  C   UNL     2      -9.363  12.442  65.964  1.00  0.00    -0.116 C  
BRANCH  12  13
HETATM   13  C   UNL     2      -8.437  12.244  67.168  1.00  0.00    -0.184 C  
BRANCH  13  14
HETATM   14  O   UNL     2      -8.589  13.343  68.049  1.00  0.00    -0.156 OA 
HETATM   15  S   UNL     2      -7.244  14.068  68.608  1.00  0.00    -0.119 S  
HETATM   16  O   UNL     2      -7.776  15.173  69.413  1.00  0.00    -0.193 OA 
HETATM   17  O   UNL     2      -6.548  14.511  67.406  1.00  0.00    -0.286 OA 
HETATM   18  O   UNL     2      -6.570  13.035  69.374  1.00  0.00    -0.109 OA 
ENDBRANCH  13  14
ENDBRANCH  12  13
ENDBRANCH  11  12
ENDBRANCH  10  11
ENDBRANCH   9  10
ENDBRANCH   8   9
ENDBRANCH   7   8
ENDBRANCH   6   7
ENDBRANCH   5   6
ENDBRANCH   4   5
ENDBRANCH   3   4
TORSDOF 11
ENDMDL
MODEL      369
REMARK 921   NORMALIZED FREE ENERGY PREDICTED BY IDOCK:   -2.60 KCAL/MOL
REMARK 922        TOTAL FREE ENERGY PREDICTED BY IDOCK:   -5.70 KCAL/MOL
REMARK 923 INTER-LIGAND FREE ENERGY PREDICTED BY IDOCK:   -4.94 KCAL/MOL
REMARK 924 INTRA-LIGAND FREE ENERGY PREDICTED BY IDOCK:   -0.76 KCAL/MOL
REMARK 927      BINDING AFFINITY PREDICTED BY RF-SCORE:    0.00 PKD
ROOT
HETATM    1 NA   UNL     1     -14.409   8.149  70.560  1.00  0.00    -0.595 Na 
HETATM    2  C   UNL     2     -10.136   4.585  74.425  1.00  0.00    -0.253 C  
HETATM    3  C   UNL     2     -11.165   4.902  73.350  1.00  0.00    -0.415 C  
ENDROOT
BRANCH   3   4
HETATM    4  C   UNL     2     -10.479   5.351  72.063  1.00  0.00    -0.278 C  
BRANCH   4   5
HETATM    5  C   UNL     2     -10.436   6.875  71.939  1.00  0.00    -0.224 C  
BRANCH   5   6
HETATM    6  C   UNL     2      -9.009   7.437  71.981  1.00  0.00    -0.143 C  
BRANCH   6   7
HETATM    7  C   UNL     2      -8.927   8.840  71.380  1.00  0.00    -0.307 C  
BRANCH   7   8
HETATM    8  C   UNL     2      -7.866   8.960  70.288  1.00  0.00    -0.104 C  
BRANCH   8   9
HETATM    9  C   UNL     2      -7.921   7.783  69.303  1.00  0.00    -0.125 C  
BRANCH   9  10
HETATM   10  C   UNL     2      -7.816   8.173  67.823  1.00  0.00    -0.118 C  
BRANCH  10  11
HETATM   11  C   UNL     2      -8.929   7.561  66.967  1.00  0.00    -0.143 C  
BRANCH  11  12
HETATM   12  C   UNL     2      -9.793   8.606  66.250  1.00  0.00    -0.320 C  
BRANCH  12  13
HETATM   13  C   UNL     2     -10.718   9.391  67.184  1.00  0.00    -0.163 C  
BRANCH  13  14
HETATM   14  O   UNL     2     -10.222  10.712  67.314  1.00  0.00    -0.190 OA 
HETATM   15  S   UNL     2     -11.281  11.942  67.197  1.00  0.00    -0.331 S  
HETATM   16  O   UNL     2     -10.445  13.121  67.445  1.00  0.00    -0.240 OA 
HETATM   17  O   UNL     2     -12.248  11.686  68.258  1.00  0.00    -0.525 OA 
HETATM   18  O   UNL     2     -11.799  11.844  65.844  1.00  0.00    -0.466 OA 
ENDBRANCH  13  14
ENDBRANCH  12  13
ENDBRANCH  11  12
ENDBRANCH  10  11
ENDBRANCH   9  10
ENDBRANCH   8   9
ENDBRANCH   7   8
ENDBRANCH   6   7
ENDBRANCH   5   6
ENDBRANCH   4   5
ENDBRANCH   3   4
TORSDOF 11
ENDMDL
MODEL      370
REMARK 921   NORMALIZED FREE ENERGY PREDICTED BY IDOCK:   -2.60 KCAL/MOL
REMARK 922        TOTAL FREE ENERGY PREDICTED BY IDOCK:   -5.70 KCAL/MOL
REMARK 923 INTER-LIGAND FREE ENERGY PREDICTED BY IDOCK:   -4.68 KCAL/MOL
REMARK 924 INTRA-LIGAND FREE ENERGY PREDICTED BY IDOCK:   -1.02 KCAL/MOL
REMARK 927      BINDING AFFINITY PREDICTED BY RF-SCORE:    0.00 PKD
ROOT
HETATM    1 NA   UNL     1     -12.536  12.625  70.223  1.00  0.00    -0.281 Na 
HETATM    2  C   UNL     2     -11.802  12.481  63.490  1.00  0.00    -0.616 C  
HETATM    3  C   UNL     2     -12.475  12.534  64.853  1.00  0.00    -0.524 C  
ENDROOT
BRANCH   3   4
HETATM    4  C   UNL     2     -12.568  13.973  65.353  1.00  0.00    -0.529 C  
BRANCH   4   5
HETATM    5  C   UNL     2     -11.951  14.136  66.744  1.00  0.00    -0.475 C  
BRANCH   5   6
HETATM    6  C   UNL     2     -10.426  13.970  66.744  1.00  0.00    -0.277 C  
BRANCH   6   7
HETATM    7  C   UNL     2      -9.949  13.038  67.857  1.00  0.00    -0.230 C  
BRANCH   7   8
HETATM    8  C   UNL     2     -10.806  11.781  67.991  1.00  0.00    -0.256 C  
BRANCH   8   9
HETATM    9  C   UNL     2     -10.176  10.579  67.272  1.00  0.00    -0.260 C  
BRANCH   9  10
HETATM   10  C   UNL     2      -9.519   9.545  68.196  1.00  0.00    -0.145 C  
BRANCH  10  11
HETATM   11  C   UNL     2      -9.695   9.877  69.681  1.00  0.00    -0.252 C  
BRANCH  11  12
HETATM   12  C   UNL     2      -8.439   9.611  70.520  1.00  0.00    -0.128 C  
BRANCH  12  13
HETATM   13  C   UNL     2      -8.598   8.471  71.530  1.00  0.00    -0.181 C  
BRANCH  13  14
HETATM   14  O   UNL     2      -7.655   7.458  71.229  1.00  0.00    -0.080 OA 
HETATM   15  S   UNL     2      -8.216   5.999  70.775  1.00  0.00    -0.126 S  
HETATM   16  O   UNL     2      -6.990   5.249  70.487  1.00  0.00    -0.049 OA 
HETATM   17  O   UNL     2      -9.017   6.276  69.589  1.00  0.00    -0.134 OA 
HETATM   18  O   UNL     2      -8.956   5.523  71.930  1.00  0.00    -0.135 OA 
ENDBRANCH  13  14
ENDBRANCH  12  13
ENDBRANCH  11  12
ENDBRANCH  10  11
ENDBRANCH   9  10
ENDBRANCH   8   9
ENDBRANCH   7   8
ENDBRANCH   6   7
ENDBRANCH   5   6
ENDBRANCH   4   5
ENDBRANCH   3   4
TORSDOF 11
ENDMDL
MODEL      371
REMARK 921   NORMALIZED FREE ENERGY PREDICTED BY IDOCK:   -2.60 KCAL/MOL
REMARK 922        TOTAL FREE ENERGY PREDICTED BY IDOCK:   -5.70 KCAL/MOL
REMARK 923 INTER-LIGAND FREE ENERGY PREDICTED BY IDOCK:   -5.03 KCAL/MOL
REMARK 924 INTRA-LIGAND FREE ENERGY PREDICTED BY IDOCK:   -0.67 KCAL/MOL
REMARK 927      BINDING AFFINITY PREDICTED BY RF-SCORE:    0.00 PKD
ROOT
HETATM    1 NA   UNL     1     -11.192   9.047  72.597  1.00  0.00    -0.321 Na 
HETATM    2  C   UNL     2      -9.868   2.493  71.511  1.00  0.00    -0.196 C  
HETATM    3  C   UNL     2      -9.742   4.007  71.438  1.00  0.00    -0.253 C  
ENDROOT
BRANCH   3   4
HETATM    4  C   UNL     2      -8.916   4.536  72.607  1.00  0.00    -0.130 C  
BRANCH   4   5
HETATM    5  C   UNL     2      -7.468   4.821  72.203  1.00  0.00    -0.083 C  
BRANCH   5   6
HETATM    6  C   UNL     2      -7.228   6.292  71.841  1.00  0.00    -0.087 C  
BRANCH   6   7
HETATM    7  C   UNL     2      -8.276   7.215  72.463  1.00  0.00    -0.118 C  
BRANCH   7   8
HETATM    8  C   UNL     2      -8.593   8.429  71.593  1.00  0.00    -0.223 C  
BRANCH   8   9
HETATM    9  C   UNL     2      -8.986   8.025  70.164  1.00  0.00    -0.150 C  
BRANCH   9  10
HETATM   10  C   UNL     2     -10.232   8.731  69.613  1.00  0.00    -0.210 C  
BRANCH  10  11
HETATM   11  C   UNL     2      -9.912   9.689  68.462  1.00  0.00    -0.182 C  
BRANCH  11  12
HETATM   12  C   UNL     2     -11.109  10.543  68.026  1.00  0.00    -0.361 C  
BRANCH  12  13
HETATM   13  C   UNL     2     -10.799  11.502  66.874  1.00  0.00    -0.284 C  
BRANCH  13  14
HETATM   14  O   UNL     2     -12.018  12.005  66.355  1.00  0.00    -0.611 OA 
HETATM   15  S   UNL     2     -12.030  13.518  65.758  1.00  0.00    -0.431 S  
HETATM   16  O   UNL     2     -13.402  13.667  65.263  1.00  0.00    -0.669 OA 
HETATM   17  O   UNL     2     -11.032  13.493  64.695  1.00  0.00    -0.346 OA 
HETATM   18  O   UNL     2     -11.706  14.358  66.897  1.00  0.00    -0.372 OA 
ENDBRANCH  13  14
ENDBRANCH  12  13
ENDBRANCH  11  12
ENDBRANCH  10  11
ENDBRANCH   9  10
ENDBRANCH   8   9
ENDBRANCH   7   8
ENDBRANCH   6   7
ENDBRANCH   5   6
ENDBRANCH   4   5
ENDBRANCH   3   4
TORSDOF 11
ENDMDL
MODEL      372
REMARK 921   NORMALIZED FREE ENERGY PREDICTED BY IDOCK:   -2.59 KCAL/MOL
REMARK 922        TOTAL FREE ENERGY PREDICTED BY IDOCK:   -5.70 KCAL/MOL
REMARK 923 INTER-LIGAND FREE ENERGY PREDICTED BY IDOCK:   -4.86 KCAL/MOL
REMARK 924 INTRA-LIGAND FREE ENERGY PREDICTED BY IDOCK:   -0.84 KCAL/MOL
REMARK 927      BINDING AFFINITY PREDICTED BY RF-SCORE:    0.00 PKD
ROOT
HETATM    1 NA   UNL     1     -13.122  15.869  69.096  1.00  0.00    -0.590 Na 
HETATM    2  C   UNL     2     -12.135  12.174  63.505  1.00  0.00    -0.649 C  
HETATM    3  C   UNL     2     -11.838  13.088  64.683  1.00  0.00    -0.422 C  
ENDROOT
BRANCH   3   4
HETATM    4  C   UNL     2     -11.516  12.271  65.932  1.00  0.00    -0.428 C  
BRANCH   4   5
HETATM    5  C   UNL     2     -10.533  11.136  65.636  1.00  0.00    -0.308 C  
BRANCH   5   6
HETATM    6  C   UNL     2      -9.067  11.575  65.739  1.00  0.00    -0.164 C  
BRANCH   6   7
HETATM    7  C   UNL     2      -8.124  10.388  65.932  1.00  0.00    -0.149 C  
BRANCH   7   8
HETATM    8  C   UNL     2      -6.672  10.809  66.150  1.00  0.00    -0.126 C  
BRANCH   8   9
HETATM    9  C   UNL     2      -6.462  11.449  67.530  1.00  0.00    -0.074 C  
BRANCH   9  10
HETATM   10  C   UNL     2      -6.203  12.962  67.508  1.00  0.00    -0.154 C  
BRANCH  10  11
HETATM   11  C   UNL     2      -7.254  13.756  68.288  1.00  0.00    -0.114 C  
BRANCH  11  12
HETATM   12  C   UNL     2      -7.937  14.849  67.457  1.00  0.00    -0.198 C  
BRANCH  12  13
HETATM   13  C   UNL     2      -6.986  15.949  66.978  1.00  0.00    -0.138 C  
BRANCH  13  14
HETATM   14  O   UNL     2      -7.743  16.966  66.346  1.00  0.00    -0.260 OA 
HETATM   15  S   UNL     2      -7.882  18.400  67.102  1.00  0.00    -0.233 S  
HETATM   16  O   UNL     2      -8.654  19.203  66.148  1.00  0.00    -0.385 OA 
HETATM   17  O   UNL     2      -6.507  18.857  67.263  1.00  0.00    -0.188 OA 
HETATM   18  O   UNL     2      -8.584  18.090  68.335  1.00  0.00    -0.279 OA 
ENDBRANCH  13  14
ENDBRANCH  12  13
ENDBRANCH  11  12
ENDBRANCH  10  11
ENDBRANCH   9  10
ENDBRANCH   8   9
ENDBRANCH   7   8
ENDBRANCH   6   7
ENDBRANCH   5   6
ENDBRANCH   4   5
ENDBRANCH   3   4
TORSDOF 11
ENDMDL
MODEL      373
REMARK 921   NORMALIZED FREE ENERGY PREDICTED BY IDOCK:   -2.58 KCAL/MOL
REMARK 922        TOTAL FREE ENERGY PREDICTED BY IDOCK:   -5.68 KCAL/MOL
REMARK 923 INTER-LIGAND FREE ENERGY PREDICTED BY IDOCK:   -4.45 KCAL/MOL
REMARK 924 INTRA-LIGAND FREE ENERGY PREDICTED BY IDOCK:   -1.23 KCAL/MOL
REMARK 927      BINDING AFFINITY PREDICTED BY RF-SCORE:    0.00 PKD
ROOT
HETATM    1 NA   UNL     1     -12.155   9.957  67.602  1.00  0.00    -0.452 Na 
HETATM    2  C   UNL     2      -6.487  13.665  67.753  1.00  0.00    -0.178 C  
HETATM    3  C   UNL     2      -7.527  12.630  68.151  1.00  0.00    -0.122 C  
ENDROOT
BRANCH   3   4
HETATM    4  C   UNL     2      -7.291  11.316  67.411  1.00  0.00    -0.115 C  
BRANCH   4   5
HETATM    5  C   UNL     2      -8.480  10.362  67.545  1.00  0.00    -0.115 C  
BRANCH   5   6
HETATM    6  C   UNL     2      -8.917   9.761  66.203  1.00  0.00    -0.181 C  
BRANCH   6   7
HETATM    7  C   UNL     2      -9.429  10.827  65.236  1.00  0.00    -0.263 C  
BRANCH   7   8
HETATM    8  C   UNL     2     -10.946  11.000  65.287  1.00  0.00    -0.097 C  
BRANCH   8   9
HETATM    9  C   UNL     2     -11.351  12.475  65.421  1.00  0.00    -0.363 C  
BRANCH   9  10
HETATM   10  C   UNL     2     -10.270  13.482  65.007  1.00  0.00    -0.345 C  
BRANCH  10  11
HETATM   11  C   UNL     2     -10.059  14.587  66.046  1.00  0.00    -0.336 C  
BRANCH  11  12
HETATM   12  C   UNL     2     -10.160  16.002  65.463  1.00  0.00    -0.336 C  
BRANCH  12  13
HETATM   13  C   UNL     2     -10.570  17.066  66.485  1.00  0.00    -0.172 C  
BRANCH  13  14
HETATM   14  O   UNL     2     -11.019  16.420  67.664  1.00  0.00    -0.308 OA 
HETATM   15  S   UNL     2     -10.236  16.734  69.055  1.00  0.00    -0.315 S  
HETATM   16  O   UNL     2     -10.999  15.965  70.044  1.00  0.00    -0.299 OA 
HETATM   17  O   UNL     2     -10.362  18.177  69.221  1.00  0.00    -0.235 OA 
HETATM   18  O   UNL     2      -8.887  16.249  68.826  1.00  0.00    -0.219 OA 
ENDBRANCH  13  14
ENDBRANCH  12  13
ENDBRANCH  11  12
ENDBRANCH  10  11
ENDBRANCH   9  10
ENDBRANCH   8   9
ENDBRANCH   7   8
ENDBRANCH   6   7
ENDBRANCH   5   6
ENDBRANCH   4   5
ENDBRANCH   3   4
TORSDOF 11
ENDMDL
MODEL      374
REMARK 921   NORMALIZED FREE ENERGY PREDICTED BY IDOCK:   -2.58 KCAL/MOL
REMARK 922        TOTAL FREE ENERGY PREDICTED BY IDOCK:   -5.67 KCAL/MOL
REMARK 923 INTER-LIGAND FREE ENERGY PREDICTED BY IDOCK:   -4.60 KCAL/MOL
REMARK 924 INTRA-LIGAND FREE ENERGY PREDICTED BY IDOCK:   -1.08 KCAL/MOL
REMARK 927      BINDING AFFINITY PREDICTED BY RF-SCORE:    0.00 PKD
ROOT
HETATM    1 NA   UNL     1      -7.803   7.974  66.698  1.00  0.00    -0.084 Na 
HETATM    2  C   UNL     2     -12.115  13.185  67.083  1.00  0.00    -0.343 C  
HETATM    3  C   UNL     2     -11.559  11.777  67.232  1.00  0.00    -0.344 C  
ENDROOT
BRANCH   3   4
HETATM    4  C   UNL     2     -10.753  11.649  68.521  1.00  0.00    -0.250 C  
BRANCH   4   5
HETATM    5  C   UNL     2     -11.466  10.777  69.558  1.00  0.00    -0.365 C  
BRANCH   5   6
HETATM    6  C   UNL     2     -12.780  11.395  70.054  1.00  0.00    -0.015 C  
BRANCH   6   7
HETATM    7  C   UNL     2     -12.740  11.707  71.549  1.00  0.00    -0.423 C  
BRANCH   7   8
HETATM    8  C   UNL     2     -13.446  13.014  71.905  1.00  0.00    -0.498 C  
BRANCH   8   9
HETATM    9  C   UNL     2     -12.493  14.019  72.568  1.00  0.00    -0.120 C  
BRANCH   9  10
HETATM   10  C   UNL     2     -11.688  14.888  71.592  1.00  0.00    -0.395 C  
BRANCH  10  11
HETATM   11  C   UNL     2     -12.302  14.931  70.190  1.00  0.00    -0.376 C  
BRANCH  11  12
HETATM   12  C   UNL     2     -11.773  16.082  69.326  1.00  0.00    -0.302 C  
BRANCH  12  13
HETATM   13  C   UNL     2     -10.245  16.156  69.257  1.00  0.00    -0.257 C  
BRANCH  13  14
HETATM   14  O   UNL     2      -9.783  15.204  68.315  1.00  0.00    -0.211 OA 
HETATM   15  S   UNL     2      -8.177  15.068  68.089  1.00  0.00    -0.147 S  
HETATM   16  O   UNL     2      -8.072  13.971  67.122  1.00  0.00    -0.174 OA 
HETATM   17  O   UNL     2      -7.655  14.730  69.408  1.00  0.00    -0.163 OA 
HETATM   18  O   UNL     2      -7.775  16.365  67.574  1.00  0.00    -0.131 OA 
ENDBRANCH  13  14
ENDBRANCH  12  13
ENDBRANCH  11  12
ENDBRANCH  10  11
ENDBRANCH   9  10
ENDBRANCH   8   9
ENDBRANCH   7   8
ENDBRANCH   6   7
ENDBRANCH   5   6
ENDBRANCH   4   5
ENDBRANCH   3   4
TORSDOF 11
ENDMDL
MODEL      375
REMARK 921   NORMALIZED FREE ENERGY PREDICTED BY IDOCK:   -2.58 KCAL/MOL
REMARK 922        TOTAL FREE ENERGY PREDICTED BY IDOCK:   -5.67 KCAL/MOL
REMARK 923 INTER-LIGAND FREE ENERGY PREDICTED BY IDOCK:   -4.83 KCAL/MOL
REMARK 924 INTRA-LIGAND FREE ENERGY PREDICTED BY IDOCK:   -0.84 KCAL/MOL
REMARK 927      BINDING AFFINITY PREDICTED BY RF-SCORE:    0.00 PKD
ROOT
HETATM    1 NA   UNL     1     -13.731  10.521  73.007  1.00  0.00    -0.615 Na 
HETATM    2  C   UNL     2      -7.945   7.915  70.635  1.00  0.00    -0.096 C  
HETATM    3  C   UNL     2      -8.975   8.444  71.622  1.00  0.00    -0.261 C  
ENDROOT
BRANCH   3   4
HETATM    4  C   UNL     2      -9.928   7.334  72.054  1.00  0.00    -0.184 C  
BRANCH   4   5
HETATM    5  C   UNL     2     -10.122   6.286  70.956  1.00  0.00    -0.221 C  
BRANCH   5   6
HETATM    6  C   UNL     2     -11.313   6.596  70.040  1.00  0.00    -0.440 C  
BRANCH   6   7
HETATM    7  C   UNL     2     -10.995   6.320  68.571  1.00  0.00    -0.421 C  
BRANCH   7   8
HETATM    8  C   UNL     2     -10.597   7.577  67.801  1.00  0.00    -0.274 C  
BRANCH   8   9
HETATM    9  C   UNL     2     -10.728   8.843  68.661  1.00  0.00    -0.118 C  
BRANCH   9  10
HETATM   10  C   UNL     2     -10.781  10.158  67.873  1.00  0.00    -0.317 C  
BRANCH  10  11
HETATM   11  C   UNL     2      -9.661  11.128  68.257  1.00  0.00    -0.190 C  
BRANCH  11  12
HETATM   12  C   UNL     2     -10.155  12.552  68.540  1.00  0.00    -0.186 C  
BRANCH  12  13
HETATM   13  C   UNL     2      -9.878  13.541  67.404  1.00  0.00    -0.227 C  
BRANCH  13  14
HETATM   14  O   UNL     2      -9.233  14.684  67.939  1.00  0.00    -0.189 OA 
HETATM   15  S   UNL     2      -9.910  16.140  67.673  1.00  0.00    -0.239 S  
HETATM   16  O   UNL     2      -9.030  17.051  68.411  1.00  0.00    -0.231 OA 
HETATM   17  O   UNL     2     -11.243  16.027  68.252  1.00  0.00    -0.343 OA 
HETATM   18  O   UNL     2      -9.868  16.298  66.231  1.00  0.00    -0.273 OA 
ENDBRANCH  13  14
ENDBRANCH  12  13
ENDBRANCH  11  12
ENDBRANCH  10  11
ENDBRANCH   9  10
ENDBRANCH   8   9
ENDBRANCH   7   8
ENDBRANCH   6   7
ENDBRANCH   5   6
ENDBRANCH   4   5
ENDBRANCH   3   4
TORSDOF 11
ENDMDL
MODEL      376
REMARK 921   NORMALIZED FREE ENERGY PREDICTED BY IDOCK:   -2.58 KCAL/MOL
REMARK 922        TOTAL FREE ENERGY PREDICTED BY IDOCK:   -5.67 KCAL/MOL
REMARK 923 INTER-LIGAND FREE ENERGY PREDICTED BY IDOCK:   -5.06 KCAL/MOL
REMARK 924 INTRA-LIGAND FREE ENERGY PREDICTED BY IDOCK:   -0.61 KCAL/MOL
REMARK 927      BINDING AFFINITY PREDICTED BY RF-SCORE:    0.00 PKD
ROOT
HETATM    1 NA   UNL     1     -11.325  14.024  63.542  1.00  0.00    -0.564 Na 
HETATM    2  C   UNL     2     -11.097  15.394  70.173  1.00  0.00    -0.324 C  
HETATM    3  C   UNL     2     -11.663  15.172  68.779  1.00  0.00    -0.366 C  
ENDROOT
BRANCH   3   4
HETATM    4  C   UNL     2     -11.954  13.692  68.545  1.00  0.00    -0.396 C  
BRANCH   4   5
HETATM    5  C   UNL     2     -12.281  12.959  69.848  1.00  0.00    -0.258 C  
BRANCH   5   6
HETATM    6  C   UNL     2     -11.878  11.479  69.817  1.00  0.00    -0.429 C  
BRANCH   6   7
HETATM    7  C   UNL     2     -11.844  10.864  71.216  1.00  0.00    -0.079 C  
BRANCH   7   8
HETATM    8  C   UNL     2     -12.640   9.565  71.316  1.00  0.00    -0.425 C  
BRANCH   8   9
HETATM    9  C   UNL     2     -11.763   8.387  71.766  1.00  0.00    -0.371 C  
BRANCH   9  10
HETATM   10  C   UNL     2     -10.934   7.736  70.651  1.00  0.00    -0.255 C  
BRANCH  10  11
HETATM   11  C   UNL     2     -11.661   6.572  69.972  1.00  0.00    -0.455 C  
BRANCH  11  12
HETATM   12  C   UNL     2     -11.256   6.369  68.507  1.00  0.00    -0.321 C  
BRANCH  12  13
HETATM   13  C   UNL     2      -9.797   6.726  68.211  1.00  0.00    -0.142 C  
BRANCH  13  14
HETATM   14  O   UNL     2      -9.765   7.878  67.386  1.00  0.00    -0.144 OA 
HETATM   15  S   UNL     2      -8.461   8.106  66.440  1.00  0.00    -0.137 S  
HETATM   16  O   UNL     2      -8.801   9.325  65.699  1.00  0.00    -0.156 OA 
HETATM   17  O   UNL     2      -8.412   6.915  65.602  1.00  0.00    -0.143 OA 
HETATM   18  O   UNL     2      -7.360   8.256  67.375  1.00  0.00    -0.089 OA 
ENDBRANCH  13  14
ENDBRANCH  12  13
ENDBRANCH  11  12
ENDBRANCH  10  11
ENDBRANCH   9  10
ENDBRANCH   8   9
ENDBRANCH   7   8
ENDBRANCH   6   7
ENDBRANCH   5   6
ENDBRANCH   4   5
ENDBRANCH   3   4
TORSDOF 11
ENDMDL
MODEL      377
REMARK 921   NORMALIZED FREE ENERGY PREDICTED BY IDOCK:   -2.57 KCAL/MOL
REMARK 922        TOTAL FREE ENERGY PREDICTED BY IDOCK:   -5.66 KCAL/MOL
REMARK 923 INTER-LIGAND FREE ENERGY PREDICTED BY IDOCK:   -4.94 KCAL/MOL
REMARK 924 INTRA-LIGAND FREE ENERGY PREDICTED BY IDOCK:   -0.72 KCAL/MOL
REMARK 927      BINDING AFFINITY PREDICTED BY RF-SCORE:    0.00 PKD
ROOT
HETATM    1 NA   UNL     1     -14.044   7.919  71.790  1.00  0.00    -0.313 Na 
HETATM    2  C   UNL     2      -9.045   3.422  70.962  1.00  0.00    -0.182 C  
HETATM    3  C   UNL     2     -10.177   4.378  70.620  1.00  0.00    -0.097 C  
ENDROOT
BRANCH   3   4
HETATM    4  C   UNL     2      -9.651   5.802  70.464  1.00  0.00    -0.214 C  
BRANCH   4   5
HETATM    5  C   UNL     2     -10.548   6.648  69.557  1.00  0.00    -0.281 C  
BRANCH   5   6
HETATM    6  C   UNL     2     -10.484   8.146  69.883  1.00  0.00    -0.226 C  
BRANCH   6   7
HETATM    7  C   UNL     2     -10.139   8.987  68.655  1.00  0.00    -0.207 C  
BRANCH   7   8
HETATM    8  C   UNL     2      -9.093  10.062  68.942  1.00  0.00    -0.159 C  
BRANCH   8   9
HETATM    9  C   UNL     2      -8.828  10.947  67.715  1.00  0.00    -0.135 C  
BRANCH   9  10
HETATM   10  C   UNL     2      -7.877  10.340  66.674  1.00  0.00    -0.116 C  
BRANCH  10  11
HETATM   11  C   UNL     2      -8.220  10.757  65.241  1.00  0.00    -0.052 C  
BRANCH  11  12
HETATM   12  C   UNL     2      -9.466  10.060  64.683  1.00  0.00    -0.367 C  
BRANCH  12  13
HETATM   13  C   UNL     2     -10.501  11.020  64.089  1.00  0.00    -0.366 C  
BRANCH  13  14
HETATM   14  O   UNL     2     -10.408  12.265  64.760  1.00  0.00    -0.275 OA 
HETATM   15  S   UNL     2     -11.700  12.778  65.604  1.00  0.00    -0.421 S  
HETATM   16  O   UNL     2     -11.228  14.031  66.201  1.00  0.00    -0.309 OA 
HETATM   17  O   UNL     2     -11.933  11.723  66.583  1.00  0.00    -0.561 OA 
HETATM   18  O   UNL     2     -12.741  12.942  64.605  1.00  0.00    -0.654 OA 
ENDBRANCH  13  14
ENDBRANCH  12  13
ENDBRANCH  11  12
ENDBRANCH  10  11
ENDBRANCH   9  10
ENDBRANCH   8   9
ENDBRANCH   7   8
ENDBRANCH   6   7
ENDBRANCH   5   6
ENDBRANCH   4   5
ENDBRANCH   3   4
TORSDOF 11
ENDMDL
MODEL      378
REMARK 921   NORMALIZED FREE ENERGY PREDICTED BY IDOCK:   -2.57 KCAL/MOL
REMARK 922        TOTAL FREE ENERGY PREDICTED BY IDOCK:   -5.65 KCAL/MOL
REMARK 923 INTER-LIGAND FREE ENERGY PREDICTED BY IDOCK:   -4.35 KCAL/MOL
REMARK 924 INTRA-LIGAND FREE ENERGY PREDICTED BY IDOCK:   -1.30 KCAL/MOL
REMARK 927      BINDING AFFINITY PREDICTED BY RF-SCORE:    0.00 PKD
ROOT
HETATM    1 NA   UNL     1      -8.742   8.400  65.589  1.00  0.00    -0.117 Na 
HETATM    2  C   UNL     2     -10.438  14.958  65.629  1.00  0.00    -0.366 C  
HETATM    3  C   UNL     2     -10.571  13.448  65.746  1.00  0.00    -0.286 C  
ENDROOT
BRANCH   3   4
HETATM    4  C   UNL     2     -10.197  12.980  67.149  1.00  0.00    -0.243 C  
BRANCH   4   5
HETATM    5  C   UNL     2     -11.425  12.549  67.955  1.00  0.00    -0.368 C  
BRANCH   5   6
HETATM    6  C   UNL     2     -12.245  13.737  68.474  1.00  0.00    -0.194 C  
BRANCH   6   7
HETATM    7  C   UNL     2     -11.841  14.138  69.893  1.00  0.00    -0.387 C  
BRANCH   7   8
HETATM    8  C   UNL     2     -11.043  15.439  69.941  1.00  0.00    -0.304 C  
BRANCH   8   9
HETATM    9  C   UNL     2      -9.576  15.198  70.323  1.00  0.00     0.406 C  
BRANCH   9  10
HETATM   10  C   UNL     2      -8.567  15.423  69.189  1.00  0.00    -0.242 C  
BRANCH  10  11
HETATM   11  C   UNL     2      -8.647  16.831  68.593  1.00  0.00    -0.263 C  
BRANCH  11  12
HETATM   12  C   UNL     2      -7.665  17.063  67.438  1.00  0.00    -0.192 C  
BRANCH  12  13
HETATM   13  C   UNL     2      -8.213  17.966  66.330  1.00  0.00    -0.255 C  
BRANCH  13  14
HETATM   14  O   UNL     2      -8.507  19.239  66.879  1.00  0.00    -0.271 OA 
HETATM   15  S   UNL     2      -9.990  19.859  66.625  1.00  0.00    -0.491 S  
HETATM   16  O   UNL     2      -9.954  21.117  67.377  1.00  0.00    -0.235 OA 
HETATM   17  O   UNL     2     -10.895  18.869  67.197  1.00  0.00    -0.444 OA 
HETATM   18  O   UNL     2     -10.071  20.019  65.185  1.00  0.00    -0.098 OA 
ENDBRANCH  13  14
ENDBRANCH  12  13
ENDBRANCH  11  12
ENDBRANCH  10  11
ENDBRANCH   9  10
ENDBRANCH   8   9
ENDBRANCH   7   8
ENDBRANCH   6   7
ENDBRANCH   5   6
ENDBRANCH   4   5
ENDBRANCH   3   4
TORSDOF 11
ENDMDL
MODEL      379
REMARK 921   NORMALIZED FREE ENERGY PREDICTED BY IDOCK:   -2.54 KCAL/MOL
REMARK 922        TOTAL FREE ENERGY PREDICTED BY IDOCK:   -5.61 KCAL/MOL
REMARK 923 INTER-LIGAND FREE ENERGY PREDICTED BY IDOCK:   -4.91 KCAL/MOL
REMARK 924 INTRA-LIGAND FREE ENERGY PREDICTED BY IDOCK:   -0.71 KCAL/MOL
REMARK 927      BINDING AFFINITY PREDICTED BY RF-SCORE:    0.00 PKD
ROOT
HETATM    1 NA   UNL     1     -10.914  20.467  70.678  1.00  0.00    -0.852 Na 
HETATM    2  C   UNL     2      -9.161  15.978  65.916  1.00  0.00    -0.321 C  
HETATM    3  C   UNL     2      -9.371  16.593  67.291  1.00  0.00    -0.234 C  
ENDROOT
BRANCH   3   4
HETATM    4  C   UNL     2     -10.786  16.320  67.793  1.00  0.00    -0.315 C  
BRANCH   4   5
HETATM    5  C   UNL     2     -10.814  16.025  69.295  1.00  0.00    -0.300 C  
BRANCH   5   6
HETATM    6  C   UNL     2     -11.112  14.553  69.609  1.00  0.00    -0.264 C  
BRANCH   6   7
HETATM    7  C   UNL     2     -11.831  13.855  68.455  1.00  0.00    -0.401 C  
BRANCH   7   8
HETATM    8  C   UNL     2     -11.122  12.584  67.992  1.00  0.00    -0.285 C  
BRANCH   8   9
HETATM    9  C   UNL     2     -10.734  11.681  69.172  1.00  0.00    -0.188 C  
BRANCH   9  10
HETATM   10  C   UNL     2     -11.067  10.195  68.985  1.00  0.00    -0.249 C  
BRANCH  10  11
HETATM   11  C   UNL     2     -11.947   9.636  70.106  1.00  0.00    -0.019 C  
BRANCH  11  12
HETATM   12  C   UNL     2     -11.266   9.644  71.480  1.00  0.00    -0.377 C  
BRANCH  12  13
HETATM   13  C   UNL     2     -10.813   8.260  71.955  1.00  0.00    -0.283 C  
BRANCH  13  14
HETATM   14  O   UNL     2      -9.822   7.773  71.067  1.00  0.00    -0.174 OA 
HETATM   15  S   UNL     2      -8.277   7.753  71.579  1.00  0.00    -0.110 S  
HETATM   16  O   UNL     2      -7.565   7.139  70.455  1.00  0.00    -0.086 OA 
HETATM   17  O   UNL     2      -8.305   6.917  72.773  1.00  0.00    -0.109 OA 
HETATM   18  O   UNL     2      -7.955   9.151  71.806  1.00  0.00    -0.340 OA 
ENDBRANCH  13  14
ENDBRANCH  12  13
ENDBRANCH  11  12
ENDBRANCH  10  11
ENDBRANCH   9  10
ENDBRANCH   8   9
ENDBRANCH   7   8
ENDBRANCH   6   7
ENDBRANCH   5   6
ENDBRANCH   4   5
ENDBRANCH   3   4
TORSDOF 11
ENDMDL
MODEL      380
REMARK 921   NORMALIZED FREE ENERGY PREDICTED BY IDOCK:   -2.54 KCAL/MOL
REMARK 922        TOTAL FREE ENERGY PREDICTED BY IDOCK:   -5.60 KCAL/MOL
REMARK 923 INTER-LIGAND FREE ENERGY PREDICTED BY IDOCK:   -4.70 KCAL/MOL
REMARK 924 INTRA-LIGAND FREE ENERGY PREDICTED BY IDOCK:   -0.90 KCAL/MOL
REMARK 927      BINDING AFFINITY PREDICTED BY RF-SCORE:    0.00 PKD
ROOT
HETATM    1 NA   UNL     1      -9.767   8.655  62.502  1.00  0.00    -0.520 Na 
HETATM    2  C   UNL     2     -12.611  14.039  65.472  1.00  0.00    -0.543 C  
HETATM    3  C   UNL     2     -12.076  12.628  65.285  1.00  0.00    -0.519 C  
ENDROOT
BRANCH   3   4
HETATM    4  C   UNL     2     -10.581  12.572  65.588  1.00  0.00    -0.298 C  
BRANCH   4   5
HETATM    5  C   UNL     2     -10.272  11.665  66.781  1.00  0.00    -0.248 C  
BRANCH   5   6
HETATM    6  C   UNL     2      -8.825  11.798  67.272  1.00  0.00    -0.167 C  
BRANCH   6   7
HETATM    7  C   UNL     2      -7.952  10.632  66.808  1.00  0.00    -0.132 C  
BRANCH   7   8
HETATM    8  C   UNL     2      -6.869  10.258  67.817  1.00  0.00    -0.075 C  
BRANCH   8   9
HETATM    9  C   UNL     2      -6.736   8.736  67.978  1.00  0.00    -0.069 C  
BRANCH   9  10
HETATM   10  C   UNL     2      -7.988   8.031  68.515  1.00  0.00    -0.120 C  
BRANCH  10  11
HETATM   11  C   UNL     2      -8.504   8.645  69.820  1.00  0.00    -0.129 C  
BRANCH  11  12
HETATM   12  C   UNL     2      -9.953   9.138  69.733  1.00  0.00    -0.204 C  
BRANCH  12  13
HETATM   13  C   UNL     2     -10.570   9.489  71.090  1.00  0.00    -0.318 C  
BRANCH  13  14
HETATM   14  O   UNL     2     -11.860   8.907  71.170  1.00  0.00    -0.284 OA 
HETATM   15  S   UNL     2     -13.152   9.890  71.052  1.00  0.00    -0.273 S  
HETATM   16  O   UNL     2     -14.282   8.957  71.108  1.00  0.00    -0.238 OA 
HETATM   17  O   UNL     2     -12.996  10.533  69.753  1.00  0.00    -0.106 OA 
HETATM   18  O   UNL     2     -13.040  10.771  72.201  1.00  0.00    -0.460 OA 
ENDBRANCH  13  14
ENDBRANCH  12  13
ENDBRANCH  11  12
ENDBRANCH  10  11
ENDBRANCH   9  10
ENDBRANCH   8   9
ENDBRANCH   7   8
ENDBRANCH   6   7
ENDBRANCH   5   6
ENDBRANCH   4   5
ENDBRANCH   3   4
TORSDOF 11
ENDMDL
MODEL      381
REMARK 921   NORMALIZED FREE ENERGY PREDICTED BY IDOCK:   -2.54 KCAL/MOL
REMARK 922        TOTAL FREE ENERGY PREDICTED BY IDOCK:   -5.60 KCAL/MOL
REMARK 923 INTER-LIGAND FREE ENERGY PREDICTED BY IDOCK:   -4.90 KCAL/MOL
REMARK 924 INTRA-LIGAND FREE ENERGY PREDICTED BY IDOCK:   -0.70 KCAL/MOL
REMARK 927      BINDING AFFINITY PREDICTED BY RF-SCORE:    0.00 PKD
ROOT
HETATM    1 NA   UNL     1     -14.267   7.818  70.356  1.00  0.00    -0.603 Na 
HETATM    2  C   UNL     2     -10.161   4.344  74.475  1.00  0.00    -0.283 C  
HETATM    3  C   UNL     2     -11.093   4.650  73.312  1.00  0.00    -0.403 C  
ENDROOT
BRANCH   3   4
HETATM    4  C   UNL     2     -10.313   5.222  72.132  1.00  0.00    -0.268 C  
BRANCH   4   5
HETATM    5  C   UNL     2     -10.588   6.714  71.933  1.00  0.00    -0.237 C  
BRANCH   5   6
HETATM    6  C   UNL     2      -9.311   7.564  71.956  1.00  0.00    -0.165 C  
BRANCH   6   7
HETATM    7  C   UNL     2      -9.570   9.003  71.512  1.00  0.00    -0.340 C  
BRANCH   7   8
HETATM    8  C   UNL     2      -8.770   9.400  70.274  1.00  0.00    -0.261 C  
BRANCH   8   9
HETATM    9  C   UNL     2      -8.917   8.372  69.142  1.00  0.00    -0.147 C  
BRANCH   9  10
HETATM   10  C   UNL     2      -9.207   8.971  67.760  1.00  0.00    -0.152 C  
BRANCH  10  11
HETATM   11  C   UNL     2     -10.646   9.475  67.620  1.00  0.00    -0.329 C  
BRANCH  11  12
HETATM   12  C   UNL     2     -10.743  10.903  67.070  1.00  0.00    -0.323 C  
BRANCH  12  13
HETATM   13  C   UNL     2     -10.337  11.984  68.075  1.00  0.00    -0.195 C  
BRANCH  13  14
HETATM   14  O   UNL     2     -10.502  13.256  67.472  1.00  0.00    -0.233 OA 
HETATM   15  S   UNL     2     -10.216  14.576  68.379  1.00  0.00    -0.245 S  
HETATM   16  O   UNL     2     -10.415  15.677  67.431  1.00  0.00    -0.277 OA 
HETATM   17  O   UNL     2      -8.831  14.425  68.807  1.00  0.00    -0.183 OA 
HETATM   18  O   UNL     2     -11.207  14.507  69.439  1.00  0.00    -0.261 OA 
ENDBRANCH  13  14
ENDBRANCH  12  13
ENDBRANCH  11  12
ENDBRANCH  10  11
ENDBRANCH   9  10
ENDBRANCH   8   9
ENDBRANCH   7   8
ENDBRANCH   6   7
ENDBRANCH   5   6
ENDBRANCH   4   5
ENDBRANCH   3   4
TORSDOF 11
ENDMDL
MODEL      382
REMARK 921   NORMALIZED FREE ENERGY PREDICTED BY IDOCK:   -2.52 KCAL/MOL
REMARK 922        TOTAL FREE ENERGY PREDICTED BY IDOCK:   -5.58 KCAL/MOL
REMARK 923 INTER-LIGAND FREE ENERGY PREDICTED BY IDOCK:   -5.05 KCAL/MOL
REMARK 924 INTRA-LIGAND FREE ENERGY PREDICTED BY IDOCK:   -0.53 KCAL/MOL
REMARK 927      BINDING AFFINITY PREDICTED BY RF-SCORE:    0.00 PKD
ROOT
HETATM    1 NA   UNL     1     -14.036  13.574  71.454  1.00  0.00    -0.348 Na 
HETATM    2  C   UNL     2     -10.263  15.679  66.236  1.00  0.00    -0.312 C  
HETATM    3  C   UNL     2     -10.740  14.826  67.401  1.00  0.00    -0.281 C  
ENDROOT
BRANCH   3   4
HETATM    4  C   UNL     2     -11.785  13.814  66.937  1.00  0.00    -0.424 C  
BRANCH   4   5
HETATM    5  C   UNL     2     -11.530  12.421  67.517  1.00  0.00    -0.410 C  
BRANCH   5   6
HETATM    6  C   UNL     2     -11.515  12.408  69.051  1.00  0.00    -0.352 C  
BRANCH   6   7
HETATM    7  C   UNL     2     -12.246  11.193  69.622  1.00  0.00    -0.360 C  
BRANCH   7   8
HETATM    8  C   UNL     2     -12.189  11.125  71.146  1.00  0.00    -0.387 C  
BRANCH   8   9
HETATM    9  C   UNL     2     -13.153  10.070  71.709  1.00  0.00    -0.562 C  
BRANCH   9  10
HETATM   10  C   UNL     2     -12.597   8.641  71.748  1.00  0.00    -0.396 C  
BRANCH  10  11
HETATM   11  C   UNL     2     -11.508   8.455  72.808  1.00  0.00    -0.235 C  
BRANCH  11  12
HETATM   12  C   UNL     2     -10.168   7.982  72.231  1.00  0.00    -0.325 C  
BRANCH  12  13
HETATM   13  C   UNL     2      -9.044   7.892  73.268  1.00  0.00    -0.278 C  
BRANCH  13  14
HETATM   14  O   UNL     2      -7.833   7.576  72.604  1.00  0.00    -0.089 OA 
HETATM   15  S   UNL     2      -6.561   7.119  73.509  1.00  0.00    -0.065 S  
HETATM   16  O   UNL     2      -5.535   6.815  72.507  1.00  0.00    -0.036 OA 
HETATM   17  O   UNL     2      -7.035   5.942  74.228  1.00  0.00    -0.080 OA 
HETATM   18  O   UNL     2      -6.271   8.278  74.335  1.00  0.00    -0.108 OA 
ENDBRANCH  13  14
ENDBRANCH  12  13
ENDBRANCH  11  12
ENDBRANCH  10  11
ENDBRANCH   9  10
ENDBRANCH   8   9
ENDBRANCH   7   8
ENDBRANCH   6   7
ENDBRANCH   5   6
ENDBRANCH   4   5
ENDBRANCH   3   4
TORSDOF 11
ENDMDL
MODEL      383
REMARK 921   NORMALIZED FREE ENERGY PREDICTED BY IDOCK:   -2.52 KCAL/MOL
REMARK 922        TOTAL FREE ENERGY PREDICTED BY IDOCK:   -5.57 KCAL/MOL
REMARK 923 INTER-LIGAND FREE ENERGY PREDICTED BY IDOCK:   -4.16 KCAL/MOL
REMARK 924 INTRA-LIGAND FREE ENERGY PREDICTED BY IDOCK:   -1.41 KCAL/MOL
REMARK 927      BINDING AFFINITY PREDICTED BY RF-SCORE:    0.00 PKD
ROOT
HETATM    1 NA   UNL     1     -10.286   4.454  68.611  1.00  0.00    -0.165 Na 
HETATM    2  C   UNL     2      -9.742  10.492  65.589  1.00  0.00    -0.289 C  
HETATM    3  C   UNL     2     -10.120   9.440  66.619  1.00  0.00    -0.332 C  
ENDROOT
BRANCH   3   4
HETATM    4  C   UNL     2      -8.990   9.237  67.624  1.00  0.00    -0.126 C  
BRANCH   4   5
HETATM    5  C   UNL     2      -9.460   8.487  68.872  1.00  0.00    -0.147 C  
BRANCH   5   6
HETATM    6  C   UNL     2      -9.300   9.310  70.157  1.00  0.00    -0.258 C  
BRANCH   6   7
HETATM    7  C   UNL     2     -10.641   9.574  70.842  1.00  0.00    -0.395 C  
BRANCH   7   8
HETATM    8  C   UNL     2     -11.760   9.900  69.855  1.00  0.00    -0.131 C  
BRANCH   8   9
HETATM    9  C   UNL     2     -12.086  11.400  69.834  1.00  0.00    -0.404 C  
BRANCH   9  10
HETATM   10  C   UNL     2     -11.038  12.280  69.139  1.00  0.00    -0.261 C  
BRANCH  10  11
HETATM   11  C   UNL     2     -11.532  12.855  67.809  1.00  0.00    -0.369 C  
BRANCH  11  12
HETATM   12  C   UNL     2     -10.823  14.153  67.403  1.00  0.00    -0.291 C  
BRANCH  12  13
HETATM   13  C   UNL     2      -9.350  13.965  67.032  1.00  0.00    -0.251 C  
BRANCH  13  14
HETATM   14  O   UNL     2      -8.544  14.471  68.082  1.00  0.00    -0.155 OA 
HETATM   15  S   UNL     2      -7.185  13.661  68.463  1.00  0.00    -0.115 S  
HETATM   16  O   UNL     2      -6.591  14.491  69.516  1.00  0.00    -0.124 OA 
HETATM   17  O   UNL     2      -6.412  13.655  67.227  1.00  0.00    -0.279 OA 
HETATM   18  O   UNL     2      -7.653  12.362  68.911  1.00  0.00    -0.073 OA 
ENDBRANCH  13  14
ENDBRANCH  12  13
ENDBRANCH  11  12
ENDBRANCH  10  11
ENDBRANCH   9  10
ENDBRANCH   8   9
ENDBRANCH   7   8
ENDBRANCH   6   7
ENDBRANCH   5   6
ENDBRANCH   4   5
ENDBRANCH   3   4
TORSDOF 11
ENDMDL
MODEL      384
REMARK 921   NORMALIZED FREE ENERGY PREDICTED BY IDOCK:   -2.51 KCAL/MOL
REMARK 922        TOTAL FREE ENERGY PREDICTED BY IDOCK:   -5.57 KCAL/MOL
REMARK 923 INTER-LIGAND FREE ENERGY PREDICTED BY IDOCK:   -4.93 KCAL/MOL
REMARK 924 INTRA-LIGAND FREE ENERGY PREDICTED BY IDOCK:   -0.64 KCAL/MOL
REMARK 927      BINDING AFFINITY PREDICTED BY RF-SCORE:    0.00 PKD
ROOT
HETATM    1 NA   UNL     1     -13.454  10.771  69.889  1.00  0.00    -0.250 Na 
HETATM    2  C   UNL     2     -12.403  12.765  63.500  1.00  0.00    -0.559 C  
HETATM    3  C   UNL     2     -12.348  12.752  65.020  1.00  0.00    -0.559 C  
ENDROOT
BRANCH   3   4
HETATM    4  C   UNL     2     -11.191  11.888  65.511  1.00  0.00    -0.353 C  
BRANCH   4   5
HETATM    5  C   UNL     2     -10.933  12.072  67.009  1.00  0.00    -0.323 C  
BRANCH   5   6
HETATM    6  C   UNL     2     -10.935  10.747  67.782  1.00  0.00    -0.354 C  
BRANCH   6   7
HETATM    7  C   UNL     2     -10.433  10.917  69.215  1.00  0.00    -0.230 C  
BRANCH   7   8
HETATM    8  C   UNL     2      -9.993   9.602  69.854  1.00  0.00    -0.273 C  
BRANCH   8   9
HETATM    9  C   UNL     2     -10.696   9.352  71.196  1.00  0.00    -0.417 C  
BRANCH   9  10
HETATM   10  C   UNL     2     -12.025   8.592  71.097  1.00  0.00    -0.306 C  
BRANCH  10  11
HETATM   11  C   UNL     2     -12.041   7.311  71.936  1.00  0.00    -0.349 C  
BRANCH  11  12
HETATM   12  C   UNL     2     -11.362   6.121  71.249  1.00  0.00    -0.335 C  
BRANCH  12  13
HETATM   13  C   UNL     2     -10.075   5.659  71.939  1.00  0.00    -0.189 C  
BRANCH  13  14
HETATM   14  O   UNL     2      -8.967   6.257  71.289  1.00  0.00    -0.139 OA 
HETATM   15  S   UNL     2      -7.479   5.707  71.650  1.00  0.00    -0.095 S  
HETATM   16  O   UNL     2      -6.614   6.490  70.763  1.00  0.00    -0.050 OA 
HETATM   17  O   UNL     2      -7.527   4.290  71.309  1.00  0.00    -0.056 OA 
HETATM   18  O   UNL     2      -7.319   6.002  73.063  1.00  0.00    -0.091 OA 
ENDBRANCH  13  14
ENDBRANCH  12  13
ENDBRANCH  11  12
ENDBRANCH  10  11
ENDBRANCH   9  10
ENDBRANCH   8   9
ENDBRANCH   7   8
ENDBRANCH   6   7
ENDBRANCH   5   6
ENDBRANCH   4   5
ENDBRANCH   3   4
TORSDOF 11
ENDMDL
MODEL      385
REMARK 921   NORMALIZED FREE ENERGY PREDICTED BY IDOCK:   -2.51 KCAL/MOL
REMARK 922        TOTAL FREE ENERGY PREDICTED BY IDOCK:   -5.56 KCAL/MOL
REMARK 923 INTER-LIGAND FREE ENERGY PREDICTED BY IDOCK:   -5.03 KCAL/MOL
REMARK 924 INTRA-LIGAND FREE ENERGY PREDICTED BY IDOCK:   -0.53 KCAL/MOL
REMARK 927      BINDING AFFINITY PREDICTED BY RF-SCORE:    0.00 PKD
ROOT
HETATM    1 NA   UNL     1      -8.971  12.133  63.339  1.00  0.00    -0.462 Na 
HETATM    2  C   UNL     2      -8.708  18.053  66.622  1.00  0.00    -0.276 C  
HETATM    3  C   UNL     2      -9.130  16.637  66.262  1.00  0.00    -0.333 C  
ENDROOT
BRANCH   3   4
HETATM    4  C   UNL     2      -8.207  15.615  66.920  1.00  0.00    -0.288 C  
BRANCH   4   5
HETATM    5  C   UNL     2      -8.913  14.838  68.033  1.00  0.00    -0.174 C  
BRANCH   5   6
HETATM    6  C   UNL     2     -10.422  15.109  68.084  1.00  0.00    -0.245 C  
BRANCH   6   7
HETATM    7  C   UNL     2     -11.061  14.561  69.360  1.00  0.00    -0.297 C  
BRANCH   7   8
HETATM    8  C   UNL     2     -11.992  13.379  69.101  1.00  0.00    -0.363 C  
BRANCH   8   9
HETATM    9  C   UNL     2     -11.456  12.080  69.721  1.00  0.00    -0.284 C  
BRANCH   9  10
HETATM   10  C   UNL     2     -12.515  11.203  70.402  1.00  0.00    -0.382 C  
BRANCH  10  11
HETATM   11  C   UNL     2     -11.912  10.204  71.393  1.00  0.00    -0.447 C  
BRANCH  11  12
HETATM   12  C   UNL     2     -11.247   8.998  70.718  1.00  0.00    -0.329 C  
BRANCH  12  13
HETATM   13  C   UNL     2      -9.753   8.862  71.025  1.00  0.00    -0.252 C  
BRANCH  13  14
HETATM   14  O   UNL     2      -9.583   8.740  72.426  1.00  0.00    -0.279 OA 
HETATM   15  S   UNL     2      -8.383   7.786  72.971  1.00  0.00    -0.166 S  
HETATM   16  O   UNL     2      -8.463   7.953  74.426  1.00  0.00    -0.233 OA 
HETATM   17  O   UNL     2      -7.175   8.358  72.389  1.00  0.00    -0.100 OA 
HETATM   18  O   UNL     2      -8.735   6.459  72.497  1.00  0.00    -0.124 OA 
ENDBRANCH  13  14
ENDBRANCH  12  13
ENDBRANCH  11  12
ENDBRANCH  10  11
ENDBRANCH   9  10
ENDBRANCH   8   9
ENDBRANCH   7   8
ENDBRANCH   6   7
ENDBRANCH   5   6
ENDBRANCH   4   5
ENDBRANCH   3   4
TORSDOF 11
ENDMDL
MODEL      386
REMARK 921   NORMALIZED FREE ENERGY PREDICTED BY IDOCK:   -2.50 KCAL/MOL
REMARK 922        TOTAL FREE ENERGY PREDICTED BY IDOCK:   -5.55 KCAL/MOL
REMARK 923 INTER-LIGAND FREE ENERGY PREDICTED BY IDOCK:   -4.81 KCAL/MOL
REMARK 924 INTRA-LIGAND FREE ENERGY PREDICTED BY IDOCK:   -0.74 KCAL/MOL
REMARK 927      BINDING AFFINITY PREDICTED BY RF-SCORE:    0.00 PKD
ROOT
HETATM    1 NA   UNL     1      -9.840   8.752  62.508  1.00  0.00    -0.529 Na 
HETATM    2  C   UNL     2     -12.081  13.746  66.501  1.00  0.00    -0.483 C  
HETATM    3  C   UNL     2     -11.972  12.373  65.856  1.00  0.00    -0.434 C  
ENDROOT
BRANCH   3   4
HETATM    4  C   UNL     2     -10.952  11.510  66.594  1.00  0.00    -0.349 C  
BRANCH   4   5
HETATM    5  C   UNL     2      -9.521  11.794  66.133  1.00  0.00    -0.240 C  
BRANCH   5   6
HETATM    6  C   UNL     2      -8.489  11.630  67.257  1.00  0.00    -0.156 C  
BRANCH   6   7
HETATM    7  C   UNL     2      -8.639  10.294  67.984  1.00  0.00    -0.118 C  
BRANCH   7   8
HETATM    8  C   UNL     2      -8.121  10.335  69.420  1.00  0.00    -0.167 C  
BRANCH   8   9
HETATM    9  C   UNL     2      -9.039   9.567  70.382  1.00  0.00    -0.296 C  
BRANCH   9  10
HETATM   10  C   UNL     2     -10.540   9.814  70.179  1.00  0.00    -0.337 C  
BRANCH  10  11
HETATM   11  C   UNL     2     -11.414   8.767  70.875  1.00  0.00    -0.330 C  
BRANCH  11  12
HETATM   12  C   UNL     2     -10.615   7.603  71.475  1.00  0.00    -0.239 C  
BRANCH  12  13
HETATM   13  C   UNL     2     -11.481   6.424  71.926  1.00  0.00    -0.304 C  
BRANCH  13  14
HETATM   14  O   UNL     2     -10.811   5.216  71.610  1.00  0.00    -0.169 OA 
HETATM   15  S   UNL     2     -10.391   4.231  72.835  1.00  0.00    -0.181 S  
HETATM   16  O   UNL     2      -9.798   3.082  72.145  1.00  0.00    -0.150 OA 
HETATM   17  O   UNL     2     -11.653   3.921  73.496  1.00  0.00    -0.195 OA 
HETATM   18  O   UNL     2      -9.453   5.013  73.621  1.00  0.00    -0.128 OA 
ENDBRANCH  13  14
ENDBRANCH  12  13
ENDBRANCH  11  12
ENDBRANCH  10  11
ENDBRANCH   9  10
ENDBRANCH   8   9
ENDBRANCH   7   8
ENDBRANCH   6   7
ENDBRANCH   5   6
ENDBRANCH   4   5
ENDBRANCH   3   4
TORSDOF 11
ENDMDL
MODEL      387
REMARK 921   NORMALIZED FREE ENERGY PREDICTED BY IDOCK:   -2.49 KCAL/MOL
REMARK 922        TOTAL FREE ENERGY PREDICTED BY IDOCK:   -5.53 KCAL/MOL
REMARK 923 INTER-LIGAND FREE ENERGY PREDICTED BY IDOCK:   -4.55 KCAL/MOL
REMARK 924 INTRA-LIGAND FREE ENERGY PREDICTED BY IDOCK:   -0.98 KCAL/MOL
REMARK 927      BINDING AFFINITY PREDICTED BY RF-SCORE:    0.00 PKD
ROOT
HETATM    1 NA   UNL     1     -14.159   7.057  70.755  1.00  0.00    -0.434 Na 
HETATM    2  C   UNL     2     -12.287  13.563  70.504  1.00  0.00    -0.412 C  
HETATM    3  C   UNL     2     -12.182  12.049  70.611  1.00  0.00    -0.409 C  
ENDROOT
BRANCH   3   4
HETATM    4  C   UNL     2     -12.109  11.415  69.225  1.00  0.00    -0.356 C  
BRANCH   4   5
HETATM    5  C   UNL     2     -11.380  12.311  68.222  1.00  0.00    -0.339 C  
BRANCH   5   6
HETATM    6  C   UNL     2     -10.541  11.517  67.212  1.00  0.00    -0.266 C  
BRANCH   6   7
HETATM    7  C   UNL     2     -11.135  10.137  66.932  1.00  0.00     0.004 C  
BRANCH   7   8
HETATM    8  C   UNL     2     -10.086   9.111  66.511  1.00  0.00    -0.357 C  
BRANCH   8   9
HETATM    9  C   UNL     2     -10.295   7.757  67.206  1.00  0.00    -0.371 C  
BRANCH   9  10
HETATM   10  C   UNL     2      -9.175   6.734  66.980  1.00  0.00    -0.152 C  
BRANCH  10  11
HETATM   11  C   UNL     2      -8.349   6.468  68.241  1.00  0.00    -0.117 C  
BRANCH  11  12
HETATM   12  C   UNL     2      -8.939   5.374  69.140  1.00  0.00    -0.120 C  
BRANCH  12  13
HETATM   13  C   UNL     2      -9.539   5.902  70.446  1.00  0.00    -0.168 C  
BRANCH  13  14
HETATM   14  O   UNL     2      -9.310   7.298  70.524  1.00  0.00    -0.158 OA 
HETATM   15  S   UNL     2     -10.193   8.160  71.586  1.00  0.00    -0.222 S  
HETATM   16  O   UNL     2      -9.651   9.515  71.441  1.00  0.00    -0.217 OA 
HETATM   17  O   UNL     2      -9.895   7.553  72.877  1.00  0.00    -0.178 OA 
HETATM   18  O   UNL     2     -11.561   8.006  71.125  1.00  0.00    -0.276 OA 
ENDBRANCH  13  14
ENDBRANCH  12  13
ENDBRANCH  11  12
ENDBRANCH  10  11
ENDBRANCH   9  10
ENDBRANCH   8   9
ENDBRANCH   7   8
ENDBRANCH   6   7
ENDBRANCH   5   6
ENDBRANCH   4   5
ENDBRANCH   3   4
TORSDOF 11
ENDMDL
MODEL      388
REMARK 921   NORMALIZED FREE ENERGY PREDICTED BY IDOCK:   -2.49 KCAL/MOL
REMARK 922        TOTAL FREE ENERGY PREDICTED BY IDOCK:   -5.52 KCAL/MOL
REMARK 923 INTER-LIGAND FREE ENERGY PREDICTED BY IDOCK:   -4.94 KCAL/MOL
REMARK 924 INTRA-LIGAND FREE ENERGY PREDICTED BY IDOCK:   -0.58 KCAL/MOL
REMARK 927      BINDING AFFINITY PREDICTED BY RF-SCORE:    0.00 PKD
ROOT
HETATM    1 NA   UNL     1     -11.755   6.303  69.114  1.00  0.00    -0.326 Na 
HETATM    2  C   UNL     2      -6.884   8.271  64.837  1.00  0.00    -0.071 C  
HETATM    3  C   UNL     2      -8.249   7.827  65.341  1.00  0.00    -0.140 C  
ENDROOT
BRANCH   3   4
HETATM    4  C   UNL     2      -9.064   9.027  65.817  1.00  0.00    -0.272 C  
BRANCH   4   5
HETATM    5  C   UNL     2      -9.157  10.116  64.746  1.00  0.00    -0.262 C  
BRANCH   5   6
HETATM    6  C   UNL     2     -10.503  10.853  64.761  1.00  0.00    -0.373 C  
BRANCH   6   7
HETATM    7  C   UNL     2     -10.448  12.134  65.593  1.00  0.00    -0.290 C  
BRANCH   7   8
HETATM    8  C   UNL     2     -11.831  12.686  65.932  1.00  0.00    -0.499 C  
BRANCH   8   9
HETATM    9  C   UNL     2     -11.967  14.167  65.549  1.00  0.00    -0.394 C  
BRANCH   9  10
HETATM   10  C   UNL     2     -10.638  14.913  65.372  1.00  0.00    -0.391 C  
BRANCH  10  11
HETATM   11  C   UNL     2     -10.827  16.382  64.984  1.00  0.00    -0.289 C  
BRANCH  11  12
HETATM   12  C   UNL     2     -10.149  17.363  65.949  1.00  0.00    -0.219 C  
BRANCH  12  13
HETATM   13  C   UNL     2     -10.170  16.909  67.411  1.00  0.00    -0.298 C  
BRANCH  13  14
HETATM   14  O   UNL     2      -9.050  17.463  68.079  1.00  0.00    -0.247 OA 
HETATM   15  S   UNL     2      -7.890  16.447  68.599  1.00  0.00    -0.223 S  
HETATM   16  O   UNL     2      -6.887  17.355  69.164  1.00  0.00    -0.234 OA 
HETATM   17  O   UNL     2      -7.440  15.766  67.391  1.00  0.00    -0.156 OA 
HETATM   18  O   UNL     2      -8.559  15.606  69.576  1.00  0.00    -0.258 OA 
ENDBRANCH  13  14
ENDBRANCH  12  13
ENDBRANCH  11  12
ENDBRANCH  10  11
ENDBRANCH   9  10
ENDBRANCH   8   9
ENDBRANCH   7   8
ENDBRANCH   6   7
ENDBRANCH   5   6
ENDBRANCH   4   5
ENDBRANCH   3   4
TORSDOF 11
ENDMDL
MODEL      389
REMARK 921   NORMALIZED FREE ENERGY PREDICTED BY IDOCK:   -2.49 KCAL/MOL
REMARK 922        TOTAL FREE ENERGY PREDICTED BY IDOCK:   -5.52 KCAL/MOL
REMARK 923 INTER-LIGAND FREE ENERGY PREDICTED BY IDOCK:   -4.08 KCAL/MOL
REMARK 924 INTRA-LIGAND FREE ENERGY PREDICTED BY IDOCK:   -1.44 KCAL/MOL
REMARK 927      BINDING AFFINITY PREDICTED BY RF-SCORE:    0.00 PKD
ROOT
HETATM    1 NA   UNL     1     -12.765   9.702  72.683  1.00  0.00    -0.345 Na 
HETATM    2  C   UNL     2      -7.503   7.255  69.187  1.00  0.00    -0.093 C  
HETATM    3  C   UNL     2      -8.329   7.754  70.362  1.00  0.00    -0.123 C  
ENDROOT
BRANCH   3   4
HETATM    4  C   UNL     2      -9.150   6.617  70.965  1.00  0.00    -0.156 C  
BRANCH   4   5
HETATM    5  C   UNL     2      -8.634   5.244  70.529  1.00  0.00    -0.125 C  
BRANCH   5   6
HETATM    6  C   UNL     2      -9.752   4.315  70.037  1.00  0.00    -0.287 C  
BRANCH   6   7
HETATM    7  C   UNL     2      -9.407   3.658  68.702  1.00  0.00    -0.228 C  
BRANCH   7   8
HETATM    8  C   UNL     2      -9.343   4.654  67.546  1.00  0.00    -0.166 C  
BRANCH   8   9
HETATM    9  C   UNL     2     -10.531   5.626  67.559  1.00  0.00    -0.294 C  
BRANCH   9  10
HETATM   10  C   UNL     2     -10.326   6.909  66.742  1.00  0.00    -0.287 C  
BRANCH  10  11
HETATM   11  C   UNL     2     -10.748   8.170  67.499  1.00  0.00    -0.227 C  
BRANCH  11  12
HETATM   12  C   UNL     2     -10.326   9.471  66.806  1.00  0.00    -0.298 C  
BRANCH  12  13
HETATM   13  C   UNL     2      -9.850  10.561  67.769  1.00  0.00    -0.165 C  
BRANCH  13  14
HETATM   14  O   UNL     2     -10.930  11.438  68.040  1.00  0.00    -0.206 OA 
HETATM   15  S   UNL     2     -10.805  12.982  67.544  1.00  0.00    -0.252 S  
HETATM   16  O   UNL     2     -12.099  13.556  67.925  1.00  0.00    -0.346 OA 
HETATM   17  O   UNL     2     -10.618  12.883  66.102  1.00  0.00    -0.266 OA 
HETATM   18  O   UNL     2      -9.672  13.508  68.285  1.00  0.00    -0.218 OA 
ENDBRANCH  13  14
ENDBRANCH  12  13
ENDBRANCH  11  12
ENDBRANCH  10  11
ENDBRANCH   9  10
ENDBRANCH   8   9
ENDBRANCH   7   8
ENDBRANCH   6   7
ENDBRANCH   5   6
ENDBRANCH   4   5
ENDBRANCH   3   4
TORSDOF 11
ENDMDL
MODEL      390
REMARK 921   NORMALIZED FREE ENERGY PREDICTED BY IDOCK:   -2.49 KCAL/MOL
REMARK 922        TOTAL FREE ENERGY PREDICTED BY IDOCK:   -5.52 KCAL/MOL
REMARK 923 INTER-LIGAND FREE ENERGY PREDICTED BY IDOCK:   -4.81 KCAL/MOL
REMARK 924 INTRA-LIGAND FREE ENERGY PREDICTED BY IDOCK:   -0.71 KCAL/MOL
REMARK 927      BINDING AFFINITY PREDICTED BY RF-SCORE:    0.00 PKD
ROOT
HETATM    1 NA   UNL     1     -12.248   6.079  69.753  1.00  0.00    -0.363 Na 
HETATM    2  C   UNL     2      -7.672   9.186  65.841  1.00  0.00    -0.095 C  
HETATM    3  C   UNL     2      -9.018   8.690  66.346  1.00  0.00    -0.197 C  
ENDROOT
BRANCH   3   4
HETATM    4  C   UNL     2      -9.604   9.663  67.366  1.00  0.00    -0.183 C  
BRANCH   4   5
HETATM    5  C   UNL     2     -10.009  10.991  66.724  1.00  0.00    -0.240 C  
BRANCH   5   6
HETATM    6  C   UNL     2     -11.397  11.470  67.170  1.00  0.00    -0.354 C  
BRANCH   6   7
HETATM    7  C   UNL     2     -11.324  12.377  68.397  1.00  0.00    -0.330 C  
BRANCH   7   8
HETATM    8  C   UNL     2     -11.586  11.633  69.705  1.00  0.00    -0.389 C  
BRANCH   8   9
HETATM    9  C   UNL     2     -12.383  12.488  70.702  1.00  0.00    -0.369 C  
BRANCH   9  10
HETATM   10  C   UNL     2     -12.675  13.921  70.236  1.00  0.00    -0.244 C  
BRANCH  10  11
HETATM   11  C   UNL     2     -12.531  14.952  71.358  1.00  0.00    -0.403 C  
BRANCH  11  12
HETATM   12  C   UNL     2     -11.448  16.004  71.088  1.00  0.00    -0.470 C  
BRANCH  12  13
HETATM   13  C   UNL     2     -10.306  15.504  70.200  1.00  0.00    -0.262 C  
BRANCH  13  14
HETATM   14  O   UNL     2      -9.982  16.513  69.258  1.00  0.00    -0.263 OA 
HETATM   15  S   UNL     2     -10.532  16.345  67.736  1.00  0.00    -0.306 S  
HETATM   16  O   UNL     2     -10.073  17.574  67.083  1.00  0.00    -0.299 OA 
HETATM   17  O   UNL     2     -11.981  16.273  67.883  1.00  0.00     0.179 OA 
HETATM   18  O   UNL     2      -9.894  15.132  67.255  1.00  0.00    -0.225 OA 
ENDBRANCH  13  14
ENDBRANCH  12  13
ENDBRANCH  11  12
ENDBRANCH  10  11
ENDBRANCH   9  10
ENDBRANCH   8   9
ENDBRANCH   7   8
ENDBRANCH   6   7
ENDBRANCH   5   6
ENDBRANCH   4   5
ENDBRANCH   3   4
TORSDOF 11
ENDMDL
MODEL      391
REMARK 921   NORMALIZED FREE ENERGY PREDICTED BY IDOCK:   -2.48 KCAL/MOL
REMARK 922        TOTAL FREE ENERGY PREDICTED BY IDOCK:   -5.51 KCAL/MOL
REMARK 923 INTER-LIGAND FREE ENERGY PREDICTED BY IDOCK:   -4.35 KCAL/MOL
REMARK 924 INTRA-LIGAND FREE ENERGY PREDICTED BY IDOCK:   -1.15 KCAL/MOL
REMARK 927      BINDING AFFINITY PREDICTED BY RF-SCORE:    0.00 PKD
ROOT
HETATM    1 NA   UNL     1     -13.195  12.918  70.931  1.00  0.00    -0.289 Na 
HETATM    2  C   UNL     2     -11.181  15.535  65.016  1.00  0.00    -0.364 C  
HETATM    3  C   UNL     2     -11.184  14.675  66.270  1.00  0.00    -0.340 C  
ENDROOT
BRANCH   3   4
HETATM    4  C   UNL     2     -11.990  13.399  66.048  1.00  0.00    -0.460 C  
BRANCH   4   5
HETATM    5  C   UNL     2     -11.173  12.143  66.359  1.00  0.00    -0.380 C  
BRANCH   5   6
HETATM    6  C   UNL     2     -10.315  11.681  65.174  1.00  0.00    -0.326 C  
BRANCH   6   7
HETATM    7  C   UNL     2      -9.216  10.710  65.605  1.00  0.00    -0.227 C  
BRANCH   7   8
HETATM    8  C   UNL     2      -9.588   9.247  65.375  1.00  0.00    -0.237 C  
BRANCH   8   9
HETATM    9  C   UNL     2      -8.548   8.290  65.975  1.00  0.00    -0.167 C  
BRANCH   9  10
HETATM   10  C   UNL     2      -8.965   7.630  67.297  1.00  0.00    -0.134 C  
BRANCH  10  11
HETATM   11  C   UNL     2     -10.382   8.012  67.732  1.00  0.00    -0.294 C  
BRANCH  11  12
HETATM   12  C   UNL     2     -10.417   8.985  68.917  1.00  0.00    -0.231 C  
BRANCH  12  13
HETATM   13  C   UNL     2      -9.038   9.294  69.506  1.00  0.00    -0.160 C  
BRANCH  13  14
HETATM   14  O   UNL     2      -8.664  10.608  69.133  1.00  0.00    -0.163 OA 
HETATM   15  S   UNL     2      -7.079  10.974  69.104  1.00  0.00    -0.125 S  
HETATM   16  O   UNL     2      -7.069  12.359  68.621  1.00  0.00    -0.094 OA 
HETATM   17  O   UNL     2      -6.508  10.026  68.155  1.00  0.00    -0.054 OA 
HETATM   18  O   UNL     2      -6.647  10.813  70.481  1.00  0.00    -0.310 OA 
ENDBRANCH  13  14
ENDBRANCH  12  13
ENDBRANCH  11  12
ENDBRANCH  10  11
ENDBRANCH   9  10
ENDBRANCH   8   9
ENDBRANCH   7   8
ENDBRANCH   6   7
ENDBRANCH   5   6
ENDBRANCH   4   5
ENDBRANCH   3   4
TORSDOF 11
ENDMDL
MODEL      392
REMARK 921   NORMALIZED FREE ENERGY PREDICTED BY IDOCK:   -2.48 KCAL/MOL
REMARK 922        TOTAL FREE ENERGY PREDICTED BY IDOCK:   -5.51 KCAL/MOL
REMARK 923 INTER-LIGAND FREE ENERGY PREDICTED BY IDOCK:   -5.06 KCAL/MOL
REMARK 924 INTRA-LIGAND FREE ENERGY PREDICTED BY IDOCK:   -0.44 KCAL/MOL
REMARK 927      BINDING AFFINITY PREDICTED BY RF-SCORE:    0.00 PKD
ROOT
HETATM    1 NA   UNL     1     -11.904   6.147  67.224  1.00  0.00    -0.484 Na 
HETATM    2  C   UNL     2     -11.158   4.074  73.631  1.00  0.00    -0.334 C  
HETATM    3  C   UNL     2     -10.848   4.743  72.301  1.00  0.00    -0.131 C  
ENDROOT
BRANCH   3   4
HETATM    4  C   UNL     2     -11.434   6.151  72.255  1.00  0.00    -0.360 C  
BRANCH   4   5
HETATM    5  C   UNL     2     -10.397   7.215  72.625  1.00  0.00    -0.246 C  
BRANCH   5   6
HETATM    6  C   UNL     2      -9.713   7.833  71.399  1.00  0.00    -0.194 C  
BRANCH   6   7
HETATM    7  C   UNL     2     -10.076   9.306  71.220  1.00  0.00    -0.361 C  
BRANCH   7   8
HETATM    8  C   UNL     2     -11.026   9.549  70.050  1.00  0.00    -0.284 C  
BRANCH   8   9
HETATM    9  C   UNL     2     -10.287  10.070  68.809  1.00  0.00    -0.216 C  
BRANCH   9  10
HETATM   10  C   UNL     2     -10.531  11.550  68.486  1.00  0.00    -0.228 C  
BRANCH  10  11
HETATM   11  C   UNL     2     -10.626  11.823  66.983  1.00  0.00    -0.267 C  
BRANCH  11  12
HETATM   12  C   UNL     2      -9.594  12.839  66.478  1.00  0.00    -0.257 C  
BRANCH  12  13
HETATM   13  C   UNL     2     -10.030  14.298  66.640  1.00  0.00    -0.275 C  
BRANCH  13  14
HETATM   14  O   UNL     2      -9.732  14.723  67.958  1.00  0.00    -0.207 OA 
HETATM   15  S   UNL     2     -10.892  15.501  68.793  1.00  0.00    -0.273 S  
HETATM   16  O   UNL     2     -10.267  15.719  70.101  1.00  0.00    -0.288 OA 
HETATM   17  O   UNL     2     -12.002  14.556  68.833  1.00  0.00    -0.315 OA 
HETATM   18  O   UNL     2     -11.132  16.713  68.030  1.00  0.00    -0.343 OA 
ENDBRANCH  13  14
ENDBRANCH  12  13
ENDBRANCH  11  12
ENDBRANCH  10  11
ENDBRANCH   9  10
ENDBRANCH   8   9
ENDBRANCH   7   8
ENDBRANCH   6   7
ENDBRANCH   5   6
ENDBRANCH   4   5
ENDBRANCH   3   4
TORSDOF 11
ENDMDL
MODEL      393
REMARK 921   NORMALIZED FREE ENERGY PREDICTED BY IDOCK:   -2.47 KCAL/MOL
REMARK 922        TOTAL FREE ENERGY PREDICTED BY IDOCK:   -5.50 KCAL/MOL
REMARK 923 INTER-LIGAND FREE ENERGY PREDICTED BY IDOCK:   -4.29 KCAL/MOL
REMARK 924 INTRA-LIGAND FREE ENERGY PREDICTED BY IDOCK:   -1.21 KCAL/MOL
REMARK 927      BINDING AFFINITY PREDICTED BY RF-SCORE:    0.00 PKD
ROOT
HETATM    1 NA   UNL     1     -10.193  10.495  69.707  1.00  0.00    -0.183 Na 
HETATM    2  C   UNL     2     -12.341  13.381  63.966  1.00  0.00    -0.402 C  
HETATM    3  C   UNL     2     -12.382  12.735  65.343  1.00  0.00    -0.528 C  
ENDROOT
BRANCH   3   4
HETATM    4  C   UNL     2     -12.198  13.783  66.436  1.00  0.00    -0.480 C  
BRANCH   4   5
HETATM    5  C   UNL     2     -11.015  13.456  67.351  1.00  0.00    -0.287 C  
BRANCH   5   6
HETATM    6  C   UNL     2      -9.679  13.398  66.600  1.00  0.00    -0.275 C  
BRANCH   6   7
HETATM    7  C   UNL     2      -8.973  12.055  66.785  1.00  0.00    -0.198 C  
BRANCH   7   8
HETATM    8  C   UNL     2      -9.943  10.878  66.867  1.00  0.00    -0.232 C  
BRANCH   8   9
HETATM    9  C   UNL     2      -9.678   9.840  65.767  1.00  0.00    -0.340 C  
BRANCH   9  10
HETATM   10  C   UNL     2      -9.107   8.505  66.262  1.00  0.00    -0.232 C  
BRANCH  10  11
HETATM   11  C   UNL     2      -9.862   7.946  67.471  1.00  0.00    -0.221 C  
BRANCH  11  12
HETATM   12  C   UNL     2      -8.979   7.127  68.419  1.00  0.00    -0.125 C  
BRANCH  12  13
HETATM   13  C   UNL     2      -8.680   7.827  69.748  1.00  0.00    -0.139 C  
BRANCH  13  14
HETATM   14  O   UNL     2      -8.172   9.122  69.479  1.00  0.00    -0.109 OA 
HETATM   15  S   UNL     2      -6.786   9.568  70.206  1.00  0.00    -0.107 S  
HETATM   16  O   UNL     2      -6.539  10.903  69.654  1.00  0.00    -0.092 OA 
HETATM   17  O   UNL     2      -5.815   8.572  69.768  1.00  0.00    -0.029 OA 
HETATM   18  O   UNL     2      -7.101   9.550  71.623  1.00  0.00    -0.311 OA 
ENDBRANCH  13  14
ENDBRANCH  12  13
ENDBRANCH  11  12
ENDBRANCH  10  11
ENDBRANCH   9  10
ENDBRANCH   8   9
ENDBRANCH   7   8
ENDBRANCH   6   7
ENDBRANCH   5   6
ENDBRANCH   4   5
ENDBRANCH   3   4
TORSDOF 11
ENDMDL
MODEL      394
REMARK 921   NORMALIZED FREE ENERGY PREDICTED BY IDOCK:   -2.46 KCAL/MOL
REMARK 922        TOTAL FREE ENERGY PREDICTED BY IDOCK:   -5.48 KCAL/MOL
REMARK 923 INTER-LIGAND FREE ENERGY PREDICTED BY IDOCK:   -5.00 KCAL/MOL
REMARK 924 INTRA-LIGAND FREE ENERGY PREDICTED BY IDOCK:   -0.48 KCAL/MOL
REMARK 927      BINDING AFFINITY PREDICTED BY RF-SCORE:    0.00 PKD
ROOT
HETATM    1 NA   UNL     1      -9.935   8.845  62.333  1.00  0.00    -0.541 Na 
HETATM    2  C   UNL     2     -12.393  14.682  64.737  1.00  0.00    -0.362 C  
HETATM    3  C   UNL     2     -12.221  13.187  64.519  1.00  0.00    -0.466 C  
ENDROOT
BRANCH   3   4
HETATM    4  C   UNL     2     -11.157  12.624  65.457  1.00  0.00    -0.329 C  
BRANCH   4   5
HETATM    5  C   UNL     2     -10.075  13.656  65.781  1.00  0.00    -0.311 C  
BRANCH   5   6
HETATM    6  C   UNL     2      -9.390  13.399  67.130  1.00  0.00    -0.240 C  
BRANCH   6   7
HETATM    7  C   UNL     2      -8.749  12.013  67.193  1.00  0.00    -0.183 C  
BRANCH   7   8
HETATM    8  C   UNL     2      -7.293  12.050  67.654  1.00  0.00    -0.121 C  
BRANCH   8   9
HETATM    9  C   UNL     2      -6.795  10.665  68.091  1.00  0.00    -0.068 C  
BRANCH   9  10
HETATM   10  C   UNL     2      -7.391  10.148  69.407  1.00  0.00    -0.106 C  
BRANCH  10  11
HETATM   11  C   UNL     2      -8.666   9.326  69.200  1.00  0.00    -0.139 C  
BRANCH  11  12
HETATM   12  C   UNL     2      -9.699   9.507  70.318  1.00  0.00    -0.314 C  
BRANCH  12  13
HETATM   13  C   UNL     2     -10.996   8.724  70.097  1.00  0.00    -0.223 C  
BRANCH  13  14
HETATM   14  O   UNL     2     -10.843   7.423  70.635  1.00  0.00    -0.233 OA 
HETATM   15  S   UNL     2     -11.793   6.995  71.886  1.00  0.00    -0.317 S  
HETATM   16  O   UNL     2     -11.414   5.599  72.125  1.00  0.00    -0.258 OA 
HETATM   17  O   UNL     2     -13.150   7.146  71.375  1.00  0.00    -0.388 OA 
HETATM   18  O   UNL     2     -11.422   7.911  72.949  1.00  0.00    -0.403 OA 
ENDBRANCH  13  14
ENDBRANCH  12  13
ENDBRANCH  11  12
ENDBRANCH  10  11
ENDBRANCH   9  10
ENDBRANCH   8   9
ENDBRANCH   7   8
ENDBRANCH   6   7
ENDBRANCH   5   6
ENDBRANCH   4   5
ENDBRANCH   3   4
TORSDOF 11
ENDMDL
MODEL      395
REMARK 921   NORMALIZED FREE ENERGY PREDICTED BY IDOCK:   -2.44 KCAL/MOL
REMARK 922        TOTAL FREE ENERGY PREDICTED BY IDOCK:   -5.44 KCAL/MOL
REMARK 923 INTER-LIGAND FREE ENERGY PREDICTED BY IDOCK:   -4.08 KCAL/MOL
REMARK 924 INTRA-LIGAND FREE ENERGY PREDICTED BY IDOCK:   -1.36 KCAL/MOL
REMARK 927      BINDING AFFINITY PREDICTED BY RF-SCORE:    0.00 PKD
ROOT
HETATM    1 NA   UNL     1      -7.549   9.232  66.211  1.00  0.00    -0.086 Na 
HETATM    2  C   UNL     2     -12.283  13.193  63.418  1.00  0.00    -0.521 C  
HETATM    3  C   UNL     2     -11.658  12.063  64.222  1.00  0.00    -0.435 C  
ENDROOT
BRANCH   3   4
HETATM    4  C   UNL     2     -11.343  12.521  65.643  1.00  0.00    -0.372 C  
BRANCH   4   5
HETATM    5  C   UNL     2     -12.116  13.787  66.021  1.00  0.00    -0.470 C  
BRANCH   5   6
HETATM    6  C   UNL     2     -11.198  14.946  66.432  1.00  0.00    -0.331 C  
BRANCH   6   7
HETATM    7  C   UNL     2     -11.296  15.255  67.925  1.00  0.00    -0.339 C  
BRANCH   7   8
HETATM    8  C   UNL     2      -9.962  15.112  68.653  1.00  0.00    -0.220 C  
BRANCH   8   9
HETATM    9  C   UNL     2      -9.431  13.672  68.602  1.00  0.00    -0.077 C  
BRANCH   9  10
HETATM   10  C   UNL     2      -8.083  13.504  67.888  1.00  0.00    -0.165 C  
BRANCH  10  11
HETATM   11  C   UNL     2      -7.652  12.040  67.767  1.00  0.00    -0.130 C  
BRANCH  11  12
HETATM   12  C   UNL     2      -7.246  11.410  69.104  1.00  0.00    -0.102 C  
BRANCH  12  13
HETATM   13  C   UNL     2      -8.108  10.211  69.512  1.00  0.00    -0.170 C  
BRANCH  13  14
HETATM   14  O   UNL     2      -7.977   9.198  68.531  1.00  0.00    -0.100 OA 
HETATM   15  S   UNL     2      -8.752   7.788  68.778  1.00  0.00    -0.127 S  
HETATM   16  O   UNL     2      -8.451   7.029  67.560  1.00  0.00    -0.121 OA 
HETATM   17  O   UNL     2     -10.155   8.165  68.893  1.00  0.00    -0.191 OA 
HETATM   18  O   UNL     2      -8.149   7.253  69.985  1.00  0.00    -0.124 OA 
ENDBRANCH  13  14
ENDBRANCH  12  13
ENDBRANCH  11  12
ENDBRANCH  10  11
ENDBRANCH   9  10
ENDBRANCH   8   9
ENDBRANCH   7   8
ENDBRANCH   6   7
ENDBRANCH   5   6
ENDBRANCH   4   5
ENDBRANCH   3   4
TORSDOF 11
ENDMDL
MODEL      396
REMARK 921   NORMALIZED FREE ENERGY PREDICTED BY IDOCK:   -2.44 KCAL/MOL
REMARK 922        TOTAL FREE ENERGY PREDICTED BY IDOCK:   -5.44 KCAL/MOL
REMARK 923 INTER-LIGAND FREE ENERGY PREDICTED BY IDOCK:   -4.83 KCAL/MOL
REMARK 924 INTRA-LIGAND FREE ENERGY PREDICTED BY IDOCK:   -0.61 KCAL/MOL
REMARK 927      BINDING AFFINITY PREDICTED BY RF-SCORE:    0.00 PKD
ROOT
HETATM    1 NA   UNL     1     -11.314  14.078  63.567  1.00  0.00    -0.564 Na 
HETATM    2  C   UNL     2     -10.953  15.982  70.059  1.00  0.00    -0.365 C  
HETATM    3  C   UNL     2     -11.544  15.669  68.693  1.00  0.00    -0.391 C  
ENDROOT
BRANCH   3   4
HETATM    4  C   UNL     2     -11.899  14.188  68.585  1.00  0.00    -0.383 C  
BRANCH   4   5
HETATM    5  C   UNL     2     -12.363  13.611  69.924  1.00  0.00    -0.310 C  
BRANCH   5   6
HETATM    6  C   UNL     2     -12.119  12.101  70.040  1.00  0.00    -0.352 C  
BRANCH   6   7
HETATM    7  C   UNL     2     -12.621  11.538  71.369  1.00  0.00    -0.419 C  
BRANCH   7   8
HETATM    8  C   UNL     2     -13.350  10.206  71.215  1.00  0.00    -0.394 C  
BRANCH   8   9
HETATM    9  C   UNL     2     -12.617   9.064  71.934  1.00  0.00    -0.452 C  
BRANCH   9  10
HETATM   10  C   UNL     2     -11.295   8.634  71.284  1.00  0.00    -0.341 C  
BRANCH  10  11
HETATM   11  C   UNL     2     -10.385   7.861  72.242  1.00  0.00    -0.314 C  
BRANCH  11  12
HETATM   12  C   UNL     2      -8.897   7.961  71.886  1.00  0.00    -0.171 C  
BRANCH  12  13
HETATM   13  C   UNL     2      -8.473   9.340  71.373  1.00  0.00     0.178 C  
BRANCH  13  14
HETATM   14  O   UNL     2      -7.515   9.171  70.343  1.00  0.00    -0.077 OA 
HETATM   15  S   UNL     2      -6.526  10.419  70.006  1.00  0.00    -0.141 S  
HETATM   16  O   UNL     2      -5.649   9.873  68.966  1.00  0.00    -0.036 OA 
HETATM   17  O   UNL     2      -5.838  10.683  71.263  1.00  0.00    -0.317 OA 
HETATM   18  O   UNL     2      -7.417  11.471  69.550  1.00  0.00     0.024 OA 
ENDBRANCH  13  14
ENDBRANCH  12  13
ENDBRANCH  11  12
ENDBRANCH  10  11
ENDBRANCH   9  10
ENDBRANCH   8   9
ENDBRANCH   7   8
ENDBRANCH   6   7
ENDBRANCH   5   6
ENDBRANCH   4   5
ENDBRANCH   3   4
TORSDOF 11
ENDMDL
MODEL      397
REMARK 921   NORMALIZED FREE ENERGY PREDICTED BY IDOCK:   -2.43 KCAL/MOL
REMARK 922        TOTAL FREE ENERGY PREDICTED BY IDOCK:   -5.43 KCAL/MOL
REMARK 923 INTER-LIGAND FREE ENERGY PREDICTED BY IDOCK:   -4.79 KCAL/MOL
REMARK 924 INTRA-LIGAND FREE ENERGY PREDICTED BY IDOCK:   -0.64 KCAL/MOL
REMARK 927      BINDING AFFINITY PREDICTED BY RF-SCORE:    0.00 PKD
ROOT
HETATM    1 NA   UNL     1     -13.068  12.752  71.109  1.00  0.00    -0.311 Na 
HETATM    2  C   UNL     2     -11.502  15.221  64.998  1.00  0.00    -0.300 C  
HETATM    3  C   UNL     2     -11.378  14.442  66.299  1.00  0.00    -0.350 C  
ENDROOT
BRANCH   3   4
HETATM    4  C   UNL     2     -12.039  13.073  66.172  1.00  0.00    -0.473 C  
BRANCH   4   5
HETATM    5  C   UNL     2     -11.050  11.933  66.430  1.00  0.00    -0.359 C  
BRANCH   5   6
HETATM    6  C   UNL     2     -10.262  11.533  65.176  1.00  0.00    -0.322 C  
BRANCH   6   7
HETATM    7  C   UNL     2      -8.949  10.831  65.523  1.00  0.00    -0.210 C  
BRANCH   7   8
HETATM    8  C   UNL     2      -8.798   9.476  64.835  1.00  0.00    -0.240 C  
BRANCH   8   9
HETATM    9  C   UNL     2      -8.813   8.317  65.842  1.00  0.00    -0.197 C  
BRANCH   9  10
HETATM   10  C   UNL     2     -10.044   8.272  66.758  1.00  0.00    -0.373 C  
BRANCH  10  11
HETATM   11  C   UNL     2      -9.810   7.451  68.029  1.00  0.00    -0.172 C  
BRANCH  11  12
HETATM   12  C   UNL     2     -10.484   6.074  67.999  1.00  0.00    -0.291 C  
BRANCH  12  13
HETATM   13  C   UNL     2     -10.837   5.586  66.592  1.00  0.00    -0.179 C  
BRANCH  13  14
HETATM   14  O   UNL     2     -10.227   4.325  66.377  1.00  0.00    -0.213 OA 
HETATM   15  S   UNL     2      -9.804   3.927  64.857  1.00  0.00    -0.190 S  
HETATM   16  O   UNL     2      -9.158   2.621  65.025  1.00  0.00    -0.131 OA 
HETATM   17  O   UNL     2      -8.881   4.981  64.454  1.00  0.00    -0.147 OA 
HETATM   18  O   UNL     2     -11.061   3.889  64.132  1.00  0.00    -0.333 OA 
ENDBRANCH  13  14
ENDBRANCH  12  13
ENDBRANCH  11  12
ENDBRANCH  10  11
ENDBRANCH   9  10
ENDBRANCH   8   9
ENDBRANCH   7   8
ENDBRANCH   6   7
ENDBRANCH   5   6
ENDBRANCH   4   5
ENDBRANCH   3   4
TORSDOF 11
ENDMDL
MODEL      398
REMARK 921   NORMALIZED FREE ENERGY PREDICTED BY IDOCK:   -2.43 KCAL/MOL
REMARK 922        TOTAL FREE ENERGY PREDICTED BY IDOCK:   -5.42 KCAL/MOL
REMARK 923 INTER-LIGAND FREE ENERGY PREDICTED BY IDOCK:   -4.49 KCAL/MOL
REMARK 924 INTRA-LIGAND FREE ENERGY PREDICTED BY IDOCK:   -0.93 KCAL/MOL
REMARK 927      BINDING AFFINITY PREDICTED BY RF-SCORE:    0.00 PKD
ROOT
HETATM    1 NA   UNL     1     -11.770   7.660  67.633  1.00  0.00    -0.458 Na 
HETATM    2  C   UNL     2     -10.258   6.471  74.129  1.00  0.00    -0.380 C  
HETATM    3  C   UNL     2     -10.141   7.006  72.710  1.00  0.00    -0.211 C  
ENDROOT
BRANCH   3   4
HETATM    4  C   UNL     2     -10.896   8.324  72.566  1.00  0.00    -0.421 C  
BRANCH   4   5
HETATM    5  C   UNL     2     -10.288   9.217  71.481  1.00  0.00    -0.414 C  
BRANCH   5   6
HETATM    6  C   UNL     2     -10.799   8.877  70.075  1.00  0.00    -0.239 C  
BRANCH   6   7
HETATM    7  C   UNL     2     -11.674   9.989  69.498  1.00  0.00    -0.058 C  
BRANCH   7   8
HETATM    8  C   UNL     2     -11.802  11.192  70.430  1.00  0.00    -0.462 C  
BRANCH   8   9
HETATM    9  C   UNL     2     -11.755  12.521  69.661  1.00  0.00    -0.372 C  
BRANCH   9  10
HETATM   10  C   UNL     2     -11.893  12.392  68.139  1.00  0.00    -0.372 C  
BRANCH  10  11
HETATM   11  C   UNL     2     -10.674  12.927  67.383  1.00  0.00    -0.252 C  
BRANCH  11  12
HETATM   12  C   UNL     2     -10.191  14.292  67.890  1.00  0.00    -0.237 C  
BRANCH  12  13
HETATM   13  C   UNL     2      -8.702  14.330  68.246  1.00  0.00    -0.179 C  
BRANCH  13  14
HETATM   14  O   UNL     2      -8.029  13.326  67.507  1.00  0.00    -0.161 OA 
HETATM   15  S   UNL     2      -7.199  12.195  68.332  1.00  0.00    -0.103 S  
HETATM   16  O   UNL     2      -6.706  11.310  67.272  1.00  0.00    -0.086 OA 
HETATM   17  O   UNL     2      -8.199  11.570  69.189  1.00  0.00    -0.004 OA 
HETATM   18  O   UNL     2      -6.163  12.942  69.024  1.00  0.00    -0.082 OA 
ENDBRANCH  13  14
ENDBRANCH  12  13
ENDBRANCH  11  12
ENDBRANCH  10  11
ENDBRANCH   9  10
ENDBRANCH   8   9
ENDBRANCH   7   8
ENDBRANCH   6   7
ENDBRANCH   5   6
ENDBRANCH   4   5
ENDBRANCH   3   4
TORSDOF 11
ENDMDL
MODEL      399
REMARK 921   NORMALIZED FREE ENERGY PREDICTED BY IDOCK:   -2.42 KCAL/MOL
REMARK 922        TOTAL FREE ENERGY PREDICTED BY IDOCK:   -5.42 KCAL/MOL
REMARK 923 INTER-LIGAND FREE ENERGY PREDICTED BY IDOCK:   -4.75 KCAL/MOL
REMARK 924 INTRA-LIGAND FREE ENERGY PREDICTED BY IDOCK:   -0.66 KCAL/MOL
REMARK 927      BINDING AFFINITY PREDICTED BY RF-SCORE:    0.00 PKD
ROOT
HETATM    1 NA   UNL     1     -11.557   8.526  66.758  1.00  0.00    -0.195 Na 
HETATM    2  C   UNL     2      -5.200   8.234  64.434  1.00  0.00    -0.036 C  
HETATM    3  C   UNL     2      -6.543   8.813  64.852  1.00  0.00    -0.069 C  
ENDROOT
BRANCH   3   4
HETATM    4  C   UNL     2      -6.556   9.121  66.346  1.00  0.00    -0.067 C  
BRANCH   4   5
HETATM    5  C   UNL     2      -6.494  10.625  66.621  1.00  0.00    -0.100 C  
BRANCH   5   6
HETATM    6  C   UNL     2      -6.280  10.952  68.105  1.00  0.00    -0.049 C  
BRANCH   6   7
HETATM    7  C   UNL     2      -7.579  11.371  68.794  1.00  0.00    -0.132 C  
BRANCH   7   8
HETATM    8  C   UNL     2      -8.484  10.188  69.130  1.00  0.00    -0.157 C  
BRANCH   8   9
HETATM    9  C   UNL     2      -9.967  10.585  69.138  1.00  0.00    -0.236 C  
BRANCH   9  10
HETATM   10  C   UNL     2     -10.251  12.035  68.723  1.00  0.00    -0.145 C  
BRANCH  10  11
HETATM   11  C   UNL     2     -11.701  12.454  68.978  1.00  0.00    -0.372 C  
BRANCH  11  12
HETATM   12  C   UNL     2     -12.023  13.873  68.493  1.00  0.00    -0.394 C  
BRANCH  12  13
HETATM   13  C   UNL     2     -11.236  14.296  67.249  1.00  0.00    -0.318 C  
BRANCH  13  14
HETATM   14  O   UNL     2     -12.147  14.536  66.191  1.00  0.00    -0.367 OA 
HETATM   15  S   UNL     2     -11.549  14.683  64.685  1.00  0.00    -0.383 S  
HETATM   16  O   UNL     2     -12.754  14.851  63.866  1.00  0.00    -0.789 OA 
HETATM   17  O   UNL     2     -10.859  13.420  64.447  1.00  0.00    -0.384 OA 
HETATM   18  O   UNL     2     -10.696  15.856  64.749  1.00  0.00    -0.559 OA 
ENDBRANCH  13  14
ENDBRANCH  12  13
ENDBRANCH  11  12
ENDBRANCH  10  11
ENDBRANCH   9  10
ENDBRANCH   8   9
ENDBRANCH   7   8
ENDBRANCH   6   7
ENDBRANCH   5   6
ENDBRANCH   4   5
ENDBRANCH   3   4
TORSDOF 11
ENDMDL
MODEL      400
REMARK 921   NORMALIZED FREE ENERGY PREDICTED BY IDOCK:   -2.42 KCAL/MOL
REMARK 922        TOTAL FREE ENERGY PREDICTED BY IDOCK:   -5.41 KCAL/MOL
REMARK 923 INTER-LIGAND FREE ENERGY PREDICTED BY IDOCK:   -5.01 KCAL/MOL
REMARK 924 INTRA-LIGAND FREE ENERGY PREDICTED BY IDOCK:   -0.40 KCAL/MOL
REMARK 927      BINDING AFFINITY PREDICTED BY RF-SCORE:    0.00 PKD
ROOT
HETATM    1 NA   UNL     1     -13.432   7.150  70.082  1.00  0.00    -0.621 Na 
HETATM    2  C   UNL     2     -13.774  13.586  72.169  1.00  0.00    -0.654 C  
HETATM    3  C   UNL     2     -13.266  12.162  72.008  1.00  0.00    -0.496 C  
ENDROOT
BRANCH   3   4
HETATM    4  C   UNL     2     -12.376  12.042  70.775  1.00  0.00    -0.403 C  
BRANCH   4   5
HETATM    5  C   UNL     2     -12.277  10.599  70.277  1.00  0.00    -0.417 C  
BRANCH   5   6
HETATM    6  C   UNL     2     -10.829  10.140  70.060  1.00  0.00    -0.361 C  
BRANCH   6   7
HETATM    7  C   UNL     2     -10.425   9.035  71.037  1.00  0.00    -0.339 C  
BRANCH   7   8
HETATM    8  C   UNL     2     -11.542   8.659  72.008  1.00  0.00    -0.440 C  
BRANCH   8   9
HETATM    9  C   UNL     2     -11.455   7.188  72.440  1.00  0.00    -0.303 C  
BRANCH   9  10
HETATM   10  C   UNL     2     -10.031   6.623  72.528  1.00  0.00    -0.184 C  
BRANCH  10  11
HETATM   11  C   UNL     2     -10.004   5.100  72.678  1.00  0.00    -0.203 C  
BRANCH  11  12
HETATM   12  C   UNL     2      -9.769   4.359  71.356  1.00  0.00    -0.248 C  
BRANCH  12  13
HETATM   13  C   UNL     2      -8.999   5.177  70.315  1.00  0.00    -0.124 C  
BRANCH  13  14
HETATM   14  O   UNL     2      -7.844   5.725  70.926  1.00  0.00    -0.100 OA 
HETATM   15  S   UNL     2      -6.400   5.430  70.238  1.00  0.00    -0.031 S  
HETATM   16  O   UNL     2      -5.471   6.191  71.080  1.00  0.00    -0.017 OA 
HETATM   17  O   UNL     2      -6.529   5.966  68.888  1.00  0.00    -0.044 OA 
HETATM   18  O   UNL     2      -6.248   3.988  70.324  1.00  0.00    -0.024 OA 
ENDBRANCH  13  14
ENDBRANCH  12  13
ENDBRANCH  11  12
ENDBRANCH  10  11
ENDBRANCH   9  10
ENDBRANCH   8   9
ENDBRANCH   7   8
ENDBRANCH   6   7
ENDBRANCH   5   6
ENDBRANCH   4   5
ENDBRANCH   3   4
TORSDOF 11
ENDMDL
MODEL      401
REMARK 921   NORMALIZED FREE ENERGY PREDICTED BY IDOCK:   -2.40 KCAL/MOL
REMARK 922        TOTAL FREE ENERGY PREDICTED BY IDOCK:   -5.38 KCAL/MOL
REMARK 923 INTER-LIGAND FREE ENERGY PREDICTED BY IDOCK:   -4.43 KCAL/MOL
REMARK 924 INTRA-LIGAND FREE ENERGY PREDICTED BY IDOCK:   -0.94 KCAL/MOL
REMARK 927      BINDING AFFINITY PREDICTED BY RF-SCORE:    0.00 PKD
ROOT
HETATM    1 NA   UNL     1     -14.117   8.879  70.123  1.00  0.00    -0.330 Na 
HETATM    2  C   UNL     2     -10.334   4.843  74.033  1.00  0.00    -0.298 C  
HETATM    3  C   UNL     2     -11.225   5.294  72.886  1.00  0.00    -0.375 C  
ENDROOT
BRANCH   3   4
HETATM    4  C   UNL     2     -10.390   5.882  71.752  1.00  0.00    -0.263 C  
BRANCH   4   5
HETATM    5  C   UNL     2     -10.457   5.023  70.487  1.00  0.00    -0.230 C  
BRANCH   5   6
HETATM    6  C   UNL     2     -10.621   5.856  69.209  1.00  0.00    -0.379 C  
BRANCH   6   7
HETATM    7  C   UNL     2      -9.387   5.778  68.310  1.00  0.00    -0.123 C  
BRANCH   7   8
HETATM    8  C   UNL     2      -9.578   6.488  66.972  1.00  0.00    -0.174 C  
BRANCH   8   9
HETATM    9  C   UNL     2     -10.761   7.466  67.005  1.00  0.00    -0.389 C  
BRANCH   9  10
HETATM   10  C   UNL     2     -10.398   8.930  66.719  1.00  0.00    -0.317 C  
BRANCH  10  11
HETATM   11  C   UNL     2     -11.015   9.903  67.727  1.00  0.00    -0.278 C  
BRANCH  11  12
HETATM   12  C   UNL     2      -9.986  10.546  68.665  1.00  0.00    -0.188 C  
BRANCH  12  13
HETATM   13  C   UNL     2      -9.698   9.727  69.926  1.00  0.00    -0.238 C  
BRANCH  13  14
HETATM   14  O   UNL     2      -8.490   9.010  69.740  1.00  0.00    -0.118 OA 
HETATM   15  S   UNL     2      -7.227   9.377  70.699  1.00  0.00    -0.116 S  
HETATM   16  O   UNL     2      -6.204   8.414  70.278  1.00  0.00    -0.034 OA 
HETATM   17  O   UNL     2      -7.722   9.142  72.050  1.00  0.00    -0.331 OA 
HETATM   18  O   UNL     2      -6.922  10.759  70.378  1.00  0.00    -0.252 OA 
ENDBRANCH  13  14
ENDBRANCH  12  13
ENDBRANCH  11  12
ENDBRANCH  10  11
ENDBRANCH   9  10
ENDBRANCH   8   9
ENDBRANCH   7   8
ENDBRANCH   6   7
ENDBRANCH   5   6
ENDBRANCH   4   5
ENDBRANCH   3   4
TORSDOF 11
ENDMDL
MODEL      402
REMARK 921   NORMALIZED FREE ENERGY PREDICTED BY IDOCK:   -2.38 KCAL/MOL
REMARK 922        TOTAL FREE ENERGY PREDICTED BY IDOCK:   -5.35 KCAL/MOL
REMARK 923 INTER-LIGAND FREE ENERGY PREDICTED BY IDOCK:   -4.63 KCAL/MOL
REMARK 924 INTRA-LIGAND FREE ENERGY PREDICTED BY IDOCK:   -0.72 KCAL/MOL
REMARK 927      BINDING AFFINITY PREDICTED BY RF-SCORE:    0.00 PKD
ROOT
HETATM    1 NA   UNL     1      -9.347  12.684  63.283  1.00  0.00    -0.494 Na 
HETATM    2  C   UNL     2     -11.024  17.155  68.089  1.00  0.00    -0.231 C  
HETATM    3  C   UNL     2     -10.205  16.444  67.023  1.00  0.00    -0.282 C  
ENDROOT
BRANCH   3   4
HETATM    4  C   UNL     2     -10.526  16.997  65.637  1.00  0.00    -0.229 C  
BRANCH   4   5
HETATM    5  C   UNL     2     -10.934  15.892  64.660  1.00  0.00    -0.323 C  
BRANCH   5   6
HETATM    6  C   UNL     2     -12.153  15.092  65.139  1.00  0.00     0.023 C  
BRANCH   6   7
HETATM    7  C   UNL     2     -12.502  13.951  64.184  1.00  0.00    -0.286 C  
BRANCH   7   8
HETATM    8  C   UNL     2     -11.718  12.673  64.470  1.00  0.00    -0.416 C  
BRANCH   8   9
HETATM    9  C   UNL     2     -11.407  12.512  65.966  1.00  0.00    -0.386 C  
BRANCH   9  10
HETATM   10  C   UNL     2      -9.930  12.257  66.295  1.00  0.00    -0.249 C  
BRANCH  10  11
HETATM   11  C   UNL     2      -9.616  12.424  67.784  1.00  0.00    -0.202 C  
BRANCH  11  12
HETATM   12  C   UNL     2     -10.158  13.728  68.382  1.00  0.00    -0.241 C  
BRANCH  12  13
HETATM   13  C   UNL     2     -10.938  13.536  69.685  1.00  0.00     0.108 C  
BRANCH  13  14
HETATM   14  O   UNL     2     -11.902  14.568  69.799  1.00  0.00    -0.277 OA 
HETATM   15  S   UNL     2     -12.335  15.051  71.291  1.00  0.00    -0.358 S  
HETATM   16  O   UNL     2     -13.271  16.148  71.024  1.00  0.00    -0.118 OA 
HETATM   17  O   UNL     2     -11.087  15.492  71.902  1.00  0.00    -0.336 OA 
HETATM   18  O   UNL     2     -12.940  13.874  71.889  1.00  0.00    -0.332 OA 
ENDBRANCH  13  14
ENDBRANCH  12  13
ENDBRANCH  11  12
ENDBRANCH  10  11
ENDBRANCH   9  10
ENDBRANCH   8   9
ENDBRANCH   7   8
ENDBRANCH   6   7
ENDBRANCH   5   6
ENDBRANCH   4   5
ENDBRANCH   3   4
TORSDOF 11
ENDMDL
MODEL      403
REMARK 921   NORMALIZED FREE ENERGY PREDICTED BY IDOCK:   -2.37 KCAL/MOL
REMARK 922        TOTAL FREE ENERGY PREDICTED BY IDOCK:   -5.33 KCAL/MOL
REMARK 923 INTER-LIGAND FREE ENERGY PREDICTED BY IDOCK:   -4.81 KCAL/MOL
REMARK 924 INTRA-LIGAND FREE ENERGY PREDICTED BY IDOCK:   -0.53 KCAL/MOL
REMARK 927      BINDING AFFINITY PREDICTED BY RF-SCORE:    0.00 PKD
ROOT
HETATM    1 NA   UNL     1      -7.002  13.380  70.433  1.00  0.00    -0.347 Na 
HETATM    2  C   UNL     2     -13.076  15.218  72.806  1.00  0.00    -0.561 C  
HETATM    3  C   UNL     2     -11.573  15.224  72.568  1.00  0.00    -0.498 C  
ENDROOT
BRANCH   3   4
HETATM    4  C   UNL     2     -11.231  16.006  71.302  1.00  0.00    -0.281 C  
BRANCH   4   5
HETATM    5  C   UNL     2     -10.272  15.233  70.394  1.00  0.00     0.000 C  
BRANCH   5   6
HETATM    6  C   UNL     2     -10.646  15.332  68.910  1.00  0.00    -0.242 C  
BRANCH   6   7
HETATM    7  C   UNL     2     -10.739  13.958  68.248  1.00  0.00    -0.261 C  
BRANCH   7   8
HETATM    8  C   UNL     2     -11.654  12.994  69.000  1.00  0.00    -0.367 C  
BRANCH   8   9
HETATM    9  C   UNL     2     -11.048  11.586  69.098  1.00  0.00    -0.316 C  
BRANCH   9  10
HETATM   10  C   UNL     2     -11.985  10.518  69.679  1.00  0.00    -0.279 C  
BRANCH  10  11
HETATM   11  C   UNL     2     -11.234   9.293  70.209  1.00  0.00    -0.267 C  
BRANCH  11  12
HETATM   12  C   UNL     2     -11.519   8.992  71.685  1.00  0.00    -0.431 C  
BRANCH  12  13
HETATM   13  C   UNL     2     -10.714   7.817  72.245  1.00  0.00    -0.269 C  
BRANCH  13  14
HETATM   14  O   UNL     2     -10.311   6.985  71.171  1.00  0.00    -0.206 OA 
HETATM   15  S   UNL     2      -8.717   6.784  70.914  1.00  0.00    -0.142 S  
HETATM   16  O   UNL     2      -8.679   5.834  69.798  1.00  0.00    -0.124 OA 
HETATM   17  O   UNL     2      -8.218   6.227  72.166  1.00  0.00    -0.109 OA 
HETATM   18  O   UNL     2      -8.234   8.115  70.589  1.00  0.00    -0.107 OA 
ENDBRANCH  13  14
ENDBRANCH  12  13
ENDBRANCH  11  12
ENDBRANCH  10  11
ENDBRANCH   9  10
ENDBRANCH   8   9
ENDBRANCH   7   8
ENDBRANCH   6   7
ENDBRANCH   5   6
ENDBRANCH   4   5
ENDBRANCH   3   4
TORSDOF 11
ENDMDL
MODEL      404
REMARK 921   NORMALIZED FREE ENERGY PREDICTED BY IDOCK:   -2.36 KCAL/MOL
REMARK 922        TOTAL FREE ENERGY PREDICTED BY IDOCK:   -5.31 KCAL/MOL
REMARK 923 INTER-LIGAND FREE ENERGY PREDICTED BY IDOCK:   -4.94 KCAL/MOL
REMARK 924 INTRA-LIGAND FREE ENERGY PREDICTED BY IDOCK:   -0.37 KCAL/MOL
REMARK 927      BINDING AFFINITY PREDICTED BY RF-SCORE:    0.00 PKD
ROOT
HETATM    1 NA   UNL     1      -7.387  14.249  70.948  1.00  0.00    -0.400 Na 
HETATM    2  C   UNL     2      -6.566  20.438  68.317  1.00  0.00    -0.327 C  
HETATM    3  C   UNL     2      -6.417  19.257  69.264  1.00  0.00    -0.341 C  
ENDROOT
BRANCH   3   4
HETATM    4  C   UNL     2      -5.313  18.318  68.786  1.00  0.00    -0.180 C  
BRANCH   4   5
HETATM    5  C   UNL     2      -5.876  17.015  68.216  1.00  0.00    -0.130 C  
BRANCH   5   6
HETATM    6  C   UNL     2      -6.478  17.188  66.815  1.00  0.00    -0.254 C  
BRANCH   6   7
HETATM    7  C   UNL     2      -7.747  16.357  66.629  1.00  0.00    -0.310 C  
BRANCH   7   8
HETATM    8  C   UNL     2      -8.286  15.789  67.940  1.00  0.00    -0.154 C  
BRANCH   8   9
HETATM    9  C   UNL     2      -8.125  14.263  68.014  1.00  0.00    -0.145 C  
BRANCH   9  10
HETATM   10  C   UNL     2      -9.294  13.461  67.427  1.00  0.00    -0.221 C  
BRANCH  10  11
HETATM   11  C   UNL     2     -10.644  13.840  68.042  1.00  0.00    -0.258 C  
BRANCH  11  12
HETATM   12  C   UNL     2     -11.187  12.791  69.021  1.00  0.00    -0.317 C  
BRANCH  12  13
HETATM   13  C   UNL     2     -12.518  13.179  69.670  1.00  0.00     0.073 C  
BRANCH  13  14
HETATM   14  O   UNL     2     -12.278  13.568  71.011  1.00  0.00    -0.353 OA 
HETATM   15  S   UNL     2     -11.984  15.140  71.312  1.00  0.00    -0.380 S  
HETATM   16  O   UNL     2     -11.855  15.179  72.772  1.00  0.00    -0.391 OA 
HETATM   17  O   UNL     2     -13.171  15.828  70.818  1.00  0.00    -0.542 OA 
HETATM   18  O   UNL     2     -10.756  15.421  70.590  1.00  0.00    -0.312 OA 
ENDBRANCH  13  14
ENDBRANCH  12  13
ENDBRANCH  11  12
ENDBRANCH  10  11
ENDBRANCH   9  10
ENDBRANCH   8   9
ENDBRANCH   7   8
ENDBRANCH   6   7
ENDBRANCH   5   6
ENDBRANCH   4   5
ENDBRANCH   3   4
TORSDOF 11
ENDMDL
MODEL      405
REMARK 921   NORMALIZED FREE ENERGY PREDICTED BY IDOCK:   -2.35 KCAL/MOL
REMARK 922        TOTAL FREE ENERGY PREDICTED BY IDOCK:   -5.30 KCAL/MOL
REMARK 923 INTER-LIGAND FREE ENERGY PREDICTED BY IDOCK:   -4.37 KCAL/MOL
REMARK 924 INTRA-LIGAND FREE ENERGY PREDICTED BY IDOCK:   -0.94 KCAL/MOL
REMARK 927      BINDING AFFINITY PREDICTED BY RF-SCORE:    0.00 PKD
ROOT
HETATM    1 NA   UNL     1      -8.317  19.845  68.104  1.00  0.00    -0.277 Na 
HETATM    2  C   UNL     2     -11.503  14.344  70.447  1.00  0.00    -0.228 C  
HETATM    3  C   UNL     2     -11.208  15.807  70.151  1.00  0.00    -0.357 C  
ENDROOT
BRANCH   3   4
HETATM    4  C   UNL     2     -11.750  16.199  68.779  1.00  0.00    -0.231 C  
BRANCH   4   5
HETATM    5  C   UNL     2     -11.086  15.405  67.652  1.00  0.00    -0.316 C  
BRANCH   5   6
HETATM    6  C   UNL     2      -9.794  16.059  67.143  1.00  0.00    -0.236 C  
BRANCH   6   7
HETATM    7  C   UNL     2      -8.731  15.023  66.780  1.00  0.00    -0.293 C  
BRANCH   7   8
HETATM    8  C   UNL     2      -8.620  13.897  67.805  1.00  0.00    -0.182 C  
BRANCH   8   9
HETATM    9  C   UNL     2      -8.923  12.525  67.185  1.00  0.00    -0.200 C  
BRANCH   9  10
HETATM   10  C   UNL     2     -10.409  12.142  67.159  1.00  0.00    -0.233 C  
BRANCH  10  11
HETATM   11  C   UNL     2     -10.713  10.884  67.977  1.00  0.00    -0.263 C  
BRANCH  11  12
HETATM   12  C   UNL     2      -9.570  10.470  68.911  1.00  0.00    -0.199 C  
BRANCH  12  13
HETATM   13  C   UNL     2      -9.833   9.169  69.675  1.00  0.00    -0.180 C  
BRANCH  13  14
HETATM   14  O   UNL     2     -10.207   8.162  68.751  1.00  0.00    -0.199 OA 
HETATM   15  S   UNL     2     -10.440   6.654  69.315  1.00  0.00    -0.232 S  
HETATM   16  O   UNL     2     -10.870   5.918  68.122  1.00  0.00    -0.271 OA 
HETATM   17  O   UNL     2     -11.491   6.802  70.314  1.00  0.00    -0.326 OA 
HETATM   18  O   UNL     2      -9.142   6.258  69.831  1.00  0.00    -0.142 OA 
ENDBRANCH  13  14
ENDBRANCH  12  13
ENDBRANCH  11  12
ENDBRANCH  10  11
ENDBRANCH   9  10
ENDBRANCH   8   9
ENDBRANCH   7   8
ENDBRANCH   6   7
ENDBRANCH   5   6
ENDBRANCH   4   5
ENDBRANCH   3   4
TORSDOF 11
ENDMDL
MODEL      406
REMARK 921   NORMALIZED FREE ENERGY PREDICTED BY IDOCK:   -2.35 KCAL/MOL
REMARK 922        TOTAL FREE ENERGY PREDICTED BY IDOCK:   -5.30 KCAL/MOL
REMARK 923 INTER-LIGAND FREE ENERGY PREDICTED BY IDOCK:   -3.83 KCAL/MOL
REMARK 924 INTRA-LIGAND FREE ENERGY PREDICTED BY IDOCK:   -1.47 KCAL/MOL
REMARK 927      BINDING AFFINITY PREDICTED BY RF-SCORE:    0.00 PKD
ROOT
HETATM    1 NA   UNL     1      -6.724  10.796  66.997  1.00  0.00    -0.065 Na 
HETATM    2  C   UNL     2      -7.699   4.467  69.208  1.00  0.00    -0.055 C  
HETATM    3  C   UNL     2      -7.359   5.950  69.224  1.00  0.00    -0.083 C  
ENDROOT
BRANCH   3   4
HETATM    4  C   UNL     2      -8.617   6.790  69.426  1.00  0.00    -0.132 C  
BRANCH   4   5
HETATM    5  C   UNL     2      -9.198   6.622  70.832  1.00  0.00    -0.157 C  
BRANCH   5   6
HETATM    6  C   UNL     2     -10.630   6.072  70.823  1.00  0.00    -0.316 C  
BRANCH   6   7
HETATM    7  C   UNL     2     -11.264   6.099  72.213  1.00  0.00    -0.334 C  
BRANCH   7   8
HETATM    8  C   UNL     2     -11.268   7.491  72.840  1.00  0.00    -0.396 C  
BRANCH   8   9
HETATM    9  C   UNL     2     -12.515   8.295  72.443  1.00  0.00    -0.355 C  
BRANCH   9  10
HETATM   10  C   UNL     2     -12.227   9.651  71.785  1.00  0.00    -0.464 C  
BRANCH  10  11
HETATM   11  C   UNL     2     -11.841   9.527  70.309  1.00  0.00    -0.109 C  
BRANCH  11  12
HETATM   12  C   UNL     2     -10.516  10.216  69.962  1.00  0.00    -0.325 C  
BRANCH  12  13
HETATM   13  C   UNL     2     -10.332  10.489  68.467  1.00  0.00    -0.179 C  
BRANCH  13  14
HETATM   14  O   UNL     2     -10.464   9.268  67.759  1.00  0.00    -0.233 OA 
HETATM   15  S   UNL     2      -9.636   9.097  66.368  1.00  0.00    -0.266 S  
HETATM   16  O   UNL     2      -9.954   7.724  65.963  1.00  0.00     0.044 OA 
HETATM   17  O   UNL     2      -8.242   9.279  66.754  1.00  0.00    -0.114 OA 
HETATM   18  O   UNL     2     -10.180  10.123  65.496  1.00  0.00    -0.286 OA 
ENDBRANCH  13  14
ENDBRANCH  12  13
ENDBRANCH  11  12
ENDBRANCH  10  11
ENDBRANCH   9  10
ENDBRANCH   8   9
ENDBRANCH   7   8
ENDBRANCH   6   7
ENDBRANCH   5   6
ENDBRANCH   4   5
ENDBRANCH   3   4
TORSDOF 11
ENDMDL
MODEL      407
REMARK 921   NORMALIZED FREE ENERGY PREDICTED BY IDOCK:   -2.35 KCAL/MOL
REMARK 922        TOTAL FREE ENERGY PREDICTED BY IDOCK:   -5.30 KCAL/MOL
REMARK 923 INTER-LIGAND FREE ENERGY PREDICTED BY IDOCK:   -4.18 KCAL/MOL
REMARK 924 INTRA-LIGAND FREE ENERGY PREDICTED BY IDOCK:   -1.12 KCAL/MOL
REMARK 927      BINDING AFFINITY PREDICTED BY RF-SCORE:    0.00 PKD
ROOT
HETATM    1 NA   UNL     1      -8.289  11.929  62.418  1.00  0.00    -0.410 Na 
HETATM    2  C   UNL     2      -6.271  13.811  68.605  1.00  0.00    -0.089 C  
HETATM    3  C   UNL     2      -7.062  13.107  67.513  1.00  0.00    -0.156 C  
ENDROOT
BRANCH   3   4
HETATM    4  C   UNL     2      -6.365  11.817  67.089  1.00  0.00    -0.145 C  
BRANCH   4   5
HETATM    5  C   UNL     2      -7.151  10.575  67.516  1.00  0.00    -0.089 C  
BRANCH   5   6
HETATM    6  C   UNL     2      -8.384  10.319  66.639  1.00  0.00    -0.125 C  
BRANCH   6   7
HETATM    7  C   UNL     2      -9.314   9.270  67.249  1.00  0.00    -0.161 C  
BRANCH   7   8
HETATM    8  C   UNL     2      -9.836   9.666  68.628  1.00  0.00    -0.171 C  
BRANCH   8   9
HETATM    9  C   UNL     2     -10.396  11.096  68.641  1.00  0.00    -0.219 C  
BRANCH   9  10
HETATM   10  C   UNL     2     -11.699  11.286  67.853  1.00  0.00    -0.289 C  
BRANCH  10  11
HETATM   11  C   UNL     2     -11.925  12.737  67.419  1.00  0.00    -0.335 C  
BRANCH  11  12
HETATM   12  C   UNL     2     -10.625  13.518  67.193  1.00  0.00    -0.264 C  
BRANCH  12  13
HETATM   13  C   UNL     2     -10.781  15.035  67.329  1.00  0.00    -0.298 C  
BRANCH  13  14
HETATM   14  O   UNL     2     -11.834  15.308  68.236  1.00  0.00    -0.336 OA 
HETATM   15  S   UNL     2     -11.446  15.863  69.716  1.00  0.00    -0.338 S  
HETATM   16  O   UNL     2     -12.754  16.091  70.336  1.00  0.00    -0.324 OA 
HETATM   17  O   UNL     2     -10.706  17.092  69.456  1.00  0.00    -0.313 OA 
HETATM   18  O   UNL     2     -10.676  14.786  70.313  1.00  0.00    -0.115 OA 
ENDBRANCH  13  14
ENDBRANCH  12  13
ENDBRANCH  11  12
ENDBRANCH  10  11
ENDBRANCH   9  10
ENDBRANCH   8   9
ENDBRANCH   7   8
ENDBRANCH   6   7
ENDBRANCH   5   6
ENDBRANCH   4   5
ENDBRANCH   3   4
TORSDOF 11
ENDMDL
MODEL      408
REMARK 921   NORMALIZED FREE ENERGY PREDICTED BY IDOCK:   -2.34 KCAL/MOL
REMARK 922        TOTAL FREE ENERGY PREDICTED BY IDOCK:   -5.29 KCAL/MOL
REMARK 923 INTER-LIGAND FREE ENERGY PREDICTED BY IDOCK:   -4.52 KCAL/MOL
REMARK 924 INTRA-LIGAND FREE ENERGY PREDICTED BY IDOCK:   -0.77 KCAL/MOL
REMARK 927      BINDING AFFINITY PREDICTED BY RF-SCORE:    0.00 PKD
ROOT
HETATM    1 NA   UNL     1     -12.204  16.652  70.875  1.00  0.00    -0.523 Na 
HETATM    2  C   UNL     2     -12.051  14.532  64.442  1.00  0.00    -0.492 C  
HETATM    3  C   UNL     2     -11.648  14.707  65.899  1.00  0.00    -0.327 C  
ENDROOT
BRANCH   3   4
HETATM    4  C   UNL     2     -12.366  13.692  66.783  1.00  0.00    -0.354 C  
BRANCH   4   5
HETATM    5  C   UNL     2     -11.499  12.463  67.064  1.00  0.00    -0.423 C  
BRANCH   5   6
HETATM    6  C   UNL     2     -10.362  12.749  68.053  1.00  0.00    -0.232 C  
BRANCH   6   7
HETATM    7  C   UNL     2      -8.986  12.628  67.398  1.00  0.00    -0.190 C  
BRANCH   7   8
HETATM    8  C   UNL     2      -8.010  11.780  68.211  1.00  0.00    -0.147 C  
BRANCH   8   9
HETATM    9  C   UNL     2      -7.859  10.366  67.631  1.00  0.00    -0.105 C  
BRANCH   9  10
HETATM   10  C   UNL     2      -8.133   9.228  68.623  1.00  0.00    -0.105 C  
BRANCH  10  11
HETATM   11  C   UNL     2      -8.644   9.729  69.977  1.00  0.00    -0.229 C  
BRANCH  11  12
HETATM   12  C   UNL     2      -8.111   8.925  71.168  1.00  0.00    -0.201 C  
BRANCH  12  13
HETATM   13  C   UNL     2      -9.166   8.045  71.844  1.00  0.00    -0.167 C  
BRANCH  13  14
HETATM   14  O   UNL     2     -10.321   8.002  71.025  1.00  0.00    -0.200 OA 
HETATM   15  S   UNL     2     -11.485   6.928  71.398  1.00  0.00    -0.300 S  
HETATM   16  O   UNL     2     -12.525   7.211  70.403  1.00  0.00    -0.102 OA 
HETATM   17  O   UNL     2     -11.875   7.279  72.758  1.00  0.00    -0.165 OA 
HETATM   18  O   UNL     2     -10.843   5.635  71.247  1.00  0.00    -0.255 OA 
ENDBRANCH  13  14
ENDBRANCH  12  13
ENDBRANCH  11  12
ENDBRANCH  10  11
ENDBRANCH   9  10
ENDBRANCH   8   9
ENDBRANCH   7   8
ENDBRANCH   6   7
ENDBRANCH   5   6
ENDBRANCH   4   5
ENDBRANCH   3   4
TORSDOF 11
ENDMDL
MODEL      409
REMARK 921   NORMALIZED FREE ENERGY PREDICTED BY IDOCK:   -2.34 KCAL/MOL
REMARK 922        TOTAL FREE ENERGY PREDICTED BY IDOCK:   -5.28 KCAL/MOL
REMARK 923 INTER-LIGAND FREE ENERGY PREDICTED BY IDOCK:   -4.49 KCAL/MOL
REMARK 924 INTRA-LIGAND FREE ENERGY PREDICTED BY IDOCK:   -0.80 KCAL/MOL
REMARK 927      BINDING AFFINITY PREDICTED BY RF-SCORE:    0.00 PKD
ROOT
HETATM    1 NA   UNL     1     -10.195  10.498  69.702  1.00  0.00    -0.176 Na 
HETATM    2  C   UNL     2     -12.160  13.332  63.871  1.00  0.00    -0.531 C  
HETATM    3  C   UNL     2     -12.244  12.712  65.257  1.00  0.00    -0.532 C  
ENDROOT
BRANCH   3   4
HETATM    4  C   UNL     2     -12.058  13.775  66.336  1.00  0.00    -0.483 C  
BRANCH   4   5
HETATM    5  C   UNL     2     -10.914  13.427  67.291  1.00  0.00    -0.286 C  
BRANCH   5   6
HETATM    6  C   UNL     2      -9.562  13.289  66.579  1.00  0.00    -0.267 C  
BRANCH   6   7
HETATM    7  C   UNL     2      -8.921  11.924  66.822  1.00  0.00    -0.196 C  
BRANCH   7   8
HETATM    8  C   UNL     2      -9.942  10.793  66.915  1.00  0.00    -0.240 C  
BRANCH   8   9
HETATM    9  C   UNL     2      -9.691   9.705  65.861  1.00  0.00    -0.343 C  
BRANCH   9  10
HETATM   10  C   UNL     2      -9.202   8.363  66.421  1.00  0.00    -0.253 C  
BRANCH  10  11
HETATM   11  C   UNL     2     -10.024   7.883  67.620  1.00  0.00    -0.234 C  
BRANCH  11  12
HETATM   12  C   UNL     2      -9.211   7.068  68.633  1.00  0.00    -0.131 C  
BRANCH  12  13
HETATM   13  C   UNL     2      -8.929   7.809  69.943  1.00  0.00    -0.146 C  
BRANCH  13  14
HETATM   14  O   UNL     2      -8.171   6.966  70.793  1.00  0.00    -0.119 OA 
HETATM   15  S   UNL     2      -8.690   6.753  72.320  1.00  0.00    -0.127 S  
HETATM   16  O   UNL     2      -7.724   5.794  72.865  1.00  0.00    -0.096 OA 
HETATM   17  O   UNL     2     -10.031   6.202  72.171  1.00  0.00    -0.168 OA 
HETATM   18  O   UNL     2      -8.623   8.078  72.911  1.00  0.00    -0.157 OA 
ENDBRANCH  13  14
ENDBRANCH  12  13
ENDBRANCH  11  12
ENDBRANCH  10  11
ENDBRANCH   9  10
ENDBRANCH   8   9
ENDBRANCH   7   8
ENDBRANCH   6   7
ENDBRANCH   5   6
ENDBRANCH   4   5
ENDBRANCH   3   4
TORSDOF 11
ENDMDL
MODEL      410
REMARK 921   NORMALIZED FREE ENERGY PREDICTED BY IDOCK:   -2.34 KCAL/MOL
REMARK 922        TOTAL FREE ENERGY PREDICTED BY IDOCK:   -5.28 KCAL/MOL
REMARK 923 INTER-LIGAND FREE ENERGY PREDICTED BY IDOCK:   -4.62 KCAL/MOL
REMARK 924 INTRA-LIGAND FREE ENERGY PREDICTED BY IDOCK:   -0.66 KCAL/MOL
REMARK 927      BINDING AFFINITY PREDICTED BY RF-SCORE:    0.00 PKD
ROOT
HETATM    1 NA   UNL     1     -14.150  10.049  69.583  1.00  0.00    -0.588 Na 
HETATM    2  C   UNL     2     -12.308  12.697  63.625  1.00  0.00    -0.584 C  
HETATM    3  C   UNL     2     -12.633  12.605  65.108  1.00  0.00    -0.459 C  
ENDROOT
BRANCH   3   4
HETATM    4  C   UNL     2     -11.408  12.163  65.902  1.00  0.00    -0.407 C  
BRANCH   4   5
HETATM    5  C   UNL     2     -10.133  12.862  65.424  1.00  0.00    -0.265 C  
BRANCH   5   6
HETATM    6  C   UNL     2      -9.551  13.822  66.470  1.00  0.00    -0.295 C  
BRANCH   6   7
HETATM    7  C   UNL     2      -8.670  13.098  67.487  1.00  0.00    -0.201 C  
BRANCH   7   8
HETATM    8  C   UNL     2      -8.483  11.616  67.167  1.00  0.00    -0.162 C  
BRANCH   8   9
HETATM    9  C   UNL     2      -7.047  11.301  66.724  1.00  0.00    -0.143 C  
BRANCH   9  10
HETATM   10  C   UNL     2      -6.914  10.124  65.749  1.00  0.00    -0.123 C  
BRANCH  10  11
HETATM   11  C   UNL     2      -6.670   8.789  66.458  1.00  0.00    -0.071 C  
BRANCH  11  12
HETATM   12  C   UNL     2      -7.173   7.575  65.667  1.00  0.00    -0.066 C  
BRANCH  12  13
HETATM   13  C   UNL     2      -8.568   7.100  66.080  1.00  0.00    -0.152 C  
BRANCH  13  14
HETATM   14  O   UNL     2      -8.802   7.479  67.425  1.00  0.00    -0.126 OA 
HETATM   15  S   UNL     2     -10.339   7.739  67.891  1.00  0.00    -0.207 S  
HETATM   16  O   UNL     2     -10.204   8.037  69.321  1.00  0.00    -0.203 OA 
HETATM   17  O   UNL     2     -11.014   6.474  67.625  1.00  0.00    -0.304 OA 
HETATM   18  O   UNL     2     -10.777   8.861  67.080  1.00  0.00    -0.265 OA 
ENDBRANCH  13  14
ENDBRANCH  12  13
ENDBRANCH  11  12
ENDBRANCH  10  11
ENDBRANCH   9  10
ENDBRANCH   8   9
ENDBRANCH   7   8
ENDBRANCH   6   7
ENDBRANCH   5   6
ENDBRANCH   4   5
ENDBRANCH   3   4
TORSDOF 11
ENDMDL
MODEL      411
REMARK 921   NORMALIZED FREE ENERGY PREDICTED BY IDOCK:   -2.33 KCAL/MOL
REMARK 922        TOTAL FREE ENERGY PREDICTED BY IDOCK:   -5.26 KCAL/MOL
REMARK 923 INTER-LIGAND FREE ENERGY PREDICTED BY IDOCK:   -4.63 KCAL/MOL
REMARK 924 INTRA-LIGAND FREE ENERGY PREDICTED BY IDOCK:   -0.63 KCAL/MOL
REMARK 927      BINDING AFFINITY PREDICTED BY RF-SCORE:    0.00 PKD
ROOT
HETATM    1 NA   UNL     1     -10.087   2.878  63.590  1.00  0.00    -0.116 Na 
HETATM    2  C   UNL     2      -8.644   8.337  67.335  1.00  0.00    -0.125 C  
HETATM    3  C   UNL     2      -9.427   7.374  66.456  1.00  0.00    -0.229 C  
ENDROOT
BRANCH   3   4
HETATM    4  C   UNL     2     -10.114   6.306  67.303  1.00  0.00    -0.203 C  
BRANCH   4   5
HETATM    5  C   UNL     2     -10.102   6.661  68.791  1.00  0.00    -0.168 C  
BRANCH   5   6
HETATM    6  C   UNL     2     -11.410   6.293  69.503  1.00  0.00    -0.475 C  
BRANCH   6   7
HETATM    7  C   UNL     2     -11.399   6.705  70.975  1.00  0.00    -0.366 C  
BRANCH   7   8
HETATM    8  C   UNL     2     -12.623   7.527  71.373  1.00  0.00    -0.382 C  
BRANCH   8   9
HETATM    9  C   UNL     2     -12.234   8.804  72.132  1.00  0.00    -0.448 C  
BRANCH   9  10
HETATM   10  C   UNL     2     -12.083  10.055  71.256  1.00  0.00    -0.487 C  
BRANCH  10  11
HETATM   11  C   UNL     2     -10.931   9.944  70.253  1.00  0.00    -0.366 C  
BRANCH  11  12
HETATM   12  C   UNL     2     -11.080  10.875  69.044  1.00  0.00    -0.302 C  
BRANCH  12  13
HETATM   13  C   UNL     2     -12.013  12.064  69.289  1.00  0.00    -0.270 C  
BRANCH  13  14
HETATM   14  O   UNL     2     -11.444  12.895  70.286  1.00  0.00    -0.058 OA 
HETATM   15  S   UNL     2     -11.212  14.466  69.933  1.00  0.00    -0.122 S  
HETATM   16  O   UNL     2     -10.687  15.012  71.188  1.00  0.00    -0.094 OA 
HETATM   17  O   UNL     2     -12.543  14.960  69.600  1.00  0.00    -0.192 OA 
HETATM   18  O   UNL     2     -10.260  14.453  68.837  1.00  0.00    -0.230 OA 
ENDBRANCH  13  14
ENDBRANCH  12  13
ENDBRANCH  11  12
ENDBRANCH  10  11
ENDBRANCH   9  10
ENDBRANCH   8   9
ENDBRANCH   7   8
ENDBRANCH   6   7
ENDBRANCH   5   6
ENDBRANCH   4   5
ENDBRANCH   3   4
TORSDOF 11
ENDMDL
MODEL      412
REMARK 921   NORMALIZED FREE ENERGY PREDICTED BY IDOCK:   -2.33 KCAL/MOL
REMARK 922        TOTAL FREE ENERGY PREDICTED BY IDOCK:   -5.26 KCAL/MOL
REMARK 923 INTER-LIGAND FREE ENERGY PREDICTED BY IDOCK:   -4.73 KCAL/MOL
REMARK 924 INTRA-LIGAND FREE ENERGY PREDICTED BY IDOCK:   -0.53 KCAL/MOL
REMARK 927      BINDING AFFINITY PREDICTED BY RF-SCORE:    0.00 PKD
ROOT
HETATM    1 NA   UNL     1      -7.235  21.104  72.102  1.00  0.00    -0.814 Na 
HETATM    2  C   UNL     2      -7.404  19.167  65.612  1.00  0.00    -0.167 C  
HETATM    3  C   UNL     2      -6.953  19.270  67.061  1.00  0.00    -0.210 C  
ENDROOT
BRANCH   3   4
HETATM    4  C   UNL     2      -7.723  18.285  67.937  1.00  0.00    -0.249 C  
BRANCH   4   5
HETATM    5  C   UNL     2      -8.475  17.245  67.104  1.00  0.00    -0.223 C  
BRANCH   5   6
HETATM    6  C   UNL     2      -9.964  17.156  67.463  1.00  0.00    -0.279 C  
BRANCH   6   7
HETATM    7  C   UNL     2     -10.622  15.906  66.881  1.00  0.00    -0.309 C  
BRANCH   7   8
HETATM    8  C   UNL     2      -9.610  14.873  66.389  1.00  0.00    -0.317 C  
BRANCH   8   9
HETATM    9  C   UNL     2     -10.208  13.460  66.345  1.00  0.00    -0.293 C  
BRANCH   9  10
HETATM   10  C   UNL     2      -9.965  12.695  65.037  1.00  0.00    -0.179 C  
BRANCH  10  11
HETATM   11  C   UNL     2     -10.382  11.225  65.121  1.00  0.00    -0.353 C  
BRANCH  11  12
HETATM   12  C   UNL     2      -9.284  10.250  64.679  1.00  0.00    -0.290 C  
BRANCH  12  13
HETATM   13  C   UNL     2      -9.263   8.939  65.470  1.00  0.00    -0.178 C  
BRANCH  13  14
HETATM   14  O   UNL     2     -10.150   9.053  66.569  1.00  0.00    -0.272 OA 
HETATM   15  S   UNL     2      -9.673   8.452  68.004  1.00  0.00    -0.164 S  
HETATM   16  O   UNL     2     -10.785   8.801  68.893  1.00  0.00    -0.187 OA 
HETATM   17  O   UNL     2      -8.443   9.175  68.304  1.00  0.00    -0.123 OA 
HETATM   18  O   UNL     2      -9.516   7.029  67.764  1.00  0.00    -0.125 OA 
ENDBRANCH  13  14
ENDBRANCH  12  13
ENDBRANCH  11  12
ENDBRANCH  10  11
ENDBRANCH   9  10
ENDBRANCH   8   9
ENDBRANCH   7   8
ENDBRANCH   6   7
ENDBRANCH   5   6
ENDBRANCH   4   5
ENDBRANCH   3   4
TORSDOF 11
ENDMDL
MODEL      413
REMARK 921   NORMALIZED FREE ENERGY PREDICTED BY IDOCK:   -2.32 KCAL/MOL
REMARK 922        TOTAL FREE ENERGY PREDICTED BY IDOCK:   -5.25 KCAL/MOL
REMARK 923 INTER-LIGAND FREE ENERGY PREDICTED BY IDOCK:   -4.13 KCAL/MOL
REMARK 924 INTRA-LIGAND FREE ENERGY PREDICTED BY IDOCK:   -1.12 KCAL/MOL
REMARK 927      BINDING AFFINITY PREDICTED BY RF-SCORE:    0.00 PKD
ROOT
HETATM    1 NA   UNL     1      -9.993   8.881  62.426  1.00  0.00    -0.541 Na 
HETATM    2  C   UNL     2     -12.399  13.980  66.182  1.00  0.00    -0.491 C  
HETATM    3  C   UNL     2     -11.905  12.591  65.807  1.00  0.00    -0.494 C  
ENDROOT
BRANCH   3   4
HETATM    4  C   UNL     2     -10.385  12.512  65.918  1.00  0.00    -0.284 C  
BRANCH   4   5
HETATM    5  C   UNL     2      -9.764  13.868  66.259  1.00  0.00    -0.304 C  
BRANCH   5   6
HETATM    6  C   UNL     2      -8.617  13.762  67.273  1.00  0.00    -0.221 C  
BRANCH   6   7
HETATM    7  C   UNL     2      -7.970  12.377  67.264  1.00  0.00    -0.178 C  
BRANCH   7   8
HETATM    8  C   UNL     2      -6.453  12.429  67.090  1.00  0.00    -0.097 C  
BRANCH   8   9
HETATM    9  C   UNL     2      -5.864  11.044  66.783  1.00  0.00    -0.094 C  
BRANCH   9  10
HETATM   10  C   UNL     2      -5.290  10.302  67.997  1.00  0.00    -0.034 C  
BRANCH  10  11
HETATM   11  C   UNL     2      -6.293   9.335  68.632  1.00  0.00    -0.049 C  
BRANCH  11  12
HETATM   12  C   UNL     2      -6.742   9.755  70.037  1.00  0.00    -0.089 C  
BRANCH  12  13
HETATM   13  C   UNL     2      -8.224   9.491  70.319  1.00  0.00    -0.187 C  
BRANCH  13  14
HETATM   14  O   UNL     2      -8.893   9.275  69.089  1.00  0.00    -0.134 OA 
HETATM   15  S   UNL     2     -10.476   9.644  69.004  1.00  0.00    -0.218 S  
HETATM   16  O   UNL     2     -10.804   9.363  67.602  1.00  0.00    -0.267 OA 
HETATM   17  O   UNL     2     -10.533  11.061  69.339  1.00  0.00    -0.214 OA 
HETATM   18  O   UNL     2     -11.105   8.751  69.960  1.00  0.00    -0.237 OA 
ENDBRANCH  13  14
ENDBRANCH  12  13
ENDBRANCH  11  12
ENDBRANCH  10  11
ENDBRANCH   9  10
ENDBRANCH   8   9
ENDBRANCH   7   8
ENDBRANCH   6   7
ENDBRANCH   5   6
ENDBRANCH   4   5
ENDBRANCH   3   4
TORSDOF 11
ENDMDL
MODEL      414
REMARK 921   NORMALIZED FREE ENERGY PREDICTED BY IDOCK:   -2.32 KCAL/MOL
REMARK 922        TOTAL FREE ENERGY PREDICTED BY IDOCK:   -5.25 KCAL/MOL
REMARK 923 INTER-LIGAND FREE ENERGY PREDICTED BY IDOCK:   -4.37 KCAL/MOL
REMARK 924 INTRA-LIGAND FREE ENERGY PREDICTED BY IDOCK:   -0.88 KCAL/MOL
REMARK 927      BINDING AFFINITY PREDICTED BY RF-SCORE:    0.00 PKD
ROOT
HETATM    1 NA   UNL     1     -13.167  16.407  71.259  1.00  0.00    -0.504 Na 
HETATM    2  C   UNL     2     -11.148  15.223  64.901  1.00  0.00    -0.435 C  
HETATM    3  C   UNL     2     -11.191  15.165  66.420  1.00  0.00    -0.277 C  
ENDROOT
BRANCH   3   4
HETATM    4  C   UNL     2     -12.152  14.077  66.891  1.00  0.00    -0.465 C  
BRANCH   4   5
HETATM    5  C   UNL     2     -11.693  12.682  66.462  1.00  0.00    -0.463 C  
BRANCH   5   6
HETATM    6  C   UNL     2     -11.493  11.729  67.647  1.00  0.00    -0.370 C  
BRANCH   6   7
HETATM    7  C   UNL     2     -10.392  12.210  68.592  1.00  0.00    -0.211 C  
BRANCH   7   8
HETATM    8  C   UNL     2      -9.104  11.399  68.469  1.00  0.00    -0.169 C  
BRANCH   8   9
HETATM    9  C   UNL     2      -8.324  11.750  67.194  1.00  0.00    -0.168 C  
BRANCH   9  10
HETATM   10  C   UNL     2      -7.821  10.543  66.391  1.00  0.00    -0.138 C  
BRANCH  10  11
HETATM   11  C   UNL     2      -7.992   9.218  67.139  1.00  0.00    -0.106 C  
BRANCH  11  12
HETATM   12  C   UNL     2      -7.240   8.049  66.492  1.00  0.00    -0.080 C  
BRANCH  12  13
HETATM   13  C   UNL     2      -8.151   6.912  66.019  1.00  0.00    -0.119 C  
BRANCH  13  14
HETATM   14  O   UNL     2      -9.339   6.925  66.791  1.00  0.00    -0.147 OA 
HETATM   15  S   UNL     2      -9.754   5.564  67.579  1.00  0.00    -0.137 S  
HETATM   16  O   UNL     2     -10.965   5.960  68.306  1.00  0.00    -0.274 OA 
HETATM   17  O   UNL     2      -8.618   5.293  68.452  1.00  0.00    -0.096 OA 
HETATM   18  O   UNL     2      -9.976   4.590  66.525  1.00  0.00    -0.208 OA 
ENDBRANCH  13  14
ENDBRANCH  12  13
ENDBRANCH  11  12
ENDBRANCH  10  11
ENDBRANCH   9  10
ENDBRANCH   8   9
ENDBRANCH   7   8
ENDBRANCH   6   7
ENDBRANCH   5   6
ENDBRANCH   4   5
ENDBRANCH   3   4
TORSDOF 11
ENDMDL
MODEL      415
REMARK 921   NORMALIZED FREE ENERGY PREDICTED BY IDOCK:   -2.32 KCAL/MOL
REMARK 922        TOTAL FREE ENERGY PREDICTED BY IDOCK:   -5.24 KCAL/MOL
REMARK 923 INTER-LIGAND FREE ENERGY PREDICTED BY IDOCK:   -4.80 KCAL/MOL
REMARK 924 INTRA-LIGAND FREE ENERGY PREDICTED BY IDOCK:   -0.44 KCAL/MOL
REMARK 927      BINDING AFFINITY PREDICTED BY RF-SCORE:    0.00 PKD
ROOT
HETATM    1 NA   UNL     1      -9.183  12.168  64.559  1.00  0.00    -0.380 Na 
HETATM    2  C   UNL     2     -10.578  18.091  67.539  1.00  0.00    -0.402 C  
HETATM    3  C   UNL     2     -10.633  16.605  67.218  1.00  0.00    -0.281 C  
ENDROOT
BRANCH   3   4
HETATM    4  C   UNL     2      -9.571  15.843  68.005  1.00  0.00    -0.211 C  
BRANCH   4   5
HETATM    5  C   UNL     2     -10.049  14.447  68.410  1.00  0.00    -0.244 C  
BRANCH   5   6
HETATM    6  C   UNL     2      -9.871  13.409  67.294  1.00  0.00    -0.233 C  
BRANCH   6   7
HETATM    7  C   UNL     2     -11.200  12.776  66.883  1.00  0.00    -0.339 C  
BRANCH   7   8
HETATM    8  C   UNL     2     -11.760  11.825  67.939  1.00  0.00    -0.347 C  
BRANCH   8   9
HETATM    9  C   UNL     2     -10.787  10.679  68.252  1.00  0.00    -0.287 C  
BRANCH   9  10
HETATM   10  C   UNL     2     -10.637   9.635  67.136  1.00  0.00    -0.298 C  
BRANCH  10  11
HETATM   11  C   UNL     2     -10.658   8.197  67.661  1.00  0.00    -0.258 C  
BRANCH  11  12
HETATM   12  C   UNL     2     -10.124   8.059  69.091  1.00  0.00    -0.202 C  
BRANCH  12  13
HETATM   13  C   UNL     2     -11.215   8.068  70.165  1.00  0.00    -0.144 C  
BRANCH  13  14
HETATM   14  O   UNL     2     -11.125   6.873  70.921  1.00  0.00    -0.250 OA 
HETATM   15  S   UNL     2     -10.714   6.990  72.491  1.00  0.00    -0.259 S  
HETATM   16  O   UNL     2     -10.786   5.601  72.954  1.00  0.00    -0.215 OA 
HETATM   17  O   UNL     2     -11.742   7.847  73.069  1.00  0.00    -0.305 OA 
HETATM   18  O   UNL     2      -9.375   7.550  72.472  1.00  0.00    -0.141 OA 
ENDBRANCH  13  14
ENDBRANCH  12  13
ENDBRANCH  11  12
ENDBRANCH  10  11
ENDBRANCH   9  10
ENDBRANCH   8   9
ENDBRANCH   7   8
ENDBRANCH   6   7
ENDBRANCH   5   6
ENDBRANCH   4   5
ENDBRANCH   3   4
TORSDOF 11
ENDMDL
MODEL      416
REMARK 921   NORMALIZED FREE ENERGY PREDICTED BY IDOCK:   -2.31 KCAL/MOL
REMARK 922        TOTAL FREE ENERGY PREDICTED BY IDOCK:   -5.22 KCAL/MOL
REMARK 923 INTER-LIGAND FREE ENERGY PREDICTED BY IDOCK:   -4.53 KCAL/MOL
REMARK 924 INTRA-LIGAND FREE ENERGY PREDICTED BY IDOCK:   -0.69 KCAL/MOL
REMARK 927      BINDING AFFINITY PREDICTED BY RF-SCORE:    0.00 PKD
ROOT
HETATM    1 NA   UNL     1      -7.306   8.797  66.164  1.00  0.00    -0.074 Na 
HETATM    2  C   UNL     2      -8.118   4.503  71.340  1.00  0.00    -0.095 C  
HETATM    3  C   UNL     2      -7.484   5.554  70.442  1.00  0.00    -0.079 C  
ENDROOT
BRANCH   3   4
HETATM    4  C   UNL     2      -7.969   6.950  70.820  1.00  0.00    -0.106 C  
BRANCH   4   5
HETATM    5  C   UNL     2      -9.413   6.937  71.330  1.00  0.00    -0.165 C  
BRANCH   5   6
HETATM    6  C   UNL     2      -9.688   8.030  72.371  1.00  0.00    -0.305 C  
BRANCH   6   7
HETATM    7  C   UNL     2     -10.515   9.177  71.793  1.00  0.00    -0.361 C  
BRANCH   7   8
HETATM    8  C   UNL     2     -11.510   8.720  70.728  1.00  0.00    -0.309 C  
BRANCH   8   9
HETATM    9  C   UNL     2     -12.056   9.898  69.909  1.00  0.00     0.061 C  
BRANCH   9  10
HETATM   10  C   UNL     2     -11.012  10.629  69.054  1.00  0.00    -0.295 C  
BRANCH  10  11
HETATM   11  C   UNL     2     -10.746   9.933  67.716  1.00  0.00    -0.332 C  
BRANCH  11  12
HETATM   12  C   UNL     2     -10.284  10.889  66.610  1.00  0.00    -0.282 C  
BRANCH  12  13
HETATM   13  C   UNL     2     -11.397  11.785  66.059  1.00  0.00    -0.273 C  
BRANCH  13  14
HETATM   14  O   UNL     2     -11.270  13.076  66.627  1.00  0.00    -0.288 OA 
HETATM   15  S   UNL     2     -11.663  14.360  65.708  1.00  0.00    -0.351 S  
HETATM   16  O   UNL     2     -11.478  15.490  66.623  1.00  0.00    -0.124 OA 
HETATM   17  O   UNL     2     -13.057  14.130  65.347  1.00  0.00    -0.743 OA 
HETATM   18  O   UNL     2     -10.719  14.316  64.605  1.00  0.00    -0.412 OA 
ENDBRANCH  13  14
ENDBRANCH  12  13
ENDBRANCH  11  12
ENDBRANCH  10  11
ENDBRANCH   9  10
ENDBRANCH   8   9
ENDBRANCH   7   8
ENDBRANCH   6   7
ENDBRANCH   5   6
ENDBRANCH   4   5
ENDBRANCH   3   4
TORSDOF 11
ENDMDL
MODEL      417
REMARK 921   NORMALIZED FREE ENERGY PREDICTED BY IDOCK:   -2.30 KCAL/MOL
REMARK 922        TOTAL FREE ENERGY PREDICTED BY IDOCK:   -5.22 KCAL/MOL
REMARK 923 INTER-LIGAND FREE ENERGY PREDICTED BY IDOCK:   -4.46 KCAL/MOL
REMARK 924 INTRA-LIGAND FREE ENERGY PREDICTED BY IDOCK:   -0.76 KCAL/MOL
REMARK 927      BINDING AFFINITY PREDICTED BY RF-SCORE:    0.00 PKD
ROOT
HETATM    1 NA   UNL     1      -9.657   5.501  64.148  1.00  0.00    -0.364 Na 
HETATM    2  C   UNL     2      -6.586   9.737  68.451  1.00  0.00    -0.056 C  
HETATM    3  C   UNL     2      -7.698   9.035  67.688  1.00  0.00    -0.097 C  
ENDROOT
BRANCH   3   4
HETATM    4  C   UNL     2      -8.115   7.752  68.401  1.00  0.00    -0.124 C  
BRANCH   4   5
HETATM    5  C   UNL     2      -8.864   8.038  69.704  1.00  0.00    -0.141 C  
BRANCH   5   6
HETATM    6  C   UNL     2     -10.201   8.755  69.479  1.00  0.00    -0.208 C  
BRANCH   6   7
HETATM    7  C   UNL     2     -10.659   9.522  70.719  1.00  0.00    -0.387 C  
BRANCH   7   8
HETATM    8  C   UNL     2     -12.072  10.084  70.586  1.00  0.00    -0.381 C  
BRANCH   8   9
HETATM    9  C   UNL     2     -12.094  11.615  70.703  1.00  0.00    -0.432 C  
BRANCH   9  10
HETATM   10  C   UNL     2     -11.241  12.355  69.664  1.00  0.00    -0.106 C  
BRANCH  10  11
HETATM   11  C   UNL     2     -11.769  12.192  68.236  1.00  0.00    -0.401 C  
BRANCH  11  12
HETATM   12  C   UNL     2     -11.597  13.448  67.373  1.00  0.00    -0.394 C  
BRANCH  12  13
HETATM   13  C   UNL     2     -11.119  13.160  65.948  1.00  0.00    -0.278 C  
BRANCH  13  14
HETATM   14  O   UNL     2      -9.852  12.528  66.008  1.00  0.00    -0.254 OA 
HETATM   15  S   UNL     2      -9.565  11.290  64.992  1.00  0.00    -0.220 S  
HETATM   16  O   UNL     2      -8.172  10.940  65.284  1.00  0.00    -0.103 OA 
HETATM   17  O   UNL     2      -9.752  11.864  63.665  1.00  0.00    -0.301 OA 
HETATM   18  O   UNL     2     -10.534  10.278  65.374  1.00  0.00    -0.217 OA 
ENDBRANCH  13  14
ENDBRANCH  12  13
ENDBRANCH  11  12
ENDBRANCH  10  11
ENDBRANCH   9  10
ENDBRANCH   8   9
ENDBRANCH   7   8
ENDBRANCH   6   7
ENDBRANCH   5   6
ENDBRANCH   4   5
ENDBRANCH   3   4
TORSDOF 11
ENDMDL
MODEL      418
REMARK 921   NORMALIZED FREE ENERGY PREDICTED BY IDOCK:   -2.30 KCAL/MOL
REMARK 922        TOTAL FREE ENERGY PREDICTED BY IDOCK:   -5.21 KCAL/MOL
REMARK 923 INTER-LIGAND FREE ENERGY PREDICTED BY IDOCK:   -4.82 KCAL/MOL
REMARK 924 INTRA-LIGAND FREE ENERGY PREDICTED BY IDOCK:   -0.39 KCAL/MOL
REMARK 927      BINDING AFFINITY PREDICTED BY RF-SCORE:    0.00 PKD
ROOT
HETATM    1 NA   UNL     1     -11.300  16.170  63.545  1.00  0.00    -0.694 Na 
HETATM    2  C   UNL     2      -6.348  19.299  66.948  1.00  0.00    -0.184 C  
HETATM    3  C   UNL     2      -7.416  19.040  65.897  1.00  0.00    -0.253 C  
ENDROOT
BRANCH   3   4
HETATM    4  C   UNL     2      -8.783  19.501  66.392  1.00  0.00    -0.389 C  
BRANCH   4   5
HETATM    5  C   UNL     2      -9.125  18.911  67.762  1.00  0.00    -0.322 C  
BRANCH   5   6
HETATM    6  C   UNL     2     -10.353  17.992  67.726  1.00  0.00    -0.403 C  
BRANCH   6   7
HETATM    7  C   UNL     2     -10.516  17.303  66.372  1.00  0.00    -0.263 C  
BRANCH   7   8
HETATM    8  C   UNL     2     -10.260  15.799  66.433  1.00  0.00    -0.304 C  
BRANCH   8   9
HETATM    9  C   UNL     2     -11.358  15.061  67.213  1.00  0.00    -0.337 C  
BRANCH   9  10
HETATM   10  C   UNL     2     -10.853  13.970  68.166  1.00  0.00    -0.260 C  
BRANCH  10  11
HETATM   11  C   UNL     2     -11.590  12.640  67.992  1.00  0.00    -0.394 C  
BRANCH  11  12
HETATM   12  C   UNL     2     -10.680  11.490  67.543  1.00  0.00    -0.267 C  
BRANCH  12  13
HETATM   13  C   UNL     2      -9.803  11.829  66.335  1.00  0.00    -0.214 C  
BRANCH  13  14
HETATM   14  O   UNL     2      -8.624  11.043  66.390  1.00  0.00    -0.155 OA 
HETATM   15  S   UNL     2      -7.474  11.463  67.462  1.00  0.00    -0.120 S  
HETATM   16  O   UNL     2      -6.463  10.415  67.287  1.00  0.00    -0.065 OA 
HETATM   17  O   UNL     2      -8.148  11.407  68.753  1.00  0.00    -0.145 OA 
HETATM   18  O   UNL     2      -7.051  12.785  67.036  1.00  0.00    -0.054 OA 
ENDBRANCH  13  14
ENDBRANCH  12  13
ENDBRANCH  11  12
ENDBRANCH  10  11
ENDBRANCH   9  10
ENDBRANCH   8   9
ENDBRANCH   7   8
ENDBRANCH   6   7
ENDBRANCH   5   6
ENDBRANCH   4   5
ENDBRANCH   3   4
TORSDOF 11
ENDMDL
MODEL      419
REMARK 921   NORMALIZED FREE ENERGY PREDICTED BY IDOCK:   -2.30 KCAL/MOL
REMARK 922        TOTAL FREE ENERGY PREDICTED BY IDOCK:   -5.21 KCAL/MOL
REMARK 923 INTER-LIGAND FREE ENERGY PREDICTED BY IDOCK:   -4.33 KCAL/MOL
REMARK 924 INTRA-LIGAND FREE ENERGY PREDICTED BY IDOCK:   -0.88 KCAL/MOL
REMARK 927      BINDING AFFINITY PREDICTED BY RF-SCORE:    0.00 PKD
ROOT
HETATM    1 NA   UNL     1     -12.569  11.077  70.021  1.00  0.00    -0.262 Na 
HETATM    2  C   UNL     2     -12.398  12.209  63.344  1.00  0.00    -0.648 C  
HETATM    3  C   UNL     2     -12.472  12.484  64.838  1.00  0.00    -0.524 C  
ENDROOT
BRANCH   3   4
HETATM    4  C   UNL     2     -11.072  12.588  65.437  1.00  0.00    -0.337 C  
BRANCH   4   5
HETATM    5  C   UNL     2     -10.117  11.550  64.844  1.00  0.00    -0.314 C  
BRANCH   5   6
HETATM    6  C   UNL     2      -9.387  10.729  65.916  1.00  0.00    -0.220 C  
BRANCH   6   7
HETATM    7  C   UNL     2     -10.340  10.218  66.995  1.00  0.00    -0.299 C  
BRANCH   7   8
HETATM    8  C   UNL     2      -9.714   9.148  67.886  1.00  0.00    -0.182 C  
BRANCH   8   9
HETATM    9  C   UNL     2     -10.740   8.529  68.847  1.00  0.00    -0.100 C  
BRANCH   9  10
HETATM   10  C   UNL     2     -10.792   6.995  68.837  1.00  0.00    -0.203 C  
BRANCH  10  11
HETATM   11  C   UNL     2     -10.720   6.388  70.240  1.00  0.00    -0.322 C  
BRANCH  11  12
HETATM   12  C   UNL     2      -9.513   5.467  70.448  1.00  0.00    -0.215 C  
BRANCH  12  13
HETATM   13  C   UNL     2      -8.349   6.128  71.191  1.00  0.00    -0.124 C  
BRANCH  13  14
HETATM   14  O   UNL     2      -7.743   7.083  70.338  1.00  0.00    -0.092 OA 
HETATM   15  S   UNL     2      -7.328   8.523  70.973  1.00  0.00    -0.083 S  
HETATM   16  O   UNL     2      -6.685   9.207  69.846  1.00  0.00    -0.044 OA 
HETATM   17  O   UNL     2      -6.404   8.188  72.050  1.00  0.00    -0.046 OA 
HETATM   18  O   UNL     2      -8.589   9.108  71.393  1.00  0.00    -0.314 OA 
ENDBRANCH  13  14
ENDBRANCH  12  13
ENDBRANCH  11  12
ENDBRANCH  10  11
ENDBRANCH   9  10
ENDBRANCH   8   9
ENDBRANCH   7   8
ENDBRANCH   6   7
ENDBRANCH   5   6
ENDBRANCH   4   5
ENDBRANCH   3   4
TORSDOF 11
ENDMDL
MODEL      420
REMARK 921   NORMALIZED FREE ENERGY PREDICTED BY IDOCK:   -2.28 KCAL/MOL
REMARK 922        TOTAL FREE ENERGY PREDICTED BY IDOCK:   -5.18 KCAL/MOL
REMARK 923 INTER-LIGAND FREE ENERGY PREDICTED BY IDOCK:   -4.06 KCAL/MOL
REMARK 924 INTRA-LIGAND FREE ENERGY PREDICTED BY IDOCK:   -1.12 KCAL/MOL
REMARK 927      BINDING AFFINITY PREDICTED BY RF-SCORE:    0.00 PKD
ROOT
HETATM    1 NA   UNL     1     -13.296   7.002  71.423  1.00  0.00    -0.306 Na 
HETATM    2  C   UNL     2     -12.070  13.484  69.882  1.00  0.00    -0.408 C  
HETATM    3  C   UNL     2     -11.818  12.013  70.177  1.00  0.00    -0.383 C  
ENDROOT
BRANCH   3   4
HETATM    4  C   UNL     2     -11.961  11.176  68.909  1.00  0.00    -0.367 C  
BRANCH   4   5
HETATM    5  C   UNL     2     -11.378  11.887  67.685  1.00  0.00    -0.372 C  
BRANCH   5   6
HETATM    6  C   UNL     2     -10.588  10.943  66.768  1.00  0.00    -0.313 C  
BRANCH   6   7
HETATM    7  C   UNL     2     -10.899   9.474  67.051  1.00  0.00    -0.125 C  
BRANCH   7   8
HETATM    8  C   UNL     2      -9.649   8.597  67.094  1.00  0.00    -0.227 C  
BRANCH   8   9
HETATM    9  C   UNL     2      -9.453   7.947  68.471  1.00  0.00    -0.148 C  
BRANCH   9  10
HETATM   10  C   UNL     2     -10.750   7.645  69.234  1.00  0.00    -0.169 C  
BRANCH  10  11
HETATM   11  C   UNL     2     -10.984   6.146  69.440  1.00  0.00    -0.454 C  
BRANCH  11  12
HETATM   12  C   UNL     2     -10.545   5.641  70.820  1.00  0.00    -0.335 C  
BRANCH  12  13
HETATM   13  C   UNL     2      -9.284   4.774  70.791  1.00  0.00    -0.139 C  
BRANCH  13  14
HETATM   14  O   UNL     2      -9.091   4.289  69.473  1.00  0.00    -0.098 OA 
HETATM   15  S   UNL     2      -7.565   4.095  68.944  1.00  0.00    -0.054 S  
HETATM   16  O   UNL     2      -7.750   3.529  67.604  1.00  0.00    -0.075 OA 
HETATM   17  O   UNL     2      -6.973   3.157  69.891  1.00  0.00    -0.034 OA 
HETATM   18  O   UNL     2      -7.005   5.434  68.961  1.00  0.00    -0.053 OA 
ENDBRANCH  13  14
ENDBRANCH  12  13
ENDBRANCH  11  12
ENDBRANCH  10  11
ENDBRANCH   9  10
ENDBRANCH   8   9
ENDBRANCH   7   8
ENDBRANCH   6   7
ENDBRANCH   5   6
ENDBRANCH   4   5
ENDBRANCH   3   4
TORSDOF 11
ENDMDL
MODEL      421
REMARK 921   NORMALIZED FREE ENERGY PREDICTED BY IDOCK:   -2.27 KCAL/MOL
REMARK 922        TOTAL FREE ENERGY PREDICTED BY IDOCK:   -5.17 KCAL/MOL
REMARK 923 INTER-LIGAND FREE ENERGY PREDICTED BY IDOCK:   -4.02 KCAL/MOL
REMARK 924 INTRA-LIGAND FREE ENERGY PREDICTED BY IDOCK:   -1.15 KCAL/MOL
REMARK 927      BINDING AFFINITY PREDICTED BY RF-SCORE:    0.00 PKD
ROOT
HETATM    1 NA   UNL     1     -14.279   9.054  70.375  1.00  0.00    -0.584 Na 
HETATM    2  C   UNL     2     -10.723   4.721  74.181  1.00  0.00    -0.329 C  
HETATM    3  C   UNL     2     -11.633   5.239  73.078  1.00  0.00    -0.290 C  
ENDROOT
BRANCH   3   4
HETATM    4  C   UNL     2     -10.815   5.693  71.872  1.00  0.00    -0.302 C  
BRANCH   4   5
HETATM    5  C   UNL     2      -9.362   5.220  71.955  1.00  0.00    -0.167 C  
BRANCH   5   6
HETATM    6  C   UNL     2      -8.831   4.686  70.618  1.00  0.00    -0.141 C  
BRANCH   6   7
HETATM    7  C   UNL     2      -7.710   5.558  70.055  1.00  0.00    -0.078 C  
BRANCH   7   8
HETATM    8  C   UNL     2      -7.275   5.139  68.653  1.00  0.00    -0.062 C  
BRANCH   8   9
HETATM    9  C   UNL     2      -8.326   4.254  67.966  1.00  0.00    -0.097 C  
BRANCH   9  10
HETATM   10  C   UNL     2      -9.018   4.894  66.755  1.00  0.00    -0.110 C  
BRANCH  10  11
HETATM   11  C   UNL     2     -10.533   5.021  66.935  1.00  0.00    -0.243 C  
BRANCH  11  12
HETATM   12  C   UNL     2     -11.016   6.472  67.056  1.00  0.00    -0.466 C  
BRANCH  12  13
HETATM   13  C   UNL     2     -10.884   7.053  68.466  1.00  0.00    -0.138 C  
BRANCH  13  14
HETATM   14  O   UNL     2      -9.817   7.986  68.478  1.00  0.00    -0.165 OA 
HETATM   15  S   UNL     2     -10.173   9.553  68.737  1.00  0.00    -0.205 S  
HETATM   16  O   UNL     2      -8.854  10.193  68.749  1.00  0.00    -0.131 OA 
HETATM   17  O   UNL     2     -10.833   9.562  70.036  1.00  0.00    -0.227 OA 
HETATM   18  O   UNL     2     -11.011   9.922  67.610  1.00  0.00    -0.289 OA 
ENDBRANCH  13  14
ENDBRANCH  12  13
ENDBRANCH  11  12
ENDBRANCH  10  11
ENDBRANCH   9  10
ENDBRANCH   8   9
ENDBRANCH   7   8
ENDBRANCH   6   7
ENDBRANCH   5   6
ENDBRANCH   4   5
ENDBRANCH   3   4
TORSDOF 11
ENDMDL
MODEL      422
REMARK 921   NORMALIZED FREE ENERGY PREDICTED BY IDOCK:   -2.27 KCAL/MOL
REMARK 922        TOTAL FREE ENERGY PREDICTED BY IDOCK:   -5.17 KCAL/MOL
REMARK 923 INTER-LIGAND FREE ENERGY PREDICTED BY IDOCK:   -3.92 KCAL/MOL
REMARK 924 INTRA-LIGAND FREE ENERGY PREDICTED BY IDOCK:   -1.25 KCAL/MOL
REMARK 927      BINDING AFFINITY PREDICTED BY RF-SCORE:    0.00 PKD
ROOT
HETATM    1 NA   UNL     1      -8.288  11.945  62.427  1.00  0.00    -0.410 Na 
HETATM    2  C   UNL     2      -6.132  14.142  68.461  1.00  0.00    -0.091 C  
HETATM    3  C   UNL     2      -6.936  13.371  67.426  1.00  0.00    -0.098 C  
ENDROOT
BRANCH   3   4
HETATM    4  C   UNL     2      -6.217  12.083  67.034  1.00  0.00    -0.130 C  
BRANCH   4   5
HETATM    5  C   UNL     2      -6.930  10.842  67.576  1.00  0.00    -0.084 C  
BRANCH   5   6
HETATM    6  C   UNL     2      -8.235  10.531  66.832  1.00  0.00    -0.123 C  
BRANCH   6   7
HETATM    7  C   UNL     2      -9.072   9.477  67.556  1.00  0.00    -0.142 C  
BRANCH   7   8
HETATM    8  C   UNL     2      -9.452   9.889  68.976  1.00  0.00    -0.185 C  
BRANCH   8   9
HETATM    9  C   UNL     2     -10.096  11.282  69.016  1.00  0.00    -0.147 C  
BRANCH   9  10
HETATM   10  C   UNL     2     -11.500  11.363  68.402  1.00  0.00    -0.367 C  
BRANCH  10  11
HETATM   11  C   UNL     2     -11.900  12.790  68.017  1.00  0.00    -0.386 C  
BRANCH  11  12
HETATM   12  C   UNL     2     -10.709  13.677  67.634  1.00  0.00    -0.253 C  
BRANCH  12  13
HETATM   13  C   UNL     2     -10.963  15.174  67.829  1.00  0.00    -0.306 C  
BRANCH  13  14
HETATM   14  O   UNL     2      -9.729  15.817  68.096  1.00  0.00    -0.209 OA 
HETATM   15  S   UNL     2      -9.114  16.797  66.952  1.00  0.00    -0.241 S  
HETATM   16  O   UNL     2      -7.902  17.324  67.587  1.00  0.00    -0.178 OA 
HETATM   17  O   UNL     2     -10.146  17.806  66.749  1.00  0.00    -0.317 OA 
HETATM   18  O   UNL     2      -8.869  15.921  65.820  1.00  0.00    -0.252 OA 
ENDBRANCH  13  14
ENDBRANCH  12  13
ENDBRANCH  11  12
ENDBRANCH  10  11
ENDBRANCH   9  10
ENDBRANCH   8   9
ENDBRANCH   7   8
ENDBRANCH   6   7
ENDBRANCH   5   6
ENDBRANCH   4   5
ENDBRANCH   3   4
TORSDOF 11
ENDMDL
MODEL      423
REMARK 921   NORMALIZED FREE ENERGY PREDICTED BY IDOCK:   -2.26 KCAL/MOL
REMARK 922        TOTAL FREE ENERGY PREDICTED BY IDOCK:   -5.14 KCAL/MOL
REMARK 923 INTER-LIGAND FREE ENERGY PREDICTED BY IDOCK:   -4.40 KCAL/MOL
REMARK 924 INTRA-LIGAND FREE ENERGY PREDICTED BY IDOCK:   -0.75 KCAL/MOL
REMARK 927      BINDING AFFINITY PREDICTED BY RF-SCORE:    0.00 PKD
ROOT
HETATM    1 NA   UNL     1     -11.568  13.239  71.108  1.00  0.00    -0.458 Na 
HETATM    2  C   UNL     2     -10.945   6.694  72.743  1.00  0.00    -0.291 C  
HETATM    3  C   UNL     2     -11.518   7.967  72.141  1.00  0.00    -0.393 C  
ENDROOT
BRANCH   3   4
HETATM    4  C   UNL     2     -10.904   8.241  70.771  1.00  0.00    -0.252 C  
BRANCH   4   5
HETATM    5  C   UNL     2     -10.071   9.525  70.763  1.00  0.00    -0.352 C  
BRANCH   5   6
HETATM    6  C   UNL     2     -10.533  10.528  69.698  1.00  0.00    -0.257 C  
BRANCH   6   7
HETATM    7  C   UNL     2      -9.758  10.374  68.390  1.00  0.00    -0.167 C  
BRANCH   7   8
HETATM    8  C   UNL     2      -8.316  10.869  68.488  1.00  0.00    -0.142 C  
BRANCH   8   9
HETATM    9  C   UNL     2      -8.036  12.018  67.509  1.00  0.00    -0.159 C  
BRANCH   9  10
HETATM   10  C   UNL     2      -6.859  12.924  67.894  1.00  0.00    -0.120 C  
BRANCH  10  11
HETATM   11  C   UNL     2      -7.227  13.956  68.963  1.00  0.00    -0.078 C  
BRANCH  11  12
HETATM   12  C   UNL     2      -7.339  15.386  68.421  1.00  0.00    -0.114 C  
BRANCH  12  13
HETATM   13  C   UNL     2      -8.389  15.551  67.318  1.00  0.00    -0.193 C  
BRANCH  13  14
HETATM   14  O   UNL     2      -9.548  16.146  67.875  1.00  0.00    -0.220 OA 
HETATM   15  S   UNL     2     -10.948  15.319  67.794  1.00  0.00    -0.320 S  
HETATM   16  O   UNL     2     -11.886  16.188  68.511  1.00  0.00    -0.300 OA 
HETATM   17  O   UNL     2     -10.668  14.070  68.492  1.00  0.00    -0.242 OA 
HETATM   18  O   UNL     2     -11.210  15.192  66.372  1.00  0.00    -0.339 OA 
ENDBRANCH  13  14
ENDBRANCH  12  13
ENDBRANCH  11  12
ENDBRANCH  10  11
ENDBRANCH   9  10
ENDBRANCH   8   9
ENDBRANCH   7   8
ENDBRANCH   6   7
ENDBRANCH   5   6
ENDBRANCH   4   5
ENDBRANCH   3   4
TORSDOF 11
ENDMDL
MODEL      424
REMARK 921   NORMALIZED FREE ENERGY PREDICTED BY IDOCK:   -2.25 KCAL/MOL
REMARK 922        TOTAL FREE ENERGY PREDICTED BY IDOCK:   -5.14 KCAL/MOL
REMARK 923 INTER-LIGAND FREE ENERGY PREDICTED BY IDOCK:   -4.05 KCAL/MOL
REMARK 924 INTRA-LIGAND FREE ENERGY PREDICTED BY IDOCK:   -1.09 KCAL/MOL
REMARK 927      BINDING AFFINITY PREDICTED BY RF-SCORE:    0.00 PKD
ROOT
HETATM    1 NA   UNL     1      -5.943  15.429  74.447  1.00  0.00    -0.342 Na 
HETATM    2  C   UNL     2      -7.223  14.061  67.936  1.00  0.00    -0.164 C  
HETATM    3  C   UNL     2      -7.436  14.196  69.436  1.00  0.00     0.080 C  
ENDROOT
BRANCH   3   4
HETATM    4  C   UNL     2      -7.898  15.607  69.791  1.00  0.00     0.023 C  
BRANCH   4   5
HETATM    5  C   UNL     2      -8.502  16.331  68.586  1.00  0.00    -0.221 C  
BRANCH   5   6
HETATM    6  C   UNL     2     -10.017  16.535  68.710  1.00  0.00    -0.255 C  
BRANCH   6   7
HETATM    7  C   UNL     2     -10.552  16.058  70.060  1.00  0.00    -0.297 C  
BRANCH   7   8
HETATM    8  C   UNL     2     -11.364  14.769  69.958  1.00  0.00    -0.306 C  
BRANCH   8   9
HETATM    9  C   UNL     2     -11.306  14.163  68.548  1.00  0.00    -0.312 C  
BRANCH   9  10
HETATM   10  C   UNL     2     -10.660  12.774  68.467  1.00  0.00    -0.270 C  
BRANCH  10  11
HETATM   11  C   UNL     2     -11.689  11.643  68.392  1.00  0.00    -0.374 C  
BRANCH  11  12
HETATM   12  C   UNL     2     -11.126  10.274  68.794  1.00  0.00    -0.276 C  
BRANCH  12  13
HETATM   13  C   UNL     2     -10.831  10.140  70.290  1.00  0.00    -0.310 C  
BRANCH  13  14
HETATM   14  O   UNL     2     -10.663   8.768  70.602  1.00  0.00    -0.209 OA 
HETATM   15  S   UNL     2      -9.156   8.228  70.893  1.00  0.00    -0.161 S  
HETATM   16  O   UNL     2      -9.371   6.820  71.239  1.00  0.00    -0.164 OA 
HETATM   17  O   UNL     2      -8.695   9.036  72.016  1.00  0.00    -0.367 OA 
HETATM   18  O   UNL     2      -8.450   8.441  69.642  1.00  0.00    -0.123 OA 
ENDBRANCH  13  14
ENDBRANCH  12  13
ENDBRANCH  11  12
ENDBRANCH  10  11
ENDBRANCH   9  10
ENDBRANCH   8   9
ENDBRANCH   7   8
ENDBRANCH   6   7
ENDBRANCH   5   6
ENDBRANCH   4   5
ENDBRANCH   3   4
TORSDOF 11
ENDMDL
MODEL      425
REMARK 921   NORMALIZED FREE ENERGY PREDICTED BY IDOCK:   -2.25 KCAL/MOL
REMARK 922        TOTAL FREE ENERGY PREDICTED BY IDOCK:   -5.12 KCAL/MOL
REMARK 923 INTER-LIGAND FREE ENERGY PREDICTED BY IDOCK:   -4.58 KCAL/MOL
REMARK 924 INTRA-LIGAND FREE ENERGY PREDICTED BY IDOCK:   -0.54 KCAL/MOL
REMARK 927      BINDING AFFINITY PREDICTED BY RF-SCORE:    0.00 PKD
ROOT
HETATM    1 NA   UNL     1      -9.930   8.431  73.279  1.00  0.00    -0.256 Na 
HETATM    2  C   UNL     2      -9.329   2.280  70.504  1.00  0.00    -0.198 C  
HETATM    3  C   UNL     2      -9.415   3.795  70.616  1.00  0.00    -0.240 C  
ENDROOT
BRANCH   3   4
HETATM    4  C   UNL     2      -8.040   4.393  70.902  1.00  0.00    -0.068 C  
BRANCH   4   5
HETATM    5  C   UNL     2      -7.316   4.804  69.618  1.00  0.00    -0.055 C  
BRANCH   5   6
HETATM    6  C   UNL     2      -7.380   6.314  69.354  1.00  0.00    -0.091 C  
BRANCH   6   7
HETATM    7  C   UNL     2      -8.410   7.009  70.243  1.00  0.00    -0.133 C  
BRANCH   7   8
HETATM    8  C   UNL     2      -9.375   7.895  69.458  1.00  0.00    -0.156 C  
BRANCH   8   9
HETATM    9  C   UNL     2      -9.178   7.754  67.941  1.00  0.00    -0.141 C  
BRANCH   9  10
HETATM   10  C   UNL     2     -10.405   8.116  67.094  1.00  0.00    -0.391 C  
BRANCH  10  11
HETATM   11  C   UNL     2     -10.159   9.314  66.173  1.00  0.00    -0.304 C  
BRANCH  11  12
HETATM   12  C   UNL     2     -10.430  10.667  66.842  1.00  0.00    -0.304 C  
BRANCH  12  13
HETATM   13  C   UNL     2     -11.196  11.654  65.958  1.00  0.00    -0.240 C  
BRANCH  13  14
HETATM   14  O   UNL     2     -11.138  12.940  66.550  1.00  0.00    -0.274 OA 
HETATM   15  S   UNL     2     -11.613  14.216  65.658  1.00  0.00    -0.349 S  
HETATM   16  O   UNL     2     -11.485  15.338  66.594  1.00  0.00    -0.250 OA 
HETATM   17  O   UNL     2     -12.995  13.913  65.305  1.00  0.00    -0.747 OA 
HETATM   18  O   UNL     2     -10.678  14.247  64.548  1.00  0.00    -0.388 OA 
ENDBRANCH  13  14
ENDBRANCH  12  13
ENDBRANCH  11  12
ENDBRANCH  10  11
ENDBRANCH   9  10
ENDBRANCH   8   9
ENDBRANCH   7   8
ENDBRANCH   6   7
ENDBRANCH   5   6
ENDBRANCH   4   5
ENDBRANCH   3   4
TORSDOF 11
ENDMDL
MODEL      426
REMARK 921   NORMALIZED FREE ENERGY PREDICTED BY IDOCK:   -2.24 KCAL/MOL
REMARK 922        TOTAL FREE ENERGY PREDICTED BY IDOCK:   -5.12 KCAL/MOL
REMARK 923 INTER-LIGAND FREE ENERGY PREDICTED BY IDOCK:   -4.22 KCAL/MOL
REMARK 924 INTRA-LIGAND FREE ENERGY PREDICTED BY IDOCK:   -0.89 KCAL/MOL
REMARK 927      BINDING AFFINITY PREDICTED BY RF-SCORE:    0.00 PKD
ROOT
HETATM    1 NA   UNL     1     -12.590  11.068  70.017  1.00  0.00    -0.262 Na 
HETATM    2  C   UNL     2     -12.492  12.269  63.350  1.00  0.00    -0.592 C  
HETATM    3  C   UNL     2     -12.489  12.529  64.849  1.00  0.00    -0.524 C  
ENDROOT
BRANCH   3   4
HETATM    4  C   UNL     2     -11.069  12.462  65.405  1.00  0.00    -0.344 C  
BRANCH   4   5
HETATM    5  C   UNL     2     -10.254  11.339  64.760  1.00  0.00    -0.347 C  
BRANCH   5   6
HETATM    6  C   UNL     2      -9.755  10.305  65.777  1.00  0.00    -0.297 C  
BRANCH   6   7
HETATM    7  C   UNL     2     -10.866   9.845  66.720  1.00  0.00    -0.085 C  
BRANCH   7   8
HETATM    8  C   UNL     2     -10.523   8.555  67.462  1.00  0.00    -0.328 C  
BRANCH   8   9
HETATM    9  C   UNL     2      -9.127   8.613  68.099  1.00  0.00    -0.142 C  
BRANCH   9  10
HETATM   10  C   UNL     2      -9.086   8.281  69.597  1.00  0.00    -0.154 C  
BRANCH  10  11
HETATM   11  C   UNL     2      -8.005   7.257  69.950  1.00  0.00    -0.122 C  
BRANCH  11  12
HETATM   12  C   UNL     2      -8.558   5.980  70.594  1.00  0.00    -0.134 C  
BRANCH  12  13
HETATM   13  C   UNL     2      -8.687   4.802  69.625  1.00  0.00    -0.085 C  
BRANCH  13  14
HETATM   14  O   UNL     2      -9.750   5.063  68.725  1.00  0.00    -0.140 OA 
HETATM   15  S   UNL     2      -9.524   4.715  67.151  1.00  0.00    -0.166 S  
HETATM   16  O   UNL     2     -10.822   5.043  66.552  1.00  0.00    -0.226 OA 
HETATM   17  O   UNL     2      -9.225   3.289  67.138  1.00  0.00    -0.165 OA 
HETATM   18  O   UNL     2      -8.435   5.584  66.743  1.00  0.00    -0.111 OA 
ENDBRANCH  13  14
ENDBRANCH  12  13
ENDBRANCH  11  12
ENDBRANCH  10  11
ENDBRANCH   9  10
ENDBRANCH   8   9
ENDBRANCH   7   8
ENDBRANCH   6   7
ENDBRANCH   5   6
ENDBRANCH   4   5
ENDBRANCH   3   4
TORSDOF 11
ENDMDL
MODEL      427
REMARK 921   NORMALIZED FREE ENERGY PREDICTED BY IDOCK:   -2.23 KCAL/MOL
REMARK 922        TOTAL FREE ENERGY PREDICTED BY IDOCK:   -5.10 KCAL/MOL
REMARK 923 INTER-LIGAND FREE ENERGY PREDICTED BY IDOCK:   -4.46 KCAL/MOL
REMARK 924 INTRA-LIGAND FREE ENERGY PREDICTED BY IDOCK:   -0.64 KCAL/MOL
REMARK 927      BINDING AFFINITY PREDICTED BY RF-SCORE:    0.00 PKD
ROOT
HETATM    1 NA   UNL     1      -6.690  12.001  70.932  1.00  0.00    -0.282 Na 
HETATM    2  C   UNL     2     -11.902  14.203  67.207  1.00  0.00    -0.452 C  
HETATM    3  C   UNL     2     -10.504  14.122  67.801  1.00  0.00    -0.246 C  
ENDROOT
BRANCH   3   4
HETATM    4  C   UNL     2      -9.629  13.170  66.991  1.00  0.00    -0.241 C  
BRANCH   4   5
HETATM    5  C   UNL     2      -8.882  12.179  67.886  1.00  0.00    -0.177 C  
BRANCH   5   6
HETATM    6  C   UNL     2      -8.997  10.729  67.396  1.00  0.00    -0.141 C  
BRANCH   6   7
HETATM    7  C   UNL     2      -9.434   9.779  68.510  1.00  0.00    -0.148 C  
BRANCH   7   8
HETATM    8  C   UNL     2     -10.242  10.474  69.604  1.00  0.00    -0.207 C  
BRANCH   8   9
HETATM    9  C   UNL     2     -11.446   9.632  70.050  1.00  0.00    -0.191 C  
BRANCH   9  10
HETATM   10  C   UNL     2     -11.652   9.552  71.569  1.00  0.00    -0.465 C  
BRANCH  10  11
HETATM   11  C   UNL     2     -12.763   8.576  71.968  1.00  0.00    -0.421 C  
BRANCH  11  12
HETATM   12  C   UNL     2     -12.342   7.104  71.887  1.00  0.00    -0.352 C  
BRANCH  12  13
HETATM   13  C   UNL     2     -11.070   6.778  72.675  1.00  0.00    -0.265 C  
BRANCH  13  14
HETATM   14  O   UNL     2     -11.221   5.508  73.285  1.00  0.00    -0.286 OA 
HETATM   15  S   UNL     2      -9.982   4.458  73.182  1.00  0.00    -0.151 S  
HETATM   16  O   UNL     2     -10.457   3.311  73.963  1.00  0.00    -0.152 OA 
HETATM   17  O   UNL     2      -8.865   5.158  73.803  1.00  0.00    -0.118 OA 
HETATM   18  O   UNL     2      -9.844   4.202  71.759  1.00  0.00    -0.166 OA 
ENDBRANCH  13  14
ENDBRANCH  12  13
ENDBRANCH  11  12
ENDBRANCH  10  11
ENDBRANCH   9  10
ENDBRANCH   8   9
ENDBRANCH   7   8
ENDBRANCH   6   7
ENDBRANCH   5   6
ENDBRANCH   4   5
ENDBRANCH   3   4
TORSDOF 11
ENDMDL
MODEL      428
REMARK 921   NORMALIZED FREE ENERGY PREDICTED BY IDOCK:   -2.23 KCAL/MOL
REMARK 922        TOTAL FREE ENERGY PREDICTED BY IDOCK:   -5.10 KCAL/MOL
REMARK 923 INTER-LIGAND FREE ENERGY PREDICTED BY IDOCK:   -4.51 KCAL/MOL
REMARK 924 INTRA-LIGAND FREE ENERGY PREDICTED BY IDOCK:   -0.58 KCAL/MOL
REMARK 927      BINDING AFFINITY PREDICTED BY RF-SCORE:    0.00 PKD
ROOT
HETATM    1 NA   UNL     1     -13.092  16.547  71.392  1.00  0.00    -0.533 Na 
HETATM    2  C   UNL     2     -10.602  15.251  65.226  1.00  0.00    -0.438 C  
HETATM    3  C   UNL     2     -10.848  15.129  66.722  1.00  0.00    -0.322 C  
ENDROOT
BRANCH   3   4
HETATM    4  C   UNL     2     -12.078  14.268  66.997  1.00  0.00    -0.424 C  
BRANCH   4   5
HETATM    5  C   UNL     2     -11.903  12.838  66.481  1.00  0.00    -0.471 C  
BRANCH   5   6
HETATM    6  C   UNL     2     -11.806  11.804  67.611  1.00  0.00    -0.241 C  
BRANCH   6   7
HETATM    7  C   UNL     2     -10.487  11.034  67.572  1.00  0.00    -0.244 C  
BRANCH   7   8
HETATM    8  C   UNL     2     -10.681   9.520  67.511  1.00  0.00    -0.311 C  
BRANCH   8   9
HETATM    9  C   UNL     2      -9.989   8.902  66.287  1.00  0.00    -0.337 C  
BRANCH   9  10
HETATM   10  C   UNL     2      -9.039   7.738  66.601  1.00  0.00    -0.195 C  
BRANCH  10  11
HETATM   11  C   UNL     2      -9.022   7.368  68.086  1.00  0.00    -0.129 C  
BRANCH  11  12
HETATM   12  C   UNL     2      -8.448   5.973  68.363  1.00  0.00    -0.112 C  
BRANCH  12  13
HETATM   13  C   UNL     2      -9.245   5.167  69.392  1.00  0.00    -0.112 C  
BRANCH  13  14
HETATM   14  O   UNL     2      -8.408   4.886  70.501  1.00  0.00    -0.092 OA 
HETATM   15  S   UNL     2      -8.885   5.399  71.970  1.00  0.00    -0.134 S  
HETATM   16  O   UNL     2      -7.837   4.882  72.855  1.00  0.00    -0.092 OA 
HETATM   17  O   UNL     2     -10.180   4.759  72.171  1.00  0.00    -0.185 OA 
HETATM   18  O   UNL     2      -8.917   6.845  71.853  1.00  0.00    -0.137 OA 
ENDBRANCH  13  14
ENDBRANCH  12  13
ENDBRANCH  11  12
ENDBRANCH  10  11
ENDBRANCH   9  10
ENDBRANCH   8   9
ENDBRANCH   7   8
ENDBRANCH   6   7
ENDBRANCH   5   6
ENDBRANCH   4   5
ENDBRANCH   3   4
TORSDOF 11
ENDMDL
MODEL      429
REMARK 921   NORMALIZED FREE ENERGY PREDICTED BY IDOCK:   -2.23 KCAL/MOL
REMARK 922        TOTAL FREE ENERGY PREDICTED BY IDOCK:   -5.09 KCAL/MOL
REMARK 923 INTER-LIGAND FREE ENERGY PREDICTED BY IDOCK:   -4.25 KCAL/MOL
REMARK 924 INTRA-LIGAND FREE ENERGY PREDICTED BY IDOCK:   -0.85 KCAL/MOL
REMARK 927      BINDING AFFINITY PREDICTED BY RF-SCORE:    0.00 PKD
ROOT
HETATM    1 NA   UNL     1      -9.274  13.116  63.670  1.00  0.00    -0.476 Na 
HETATM    2  C   UNL     2     -11.700  13.506  69.983  1.00  0.00    -0.311 C  
HETATM    3  C   UNL     2     -10.907  13.856  68.734  1.00  0.00    -0.282 C  
ENDROOT
BRANCH   3   4
HETATM    4  C   UNL     2     -11.746  14.702  67.781  1.00  0.00    -0.386 C  
BRANCH   4   5
HETATM    5  C   UNL     2     -11.731  14.146  66.355  1.00  0.00    -0.404 C  
BRANCH   5   6
HETATM    6  C   UNL     2     -11.977  12.633  66.303  1.00  0.00    -0.439 C  
BRANCH   6   7
HETATM    7  C   UNL     2     -10.832  11.889  65.616  1.00  0.00    -0.333 C  
BRANCH   7   8
HETATM    8  C   UNL     2     -10.026  11.017  66.576  1.00  0.00    -0.253 C  
BRANCH   8   9
HETATM    9  C   UNL     2     -10.870  10.545  67.769  1.00  0.00    -0.347 C  
BRANCH   9  10
HETATM   10  C   UNL     2     -10.067  10.167  69.020  1.00  0.00    -0.216 C  
BRANCH  10  11
HETATM   11  C   UNL     2     -10.157   8.676  69.357  1.00  0.00    -0.204 C  
BRANCH  11  12
HETATM   12  C   UNL     2      -9.410   7.778  68.363  1.00  0.00    -0.143 C  
BRANCH  12  13
HETATM   13  C   UNL     2      -7.885   7.870  68.469  1.00  0.00    -0.119 C  
BRANCH  13  14
HETATM   14  O   UNL     2      -7.328   7.758  67.171  1.00  0.00    -0.087 OA 
HETATM   15  S   UNL     2      -6.350   8.950  66.652  1.00  0.00    -0.063 S  
HETATM   16  O   UNL     2      -5.920   8.473  65.334  1.00  0.00    -0.047 OA 
HETATM   17  O   UNL     2      -5.274   8.986  67.634  1.00  0.00    -0.034 OA 
HETATM   18  O   UNL     2      -7.202  10.126  66.618  1.00  0.00    -0.099 OA 
ENDBRANCH  13  14
ENDBRANCH  12  13
ENDBRANCH  11  12
ENDBRANCH  10  11
ENDBRANCH   9  10
ENDBRANCH   8   9
ENDBRANCH   7   8
ENDBRANCH   6   7
ENDBRANCH   5   6
ENDBRANCH   4   5
ENDBRANCH   3   4
TORSDOF 11
ENDMDL
MODEL      430
REMARK 921   NORMALIZED FREE ENERGY PREDICTED BY IDOCK:   -2.22 KCAL/MOL
REMARK 922        TOTAL FREE ENERGY PREDICTED BY IDOCK:   -5.09 KCAL/MOL
REMARK 923 INTER-LIGAND FREE ENERGY PREDICTED BY IDOCK:   -4.52 KCAL/MOL
REMARK 924 INTRA-LIGAND FREE ENERGY PREDICTED BY IDOCK:   -0.56 KCAL/MOL
REMARK 927      BINDING AFFINITY PREDICTED BY RF-SCORE:    0.00 PKD
ROOT
HETATM    1 NA   UNL     1     -12.714   6.549  69.354  1.00  0.00    -0.570 Na 
HETATM    2  C   UNL     2      -8.170   8.277  74.072  1.00  0.00    -0.271 C  
HETATM    3  C   UNL     2      -8.883   7.457  73.008  1.00  0.00    -0.184 C  
ENDROOT
BRANCH   3   4
HETATM    4  C   UNL     2      -8.379   7.826  71.615  1.00  0.00    -0.125 C  
BRANCH   4   5
HETATM    5  C   UNL     2      -9.502   8.362  70.724  1.00  0.00    -0.199 C  
BRANCH   5   6
HETATM    6  C   UNL     2      -9.243   9.793  70.235  1.00  0.00    -0.225 C  
BRANCH   6   7
HETATM    7  C   UNL     2      -9.412   9.922  68.722  1.00  0.00    -0.157 C  
BRANCH   7   8
HETATM    8  C   UNL     2      -9.115  11.329  68.206  1.00  0.00    -0.173 C  
BRANCH   8   9
HETATM    9  C   UNL     2     -10.385  12.040  67.716  1.00  0.00    -0.210 C  
BRANCH   9  10
HETATM   10  C   UNL     2     -10.852  13.207  68.596  1.00  0.00    -0.287 C  
BRANCH  10  11
HETATM   11  C   UNL     2     -11.189  14.463  67.788  1.00  0.00    -0.316 C  
BRANCH  11  12
HETATM   12  C   UNL     2     -11.765  15.602  68.638  1.00  0.00    -0.364 C  
BRANCH  12  13
HETATM   13  C   UNL     2     -10.865  16.838  68.711  1.00  0.00    -0.318 C  
BRANCH  13  14
HETATM   14  O   UNL     2      -9.814  16.696  67.771  1.00  0.00    -0.244 OA 
HETATM   15  S   UNL     2      -8.283  16.809  68.310  1.00  0.00    -0.213 S  
HETATM   16  O   UNL     2      -7.490  16.550  67.105  1.00  0.00    -0.146 OA 
HETATM   17  O   UNL     2      -8.176  15.755  69.311  1.00  0.00    -0.228 OA 
HETATM   18  O   UNL     2      -8.180  18.165  68.820  1.00  0.00    -0.296 OA 
ENDBRANCH  13  14
ENDBRANCH  12  13
ENDBRANCH  11  12
ENDBRANCH  10  11
ENDBRANCH   9  10
ENDBRANCH   8   9
ENDBRANCH   7   8
ENDBRANCH   6   7
ENDBRANCH   5   6
ENDBRANCH   4   5
ENDBRANCH   3   4
TORSDOF 11
ENDMDL
MODEL      431
REMARK 921   NORMALIZED FREE ENERGY PREDICTED BY IDOCK:   -2.22 KCAL/MOL
REMARK 922        TOTAL FREE ENERGY PREDICTED BY IDOCK:   -5.07 KCAL/MOL
REMARK 923 INTER-LIGAND FREE ENERGY PREDICTED BY IDOCK:   -3.99 KCAL/MOL
REMARK 924 INTRA-LIGAND FREE ENERGY PREDICTED BY IDOCK:   -1.09 KCAL/MOL
REMARK 927      BINDING AFFINITY PREDICTED BY RF-SCORE:    0.00 PKD
ROOT
HETATM    1 NA   UNL     1      -8.727  12.356  62.976  1.00  0.00    -0.457 Na 
HETATM    2  C   UNL     2      -7.905  18.116  66.446  1.00  0.00    -0.295 C  
HETATM    3  C   UNL     2      -8.512  16.800  65.986  1.00  0.00    -0.201 C  
ENDROOT
BRANCH   3   4
HETATM    4  C   UNL     2      -7.886  15.626  66.735  1.00  0.00    -0.211 C  
BRANCH   4   5
HETATM    5  C   UNL     2      -8.942  14.754  67.418  1.00  0.00    -0.200 C  
BRANCH   5   6
HETATM    6  C   UNL     2     -10.363  15.030  66.910  1.00  0.00    -0.266 C  
BRANCH   6   7
HETATM    7  C   UNL     2     -11.426  14.373  67.791  1.00  0.00    -0.360 C  
BRANCH   7   8
HETATM    8  C   UNL     2     -12.272  13.347  67.039  1.00  0.00    -0.321 C  
BRANCH   8   9
HETATM    9  C   UNL     2     -11.713  11.924  67.186  1.00  0.00    -0.311 C  
BRANCH   9  10
HETATM   10  C   UNL     2     -10.991  11.647  68.512  1.00  0.00    -0.264 C  
BRANCH  10  11
HETATM   11  C   UNL     2      -9.492  11.393  68.330  1.00  0.00    -0.194 C  
BRANCH  11  12
HETATM   12  C   UNL     2      -9.176  10.322  67.279  1.00  0.00    -0.157 C  
BRANCH  12  13
HETATM   13  C   UNL     2      -8.674  10.888  65.948  1.00  0.00    -0.183 C  
BRANCH  13  14
HETATM   14  O   UNL     2      -7.530  10.157  65.542  1.00  0.00    -0.133 OA 
HETATM   15  S   UNL     2      -7.689   9.110  64.307  1.00  0.00    -0.128 S  
HETATM   16  O   UNL     2      -6.325   8.603  64.126  1.00  0.00    -0.071 OA 
HETATM   17  O   UNL     2      -8.153   9.933  63.196  1.00  0.00    -0.135 OA 
HETATM   18  O   UNL     2      -8.639   8.125  64.790  1.00  0.00    -0.102 OA 
ENDBRANCH  13  14
ENDBRANCH  12  13
ENDBRANCH  11  12
ENDBRANCH  10  11
ENDBRANCH   9  10
ENDBRANCH   8   9
ENDBRANCH   7   8
ENDBRANCH   6   7
ENDBRANCH   5   6
ENDBRANCH   4   5
ENDBRANCH   3   4
TORSDOF 11
ENDMDL
MODEL      432
REMARK 921   NORMALIZED FREE ENERGY PREDICTED BY IDOCK:   -2.20 KCAL/MOL
REMARK 922        TOTAL FREE ENERGY PREDICTED BY IDOCK:   -5.05 KCAL/MOL
REMARK 923 INTER-LIGAND FREE ENERGY PREDICTED BY IDOCK:   -3.11 KCAL/MOL
REMARK 924 INTRA-LIGAND FREE ENERGY PREDICTED BY IDOCK:   -1.95 KCAL/MOL
REMARK 927      BINDING AFFINITY PREDICTED BY RF-SCORE:    0.00 PKD
ROOT
HETATM    1 NA   UNL     1     -11.646   8.631  71.729  1.00  0.00    -0.241 Na 
HETATM    2  C   UNL     2      -6.491   5.556  68.588  1.00  0.00    -0.043 C  
HETATM    3  C   UNL     2      -7.278   6.277  69.672  1.00  0.00    -0.078 C  
ENDROOT
BRANCH   3   4
HETATM    4  C   UNL     2      -8.061   5.281  70.523  1.00  0.00    -0.104 C  
BRANCH   4   5
HETATM    5  C   UNL     2      -7.970   3.857  69.968  1.00  0.00    -0.053 C  
BRANCH   5   6
HETATM    6  C   UNL     2      -9.345   3.204  69.774  1.00  0.00    -0.223 C  
BRANCH   6   7
HETATM    7  C   UNL     2      -9.414   2.381  68.489  1.00  0.00    -0.209 C  
BRANCH   7   8
HETATM    8  C   UNL     2      -8.631   3.007  67.337  1.00  0.00    -0.119 C  
BRANCH   8   9
HETATM    9  C   UNL     2      -9.550   3.435  66.184  1.00  0.00    -0.064 C  
BRANCH   9  10
HETATM   10  C   UNL     2      -9.490   4.926  65.829  1.00  0.00    -0.172 C  
BRANCH  10  11
HETATM   11  C   UNL     2     -10.098   5.821  66.913  1.00  0.00    -0.231 C  
BRANCH  11  12
HETATM   12  C   UNL     2      -9.678   7.291  66.799  1.00  0.00    -0.260 C  
BRANCH  12  13
HETATM   13  C   UNL     2     -10.516   8.243  67.656  1.00  0.00    -0.235 C  
BRANCH  13  14
HETATM   14  O   UNL     2      -9.962   8.296  68.959  1.00  0.00    -0.179 OA 
HETATM   15  S   UNL     2      -9.934   9.733  69.722  1.00  0.00    -0.249 S  
HETATM   16  O   UNL     2      -9.370   9.400  71.033  1.00  0.00    -0.240 OA 
HETATM   17  O   UNL     2     -11.334  10.136  69.780  1.00  0.00    -0.248 OA 
HETATM   18  O   UNL     2      -9.081  10.565  68.892  1.00  0.00    -0.161 OA 
ENDBRANCH  13  14
ENDBRANCH  12  13
ENDBRANCH  11  12
ENDBRANCH  10  11
ENDBRANCH   9  10
ENDBRANCH   8   9
ENDBRANCH   7   8
ENDBRANCH   6   7
ENDBRANCH   5   6
ENDBRANCH   4   5
ENDBRANCH   3   4
TORSDOF 11
ENDMDL
MODEL      433
REMARK 921   NORMALIZED FREE ENERGY PREDICTED BY IDOCK:   -2.20 KCAL/MOL
REMARK 922        TOTAL FREE ENERGY PREDICTED BY IDOCK:   -5.05 KCAL/MOL
REMARK 923 INTER-LIGAND FREE ENERGY PREDICTED BY IDOCK:   -4.23 KCAL/MOL
REMARK 924 INTRA-LIGAND FREE ENERGY PREDICTED BY IDOCK:   -0.82 KCAL/MOL
REMARK 927      BINDING AFFINITY PREDICTED BY RF-SCORE:    0.00 PKD
ROOT
HETATM    1 NA   UNL     1     -13.457  10.169  69.560  1.00  0.00    -0.600 Na 
HETATM    2  C   UNL     2     -12.279  13.823  63.979  1.00  0.00    -0.429 C  
HETATM    3  C   UNL     2     -12.598  13.492  65.428  1.00  0.00    -0.531 C  
ENDROOT
BRANCH   3   4
HETATM    4  C   UNL     2     -11.315  13.314  66.236  1.00  0.00    -0.336 C  
BRANCH   4   5
HETATM    5  C   UNL     2     -10.276  14.387  65.904  1.00  0.00    -0.341 C  
BRANCH   5   6
HETATM    6  C   UNL     2     -10.513  15.702  66.659  1.00  0.00    -0.301 C  
BRANCH   6   7
HETATM    7  C   UNL     2     -10.177  15.579  68.145  1.00  0.00    -0.227 C  
BRANCH   7   8
HETATM    8  C   UNL     2      -8.898  14.786  68.403  1.00  0.00    -0.181 C  
BRANCH   8   9
HETATM    9  C   UNL     2      -7.920  15.552  69.307  1.00  0.00    -0.238 C  
BRANCH   9  10
HETATM   10  C   UNL     2      -6.457  15.100  69.205  1.00  0.00    -0.125 C  
BRANCH  10  11
HETATM   11  C   UNL     2      -6.086  14.045  70.251  1.00  0.00    -0.152 C  
BRANCH  11  12
HETATM   12  C   UNL     2      -5.617  12.718  69.642  1.00  0.00    -0.096 C  
BRANCH  12  13
HETATM   13  C   UNL     2      -6.620  11.573  69.806  1.00  0.00    -0.091 C  
BRANCH  13  14
HETATM   14  O   UNL     2      -7.500  11.572  68.696  1.00  0.00    -0.104 OA 
HETATM   15  S   UNL     2      -8.116  10.147  68.208  1.00  0.00    -0.104 S  
HETATM   16  O   UNL     2      -9.011  10.532  67.112  1.00  0.00    -0.139 OA 
HETATM   17  O   UNL     2      -8.820   9.639  69.379  1.00  0.00    -0.153 OA 
HETATM   18  O   UNL     2      -6.956   9.376  67.796  1.00  0.00    -0.078 OA 
ENDBRANCH  13  14
ENDBRANCH  12  13
ENDBRANCH  11  12
ENDBRANCH  10  11
ENDBRANCH   9  10
ENDBRANCH   8   9
ENDBRANCH   7   8
ENDBRANCH   6   7
ENDBRANCH   5   6
ENDBRANCH   4   5
ENDBRANCH   3   4
TORSDOF 11
ENDMDL
MODEL      434
REMARK 921   NORMALIZED FREE ENERGY PREDICTED BY IDOCK:   -2.20 KCAL/MOL
REMARK 922        TOTAL FREE ENERGY PREDICTED BY IDOCK:   -5.05 KCAL/MOL
REMARK 923 INTER-LIGAND FREE ENERGY PREDICTED BY IDOCK:   -4.21 KCAL/MOL
REMARK 924 INTRA-LIGAND FREE ENERGY PREDICTED BY IDOCK:   -0.84 KCAL/MOL
REMARK 927      BINDING AFFINITY PREDICTED BY RF-SCORE:    0.00 PKD
ROOT
HETATM    1 NA   UNL     1     -11.468  12.311  64.633  1.00  0.00    -0.286 Na 
HETATM    2  C   UNL     2     -10.005  17.344  68.926  1.00  0.00    -0.308 C  
HETATM    3  C   UNL     2     -10.806  16.453  67.989  1.00  0.00    -0.342 C  
ENDROOT
BRANCH   3   4
HETATM    4  C   UNL     2     -11.376  15.253  68.740  1.00  0.00    -0.318 C  
BRANCH   4   5
HETATM    5  C   UNL     2     -11.600  15.559  70.223  1.00  0.00    -0.355 C  
BRANCH   5   6
HETATM    6  C   UNL     2     -12.226  14.385  70.986  1.00  0.00    -0.422 C  
BRANCH   6   7
HETATM    7  C   UNL     2     -12.166  13.084  70.188  1.00  0.00    -0.342 C  
BRANCH   7   8
HETATM    8  C   UNL     2     -12.268  11.839  71.067  1.00  0.00    -0.303 C  
BRANCH   8   9
HETATM    9  C   UNL     2     -11.971  10.555  70.279  1.00  0.00    -0.411 C  
BRANCH   9  10
HETATM   10  C   UNL     2     -11.963  10.719  68.754  1.00  0.00    -0.157 C  
BRANCH  10  11
HETATM   11  C   UNL     2     -10.801   9.983  68.082  1.00  0.00    -0.303 C  
BRANCH  11  12
HETATM   12  C   UNL     2      -9.461  10.721  68.197  1.00  0.00    -0.161 C  
BRANCH  12  13
HETATM   13  C   UNL     2      -8.315  10.048  67.437  1.00  0.00    -0.118 C  
BRANCH  13  14
HETATM   14  O   UNL     2      -7.439   9.443  68.372  1.00  0.00    -0.077 OA 
HETATM   15  S   UNL     2      -7.251   7.828  68.311  1.00  0.00    -0.092 S  
HETATM   16  O   UNL     2      -6.249   7.573  69.350  1.00  0.00    -0.030 OA 
HETATM   17  O   UNL     2      -6.763   7.573  66.961  1.00  0.00    -0.062 OA 
HETATM   18  O   UNL     2      -8.572   7.301  68.605  1.00  0.00    -0.128 OA 
ENDBRANCH  13  14
ENDBRANCH  12  13
ENDBRANCH  11  12
ENDBRANCH  10  11
ENDBRANCH   9  10
ENDBRANCH   8   9
ENDBRANCH   7   8
ENDBRANCH   6   7
ENDBRANCH   5   6
ENDBRANCH   4   5
ENDBRANCH   3   4
TORSDOF 11
ENDMDL
MODEL      435
REMARK 921   NORMALIZED FREE ENERGY PREDICTED BY IDOCK:   -2.19 KCAL/MOL
REMARK 922        TOTAL FREE ENERGY PREDICTED BY IDOCK:   -5.03 KCAL/MOL
REMARK 923 INTER-LIGAND FREE ENERGY PREDICTED BY IDOCK:   -4.32 KCAL/MOL
REMARK 924 INTRA-LIGAND FREE ENERGY PREDICTED BY IDOCK:   -0.72 KCAL/MOL
REMARK 927      BINDING AFFINITY PREDICTED BY RF-SCORE:    0.00 PKD
ROOT
HETATM    1 NA   UNL     1     -13.247  16.140  71.476  1.00  0.00    -0.458 Na 
HETATM    2  C   UNL     2     -10.797  15.391  65.205  1.00  0.00    -0.447 C  
HETATM    3  C   UNL     2     -10.993  15.174  66.697  1.00  0.00    -0.318 C  
ENDROOT
BRANCH   3   4
HETATM    4  C   UNL     2     -12.125  14.184  66.954  1.00  0.00    -0.466 C  
BRANCH   4   5
HETATM    5  C   UNL     2     -11.942  12.886  66.164  1.00  0.00    -0.491 C  
BRANCH   5   6
HETATM    6  C   UNL     2     -11.460  11.719  67.035  1.00  0.00    -0.368 C  
BRANCH   6   7
HETATM    7  C   UNL     2      -9.993  11.379  66.779  1.00  0.00    -0.238 C  
BRANCH   7   8
HETATM    8  C   UNL     2      -9.804  10.027  66.095  1.00  0.00    -0.309 C  
BRANCH   8   9
HETATM    9  C   UNL     2      -9.877  10.142  64.566  1.00  0.00    -0.334 C  
BRANCH   9  10
HETATM   10  C   UNL     2      -8.668   9.569  63.816  1.00  0.00    -0.237 C  
BRANCH  10  11
HETATM   11  C   UNL     2      -7.724   8.777  64.725  1.00  0.00    -0.113 C  
BRANCH  11  12
HETATM   12  C   UNL     2      -6.526   8.170  63.985  1.00  0.00    -0.067 C  
BRANCH  12  13
HETATM   13  C   UNL     2      -6.138   6.773  64.474  1.00  0.00    -0.035 C  
BRANCH  13  14
HETATM   14  O   UNL     2      -6.972   6.421  65.564  1.00  0.00    -0.051 OA 
HETATM   15  S   UNL     2      -7.776   5.007  65.488  1.00  0.00    -0.088 S  
HETATM   16  O   UNL     2      -8.462   4.949  66.782  1.00  0.00    -0.107 OA 
HETATM   17  O   UNL     2      -6.727   4.005  65.344  1.00  0.00    -0.049 OA 
HETATM   18  O   UNL     2      -8.657   5.155  64.344  1.00  0.00    -0.141 OA 
ENDBRANCH  13  14
ENDBRANCH  12  13
ENDBRANCH  11  12
ENDBRANCH  10  11
ENDBRANCH   9  10
ENDBRANCH   8   9
ENDBRANCH   7   8
ENDBRANCH   6   7
ENDBRANCH   5   6
ENDBRANCH   4   5
ENDBRANCH   3   4
TORSDOF 11
ENDMDL
MODEL      436
REMARK 921   NORMALIZED FREE ENERGY PREDICTED BY IDOCK:   -2.18 KCAL/MOL
REMARK 922        TOTAL FREE ENERGY PREDICTED BY IDOCK:   -5.02 KCAL/MOL
REMARK 923 INTER-LIGAND FREE ENERGY PREDICTED BY IDOCK:   -4.09 KCAL/MOL
REMARK 924 INTRA-LIGAND FREE ENERGY PREDICTED BY IDOCK:   -0.93 KCAL/MOL
REMARK 927      BINDING AFFINITY PREDICTED BY RF-SCORE:    0.00 PKD
ROOT
HETATM    1 NA   UNL     1      -5.828  17.673  70.731  1.00  0.00    -0.230 Na 
HETATM    2  C   UNL     2      -5.455  11.367  68.281  1.00  0.00    -0.042 C  
HETATM    3  C   UNL     2      -6.053  12.655  68.825  1.00  0.00    -0.071 C  
ENDROOT
BRANCH   3   4
HETATM    4  C   UNL     2      -6.293  13.657  67.699  1.00  0.00    -0.149 C  
BRANCH   4   5
HETATM    5  C   UNL     2      -7.756  14.102  67.630  1.00  0.00    -0.186 C  
BRANCH   5   6
HETATM    6  C   UNL     2      -7.942  15.423  66.872  1.00  0.00    -0.230 C  
BRANCH   6   7
HETATM    7  C   UNL     2      -9.238  15.443  66.063  1.00  0.00    -0.333 C  
BRANCH   7   8
HETATM    8  C   UNL     2     -10.434  14.893  66.838  1.00  0.00    -0.280 C  
BRANCH   8   9
HETATM    9  C   UNL     2     -11.570  14.454  65.903  1.00  0.00    -0.361 C  
BRANCH   9  10
HETATM   10  C   UNL     2     -11.116  13.719  64.634  1.00  0.00    -0.391 C  
BRANCH  10  11
HETATM   11  C   UNL     2     -11.190  12.196  64.770  1.00  0.00    -0.373 C  
BRANCH  11  12
HETATM   12  C   UNL     2      -9.879  11.560  65.246  1.00  0.00    -0.286 C  
BRANCH  12  13
HETATM   13  C   UNL     2      -9.772  10.062  64.946  1.00  0.00    -0.307 C  
BRANCH  13  14
HETATM   14  O   UNL     2     -10.235   9.335  66.071  1.00  0.00    -0.269 OA 
HETATM   15  S   UNL     2      -9.200   8.315  66.803  1.00  0.00    -0.182 S  
HETATM   16  O   UNL     2      -9.983   7.806  67.933  1.00  0.00    -0.157 OA 
HETATM   17  O   UNL     2      -8.085   9.163  67.207  1.00  0.00    -0.105 OA 
HETATM   18  O   UNL     2      -8.893   7.324  65.787  1.00  0.00    -0.144 OA 
ENDBRANCH  13  14
ENDBRANCH  12  13
ENDBRANCH  11  12
ENDBRANCH  10  11
ENDBRANCH   9  10
ENDBRANCH   8   9
ENDBRANCH   7   8
ENDBRANCH   6   7
ENDBRANCH   5   6
ENDBRANCH   4   5
ENDBRANCH   3   4
TORSDOF 11
ENDMDL
MODEL      437
REMARK 921   NORMALIZED FREE ENERGY PREDICTED BY IDOCK:   -2.18 KCAL/MOL
REMARK 922        TOTAL FREE ENERGY PREDICTED BY IDOCK:   -5.02 KCAL/MOL
REMARK 923 INTER-LIGAND FREE ENERGY PREDICTED BY IDOCK:   -3.96 KCAL/MOL
REMARK 924 INTRA-LIGAND FREE ENERGY PREDICTED BY IDOCK:   -1.06 KCAL/MOL
REMARK 927      BINDING AFFINITY PREDICTED BY RF-SCORE:    0.00 PKD
ROOT
HETATM    1 NA   UNL     1     -11.868   7.438  66.755  1.00  0.00    -0.409 Na 
HETATM    2  C   UNL     2      -9.394   8.082  73.029  1.00  0.00    -0.344 C  
HETATM    3  C   UNL     2      -9.557   8.283  71.530  1.00  0.00    -0.247 C  
ENDROOT
BRANCH   3   4
HETATM    4  C   UNL     2     -10.582   9.377  71.240  1.00  0.00    -0.400 C  
BRANCH   4   5
HETATM    5  C   UNL     2     -10.050  10.412  70.246  1.00  0.00     0.137 C  
BRANCH   5   6
HETATM    6  C   UNL     2      -9.415   9.774  69.004  1.00  0.00    -0.173 C  
BRANCH   6   7
HETATM    7  C   UNL     2     -10.088  10.238  67.713  1.00  0.00    -0.213 C  
BRANCH   7   8
HETATM    8  C   UNL     2     -11.312  11.118  67.961  1.00  0.00    -0.380 C  
BRANCH   8   9
HETATM    9  C   UNL     2     -11.448  12.221  66.902  1.00  0.00    -0.418 C  
BRANCH   9  10
HETATM   10  C   UNL     2     -10.352  12.226  65.828  1.00  0.00    -0.287 C  
BRANCH  10  11
HETATM   11  C   UNL     2      -9.631  13.573  65.720  1.00  0.00    -0.073 C  
BRANCH  11  12
HETATM   12  C   UNL     2     -10.344  14.710  66.461  1.00  0.00    -0.283 C  
BRANCH  12  13
HETATM   13  C   UNL     2      -9.596  15.207  67.701  1.00  0.00    -0.206 C  
BRANCH  13  14
HETATM   14  O   UNL     2      -8.205  15.027  67.499  1.00  0.00    -0.155 OA 
HETATM   15  S   UNL     2      -7.361  14.234  68.643  1.00  0.00    -0.130 S  
HETATM   16  O   UNL     2      -6.010  14.180  68.078  1.00  0.00    -0.120 OA 
HETATM   17  O   UNL     2      -8.006  12.930  68.726  1.00  0.00    -0.063 OA 
HETATM   18  O   UNL     2      -7.487  15.068  69.825  1.00  0.00    -0.198 OA 
ENDBRANCH  13  14
ENDBRANCH  12  13
ENDBRANCH  11  12
ENDBRANCH  10  11
ENDBRANCH   9  10
ENDBRANCH   8   9
ENDBRANCH   7   8
ENDBRANCH   6   7
ENDBRANCH   5   6
ENDBRANCH   4   5
ENDBRANCH   3   4
TORSDOF 11
ENDMDL
MODEL      438
REMARK 921   NORMALIZED FREE ENERGY PREDICTED BY IDOCK:   -2.16 KCAL/MOL
REMARK 922        TOTAL FREE ENERGY PREDICTED BY IDOCK:   -4.99 KCAL/MOL
REMARK 923 INTER-LIGAND FREE ENERGY PREDICTED BY IDOCK:   -3.94 KCAL/MOL
REMARK 924 INTRA-LIGAND FREE ENERGY PREDICTED BY IDOCK:   -1.04 KCAL/MOL
REMARK 927      BINDING AFFINITY PREDICTED BY RF-SCORE:    0.00 PKD
ROOT
HETATM    1 NA   UNL     1      -6.609  10.233  66.342  1.00  0.00    -0.066 Na 
HETATM    2  C   UNL     2     -12.423  12.147  63.438  1.00  0.00    -0.625 C  
HETATM    3  C   UNL     2     -11.463  11.547  64.455  1.00  0.00    -0.236 C  
ENDROOT
BRANCH   3   4
HETATM    4  C   UNL     2     -10.970  12.615  65.427  1.00  0.00    -0.320 C  
BRANCH   4   5
HETATM    5  C   UNL     2     -11.598  13.982  65.144  1.00  0.00    -0.344 C  
BRANCH   5   6
HETATM    6  C   UNL     2     -10.555  15.071  64.862  1.00  0.00    -0.400 C  
BRANCH   6   7
HETATM    7  C   UNL     2     -10.618  16.204  65.886  1.00  0.00    -0.322 C  
BRANCH   7   8
HETATM    8  C   UNL     2      -9.702  15.975  67.087  1.00  0.00    -0.231 C  
BRANCH   8   9
HETATM    9  C   UNL     2      -8.519  15.060  66.739  1.00  0.00    -0.239 C  
BRANCH   9  10
HETATM   10  C   UNL     2      -7.174  15.485  67.343  1.00  0.00    -0.241 C  
BRANCH  10  11
HETATM   11  C   UNL     2      -6.330  14.297  67.811  1.00  0.00    -0.168 C  
BRANCH  11  12
HETATM   12  C   UNL     2      -7.008  13.455  68.900  1.00  0.00    -0.102 C  
BRANCH  12  13
HETATM   13  C   UNL     2      -6.966  11.948  68.634  1.00  0.00    -0.095 C  
BRANCH  13  14
HETATM   14  O   UNL     2      -8.131  11.354  69.181  1.00  0.00    -0.057 OA 
HETATM   15  S   UNL     2      -8.252   9.732  69.144  1.00  0.00    -0.142 S  
HETATM   16  O   UNL     2      -9.519   9.480  69.838  1.00  0.00    -0.190 OA 
HETATM   17  O   UNL     2      -7.084   9.267  69.883  1.00  0.00    -0.053 OA 
HETATM   18  O   UNL     2      -8.264   9.404  67.730  1.00  0.00    -0.113 OA 
ENDBRANCH  13  14
ENDBRANCH  12  13
ENDBRANCH  11  12
ENDBRANCH  10  11
ENDBRANCH   9  10
ENDBRANCH   8   9
ENDBRANCH   7   8
ENDBRANCH   6   7
ENDBRANCH   5   6
ENDBRANCH   4   5
ENDBRANCH   3   4
TORSDOF 11
ENDMDL
MODEL      439
REMARK 921   NORMALIZED FREE ENERGY PREDICTED BY IDOCK:   -2.16 KCAL/MOL
REMARK 922        TOTAL FREE ENERGY PREDICTED BY IDOCK:   -4.98 KCAL/MOL
REMARK 923 INTER-LIGAND FREE ENERGY PREDICTED BY IDOCK:   -3.90 KCAL/MOL
REMARK 924 INTRA-LIGAND FREE ENERGY PREDICTED BY IDOCK:   -1.08 KCAL/MOL
REMARK 927      BINDING AFFINITY PREDICTED BY RF-SCORE:    0.00 PKD
ROOT
HETATM    1 NA   UNL     1     -14.382   8.150  70.593  1.00  0.00    -0.581 Na 
HETATM    2  C   UNL     2     -10.419   4.236  74.449  1.00  0.00    -0.300 C  
HETATM    3  C   UNL     2     -11.367   4.650  73.334  1.00  0.00    -0.394 C  
ENDROOT
BRANCH   3   4
HETATM    4  C   UNL     2     -10.589   5.190  72.137  1.00  0.00    -0.273 C  
BRANCH   4   5
HETATM    5  C   UNL     2     -10.386   6.704  72.221  1.00  0.00    -0.219 C  
BRANCH   5   6
HETATM    6  C   UNL     2      -8.915   7.100  72.399  1.00  0.00    -0.145 C  
BRANCH   6   7
HETATM    7  C   UNL     2      -8.682   8.585  72.123  1.00  0.00    -0.267 C  
BRANCH   7   8
HETATM    8  C   UNL     2      -7.602   8.834  71.073  1.00  0.00    -0.124 C  
BRANCH   8   9
HETATM    9  C   UNL     2      -6.515   7.751  71.099  1.00  0.00    -0.038 C  
BRANCH   9  10
HETATM   10  C   UNL     2      -6.098   7.219  69.722  1.00  0.00    -0.027 C  
BRANCH  10  11
HETATM   11  C   UNL     2      -6.148   5.691  69.634  1.00  0.00    -0.025 C  
BRANCH  11  12
HETATM   12  C   UNL     2      -7.209   5.169  68.658  1.00  0.00    -0.062 C  
BRANCH  12  13
HETATM   13  C   UNL     2      -8.647   5.497  69.071  1.00  0.00    -0.103 C  
BRANCH  13  14
HETATM   14  O   UNL     2      -9.114   6.579  68.285  1.00  0.00    -0.121 OA 
HETATM   15  S   UNL     2     -10.607   6.473  67.647  1.00  0.00    -0.310 S  
HETATM   16  O   UNL     2     -10.770   7.766  66.975  1.00  0.00    -0.347 OA 
HETATM   17  O   UNL     2     -11.481   6.308  68.803  1.00  0.00    -0.294 OA 
HETATM   18  O   UNL     2     -10.536   5.333  66.751  1.00  0.00    -0.273 OA 
ENDBRANCH  13  14
ENDBRANCH  12  13
ENDBRANCH  11  12
ENDBRANCH  10  11
ENDBRANCH   9  10
ENDBRANCH   8   9
ENDBRANCH   7   8
ENDBRANCH   6   7
ENDBRANCH   5   6
ENDBRANCH   4   5
ENDBRANCH   3   4
TORSDOF 11
ENDMDL
MODEL      440
REMARK 921   NORMALIZED FREE ENERGY PREDICTED BY IDOCK:   -2.15 KCAL/MOL
REMARK 922        TOTAL FREE ENERGY PREDICTED BY IDOCK:   -4.97 KCAL/MOL
REMARK 923 INTER-LIGAND FREE ENERGY PREDICTED BY IDOCK:   -5.00 KCAL/MOL
REMARK 924 INTRA-LIGAND FREE ENERGY PREDICTED BY IDOCK:    0.03 KCAL/MOL
REMARK 927      BINDING AFFINITY PREDICTED BY RF-SCORE:    0.00 PKD
ROOT
HETATM    1 NA   UNL     1     -13.569  12.158  72.364  1.00  0.00    -0.414 Na 
HETATM    2  C   UNL     2     -10.123   6.670  74.338  1.00  0.00    -0.343 C  
HETATM    3  C   UNL     2     -10.984   7.584  73.480  1.00  0.00    -0.093 C  
ENDROOT
BRANCH   3   4
HETATM    4  C   UNL     2     -10.112   8.481  72.605  1.00  0.00    -0.253 C  
BRANCH   4   5
HETATM    5  C   UNL     2     -10.074   8.001  71.152  1.00  0.00    -0.221 C  
BRANCH   5   6
HETATM    6  C   UNL     2     -10.880   8.899  70.205  1.00  0.00    -0.265 C  
BRANCH   6   7
HETATM    7  C   UNL     2     -11.583  10.033  70.950  1.00  0.00    -0.463 C  
BRANCH   7   8
HETATM    8  C   UNL     2     -12.364  10.962  70.023  1.00  0.00    -0.385 C  
BRANCH   8   9
HETATM    9  C   UNL     2     -11.800  12.390  70.034  1.00  0.00    -0.363 C  
BRANCH   9  10
HETATM   10  C   UNL     2     -11.650  13.037  68.650  1.00  0.00    -0.354 C  
BRANCH  10  11
HETATM   11  C   UNL     2     -10.322  12.688  67.972  1.00  0.00    -0.231 C  
BRANCH  11  12
HETATM   12  C   UNL     2      -9.794  13.797  67.054  1.00  0.00    -0.251 C  
BRANCH  12  13
HETATM   13  C   UNL     2      -8.694  14.654  67.687  1.00  0.00    -0.177 C  
BRANCH  13  14
HETATM   14  O   UNL     2      -8.888  16.005  67.304  1.00  0.00    -0.182 OA 
HETATM   15  S   UNL     2     -10.256  16.747  67.779  1.00  0.00    -0.314 S  
HETATM   16  O   UNL     2     -10.084  18.112  67.273  1.00  0.00    -0.317 OA 
HETATM   17  O   UNL     2     -10.224  16.661  69.234  1.00  0.00    -0.283 OA 
HETATM   18  O   UNL     2     -11.317  15.994  67.134  1.00  0.00    -0.093 OA 
ENDBRANCH  13  14
ENDBRANCH  12  13
ENDBRANCH  11  12
ENDBRANCH  10  11
ENDBRANCH   9  10
ENDBRANCH   8   9
ENDBRANCH   7   8
ENDBRANCH   6   7
ENDBRANCH   5   6
ENDBRANCH   4   5
ENDBRANCH   3   4
TORSDOF 11
ENDMDL
MODEL      441
REMARK 921   NORMALIZED FREE ENERGY PREDICTED BY IDOCK:   -2.15 KCAL/MOL
REMARK 922        TOTAL FREE ENERGY PREDICTED BY IDOCK:   -4.97 KCAL/MOL
REMARK 923 INTER-LIGAND FREE ENERGY PREDICTED BY IDOCK:   -4.86 KCAL/MOL
REMARK 924 INTRA-LIGAND FREE ENERGY PREDICTED BY IDOCK:   -0.11 KCAL/MOL
REMARK 927      BINDING AFFINITY PREDICTED BY RF-SCORE:    0.00 PKD
ROOT
HETATM    1 NA   UNL     1      -6.512  16.076  70.070  1.00  0.00    -0.160 Na 
HETATM    2  C   UNL     2      -9.247   9.890  69.681  1.00  0.00    -0.246 C  
HETATM    3  C   UNL     2      -8.905  11.326  69.315  1.00  0.00     0.249 C  
ENDROOT
BRANCH   3   4
HETATM    4  C   UNL     2      -7.597  11.387  68.532  1.00  0.00    -0.129 C  
BRANCH   4   5
HETATM    5  C   UNL     2      -7.471  12.681  67.726  1.00  0.00    -0.131 C  
BRANCH   5   6
HETATM    6  C   UNL     2      -7.138  13.898  68.600  1.00  0.00    -0.110 C  
BRANCH   6   7
HETATM    7  C   UNL     2      -8.130  15.042  68.394  1.00  0.00    -0.141 C  
BRANCH   7   8
HETATM    8  C   UNL     2      -9.365  14.625  67.597  1.00  0.00    -0.200 C  
BRANCH   8   9
HETATM    9  C   UNL     2     -10.585  15.493  67.935  1.00  0.00    -0.274 C  
BRANCH   9  10
HETATM   10  C   UNL     2     -11.804  14.720  68.455  1.00  0.00    -0.340 C  
BRANCH  10  11
HETATM   11  C   UNL     2     -11.645  13.202  68.328  1.00  0.00    -0.370 C  
BRANCH  11  12
HETATM   12  C   UNL     2     -11.835  12.685  66.898  1.00  0.00    -0.425 C  
BRANCH  12  13
HETATM   13  C   UNL     2     -12.692  13.597  66.016  1.00  0.00    -0.309 C  
BRANCH  13  14
HETATM   14  O   UNL     2     -13.244  12.829  64.962  1.00  0.00    -0.768 OA 
HETATM   15  S   UNL     2     -12.369  12.656  63.601  1.00  0.00    -0.467 S  
HETATM   16  O   UNL     2     -13.202  11.769  62.783  1.00  0.00    -0.189 OA 
HETATM   17  O   UNL     2     -11.128  12.034  64.048  1.00  0.00    -0.325 OA 
HETATM   18  O   UNL     2     -12.237  14.006  63.083  1.00  0.00    -0.525 OA 
ENDBRANCH  13  14
ENDBRANCH  12  13
ENDBRANCH  11  12
ENDBRANCH  10  11
ENDBRANCH   9  10
ENDBRANCH   8   9
ENDBRANCH   7   8
ENDBRANCH   6   7
ENDBRANCH   5   6
ENDBRANCH   4   5
ENDBRANCH   3   4
TORSDOF 11
ENDMDL
MODEL      442
REMARK 921   NORMALIZED FREE ENERGY PREDICTED BY IDOCK:   -2.12 KCAL/MOL
REMARK 922        TOTAL FREE ENERGY PREDICTED BY IDOCK:   -4.92 KCAL/MOL
REMARK 923 INTER-LIGAND FREE ENERGY PREDICTED BY IDOCK:   -4.09 KCAL/MOL
REMARK 924 INTRA-LIGAND FREE ENERGY PREDICTED BY IDOCK:   -0.83 KCAL/MOL
REMARK 927      BINDING AFFINITY PREDICTED BY RF-SCORE:    0.00 PKD
ROOT
HETATM    1 NA   UNL     1     -11.621   5.314  65.488  1.00  0.00    -0.617 Na 
HETATM    2  C   UNL     2      -6.624   9.415  63.461  1.00  0.00    -0.095 C  
HETATM    3  C   UNL     2      -7.730   8.830  64.326  1.00  0.00    -0.125 C  
ENDROOT
BRANCH   3   4
HETATM    4  C   UNL     2      -7.185   7.720  65.220  1.00  0.00    -0.068 C  
BRANCH   4   5
HETATM    5  C   UNL     2      -6.472   8.276  66.455  1.00  0.00    -0.054 C  
BRANCH   5   6
HETATM    6  C   UNL     2      -7.055   7.744  67.770  1.00  0.00    -0.082 C  
BRANCH   6   7
HETATM    7  C   UNL     2      -8.102   8.689  68.359  1.00  0.00    -0.118 C  
BRANCH   7   8
HETATM    8  C   UNL     2      -7.621   9.398  69.623  1.00  0.00    -0.095 C  
BRANCH   8   9
HETATM    9  C   UNL     2      -8.620   9.247  70.780  1.00  0.00    -0.254 C  
BRANCH   9  10
HETATM   10  C   UNL     2     -10.073   9.000  70.352  1.00  0.00    -0.248 C  
BRANCH  10  11
HETATM   11  C   UNL     2     -10.915  10.278  70.340  1.00  0.00    -0.365 C  
BRANCH  11  12
HETATM   12  C   UNL     2     -11.358  10.706  68.935  1.00  0.00    -0.337 C  
BRANCH  12  13
HETATM   13  C   UNL     2     -10.562  11.883  68.366  1.00  0.00    -0.218 C  
BRANCH  13  14
HETATM   14  O   UNL     2     -11.449  12.742  67.670  1.00  0.00    -0.292 OA 
HETATM   15  S   UNL     2     -10.886  14.188  67.179  1.00  0.00    -0.294 S  
HETATM   16  O   UNL     2     -12.027  14.758  66.456  1.00  0.00    -0.309 OA 
HETATM   17  O   UNL     2      -9.758  13.861  66.315  1.00  0.00    -0.287 OA 
HETATM   18  O   UNL     2     -10.548  14.879  68.411  1.00  0.00    -0.235 OA 
ENDBRANCH  13  14
ENDBRANCH  12  13
ENDBRANCH  11  12
ENDBRANCH  10  11
ENDBRANCH   9  10
ENDBRANCH   8   9
ENDBRANCH   7   8
ENDBRANCH   6   7
ENDBRANCH   5   6
ENDBRANCH   4   5
ENDBRANCH   3   4
TORSDOF 11
ENDMDL
MODEL      443
REMARK 921   NORMALIZED FREE ENERGY PREDICTED BY IDOCK:   -2.12 KCAL/MOL
REMARK 922        TOTAL FREE ENERGY PREDICTED BY IDOCK:   -4.92 KCAL/MOL
REMARK 923 INTER-LIGAND FREE ENERGY PREDICTED BY IDOCK:   -3.85 KCAL/MOL
REMARK 924 INTRA-LIGAND FREE ENERGY PREDICTED BY IDOCK:   -1.07 KCAL/MOL
REMARK 927      BINDING AFFINITY PREDICTED BY RF-SCORE:    0.00 PKD
ROOT
HETATM    1 NA   UNL     1     -12.134   6.757  66.935  1.00  0.00    -0.705 Na 
HETATM    2  C   UNL     2     -11.108   5.123  73.429  1.00  0.00    -0.385 C  
HETATM    3  C   UNL     2     -10.810   5.530  71.994  1.00  0.00    -0.287 C  
ENDROOT
BRANCH   3   4
HETATM    4  C   UNL     2     -10.914   7.043  71.830  1.00  0.00    -0.263 C  
BRANCH   4   5
HETATM    5  C   UNL     2      -9.559   7.733  72.010  1.00  0.00    -0.217 C  
BRANCH   5   6
HETATM    6  C   UNL     2      -8.542   7.342  70.930  1.00  0.00    -0.136 C  
BRANCH   6   7
HETATM    7  C   UNL     2      -8.281   8.483  69.947  1.00  0.00    -0.121 C  
BRANCH   7   8
HETATM    8  C   UNL     2      -9.281   8.518  68.795  1.00  0.00    -0.142 C  
BRANCH   8   9
HETATM    9  C   UNL     2      -8.940   7.489  67.707  1.00  0.00    -0.131 C  
BRANCH   9  10
HETATM   10  C   UNL     2      -7.463   7.451  67.293  1.00  0.00    -0.103 C  
BRANCH  10  11
HETATM   11  C   UNL     2      -7.256   7.726  65.801  1.00  0.00    -0.068 C  
BRANCH  11  12
HETATM   12  C   UNL     2      -6.520   9.041  65.517  1.00  0.00    -0.067 C  
BRANCH  12  13
HETATM   13  C   UNL     2      -7.387  10.102  64.833  1.00  0.00    -0.136 C  
BRANCH  13  14
HETATM   14  O   UNL     2      -8.106  10.814  65.824  1.00  0.00    -0.162 OA 
HETATM   15  S   UNL     2      -9.705  11.026  65.606  1.00  0.00    -0.246 S  
HETATM   16  O   UNL     2     -10.114  11.725  66.829  1.00  0.00    -0.205 OA 
HETATM   17  O   UNL     2     -10.236   9.671  65.509  1.00  0.00    -0.228 OA 
HETATM   18  O   UNL     2      -9.801  11.821  64.396  1.00  0.00    -0.246 OA 
ENDBRANCH  13  14
ENDBRANCH  12  13
ENDBRANCH  11  12
ENDBRANCH  10  11
ENDBRANCH   9  10
ENDBRANCH   8   9
ENDBRANCH   7   8
ENDBRANCH   6   7
ENDBRANCH   5   6
ENDBRANCH   4   5
ENDBRANCH   3   4
TORSDOF 11
ENDMDL
MODEL      444
REMARK 921   NORMALIZED FREE ENERGY PREDICTED BY IDOCK:   -2.08 KCAL/MOL
REMARK 922        TOTAL FREE ENERGY PREDICTED BY IDOCK:   -4.86 KCAL/MOL
REMARK 923 INTER-LIGAND FREE ENERGY PREDICTED BY IDOCK:   -3.80 KCAL/MOL
REMARK 924 INTRA-LIGAND FREE ENERGY PREDICTED BY IDOCK:   -1.06 KCAL/MOL
REMARK 927      BINDING AFFINITY PREDICTED BY RF-SCORE:    0.00 PKD
ROOT
HETATM    1 NA   UNL     1     -10.993  16.934  68.966  1.00  0.00    -0.255 Na 
HETATM    2  C   UNL     2     -12.156  13.116  63.491  1.00  0.00    -0.585 C  
HETATM    3  C   UNL     2     -11.403  13.802  64.621  1.00  0.00    -0.382 C  
ENDROOT
BRANCH   3   4
HETATM    4  C   UNL     2     -11.439  12.951  65.887  1.00  0.00    -0.387 C  
BRANCH   4   5
HETATM    5  C   UNL     2     -10.078  12.322  66.194  1.00  0.00    -0.265 C  
BRANCH   5   6
HETATM    6  C   UNL     2      -9.547  11.460  65.041  1.00  0.00    -0.250 C  
BRANCH   6   7
HETATM    7  C   UNL     2     -10.190  10.074  65.016  1.00  0.00    -0.096 C  
BRANCH   7   8
HETATM    8  C   UNL     2      -9.322   9.001  65.671  1.00  0.00    -0.289 C  
BRANCH   8   9
HETATM    9  C   UNL     2      -9.736   8.737  67.125  1.00  0.00    -0.248 C  
BRANCH   9  10
HETATM   10  C   UNL     2      -8.818   9.363  68.183  1.00  0.00    -0.124 C  
BRANCH  10  11
HETATM   11  C   UNL     2      -7.535   9.948  67.586  1.00  0.00    -0.090 C  
BRANCH  11  12
HETATM   12  C   UNL     2      -6.332   9.878  68.535  1.00  0.00    -0.050 C  
BRANCH  12  13
HETATM   13  C   UNL     2      -5.953  11.225  69.156  1.00  0.00    -0.049 C  
BRANCH  13  14
HETATM   14  O   UNL     2      -7.087  12.074  69.137  1.00  0.00    -0.096 OA 
HETATM   15  S   UNL     2      -6.883  13.615  68.657  1.00  0.00    -0.104 S  
HETATM   16  O   UNL     2      -8.245  14.156  68.699  1.00  0.00    -0.140 OA 
HETATM   17  O   UNL     2      -6.347  13.502  67.306  1.00  0.00    -0.294 OA 
HETATM   18  O   UNL     2      -5.979  14.182  69.641  1.00  0.00    -0.100 OA 
ENDBRANCH  13  14
ENDBRANCH  12  13
ENDBRANCH  11  12
ENDBRANCH  10  11
ENDBRANCH   9  10
ENDBRANCH   8   9
ENDBRANCH   7   8
ENDBRANCH   6   7
ENDBRANCH   5   6
ENDBRANCH   4   5
ENDBRANCH   3   4
TORSDOF 11
ENDMDL
MODEL      445
REMARK 921   NORMALIZED FREE ENERGY PREDICTED BY IDOCK:   -2.04 KCAL/MOL
REMARK 922        TOTAL FREE ENERGY PREDICTED BY IDOCK:   -4.79 KCAL/MOL
REMARK 923 INTER-LIGAND FREE ENERGY PREDICTED BY IDOCK:   -3.99 KCAL/MOL
REMARK 924 INTRA-LIGAND FREE ENERGY PREDICTED BY IDOCK:   -0.80 KCAL/MOL
REMARK 927      BINDING AFFINITY PREDICTED BY RF-SCORE:    0.00 PKD
ROOT
HETATM    1 NA   UNL     1      -9.876   8.754  63.017  1.00  0.00    -0.399 Na 
HETATM    2  C   UNL     2     -12.780  14.307  65.590  1.00  0.00    -0.395 C  
HETATM    3  C   UNL     2     -12.147  12.926  65.526  1.00  0.00    -0.507 C  
ENDROOT
BRANCH   3   4
HETATM    4  C   UNL     2     -10.626  13.024  65.612  1.00  0.00    -0.297 C  
BRANCH   4   5
HETATM    5  C   UNL     2     -10.083  12.392  66.895  1.00  0.00    -0.230 C  
BRANCH   5   6
HETATM    6  C   UNL     2      -9.281  13.379  67.753  1.00  0.00    -0.211 C  
BRANCH   6   7
HETATM    7  C   UNL     2      -7.775  13.223  67.552  1.00  0.00    -0.175 C  
BRANCH   7   8
HETATM    8  C   UNL     2      -6.977  13.424  68.839  1.00  0.00    -0.102 C  
BRANCH   8   9
HETATM    9  C   UNL     2      -5.689  12.588  68.851  1.00  0.00    -0.068 C  
BRANCH   9  10
HETATM   10  C   UNL     2      -5.904  11.068  68.874  1.00  0.00    -0.040 C  
BRANCH  10  11
HETATM   11  C   UNL     2      -6.659  10.594  70.119  1.00  0.00    -0.151 C  
BRANCH  11  12
HETATM   12  C   UNL     2      -8.107  10.177  69.835  1.00  0.00    -0.139 C  
BRANCH  12  13
HETATM   13  C   UNL     2      -8.573   8.963  70.643  1.00  0.00    -0.194 C  
BRANCH  13  14
HETATM   14  O   UNL     2      -9.676   8.368  69.982  1.00  0.00    -0.174 OA 
HETATM   15  S   UNL     2     -10.269   6.977  70.582  1.00  0.00    -0.191 S  
HETATM   16  O   UNL     2     -11.414   6.702  69.708  1.00  0.00    -0.351 OA 
HETATM   17  O   UNL     2     -10.652   7.310  71.949  1.00  0.00    -0.210 OA 
HETATM   18  O   UNL     2      -9.173   6.033  70.455  1.00  0.00    -0.153 OA 
ENDBRANCH  13  14
ENDBRANCH  12  13
ENDBRANCH  11  12
ENDBRANCH  10  11
ENDBRANCH   9  10
ENDBRANCH   8   9
ENDBRANCH   7   8
ENDBRANCH   6   7
ENDBRANCH   5   6
ENDBRANCH   4   5
ENDBRANCH   3   4
TORSDOF 11
ENDMDL
MODEL      446
REMARK 921   NORMALIZED FREE ENERGY PREDICTED BY IDOCK:   -2.04 KCAL/MOL
REMARK 922        TOTAL FREE ENERGY PREDICTED BY IDOCK:   -4.79 KCAL/MOL
REMARK 923 INTER-LIGAND FREE ENERGY PREDICTED BY IDOCK:   -4.16 KCAL/MOL
REMARK 924 INTRA-LIGAND FREE ENERGY PREDICTED BY IDOCK:   -0.63 KCAL/MOL
REMARK 927      BINDING AFFINITY PREDICTED BY RF-SCORE:    0.00 PKD
ROOT
HETATM    1 NA   UNL     1     -12.503  14.159  67.770  1.00  0.00    -0.333 Na 
HETATM    2  C   UNL     2      -9.674  20.132  66.279  1.00  0.00    -0.515 C  
HETATM    3  C   UNL     2     -10.678  19.119  66.808  1.00  0.00    -0.488 C  
ENDROOT
BRANCH   3   4
HETATM    4  C   UNL     2     -10.315  18.691  68.227  1.00  0.00    -0.388 C  
BRANCH   4   5
HETATM    5  C   UNL     2     -10.704  17.237  68.504  1.00  0.00    -0.305 C  
BRANCH   5   6
HETATM    6  C   UNL     2      -9.490  16.307  68.625  1.00  0.00    -0.228 C  
BRANCH   6   7
HETATM    7  C   UNL     2      -9.588  15.109  67.681  1.00  0.00    -0.206 C  
BRANCH   7   8
HETATM    8  C   UNL     2      -8.239  14.445  67.418  1.00  0.00    -0.215 C  
BRANCH   8   9
HETATM    9  C   UNL     2      -8.217  12.984  67.890  1.00  0.00    -0.166 C  
BRANCH   9  10
HETATM   10  C   UNL     2      -9.593  12.311  67.975  1.00  0.00    -0.206 C  
BRANCH  10  11
HETATM   11  C   UNL     2      -9.578  11.029  68.812  1.00  0.00    -0.194 C  
BRANCH  11  12
HETATM   12  C   UNL     2      -8.194  10.375  68.905  1.00  0.00    -0.132 C  
BRANCH  12  13
HETATM   13  C   UNL     2      -7.963   9.595  70.202  1.00  0.00    -0.176 C  
BRANCH  13  14
HETATM   14  O   UNL     2      -7.751   8.231  69.885  1.00  0.00    -0.092 OA 
HETATM   15  S   UNL     2      -8.523   7.109  70.776  1.00  0.00    -0.134 S  
HETATM   16  O   UNL     2      -8.129   5.850  70.134  1.00  0.00    -0.105 OA 
HETATM   17  O   UNL     2      -9.936   7.426  70.609  1.00  0.00    -0.186 OA 
HETATM   18  O   UNL     2      -7.998   7.291  72.117  1.00  0.00    -0.092 OA 
ENDBRANCH  13  14
ENDBRANCH  12  13
ENDBRANCH  11  12
ENDBRANCH  10  11
ENDBRANCH   9  10
ENDBRANCH   8   9
ENDBRANCH   7   8
ENDBRANCH   6   7
ENDBRANCH   5   6
ENDBRANCH   4   5
ENDBRANCH   3   4
TORSDOF 11
ENDMDL
MODEL      447
REMARK 921   NORMALIZED FREE ENERGY PREDICTED BY IDOCK:   -2.03 KCAL/MOL
REMARK 922        TOTAL FREE ENERGY PREDICTED BY IDOCK:   -4.78 KCAL/MOL
REMARK 923 INTER-LIGAND FREE ENERGY PREDICTED BY IDOCK:   -3.79 KCAL/MOL
REMARK 924 INTRA-LIGAND FREE ENERGY PREDICTED BY IDOCK:   -0.98 KCAL/MOL
REMARK 927      BINDING AFFINITY PREDICTED BY RF-SCORE:    0.00 PKD
ROOT
HETATM    1 NA   UNL     1      -8.315  12.034  62.881  1.00  0.00    -0.462 Na 
HETATM    2  C   UNL     2      -7.235  16.301  68.031  1.00  0.00    -0.141 C  
HETATM    3  C   UNL     2      -7.901  15.234  67.176  1.00  0.00    -0.249 C  
ENDROOT
BRANCH   3   4
HETATM    4  C   UNL     2      -7.329  13.855  67.491  1.00  0.00    -0.181 C  
BRANCH   4   5
HETATM    5  C   UNL     2      -8.399  12.901  68.028  1.00  0.00    -0.169 C  
BRANCH   5   6
HETATM    6  C   UNL     2      -9.807  13.237  67.520  1.00  0.00    -0.220 C  
BRANCH   6   7
HETATM    7  C   UNL     2     -10.883  12.916  68.557  1.00  0.00    -0.283 C  
BRANCH   7   8
HETATM    8  C   UNL     2     -11.799  11.771  68.132  1.00  0.00    -0.324 C  
BRANCH   8   9
HETATM    9  C   UNL     2     -11.180  10.399  68.435  1.00  0.00    -0.318 C  
BRANCH   9  10
HETATM   10  C   UNL     2     -10.609  10.245  69.851  1.00  0.00    -0.324 C  
BRANCH  10  11
HETATM   11  C   UNL     2      -9.230   9.581  69.867  1.00  0.00    -0.242 C  
BRANCH  11  12
HETATM   12  C   UNL     2      -9.022   8.573  68.731  1.00  0.00    -0.139 C  
BRANCH  12  13
HETATM   13  C   UNL     2      -8.793   7.137  69.209  1.00  0.00    -0.136 C  
BRANCH  13  14
HETATM   14  O   UNL     2      -9.551   6.257  68.398  1.00  0.00    -0.121 OA 
HETATM   15  S   UNL     2      -8.750   5.167  67.495  1.00  0.00    -0.102 S  
HETATM   16  O   UNL     2      -9.830   4.406  66.860  1.00  0.00    -0.202 OA 
HETATM   17  O   UNL     2      -7.987   4.388  68.464  1.00  0.00    -0.077 OA 
HETATM   18  O   UNL     2      -7.958   5.969  66.579  1.00  0.00    -0.103 OA 
ENDBRANCH  13  14
ENDBRANCH  12  13
ENDBRANCH  11  12
ENDBRANCH  10  11
ENDBRANCH   9  10
ENDBRANCH   8   9
ENDBRANCH   7   8
ENDBRANCH   6   7
ENDBRANCH   5   6
ENDBRANCH   4   5
ENDBRANCH   3   4
TORSDOF 11
ENDMDL
MODEL      448
REMARK 921   NORMALIZED FREE ENERGY PREDICTED BY IDOCK:   -2.02 KCAL/MOL
REMARK 922        TOTAL FREE ENERGY PREDICTED BY IDOCK:   -4.76 KCAL/MOL
REMARK 923 INTER-LIGAND FREE ENERGY PREDICTED BY IDOCK:   -4.12 KCAL/MOL
REMARK 924 INTRA-LIGAND FREE ENERGY PREDICTED BY IDOCK:   -0.64 KCAL/MOL
REMARK 927      BINDING AFFINITY PREDICTED BY RF-SCORE:    0.00 PKD
ROOT
HETATM    1 NA   UNL     1     -11.455  12.610  71.014  1.00  0.00    -0.478 Na 
HETATM    2  C   UNL     2     -10.401   6.530  73.811  1.00  0.00    -0.346 C  
HETATM    3  C   UNL     2     -11.135   7.710  73.193  1.00  0.00    -0.373 C  
ENDROOT
BRANCH   3   4
HETATM    4  C   UNL     2     -11.131   7.610  71.670  1.00  0.00    -0.274 C  
BRANCH   4   5
HETATM    5  C   UNL     2     -10.426   8.802  71.019  1.00  0.00    -0.293 C  
BRANCH   5   6
HETATM    6  C   UNL     2     -10.757   8.949  69.528  1.00  0.00    -0.206 C  
BRANCH   6   7
HETATM    7  C   UNL     2      -9.880   8.052  68.655  1.00  0.00    -0.182 C  
BRANCH   7   8
HETATM    8  C   UNL     2      -8.387   8.301  68.854  1.00  0.00    -0.127 C  
BRANCH   8   9
HETATM    9  C   UNL     2      -7.860   9.405  67.925  1.00  0.00    -0.091 C  
BRANCH   9  10
HETATM   10  C   UNL     2      -7.904  10.822  68.515  1.00  0.00    -0.122 C  
BRANCH  10  11
HETATM   11  C   UNL     2      -9.083  11.647  67.991  1.00  0.00    -0.177 C  
BRANCH  11  12
HETATM   12  C   UNL     2      -8.663  12.787  67.055  1.00  0.00    -0.197 C  
BRANCH  12  13
HETATM   13  C   UNL     2      -8.982  14.183  67.596  1.00  0.00    -0.192 C  
BRANCH  13  14
HETATM   14  O   UNL     2      -8.471  15.151  66.696  1.00  0.00    -0.257 OA 
HETATM   15  S   UNL     2      -7.745  16.468  67.318  1.00  0.00    -0.181 S  
HETATM   16  O   UNL     2      -7.295  17.191  66.125  1.00  0.00    -0.291 OA 
HETATM   17  O   UNL     2      -6.650  15.930  68.117  1.00  0.00    -0.113 OA 
HETATM   18  O   UNL     2      -8.793  17.136  68.069  1.00  0.00    -0.219 OA 
ENDBRANCH  13  14
ENDBRANCH  12  13
ENDBRANCH  11  12
ENDBRANCH  10  11
ENDBRANCH   9  10
ENDBRANCH   8   9
ENDBRANCH   7   8
ENDBRANCH   6   7
ENDBRANCH   5   6
ENDBRANCH   4   5
ENDBRANCH   3   4
TORSDOF 11
ENDMDL
MODEL      449
REMARK 921   NORMALIZED FREE ENERGY PREDICTED BY IDOCK:   -2.00 KCAL/MOL
REMARK 922        TOTAL FREE ENERGY PREDICTED BY IDOCK:   -4.73 KCAL/MOL
REMARK 923 INTER-LIGAND FREE ENERGY PREDICTED BY IDOCK:   -5.14 KCAL/MOL
REMARK 924 INTRA-LIGAND FREE ENERGY PREDICTED BY IDOCK:    0.41 KCAL/MOL
REMARK 927      BINDING AFFINITY PREDICTED BY RF-SCORE:    0.00 PKD
ROOT
HETATM    1 NA   UNL     1     -10.114  15.901  64.006  1.00  0.00    -0.182 Na 
HETATM    2  C   UNL     2      -7.387  20.461  68.209  1.00  0.00    -0.153 C  
HETATM    3  C   UNL     2      -8.149  19.886  67.025  1.00  0.00    -0.345 C  
ENDROOT
BRANCH   3   4
HETATM    4  C   UNL     2      -9.601  19.607  67.403  1.00  0.00    -0.455 C  
BRANCH   4   5
HETATM    5  C   UNL     2      -9.719  18.961  68.785  1.00  0.00    -0.454 C  
BRANCH   5   6
HETATM    6  C   UNL     2     -10.312  17.546  68.734  1.00  0.00    -0.358 C  
BRANCH   6   7
HETATM    7  C   UNL     2     -10.381  17.004  67.307  1.00  0.00    -0.311 C  
BRANCH   7   8
HETATM    8  C   UNL     2      -9.760  15.617  67.165  1.00  0.00    -0.226 C  
BRANCH   8   9
HETATM    9  C   UNL     2      -9.825  14.822  68.477  1.00  0.00    -0.218 C  
BRANCH   9  10
HETATM   10  C   UNL     2     -11.116  14.019  68.683  1.00  0.00    -0.286 C  
BRANCH  10  11
HETATM   11  C   UNL     2     -12.135  14.232  67.560  1.00  0.00    -0.347 C  
BRANCH  11  12
HETATM   12  C   UNL     2     -12.285  13.021  66.631  1.00  0.00    -0.285 C  
BRANCH  12  13
HETATM   13  C   UNL     2     -12.230  13.371  65.142  1.00  0.00    -0.434 C  
BRANCH  13  14
HETATM   14  O   UNL     2     -11.685  12.272  64.432  1.00  0.00    -0.336 OA 
HETATM   15  S   UNL     2     -10.508  11.407  65.148  1.00  0.00    -0.297 S  
HETATM   16  O   UNL     2     -10.245  10.341  64.176  1.00  0.00    -0.233 OA 
HETATM   17  O   UNL     2     -11.115  10.926  66.383  1.00  0.00    -0.158 OA 
HETATM   18  O   UNL     2      -9.418  12.351  65.317  1.00  0.00    -0.064 OA 
ENDBRANCH  13  14
ENDBRANCH  12  13
ENDBRANCH  11  12
ENDBRANCH  10  11
ENDBRANCH   9  10
ENDBRANCH   8   9
ENDBRANCH   7   8
ENDBRANCH   6   7
ENDBRANCH   5   6
ENDBRANCH   4   5
ENDBRANCH   3   4
TORSDOF 11
ENDMDL
MODEL      450
REMARK 921   NORMALIZED FREE ENERGY PREDICTED BY IDOCK:   -1.99 KCAL/MOL
REMARK 922        TOTAL FREE ENERGY PREDICTED BY IDOCK:   -4.71 KCAL/MOL
REMARK 923 INTER-LIGAND FREE ENERGY PREDICTED BY IDOCK:   -4.05 KCAL/MOL
REMARK 924 INTRA-LIGAND FREE ENERGY PREDICTED BY IDOCK:   -0.67 KCAL/MOL
REMARK 927      BINDING AFFINITY PREDICTED BY RF-SCORE:    0.00 PKD
ROOT
HETATM    1 NA   UNL     1     -13.582  10.118  69.414  1.00  0.00    -0.544 Na 
HETATM    2  C   UNL     2     -12.463  14.326  64.224  1.00  0.00    -0.304 C  
HETATM    3  C   UNL     2     -12.626  13.833  65.653  1.00  0.00    -0.551 C  
ENDROOT
BRANCH   3   4
HETATM    4  C   UNL     2     -11.310  13.268  66.182  1.00  0.00    -0.335 C  
BRANCH   4   5
HETATM    5  C   UNL     2     -10.119  14.161  65.825  1.00  0.00    -0.352 C  
BRANCH   5   6
HETATM    6  C   UNL     2      -9.645  15.022  67.003  1.00  0.00    -0.233 C  
BRANCH   6   7
HETATM    7  C   UNL     2      -9.144  14.172  68.170  1.00  0.00    -0.193 C  
BRANCH   7   8
HETATM    8  C   UNL     2      -8.161  13.086  67.740  1.00  0.00    -0.168 C  
BRANCH   8   9
HETATM    9  C   UNL     2      -6.828  13.187  68.495  1.00  0.00    -0.099 C  
BRANCH   9  10
HETATM   10  C   UNL     2      -5.621  12.589  67.759  1.00  0.00    -0.113 C  
BRANCH  10  11
HETATM   11  C   UNL     2      -5.247  11.194  68.267  1.00  0.00    -0.039 C  
BRANCH  11  12
HETATM   12  C   UNL     2      -5.763  10.058  67.375  1.00  0.00    -0.046 C  
BRANCH  12  13
HETATM   13  C   UNL     2      -7.179   9.591  67.724  1.00  0.00    -0.082 C  
BRANCH  13  14
HETATM   14  O   UNL     2      -8.072  10.045  66.721  1.00  0.00    -0.116 OA 
HETATM   15  S   UNL     2      -9.204   9.010  66.178  1.00  0.00    -0.234 S  
HETATM   16  O   UNL     2      -9.966   9.824  65.227  1.00  0.00    -0.318 OA 
HETATM   17  O   UNL     2      -9.963   8.650  67.370  1.00  0.00    -0.177 OA 
HETATM   18  O   UNL     2      -8.444   7.930  65.574  1.00  0.00    -0.141 OA 
ENDBRANCH  13  14
ENDBRANCH  12  13
ENDBRANCH  11  12
ENDBRANCH  10  11
ENDBRANCH   9  10
ENDBRANCH   8   9
ENDBRANCH   7   8
ENDBRANCH   6   7
ENDBRANCH   5   6
ENDBRANCH   4   5
ENDBRANCH   3   4
TORSDOF 11
ENDMDL
MODEL      451
REMARK 921   NORMALIZED FREE ENERGY PREDICTED BY IDOCK:   -1.99 KCAL/MOL
REMARK 922        TOTAL FREE ENERGY PREDICTED BY IDOCK:   -4.71 KCAL/MOL
REMARK 923 INTER-LIGAND FREE ENERGY PREDICTED BY IDOCK:   -4.20 KCAL/MOL
REMARK 924 INTRA-LIGAND FREE ENERGY PREDICTED BY IDOCK:   -0.51 KCAL/MOL
REMARK 927      BINDING AFFINITY PREDICTED BY RF-SCORE:    0.00 PKD
ROOT
HETATM    1 NA   UNL     1      -9.917   8.838  62.333  1.00  0.00    -0.511 Na 
HETATM    2  C   UNL     2     -12.462  14.216  65.572  1.00  0.00    -0.495 C  
HETATM    3  C   UNL     2     -12.218  12.765  65.185  1.00  0.00    -0.530 C  
ENDROOT
BRANCH   3   4
HETATM    4  C   UNL     2     -11.018  12.200  65.941  1.00  0.00    -0.332 C  
BRANCH   4   5
HETATM    5  C   UNL     2      -9.987  13.282  66.269  1.00  0.00    -0.291 C  
BRANCH   5   6
HETATM    6  C   UNL     2      -9.080  12.904  67.448  1.00  0.00    -0.197 C  
BRANCH   6   7
HETATM    7  C   UNL     2      -8.247  11.657  67.154  1.00  0.00    -0.165 C  
BRANCH   7   8
HETATM    8  C   UNL     2      -6.750  11.878  67.359  1.00  0.00    -0.126 C  
BRANCH   8   9
HETATM    9  C   UNL     2      -5.910  11.094  66.340  1.00  0.00    -0.148 C  
BRANCH   9  10
HETATM   10  C   UNL     2      -5.779   9.593  66.629  1.00  0.00    -0.054 C  
BRANCH  10  11
HETATM   11  C   UNL     2      -7.014   8.795  66.202  1.00  0.00    -0.081 C  
BRANCH  11  12
HETATM   12  C   UNL     2      -7.355   7.640  67.151  1.00  0.00    -0.091 C  
BRANCH  12  13
HETATM   13  C   UNL     2      -8.589   6.836  66.731  1.00  0.00    -0.119 C  
BRANCH  13  14
HETATM   14  O   UNL     2      -9.185   6.275  67.888  1.00  0.00    -0.119 OA 
HETATM   15  S   UNL     2     -10.691   6.750  68.280  1.00  0.00    -0.227 S  
HETATM   16  O   UNL     2     -10.998   5.933  69.458  1.00  0.00    -0.346 OA 
HETATM   17  O   UNL     2     -11.493   6.406  67.112  1.00  0.00    -0.182 OA 
HETATM   18  O   UNL     2     -10.561   8.171  68.550  1.00  0.00    -0.186 OA 
ENDBRANCH  13  14
ENDBRANCH  12  13
ENDBRANCH  11  12
ENDBRANCH  10  11
ENDBRANCH   9  10
ENDBRANCH   8   9
ENDBRANCH   7   8
ENDBRANCH   6   7
ENDBRANCH   5   6
ENDBRANCH   4   5
ENDBRANCH   3   4
TORSDOF 11
ENDMDL
MODEL      452
REMARK 921   NORMALIZED FREE ENERGY PREDICTED BY IDOCK:   -1.98 KCAL/MOL
REMARK 922        TOTAL FREE ENERGY PREDICTED BY IDOCK:   -4.69 KCAL/MOL
REMARK 923 INTER-LIGAND FREE ENERGY PREDICTED BY IDOCK:   -4.12 KCAL/MOL
REMARK 924 INTRA-LIGAND FREE ENERGY PREDICTED BY IDOCK:   -0.57 KCAL/MOL
REMARK 927      BINDING AFFINITY PREDICTED BY RF-SCORE:    0.00 PKD
ROOT
HETATM    1 NA   UNL     1     -12.202   6.500  67.137  1.00  0.00    -0.656 Na 
HETATM    2  C   UNL     2      -9.408   5.878  73.278  1.00  0.00    -0.135 C  
HETATM    3  C   UNL     2      -9.531   5.927  71.762  1.00  0.00    -0.168 C  
ENDROOT
BRANCH   3   4
HETATM    4  C   UNL     2      -9.406   7.362  71.257  1.00  0.00    -0.158 C  
BRANCH   4   5
HETATM    5  C   UNL     2      -7.945   7.792  71.111  1.00  0.00    -0.090 C  
BRANCH   5   6
HETATM    6  C   UNL     2      -7.591   8.227  69.682  1.00  0.00    -0.094 C  
BRANCH   6   7
HETATM    7  C   UNL     2      -7.531   9.747  69.543  1.00  0.00    -0.101 C  
BRANCH   7   8
HETATM    8  C   UNL     2      -8.880  10.368  69.188  1.00  0.00    -0.180 C  
BRANCH   8   9
HETATM    9  C   UNL     2      -9.014  10.629  67.681  1.00  0.00    -0.139 C  
BRANCH   9  10
HETATM   10  C   UNL     2      -9.033  12.110  67.280  1.00  0.00    -0.184 C  
BRANCH  10  11
HETATM   11  C   UNL     2      -7.638  12.739  67.261  1.00  0.00    -0.116 C  
BRANCH  11  12
HETATM   12  C   UNL     2      -7.573  14.107  67.951  1.00  0.00    -0.162 C  
BRANCH  12  13
HETATM   13  C   UNL     2      -8.897  14.876  67.928  1.00  0.00    -0.165 C  
BRANCH  13  14
HETATM   14  O   UNL     2      -9.125  15.356  66.614  1.00  0.00    -0.236 OA 
HETATM   15  S   UNL     2     -10.592  15.968  66.267  1.00  0.00    -0.250 S  
HETATM   16  O   UNL     2     -10.443  16.415  64.879  1.00  0.00    -0.643 OA 
HETATM   17  O   UNL     2     -10.757  17.065  67.213  1.00  0.00    -0.299 OA 
HETATM   18  O   UNL     2     -11.501  14.850  66.446  1.00  0.00    -0.344 OA 
ENDBRANCH  13  14
ENDBRANCH  12  13
ENDBRANCH  11  12
ENDBRANCH  10  11
ENDBRANCH   9  10
ENDBRANCH   8   9
ENDBRANCH   7   8
ENDBRANCH   6   7
ENDBRANCH   5   6
ENDBRANCH   4   5
ENDBRANCH   3   4
TORSDOF 11
ENDMDL
MODEL      453
REMARK 921   NORMALIZED FREE ENERGY PREDICTED BY IDOCK:   -1.98 KCAL/MOL
REMARK 922        TOTAL FREE ENERGY PREDICTED BY IDOCK:   -4.69 KCAL/MOL
REMARK 923 INTER-LIGAND FREE ENERGY PREDICTED BY IDOCK:   -4.67 KCAL/MOL
REMARK 924 INTRA-LIGAND FREE ENERGY PREDICTED BY IDOCK:   -0.02 KCAL/MOL
REMARK 927      BINDING AFFINITY PREDICTED BY RF-SCORE:    0.00 PKD
ROOT
HETATM    1 NA   UNL     1     -13.895   9.324  70.805  1.00  0.00    -0.467 Na 
HETATM    2  C   UNL     2      -9.827   5.300  74.432  1.00  0.00    -0.213 C  
HETATM    3  C   UNL     2     -10.709   5.786  73.291  1.00  0.00    -0.297 C  
ENDROOT
BRANCH   3   4
HETATM    4  C   UNL     2      -9.899   6.617  72.301  1.00  0.00    -0.162 C  
BRANCH   4   5
HETATM    5  C   UNL     2     -10.108   6.153  70.857  1.00  0.00    -0.237 C  
BRANCH   5   6
HETATM    6  C   UNL     2     -10.207   7.319  69.864  1.00  0.00    -0.210 C  
BRANCH   6   7
HETATM    7  C   UNL     2      -8.958   7.436  68.991  1.00  0.00    -0.131 C  
BRANCH   7   8
HETATM    8  C   UNL     2      -9.264   7.913  67.573  1.00  0.00    -0.152 C  
BRANCH   8   9
HETATM    9  C   UNL     2     -10.588   8.688  67.502  1.00  0.00    -0.292 C  
BRANCH   9  10
HETATM   10  C   UNL     2     -10.445  10.183  67.189  1.00  0.00    -0.305 C  
BRANCH  10  11
HETATM   11  C   UNL     2     -10.726  11.074  68.402  1.00  0.00    -0.240 C  
BRANCH  11  12
HETATM   12  C   UNL     2     -11.168  12.495  68.029  1.00  0.00    -0.316 C  
BRANCH  12  13
HETATM   13  C   UNL     2     -10.042  13.368  67.469  1.00  0.00    -0.227 C  
BRANCH  13  14
HETATM   14  O   UNL     2     -10.215  13.497  66.068  1.00  0.00    -0.292 OA 
HETATM   15  S   UNL     2     -11.482  14.365  65.530  1.00  0.00    -0.348 S  
HETATM   16  O   UNL     2     -11.305  14.338  64.075  1.00  0.00    -0.141 OA 
HETATM   17  O   UNL     2     -11.284  15.687  66.113  1.00  0.00    -0.200 OA 
HETATM   18  O   UNL     2     -12.645  13.641  66.010  1.00  0.00    -0.441 OA 
ENDBRANCH  13  14
ENDBRANCH  12  13
ENDBRANCH  11  12
ENDBRANCH  10  11
ENDBRANCH   9  10
ENDBRANCH   8   9
ENDBRANCH   7   8
ENDBRANCH   6   7
ENDBRANCH   5   6
ENDBRANCH   4   5
ENDBRANCH   3   4
TORSDOF 11
ENDMDL
MODEL      454
REMARK 921   NORMALIZED FREE ENERGY PREDICTED BY IDOCK:   -1.97 KCAL/MOL
REMARK 922        TOTAL FREE ENERGY PREDICTED BY IDOCK:   -4.68 KCAL/MOL
REMARK 923 INTER-LIGAND FREE ENERGY PREDICTED BY IDOCK:   -3.92 KCAL/MOL
REMARK 924 INTRA-LIGAND FREE ENERGY PREDICTED BY IDOCK:   -0.75 KCAL/MOL
REMARK 927      BINDING AFFINITY PREDICTED BY RF-SCORE:    0.00 PKD
ROOT
HETATM    1 NA   UNL     1      -9.818   8.021  74.520  1.00  0.00    -0.367 Na 
HETATM    2  C   UNL     2     -11.544   1.569  73.387  1.00  0.00    -0.296 C  
HETATM    3  C   UNL     2     -10.850   2.912  73.221  1.00  0.00    -0.279 C  
ENDROOT
BRANCH   3   4
HETATM    4  C   UNL     2      -9.607   2.990  74.101  1.00  0.00    -0.121 C  
BRANCH   4   5
HETATM    5  C   UNL     2      -8.322   2.768  73.300  1.00  0.00    -0.071 C  
BRANCH   5   6
HETATM    6  C   UNL     2      -8.192   3.722  72.105  1.00  0.00    -0.077 C  
BRANCH   6   7
HETATM    7  C   UNL     2      -7.821   5.139  72.540  1.00  0.00    -0.101 C  
BRANCH   7   8
HETATM    8  C   UNL     2      -8.917   6.160  72.245  1.00  0.00    -0.137 C  
BRANCH   8   9
HETATM    9  C   UNL     2      -9.324   6.155  70.764  1.00  0.00    -0.170 C  
BRANCH   9  10
HETATM   10  C   UNL     2      -9.538   7.543  70.148  1.00  0.00    -0.168 C  
BRANCH  10  11
HETATM   11  C   UNL     2      -9.417   7.541  68.621  1.00  0.00    -0.146 C  
BRANCH  11  12
HETATM   12  C   UNL     2      -9.183   8.934  68.024  1.00  0.00    -0.147 C  
BRANCH  12  13
HETATM   13  C   UNL     2     -10.459   9.614  67.519  1.00  0.00    -0.262 C  
BRANCH  13  14
HETATM   14  O   UNL     2     -10.960  10.463  68.537  1.00  0.00    -0.223 OA 
HETATM   15  S   UNL     2     -11.130  12.045  68.199  1.00  0.00    -0.267 S  
HETATM   16  O   UNL     2     -11.721  12.583  69.428  1.00  0.00    -0.293 OA 
HETATM   17  O   UNL     2     -12.040  12.074  67.060  1.00  0.00    -0.603 OA 
HETATM   18  O   UNL     2      -9.779  12.503  67.928  1.00  0.00    -0.192 OA 
ENDBRANCH  13  14
ENDBRANCH  12  13
ENDBRANCH  11  12
ENDBRANCH  10  11
ENDBRANCH   9  10
ENDBRANCH   8   9
ENDBRANCH   7   8
ENDBRANCH   6   7
ENDBRANCH   5   6
ENDBRANCH   4   5
ENDBRANCH   3   4
TORSDOF 11
ENDMDL
MODEL      455
REMARK 921   NORMALIZED FREE ENERGY PREDICTED BY IDOCK:   -1.97 KCAL/MOL
REMARK 922        TOTAL FREE ENERGY PREDICTED BY IDOCK:   -4.67 KCAL/MOL
REMARK 923 INTER-LIGAND FREE ENERGY PREDICTED BY IDOCK:   -3.92 KCAL/MOL
REMARK 924 INTRA-LIGAND FREE ENERGY PREDICTED BY IDOCK:   -0.75 KCAL/MOL
REMARK 927      BINDING AFFINITY PREDICTED BY RF-SCORE:    0.00 PKD
ROOT
HETATM    1 NA   UNL     1      -9.830   8.764  62.504  1.00  0.00    -0.529 Na 
HETATM    2  C   UNL     2     -12.019  13.909  66.329  1.00  0.00    -0.462 C  
HETATM    3  C   UNL     2     -11.903  12.507  65.752  1.00  0.00    -0.494 C  
ENDROOT
BRANCH   3   4
HETATM    4  C   UNL     2     -10.833  11.707  66.488  1.00  0.00    -0.328 C  
BRANCH   4   5
HETATM    5  C   UNL     2      -9.458  12.374  66.400  1.00  0.00    -0.240 C  
BRANCH   5   6
HETATM    6  C   UNL     2      -8.595  12.127  67.645  1.00  0.00    -0.166 C  
BRANCH   6   7
HETATM    7  C   UNL     2      -8.462  10.639  67.965  1.00  0.00    -0.119 C  
BRANCH   7   8
HETATM    8  C   UNL     2      -8.187  10.369  69.443  1.00  0.00    -0.158 C  
BRANCH   8   9
HETATM    9  C   UNL     2      -8.916   9.112  69.941  1.00  0.00    -0.183 C  
BRANCH   9  10
HETATM   10  C   UNL     2     -10.366   8.972  69.461  1.00  0.00    -0.211 C  
BRANCH  10  11
HETATM   11  C   UNL     2     -10.909   7.548  69.614  1.00  0.00    -0.210 C  
BRANCH  11  12
HETATM   12  C   UNL     2      -9.843   6.530  70.038  1.00  0.00    -0.183 C  
BRANCH  12  13
HETATM   13  C   UNL     2     -10.295   5.072  69.913  1.00  0.00    -0.228 C  
BRANCH  13  14
HETATM   14  O   UNL     2      -9.329   4.356  69.162  1.00  0.00    -0.128 OA 
HETATM   15  S   UNL     2      -8.550   3.128  69.891  1.00  0.00    -0.067 S  
HETATM   16  O   UNL     2      -7.703   2.593  68.821  1.00  0.00    -0.047 OA 
HETATM   17  O   UNL     2      -9.613   2.217  70.297  1.00  0.00    -0.111 OA 
HETATM   18  O   UNL     2      -7.821   3.758  70.978  1.00  0.00    -0.059 OA 
ENDBRANCH  13  14
ENDBRANCH  12  13
ENDBRANCH  11  12
ENDBRANCH  10  11
ENDBRANCH   9  10
ENDBRANCH   8   9
ENDBRANCH   7   8
ENDBRANCH   6   7
ENDBRANCH   5   6
ENDBRANCH   4   5
ENDBRANCH   3   4
TORSDOF 11
ENDMDL
MODEL      456
REMARK 921   NORMALIZED FREE ENERGY PREDICTED BY IDOCK:   -1.97 KCAL/MOL
REMARK 922        TOTAL FREE ENERGY PREDICTED BY IDOCK:   -4.66 KCAL/MOL
REMARK 923 INTER-LIGAND FREE ENERGY PREDICTED BY IDOCK:   -4.12 KCAL/MOL
REMARK 924 INTRA-LIGAND FREE ENERGY PREDICTED BY IDOCK:   -0.54 KCAL/MOL
REMARK 927      BINDING AFFINITY PREDICTED BY RF-SCORE:    0.00 PKD
ROOT
HETATM    1 NA   UNL     1     -13.032  14.389  67.694  1.00  0.00    -0.584 Na 
HETATM    2  C   UNL     2      -9.801  20.161  66.230  1.00  0.00    -0.541 C  
HETATM    3  C   UNL     2     -10.735  19.184  66.927  1.00  0.00    -0.515 C  
ENDROOT
BRANCH   3   4
HETATM    4  C   UNL     2      -9.994  18.414  68.017  1.00  0.00    -0.374 C  
BRANCH   4   5
HETATM    5  C   UNL     2     -10.439  16.952  68.088  1.00  0.00    -0.350 C  
BRANCH   5   6
HETATM    6  C   UNL     2      -9.375  15.979  67.562  1.00  0.00    -0.217 C  
BRANCH   6   7
HETATM    7  C   UNL     2      -9.985  14.867  66.709  1.00  0.00    -0.252 C  
BRANCH   7   8
HETATM    8  C   UNL     2      -8.938  13.935  66.105  1.00  0.00     0.200 C  
BRANCH   8   9
HETATM    9  C   UNL     2      -8.849  12.603  66.865  1.00  0.00    -0.201 C  
BRANCH   9  10
HETATM   10  C   UNL     2      -8.104  12.671  68.204  1.00  0.00    -0.164 C  
BRANCH  10  11
HETATM   11  C   UNL     2      -7.261  11.423  68.480  1.00  0.00    -0.093 C  
BRANCH  11  12
HETATM   12  C   UNL     2      -8.050  10.284  69.135  1.00  0.00    -0.138 C  
BRANCH  12  13
HETATM   13  C   UNL     2      -7.690   8.894  68.603  1.00  0.00    -0.097 C  
BRANCH  13  14
HETATM   14  O   UNL     2      -8.864   8.101  68.560  1.00  0.00    -0.134 OA 
HETATM   15  S   UNL     2      -9.294   7.447  67.133  1.00  0.00    -0.149 S  
HETATM   16  O   UNL     2     -10.483   6.660  67.477  1.00  0.00    -0.178 OA 
HETATM   17  O   UNL     2      -8.149   6.628  66.754  1.00  0.00    -0.110 OA 
HETATM   18  O   UNL     2      -9.554   8.589  66.276  1.00  0.00    -0.225 OA 
ENDBRANCH  13  14
ENDBRANCH  12  13
ENDBRANCH  11  12
ENDBRANCH  10  11
ENDBRANCH   9  10
ENDBRANCH   8   9
ENDBRANCH   7   8
ENDBRANCH   6   7
ENDBRANCH   5   6
ENDBRANCH   4   5
ENDBRANCH   3   4
TORSDOF 11
ENDMDL
MODEL      457
REMARK 921   NORMALIZED FREE ENERGY PREDICTED BY IDOCK:   -1.92 KCAL/MOL
REMARK 922        TOTAL FREE ENERGY PREDICTED BY IDOCK:   -4.59 KCAL/MOL
REMARK 923 INTER-LIGAND FREE ENERGY PREDICTED BY IDOCK:   -3.44 KCAL/MOL
REMARK 924 INTRA-LIGAND FREE ENERGY PREDICTED BY IDOCK:   -1.15 KCAL/MOL
REMARK 927      BINDING AFFINITY PREDICTED BY RF-SCORE:    0.00 PKD
ROOT
HETATM    1 NA   UNL     1     -12.392  12.510  67.626  1.00  0.00    -0.336 Na 
HETATM    2  C   UNL     2     -10.300   6.856  70.718  1.00  0.00    -0.223 C  
HETATM    3  C   UNL     2     -10.924   7.763  69.668  1.00  0.00    -0.128 C  
ENDROOT
BRANCH   3   4
HETATM    4  C   UNL     2      -9.865   8.265  68.691  1.00  0.00    -0.186 C  
BRANCH   4   5
HETATM    5  C   UNL     2     -10.237   7.963  67.238  1.00  0.00    -0.343 C  
BRANCH   5   6
HETATM    6  C   UNL     2      -9.558   8.910  66.239  1.00  0.00    -0.328 C  
BRANCH   6   7
HETATM    7  C   UNL     2     -10.084  10.340  66.355  1.00  0.00    -0.296 C  
BRANCH   7   8
HETATM    8  C   UNL     2      -8.985  11.358  66.649  1.00  0.00    -0.183 C  
BRANCH   8   9
HETATM    9  C   UNL     2      -7.594  10.824  66.277  1.00  0.00    -0.142 C  
BRANCH   9  10
HETATM   10  C   UNL     2      -6.559  10.872  67.409  1.00  0.00    -0.069 C  
BRANCH  10  11
HETATM   11  C   UNL     2      -7.174  11.240  68.762  1.00  0.00    -0.104 C  
BRANCH  11  12
HETATM   12  C   UNL     2      -6.548  12.486  69.400  1.00  0.00    -0.073 C  
BRANCH  12  13
HETATM   13  C   UNL     2      -5.952  13.468  68.388  1.00  0.00    -0.095 C  
BRANCH  13  14
HETATM   14  O   UNL     2      -6.992  14.279  67.870  1.00  0.00    -0.128 OA 
HETATM   15  S   UNL     2      -6.739  15.884  67.778  1.00  0.00    -0.173 S  
HETATM   16  O   UNL     2      -7.968  16.376  67.149  1.00  0.00    -0.155 OA 
HETATM   17  O   UNL     2      -5.561  16.014  66.929  1.00  0.00    -0.321 OA 
HETATM   18  O   UNL     2      -6.560  16.299  69.158  1.00  0.00    -0.160 OA 
ENDBRANCH  13  14
ENDBRANCH  12  13
ENDBRANCH  11  12
ENDBRANCH  10  11
ENDBRANCH   9  10
ENDBRANCH   8   9
ENDBRANCH   7   8
ENDBRANCH   6   7
ENDBRANCH   5   6
ENDBRANCH   4   5
ENDBRANCH   3   4
TORSDOF 11
ENDMDL
MODEL      458
REMARK 921   NORMALIZED FREE ENERGY PREDICTED BY IDOCK:   -1.87 KCAL/MOL
REMARK 922        TOTAL FREE ENERGY PREDICTED BY IDOCK:   -4.50 KCAL/MOL
REMARK 923 INTER-LIGAND FREE ENERGY PREDICTED BY IDOCK:   -3.82 KCAL/MOL
REMARK 924 INTRA-LIGAND FREE ENERGY PREDICTED BY IDOCK:   -0.68 KCAL/MOL
REMARK 927      BINDING AFFINITY PREDICTED BY RF-SCORE:    0.00 PKD
ROOT
HETATM    1 NA   UNL     1     -14.155   7.056  70.758  1.00  0.00    -0.434 Na 
HETATM    2  C   UNL     2     -12.275  13.561  70.525  1.00  0.00    -0.433 C  
HETATM    3  C   UNL     2     -12.174  12.048  70.642  1.00  0.00    -0.409 C  
ENDROOT
BRANCH   3   4
HETATM    4  C   UNL     2     -12.063  11.406  69.263  1.00  0.00    -0.356 C  
BRANCH   4   5
HETATM    5  C   UNL     2     -11.323  12.305  68.270  1.00  0.00    -0.339 C  
BRANCH   5   6
HETATM    6  C   UNL     2     -10.419  11.519  67.311  1.00  0.00    -0.246 C  
BRANCH   6   7
HETATM    7  C   UNL     2     -10.938  10.103  67.064  1.00  0.00    -0.162 C  
BRANCH   7   8
HETATM    8  C   UNL     2      -9.829   9.114  66.711  1.00  0.00    -0.291 C  
BRANCH   8   9
HETATM    9  C   UNL     2      -9.987   7.784  67.462  1.00  0.00    -0.242 C  
BRANCH   9  10
HETATM   10  C   UNL     2     -10.951   6.784  66.809  1.00  0.00    -0.248 C  
BRANCH  10  11
HETATM   11  C   UNL     2     -10.235   5.567  66.217  1.00  0.00    -0.200 C  
BRANCH  11  12
HETATM   12  C   UNL     2     -10.010   4.438  67.230  1.00  0.00    -0.164 C  
BRANCH  12  13
HETATM   13  C   UNL     2      -8.547   4.263  67.648  1.00  0.00    -0.103 C  
BRANCH  13  14
HETATM   14  O   UNL     2      -7.747   5.164  66.904  1.00  0.00    -0.091 OA 
HETATM   15  S   UNL     2      -6.242   5.475  67.440  1.00  0.00    -0.032 S  
HETATM   16  O   UNL     2      -5.704   6.370  66.411  1.00  0.00    -0.013 OA 
HETATM   17  O   UNL     2      -5.594   4.169  67.469  1.00  0.00    -0.019 OA 
HETATM   18  O   UNL     2      -6.444   6.099  68.735  1.00  0.00    -0.042 OA 
ENDBRANCH  13  14
ENDBRANCH  12  13
ENDBRANCH  11  12
ENDBRANCH  10  11
ENDBRANCH   9  10
ENDBRANCH   8   9
ENDBRANCH   7   8
ENDBRANCH   6   7
ENDBRANCH   5   6
ENDBRANCH   4   5
ENDBRANCH   3   4
TORSDOF 11
ENDMDL
MODEL      459
REMARK 921   NORMALIZED FREE ENERGY PREDICTED BY IDOCK:   -1.83 KCAL/MOL
REMARK 922        TOTAL FREE ENERGY PREDICTED BY IDOCK:   -4.45 KCAL/MOL
REMARK 923 INTER-LIGAND FREE ENERGY PREDICTED BY IDOCK:   -4.34 KCAL/MOL
REMARK 924 INTRA-LIGAND FREE ENERGY PREDICTED BY IDOCK:   -0.11 KCAL/MOL
REMARK 927      BINDING AFFINITY PREDICTED BY RF-SCORE:    0.00 PKD
ROOT
HETATM    1 NA   UNL     1      -7.354  14.294  70.916  1.00  0.00    -0.400 Na 
HETATM    2  C   UNL     2      -6.847  20.448  68.130  1.00  0.00    -0.305 C  
HETATM    3  C   UNL     2      -6.626  19.296  69.097  1.00  0.00    -0.342 C  
ENDROOT
BRANCH   3   4
HETATM    4  C   UNL     2      -5.500  18.389  68.607  1.00  0.00    -0.181 C  
BRANCH   4   5
HETATM    5  C   UNL     2      -6.035  17.090  67.999  1.00  0.00    -0.128 C  
BRANCH   5   6
HETATM    6  C   UNL     2      -6.694  17.300  66.630  1.00  0.00    -0.268 C  
BRANCH   6   7
HETATM    7  C   UNL     2      -7.917  16.404  66.438  1.00  0.00    -0.329 C  
BRANCH   7   8
HETATM    8  C   UNL     2      -8.254  15.580  67.679  1.00  0.00    -0.168 C  
BRANCH   8   9
HETATM    9  C   UNL     2      -7.500  14.242  67.702  1.00  0.00    -0.194 C  
BRANCH   9  10
HETATM   10  C   UNL     2      -8.301  13.040  67.186  1.00  0.00    -0.153 C  
BRANCH  10  11
HETATM   11  C   UNL     2      -9.591  12.801  67.976  1.00  0.00    -0.217 C  
BRANCH  11  12
HETATM   12  C   UNL     2     -10.574  11.857  67.273  1.00  0.00    -0.261 C  
BRANCH  12  13
HETATM   13  C   UNL     2     -11.766  11.446  68.140  1.00  0.00    -0.284 C  
BRANCH  13  14
HETATM   14  O   UNL     2     -11.655  10.068  68.449  1.00  0.00    -0.068 OA 
HETATM   15  S   UNL     2     -10.906   9.651  69.832  1.00  0.00    -0.270 S  
HETATM   16  O   UNL     2     -11.037   8.191  69.851  1.00  0.00    -0.212 OA 
HETATM   17  O   UNL     2     -11.680  10.315  70.874  1.00  0.00    -0.333 OA 
HETATM   18  O   UNL     2      -9.546  10.132  69.664  1.00  0.00    -0.225 OA 
ENDBRANCH  13  14
ENDBRANCH  12  13
ENDBRANCH  11  12
ENDBRANCH  10  11
ENDBRANCH   9  10
ENDBRANCH   8   9
ENDBRANCH   7   8
ENDBRANCH   6   7
ENDBRANCH   5   6
ENDBRANCH   4   5
ENDBRANCH   3   4
TORSDOF 11
ENDMDL
MODEL      460
REMARK 921   NORMALIZED FREE ENERGY PREDICTED BY IDOCK:   -1.81 KCAL/MOL
REMARK 922        TOTAL FREE ENERGY PREDICTED BY IDOCK:   -4.42 KCAL/MOL
REMARK 923 INTER-LIGAND FREE ENERGY PREDICTED BY IDOCK:   -4.03 KCAL/MOL
REMARK 924 INTRA-LIGAND FREE ENERGY PREDICTED BY IDOCK:   -0.38 KCAL/MOL
REMARK 927      BINDING AFFINITY PREDICTED BY RF-SCORE:    0.00 PKD
ROOT
HETATM    1 NA   UNL     1      -9.151  12.715  63.444  1.00  0.00    -0.514 Na 
HETATM    2  C   UNL     2     -10.173  18.611  66.621  1.00  0.00    -0.441 C  
HETATM    3  C   UNL     2     -10.273  17.129  66.292  1.00  0.00    -0.340 C  
ENDROOT
BRANCH   3   4
HETATM    4  C   UNL     2      -9.137  16.352  66.952  1.00  0.00    -0.238 C  
BRANCH   4   5
HETATM    5  C   UNL     2      -9.657  15.307  67.941  1.00  0.00    -0.199 C  
BRANCH   5   6
HETATM    6  C   UNL     2     -10.918  14.590  67.444  1.00  0.00    -0.306 C  
BRANCH   6   7
HETATM    7  C   UNL     2     -11.301  13.412  68.339  1.00  0.00    -0.329 C  
BRANCH   7   8
HETATM    8  C   UNL     2     -10.824  12.068  67.794  1.00  0.00    -0.256 C  
BRANCH   8   9
HETATM    9  C   UNL     2     -10.363  11.125  68.915  1.00  0.00    -0.220 C  
BRANCH   9  10
HETATM   10  C   UNL     2     -10.643   9.637  68.663  1.00  0.00    -0.246 C  
BRANCH  10  11
HETATM   11  C   UNL     2     -11.245   8.931  69.880  1.00  0.00    -0.076 C  
BRANCH  11  12
HETATM   12  C   UNL     2     -10.196   8.434  70.882  1.00  0.00    -0.234 C  
BRANCH  12  13
HETATM   13  C   UNL     2      -9.974   6.919  70.847  1.00  0.00    -0.189 C  
BRANCH  13  14
HETATM   14  O   UNL     2      -9.116   6.606  69.763  1.00  0.00    -0.142 OA 
HETATM   15  S   UNL     2      -7.550   6.309  70.088  1.00  0.00    -0.098 S  
HETATM   16  O   UNL     2      -7.001   5.964  68.773  1.00  0.00    -0.067 OA 
HETATM   17  O   UNL     2      -7.581   5.185  71.015  1.00  0.00    -0.081 OA 
HETATM   18  O   UNL     2      -7.054   7.558  70.639  1.00  0.00    -0.057 OA 
ENDBRANCH  13  14
ENDBRANCH  12  13
ENDBRANCH  11  12
ENDBRANCH  10  11
ENDBRANCH   9  10
ENDBRANCH   8   9
ENDBRANCH   7   8
ENDBRANCH   6   7
ENDBRANCH   5   6
ENDBRANCH   4   5
ENDBRANCH   3   4
TORSDOF 11
ENDMDL
MODEL      461
REMARK 921   NORMALIZED FREE ENERGY PREDICTED BY IDOCK:   -1.81 KCAL/MOL
REMARK 922        TOTAL FREE ENERGY PREDICTED BY IDOCK:   -4.41 KCAL/MOL
REMARK 923 INTER-LIGAND FREE ENERGY PREDICTED BY IDOCK:   -3.80 KCAL/MOL
REMARK 924 INTRA-LIGAND FREE ENERGY PREDICTED BY IDOCK:   -0.61 KCAL/MOL
REMARK 927      BINDING AFFINITY PREDICTED BY RF-SCORE:    0.00 PKD
ROOT
HETATM    1 NA   UNL     1      -9.813   8.795  62.490  1.00  0.00    -0.529 Na 
HETATM    2  C   UNL     2     -12.481  14.139  65.687  1.00  0.00    -0.490 C  
HETATM    3  C   UNL     2     -12.205  12.692  65.309  1.00  0.00    -0.532 C  
ENDROOT
BRANCH   3   4
HETATM    4  C   UNL     2     -10.997  12.156  66.072  1.00  0.00    -0.332 C  
BRANCH   4   5
HETATM    5  C   UNL     2      -9.767  13.048  65.896  1.00  0.00    -0.187 C  
BRANCH   5   6
HETATM    6  C   UNL     2      -8.864  13.073  67.136  1.00  0.00    -0.218 C  
BRANCH   6   7
HETATM    7  C   UNL     2      -8.286  11.694  67.453  1.00  0.00    -0.153 C  
BRANCH   7   8
HETATM    8  C   UNL     2      -6.771  11.712  67.642  1.00  0.00    -0.087 C  
BRANCH   8   9
HETATM    9  C   UNL     2      -6.301  10.621  68.615  1.00  0.00    -0.046 C  
BRANCH   9  10
HETATM   10  C   UNL     2      -7.213  10.403  69.831  1.00  0.00    -0.157 C  
BRANCH  10  11
HETATM   11  C   UNL     2      -7.051   9.014  70.454  1.00  0.00    -0.065 C  
BRANCH  11  12
HETATM   12  C   UNL     2      -8.367   8.235  70.562  1.00  0.00    -0.124 C  
BRANCH  12  13
HETATM   13  C   UNL     2      -8.316   7.065  71.549  1.00  0.00    -0.112 C  
BRANCH  13  14
HETATM   14  O   UNL     2      -7.177   7.215  72.378  1.00  0.00    -0.068 OA 
HETATM   15  S   UNL     2      -7.415   7.449  73.971  1.00  0.00    -0.117 S  
HETATM   16  O   UNL     2      -6.050   7.490  74.505  1.00  0.00    -0.080 OA 
HETATM   17  O   UNL     2      -8.169   6.276  74.398  1.00  0.00    -0.120 OA 
HETATM   18  O   UNL     2      -8.130   8.710  74.046  1.00  0.00    -0.385 OA 
ENDBRANCH  13  14
ENDBRANCH  12  13
ENDBRANCH  11  12
ENDBRANCH  10  11
ENDBRANCH   9  10
ENDBRANCH   8   9
ENDBRANCH   7   8
ENDBRANCH   6   7
ENDBRANCH   5   6
ENDBRANCH   4   5
ENDBRANCH   3   4
TORSDOF 11
ENDMDL
MODEL      462
REMARK 921   NORMALIZED FREE ENERGY PREDICTED BY IDOCK:   -1.80 KCAL/MOL
REMARK 922        TOTAL FREE ENERGY PREDICTED BY IDOCK:   -4.39 KCAL/MOL
REMARK 923 INTER-LIGAND FREE ENERGY PREDICTED BY IDOCK:   -3.53 KCAL/MOL
REMARK 924 INTRA-LIGAND FREE ENERGY PREDICTED BY IDOCK:   -0.85 KCAL/MOL
REMARK 927      BINDING AFFINITY PREDICTED BY RF-SCORE:    0.00 PKD
ROOT
HETATM    1 NA   UNL     1      -9.886   8.762  63.034  1.00  0.00    -0.399 Na 
HETATM    2  C   UNL     2     -12.910  14.273  65.560  1.00  0.00    -0.334 C  
HETATM    3  C   UNL     2     -12.243  12.907  65.507  1.00  0.00    -0.527 C  
ENDROOT
BRANCH   3   4
HETATM    4  C   UNL     2     -10.725  13.045  65.580  1.00  0.00    -0.299 C  
BRANCH   4   5
HETATM    5  C   UNL     2     -10.157  12.454  66.872  1.00  0.00    -0.230 C  
BRANCH   5   6
HETATM    6  C   UNL     2      -9.409  13.489  67.723  1.00  0.00    -0.213 C  
BRANCH   6   7
HETATM    7  C   UNL     2      -7.897  13.423  67.510  1.00  0.00    -0.181 C  
BRANCH   7   8
HETATM    8  C   UNL     2      -7.102  13.702  68.784  1.00  0.00    -0.103 C  
BRANCH   8   9
HETATM    9  C   UNL     2      -5.741  12.990  68.778  1.00  0.00    -0.072 C  
BRANCH   9  10
HETATM   10  C   UNL     2      -5.813  11.458  68.835  1.00  0.00    -0.047 C  
BRANCH  10  11
HETATM   11  C   UNL     2      -6.467  10.940  70.119  1.00  0.00    -0.145 C  
BRANCH  11  12
HETATM   12  C   UNL     2      -7.602   9.941  69.867  1.00  0.00    -0.167 C  
BRANCH  12  13
HETATM   13  C   UNL     2      -7.408   9.084  68.613  1.00  0.00    -0.077 C  
BRANCH  13  14
HETATM   14  O   UNL     2      -8.669   8.592  68.194  1.00  0.00    -0.139 OA 
HETATM   15  S   UNL     2      -8.742   7.763  66.796  1.00  0.00    -0.142 S  
HETATM   16  O   UNL     2     -10.150   7.363  66.723  1.00  0.00    -0.234 OA 
HETATM   17  O   UNL     2      -7.832   6.642  66.996  1.00  0.00    -0.105 OA 
HETATM   18  O   UNL     2      -8.334   8.724  65.786  1.00  0.00    -0.119 OA 
ENDBRANCH  13  14
ENDBRANCH  12  13
ENDBRANCH  11  12
ENDBRANCH  10  11
ENDBRANCH   9  10
ENDBRANCH   8   9
ENDBRANCH   7   8
ENDBRANCH   6   7
ENDBRANCH   5   6
ENDBRANCH   4   5
ENDBRANCH   3   4
TORSDOF 11
ENDMDL
MODEL      463
REMARK 921   NORMALIZED FREE ENERGY PREDICTED BY IDOCK:   -1.79 KCAL/MOL
REMARK 922        TOTAL FREE ENERGY PREDICTED BY IDOCK:   -4.38 KCAL/MOL
REMARK 923 INTER-LIGAND FREE ENERGY PREDICTED BY IDOCK:   -3.50 KCAL/MOL
REMARK 924 INTRA-LIGAND FREE ENERGY PREDICTED BY IDOCK:   -0.88 KCAL/MOL
REMARK 927      BINDING AFFINITY PREDICTED BY RF-SCORE:    0.00 PKD
ROOT
HETATM    1 NA   UNL     1     -12.690   6.967  71.235  1.00  0.00    -0.295 Na 
HETATM    2  C   UNL     2     -12.137  13.528  69.640  1.00  0.00    -0.365 C  
HETATM    3  C   UNL     2     -11.758  12.067  69.829  1.00  0.00    -0.390 C  
ENDROOT
BRANCH   3   4
HETATM    4  C   UNL     2     -12.146  11.246  68.603  1.00  0.00    -0.211 C  
BRANCH   4   5
HETATM    5  C   UNL     2     -11.534  11.811  67.318  1.00  0.00    -0.373 C  
BRANCH   5   6
HETATM    6  C   UNL     2     -10.064  11.412  67.132  1.00  0.00    -0.226 C  
BRANCH   6   7
HETATM    7  C   UNL     2      -9.874   9.896  67.146  1.00  0.00    -0.235 C  
BRANCH   7   8
HETATM    8  C   UNL     2      -9.207   9.367  65.878  1.00  0.00    -0.269 C  
BRANCH   8   9
HETATM    9  C   UNL     2      -7.681   9.289  66.022  1.00  0.00    -0.096 C  
BRANCH   9  10
HETATM   10  C   UNL     2      -7.179   9.027  67.449  1.00  0.00    -0.083 C  
BRANCH  10  11
HETATM   11  C   UNL     2      -7.121   7.536  67.794  1.00  0.00    -0.085 C  
BRANCH  11  12
HETATM   12  C   UNL     2      -6.343   6.701  66.770  1.00  0.00    -0.042 C  
BRANCH  12  13
HETATM   13  C   UNL     2      -7.210   5.704  65.995  1.00  0.00    -0.073 C  
BRANCH  13  14
HETATM   14  O   UNL     2      -7.811   4.808  66.915  1.00  0.00    -0.097 OA 
HETATM   15  S   UNL     2      -9.397   4.487  66.746  1.00  0.00    -0.164 S  
HETATM   16  O   UNL     2      -9.647   3.497  67.799  1.00  0.00    -0.195 OA 
HETATM   17  O   UNL     2      -9.512   3.941  65.399  1.00  0.00    -0.151 OA 
HETATM   18  O   UNL     2     -10.048   5.768  66.956  1.00  0.00    -0.149 OA 
ENDBRANCH  13  14
ENDBRANCH  12  13
ENDBRANCH  11  12
ENDBRANCH  10  11
ENDBRANCH   9  10
ENDBRANCH   8   9
ENDBRANCH   7   8
ENDBRANCH   6   7
ENDBRANCH   5   6
ENDBRANCH   4   5
ENDBRANCH   3   4
TORSDOF 11
ENDMDL
MODEL      464
REMARK 921   NORMALIZED FREE ENERGY PREDICTED BY IDOCK:   -1.78 KCAL/MOL
REMARK 922        TOTAL FREE ENERGY PREDICTED BY IDOCK:   -4.36 KCAL/MOL
REMARK 923 INTER-LIGAND FREE ENERGY PREDICTED BY IDOCK:   -3.62 KCAL/MOL
REMARK 924 INTRA-LIGAND FREE ENERGY PREDICTED BY IDOCK:   -0.74 KCAL/MOL
REMARK 927      BINDING AFFINITY PREDICTED BY RF-SCORE:    0.00 PKD
ROOT
HETATM    1 NA   UNL     1      -7.316   8.796  66.104  1.00  0.00    -0.074 Na 
HETATM    2  C   UNL     2      -9.203   3.756  70.218  1.00  0.00    -0.219 C  
HETATM    3  C   UNL     2      -8.339   4.835  69.585  1.00  0.00    -0.082 C  
ENDROOT
BRANCH   3   4
HETATM    4  C   UNL     2      -8.605   6.190  70.236  1.00  0.00    -0.140 C  
BRANCH   4   5
HETATM    5  C   UNL     2     -10.049   6.315  70.728  1.00  0.00    -0.229 C  
BRANCH   5   6
HETATM    6  C   UNL     2     -10.153   6.968  72.113  1.00  0.00    -0.198 C  
BRANCH   6   7
HETATM    7  C   UNL     2     -10.679   8.401  72.033  1.00  0.00    -0.387 C  
BRANCH   7   8
HETATM    8  C   UNL     2     -11.757   8.582  70.968  1.00  0.00    -0.310 C  
BRANCH   8   9
HETATM    9  C   UNL     2     -12.098  10.063  70.743  1.00  0.00    -0.418 C  
BRANCH   9  10
HETATM   10  C   UNL     2     -10.980  10.893  70.099  1.00  0.00    -0.153 C  
BRANCH  10  11
HETATM   11  C   UNL     2     -10.867  10.670  68.589  1.00  0.00    -0.266 C  
BRANCH  11  12
HETATM   12  C   UNL     2      -9.463  10.941  68.034  1.00  0.00    -0.167 C  
BRANCH  12  13
HETATM   13  C   UNL     2      -9.215  12.406  67.665  1.00  0.00    -0.185 C  
BRANCH  13  14
HETATM   14  O   UNL     2      -8.377  12.990  68.648  1.00  0.00    -0.094 OA 
HETATM   15  S   UNL     2      -7.245  14.051  68.156  1.00  0.00    -0.150 S  
HETATM   16  O   UNL     2      -6.633  14.487  69.415  1.00  0.00    -0.119 OA 
HETATM   17  O   UNL     2      -8.004  15.102  67.488  1.00  0.00    -0.144 OA 
HETATM   18  O   UNL     2      -6.370  13.273  67.298  1.00  0.00    -0.284 OA 
ENDBRANCH  13  14
ENDBRANCH  12  13
ENDBRANCH  11  12
ENDBRANCH  10  11
ENDBRANCH   9  10
ENDBRANCH   8   9
ENDBRANCH   7   8
ENDBRANCH   6   7
ENDBRANCH   5   6
ENDBRANCH   4   5
ENDBRANCH   3   4
TORSDOF 11
ENDMDL
MODEL      465
REMARK 921   NORMALIZED FREE ENERGY PREDICTED BY IDOCK:   -1.75 KCAL/MOL
REMARK 922        TOTAL FREE ENERGY PREDICTED BY IDOCK:   -4.31 KCAL/MOL
REMARK 923 INTER-LIGAND FREE ENERGY PREDICTED BY IDOCK:   -3.77 KCAL/MOL
REMARK 924 INTRA-LIGAND FREE ENERGY PREDICTED BY IDOCK:   -0.54 KCAL/MOL
REMARK 927      BINDING AFFINITY PREDICTED BY RF-SCORE:    0.00 PKD
ROOT
HETATM    1 NA   UNL     1     -14.172   7.048  70.728  1.00  0.00    -0.434 Na 
HETATM    2  C   UNL     2     -12.500  13.611  70.561  1.00  0.00    -0.394 C  
HETATM    3  C   UNL     2     -12.350  12.101  70.662  1.00  0.00    -0.385 C  
ENDROOT
BRANCH   3   4
HETATM    4  C   UNL     2     -12.223  11.478  69.275  1.00  0.00    -0.245 C  
BRANCH   4   5
HETATM    5  C   UNL     2     -11.599  12.446  68.267  1.00  0.00    -0.384 C  
BRANCH   5   6
HETATM    6  C   UNL     2     -10.714  11.740  67.232  1.00  0.00    -0.279 C  
BRANCH   6   7
HETATM    7  C   UNL     2     -11.113  10.278  67.035  1.00  0.00    -0.104 C  
BRANCH   7   8
HETATM    8  C   UNL     2     -10.091   9.484  66.225  1.00  0.00    -0.327 C  
BRANCH   8   9
HETATM    9  C   UNL     2      -9.911   8.059  66.768  1.00  0.00    -0.344 C  
BRANCH   9  10
HETATM   10  C   UNL     2      -8.557   7.411  66.450  1.00  0.00    -0.138 C  
BRANCH  10  11
HETATM   11  C   UNL     2      -7.809   6.950  67.703  1.00  0.00    -0.112 C  
BRANCH  11  12
HETATM   12  C   UNL     2      -7.982   5.456  68.004  1.00  0.00    -0.096 C  
BRANCH  12  13
HETATM   13  C   UNL     2      -8.692   5.168  69.329  1.00  0.00    -0.096 C  
BRANCH  13  14
HETATM   14  O   UNL     2      -7.900   4.271  70.088  1.00  0.00    -0.052 OA 
HETATM   15  S   UNL     2      -8.241   4.098  71.670  1.00  0.00    -0.092 S  
HETATM   16  O   UNL     2      -7.290   3.069  72.101  1.00  0.00    -0.047 OA 
HETATM   17  O   UNL     2      -9.628   3.649  71.691  1.00  0.00    -0.135 OA 
HETATM   18  O   UNL     2      -8.003   5.414  72.235  1.00  0.00    -0.104 OA 
ENDBRANCH  13  14
ENDBRANCH  12  13
ENDBRANCH  11  12
ENDBRANCH  10  11
ENDBRANCH   9  10
ENDBRANCH   8   9
ENDBRANCH   7   8
ENDBRANCH   6   7
ENDBRANCH   5   6
ENDBRANCH   4   5
ENDBRANCH   3   4
TORSDOF 11
ENDMDL
MODEL      466
REMARK 921   NORMALIZED FREE ENERGY PREDICTED BY IDOCK:   -1.73 KCAL/MOL
REMARK 922        TOTAL FREE ENERGY PREDICTED BY IDOCK:   -4.27 KCAL/MOL
REMARK 923 INTER-LIGAND FREE ENERGY PREDICTED BY IDOCK:   -3.47 KCAL/MOL
REMARK 924 INTRA-LIGAND FREE ENERGY PREDICTED BY IDOCK:   -0.80 KCAL/MOL
REMARK 927      BINDING AFFINITY PREDICTED BY RF-SCORE:    0.00 PKD
ROOT
HETATM    1 NA   UNL     1     -10.439   4.853  68.794  1.00  0.00    -0.177 Na 
HETATM    2  C   UNL     2      -6.196   7.773  64.393  1.00  0.00    -0.052 C  
HETATM    3  C   UNL     2      -7.251   7.629  65.479  1.00  0.00    -0.068 C  
ENDROOT
BRANCH   3   4
HETATM    4  C   UNL     2      -6.598   7.501  66.852  1.00  0.00    -0.061 C  
BRANCH   4   5
HETATM    5  C   UNL     2      -7.594   7.754  67.986  1.00  0.00    -0.120 C  
BRANCH   5   6
HETATM    6  C   UNL     2      -7.245   8.994  68.821  1.00  0.00    -0.075 C  
BRANCH   6   7
HETATM    7  C   UNL     2      -8.380   9.388  69.765  1.00  0.00    -0.161 C  
BRANCH   7   8
HETATM    8  C   UNL     2      -9.595   9.954  69.035  1.00  0.00    -0.188 C  
BRANCH   8   9
HETATM    9  C   UNL     2      -9.304  11.331  68.419  1.00  0.00    -0.181 C  
BRANCH   9  10
HETATM   10  C   UNL     2      -9.802  11.513  66.979  1.00  0.00    -0.212 C  
BRANCH  10  11
HETATM   11  C   UNL     2     -11.321  11.692  66.893  1.00  0.00    -0.364 C  
BRANCH  11  12
HETATM   12  C   UNL     2     -11.784  13.129  67.160  1.00  0.00    -0.430 C  
BRANCH  12  13
HETATM   13  C   UNL     2     -10.913  14.196  66.492  1.00  0.00    -0.309 C  
BRANCH  13  14
HETATM   14  O   UNL     2     -10.243  14.936  67.497  1.00  0.00    -0.232 OA 
HETATM   15  S   UNL     2      -8.754  15.503  67.167  1.00  0.00    -0.229 S  
HETATM   16  O   UNL     2      -8.412  16.256  68.378  1.00  0.00    -0.180 OA 
HETATM   17  O   UNL     2      -8.943  16.349  65.994  1.00  0.00    -0.365 OA 
HETATM   18  O   UNL     2      -7.955  14.310  66.953  1.00  0.00    -0.069 OA 
ENDBRANCH  13  14
ENDBRANCH  12  13
ENDBRANCH  11  12
ENDBRANCH  10  11
ENDBRANCH   9  10
ENDBRANCH   8   9
ENDBRANCH   7   8
ENDBRANCH   6   7
ENDBRANCH   5   6
ENDBRANCH   4   5
ENDBRANCH   3   4
TORSDOF 11
ENDMDL
MODEL      467
REMARK 921   NORMALIZED FREE ENERGY PREDICTED BY IDOCK:   -1.70 KCAL/MOL
REMARK 922        TOTAL FREE ENERGY PREDICTED BY IDOCK:   -4.23 KCAL/MOL
REMARK 923 INTER-LIGAND FREE ENERGY PREDICTED BY IDOCK:   -3.32 KCAL/MOL
REMARK 924 INTRA-LIGAND FREE ENERGY PREDICTED BY IDOCK:   -0.91 KCAL/MOL
REMARK 927      BINDING AFFINITY PREDICTED BY RF-SCORE:    0.00 PKD
ROOT
HETATM    1 NA   UNL     1     -10.090   8.850  69.668  1.00  0.00    -0.172 Na 
HETATM    2  C   UNL     2     -12.630  13.270  65.207  1.00  0.00    -0.528 C  
HETATM    3  C   UNL     2     -11.640  12.596  66.144  1.00  0.00    -0.445 C  
ENDROOT
BRANCH   3   4
HETATM    4  C   UNL     2     -10.896  11.474  65.426  1.00  0.00    -0.318 C  
BRANCH   4   5
HETATM    5  C   UNL     2      -9.415  11.804  65.227  1.00  0.00    -0.132 C  
BRANCH   5   6
HETATM    6  C   UNL     2      -8.485  10.676  65.694  1.00  0.00    -0.180 C  
BRANCH   6   7
HETATM    7  C   UNL     2      -9.258   9.516  66.319  1.00  0.00    -0.219 C  
BRANCH   7   8
HETATM    8  C   UNL     2      -9.010   8.185  65.613  1.00  0.00    -0.128 C  
BRANCH   8   9
HETATM    9  C   UNL     2      -8.195   7.217  66.483  1.00  0.00    -0.117 C  
BRANCH   9  10
HETATM   10  C   UNL     2      -7.154   7.885  67.391  1.00  0.00    -0.083 C  
BRANCH  10  11
HETATM   11  C   UNL     2      -6.234   6.875  68.083  1.00  0.00    -0.034 C  
BRANCH  11  12
HETATM   12  C   UNL     2      -6.344   6.896  69.613  1.00  0.00    -0.039 C  
BRANCH  12  13
HETATM   13  C   UNL     2      -7.767   7.121  70.129  1.00  0.00    -0.095 C  
BRANCH  13  14
HETATM   14  O   UNL     2      -8.498   5.914  70.000  1.00  0.00    -0.122 OA 
HETATM   15  S   UNL     2      -9.733   5.653  71.026  1.00  0.00    -0.178 S  
HETATM   16  O   UNL     2     -10.282   4.375  70.563  1.00  0.00    -0.178 OA 
HETATM   17  O   UNL     2     -10.629   6.781  70.806  1.00  0.00    -0.215 OA 
HETATM   18  O   UNL     2      -9.108   5.600  72.336  1.00  0.00    -0.141 OA 
ENDBRANCH  13  14
ENDBRANCH  12  13
ENDBRANCH  11  12
ENDBRANCH  10  11
ENDBRANCH   9  10
ENDBRANCH   8   9
ENDBRANCH   7   8
ENDBRANCH   6   7
ENDBRANCH   5   6
ENDBRANCH   4   5
ENDBRANCH   3   4
TORSDOF 11
ENDMDL
MODEL      468
REMARK 921   NORMALIZED FREE ENERGY PREDICTED BY IDOCK:   -1.70 KCAL/MOL
REMARK 922        TOTAL FREE ENERGY PREDICTED BY IDOCK:   -4.22 KCAL/MOL
REMARK 923 INTER-LIGAND FREE ENERGY PREDICTED BY IDOCK:   -3.27 KCAL/MOL
REMARK 924 INTRA-LIGAND FREE ENERGY PREDICTED BY IDOCK:   -0.95 KCAL/MOL
REMARK 927      BINDING AFFINITY PREDICTED BY RF-SCORE:    0.00 PKD
ROOT
HETATM    1 NA   UNL     1      -9.892   7.872  74.475  1.00  0.00    -0.385 Na 
HETATM    2  C   UNL     2     -12.075   1.532  73.505  1.00  0.00    -0.269 C  
HETATM    3  C   UNL     2     -11.245   2.797  73.347  1.00  0.00    -0.262 C  
ENDROOT
BRANCH   3   4
HETATM    4  C   UNL     2     -10.105   2.824  74.360  1.00  0.00    -0.175 C  
BRANCH   4   5
HETATM    5  C   UNL     2      -9.006   1.816  74.014  1.00  0.00    -0.062 C  
BRANCH   5   6
HETATM    6  C   UNL     2      -8.157   2.249  72.812  1.00  0.00    -0.054 C  
BRANCH   6   7
HETATM    7  C   UNL     2      -7.610   3.666  72.976  1.00  0.00    -0.065 C  
BRANCH   7   8
HETATM    8  C   UNL     2      -8.339   4.692  72.111  1.00  0.00    -0.117 C  
BRANCH   8   9
HETATM    9  C   UNL     2      -7.848   4.669  70.656  1.00  0.00    -0.061 C  
BRANCH   9  10
HETATM   10  C   UNL     2      -7.531   6.046  70.059  1.00  0.00    -0.083 C  
BRANCH  10  11
HETATM   11  C   UNL     2      -6.682   6.917  70.989  1.00  0.00    -0.054 C  
BRANCH  11  12
HETATM   12  C   UNL     2      -7.512   7.775  71.951  1.00  0.00    -0.078 C  
BRANCH  12  13
HETATM   13  C   UNL     2      -8.563   8.645  71.256  1.00  0.00    -0.187 C  
BRANCH  13  14
HETATM   14  O   UNL     2      -9.733   8.678  72.056  1.00  0.00    -0.276 OA 
HETATM   15  S   UNL     2     -11.155   8.328  71.348  1.00  0.00    -0.264 S  
HETATM   16  O   UNL     2     -12.104   8.393  72.464  1.00  0.00    -0.393 OA 
HETATM   17  O   UNL     2     -10.973   6.981  70.821  1.00  0.00    -0.239 OA 
HETATM   18  O   UNL     2     -11.326   9.370  70.351  1.00  0.00    -0.250 OA 
ENDBRANCH  13  14
ENDBRANCH  12  13
ENDBRANCH  11  12
ENDBRANCH  10  11
ENDBRANCH   9  10
ENDBRANCH   8   9
ENDBRANCH   7   8
ENDBRANCH   6   7
ENDBRANCH   5   6
ENDBRANCH   4   5
ENDBRANCH   3   4
TORSDOF 11
ENDMDL
MODEL      469
REMARK 921   NORMALIZED FREE ENERGY PREDICTED BY IDOCK:   -1.67 KCAL/MOL
REMARK 922        TOTAL FREE ENERGY PREDICTED BY IDOCK:   -4.18 KCAL/MOL
REMARK 923 INTER-LIGAND FREE ENERGY PREDICTED BY IDOCK:   -3.20 KCAL/MOL
REMARK 924 INTRA-LIGAND FREE ENERGY PREDICTED BY IDOCK:   -0.98 KCAL/MOL
REMARK 927      BINDING AFFINITY PREDICTED BY RF-SCORE:    0.00 PKD
ROOT
HETATM    1 NA   UNL     1      -9.783   7.823  74.538  1.00  0.00    -0.380 Na 
HETATM    2  C   UNL     2     -12.016   1.497  73.591  1.00  0.00    -0.288 C  
HETATM    3  C   UNL     2     -11.255   2.794  73.357  1.00  0.00    -0.262 C  
ENDROOT
BRANCH   3   4
HETATM    4  C   UNL     2      -9.934   2.789  74.122  1.00  0.00    -0.159 C  
BRANCH   4   5
HETATM    5  C   UNL     2      -8.730   2.673  73.185  1.00  0.00    -0.079 C  
BRANCH   5   6
HETATM    6  C   UNL     2      -8.725   3.744  72.086  1.00  0.00    -0.115 C  
BRANCH   6   7
HETATM    7  C   UNL     2      -8.338   5.120  72.626  1.00  0.00    -0.113 C  
BRANCH   7   8
HETATM    8  C   UNL     2      -9.502   6.108  72.629  1.00  0.00    -0.147 C  
BRANCH   8   9
HETATM    9  C   UNL     2     -10.402   5.938  71.396  1.00  0.00    -0.271 C  
BRANCH   9  10
HETATM   10  C   UNL     2     -10.742   7.241  70.659  1.00  0.00    -0.252 C  
BRANCH  10  11
HETATM   11  C   UNL     2     -10.709   7.088  69.136  1.00  0.00    -0.240 C  
BRANCH  11  12
HETATM   12  C   UNL     2     -10.784   5.631  68.665  1.00  0.00    -0.249 C  
BRANCH  12  13
HETATM   13  C   UNL     2      -9.681   5.240  67.678  1.00  0.00    -0.142 C  
BRANCH  13  14
HETATM   14  O   UNL     2      -8.634   4.604  68.388  1.00  0.00    -0.096 OA 
HETATM   15  S   UNL     2      -8.278   3.062  68.009  1.00  0.00    -0.079 S  
HETATM   16  O   UNL     2      -7.132   2.765  68.875  1.00  0.00    -0.044 OA 
HETATM   17  O   UNL     2      -7.936   3.110  66.593  1.00  0.00    -0.079 OA 
HETATM   18  O   UNL     2      -9.486   2.323  68.334  1.00  0.00    -0.200 OA 
ENDBRANCH  13  14
ENDBRANCH  12  13
ENDBRANCH  11  12
ENDBRANCH  10  11
ENDBRANCH   9  10
ENDBRANCH   8   9
ENDBRANCH   7   8
ENDBRANCH   6   7
ENDBRANCH   5   6
ENDBRANCH   4   5
ENDBRANCH   3   4
TORSDOF 11
ENDMDL
MODEL      470
REMARK 921   NORMALIZED FREE ENERGY PREDICTED BY IDOCK:   -1.66 KCAL/MOL
REMARK 922        TOTAL FREE ENERGY PREDICTED BY IDOCK:   -4.16 KCAL/MOL
REMARK 923 INTER-LIGAND FREE ENERGY PREDICTED BY IDOCK:   -2.98 KCAL/MOL
REMARK 924 INTRA-LIGAND FREE ENERGY PREDICTED BY IDOCK:   -1.18 KCAL/MOL
REMARK 927      BINDING AFFINITY PREDICTED BY RF-SCORE:    0.00 PKD
ROOT
HETATM    1 NA   UNL     1      -8.149   9.415  71.734  1.00  0.00    -0.117 Na 
HETATM    2  C   UNL     2      -9.486   9.801  65.103  1.00  0.00    -0.338 C  
HETATM    3  C   UNL     2      -8.693   9.699  66.397  1.00  0.00    -0.148 C  
ENDROOT
BRANCH   3   4
HETATM    4  C   UNL     2      -8.560   8.244  66.836  1.00  0.00    -0.122 C  
BRANCH   4   5
HETATM    5  C   UNL     2      -9.129   8.014  68.237  1.00  0.00    -0.135 C  
BRANCH   5   6
HETATM    6  C   UNL     2     -10.640   7.745  68.231  1.00  0.00    -0.169 C  
BRANCH   6   7
HETATM    7  C   UNL     2     -10.986   6.396  68.862  1.00  0.00    -0.412 C  
BRANCH   7   8
HETATM    8  C   UNL     2     -11.419   6.514  70.322  1.00  0.00    -0.474 C  
BRANCH   8   9
HETATM    9  C   UNL     2     -10.777   5.430  71.200  1.00  0.00    -0.239 C  
BRANCH   9  10
HETATM   10  C   UNL     2      -9.724   5.941  72.191  1.00  0.00    -0.175 C  
BRANCH  10  11
HETATM   11  C   UNL     2      -8.410   6.338  71.512  1.00  0.00    -0.126 C  
BRANCH  11  12
HETATM   12  C   UNL     2      -7.564   5.139  71.068  1.00  0.00    -0.087 C  
BRANCH  12  13
HETATM   13  C   UNL     2      -7.262   5.114  69.568  1.00  0.00    -0.057 C  
BRANCH  13  14
HETATM   14  O   UNL     2      -8.264   4.357  68.911  1.00  0.00    -0.079 OA 
HETATM   15  S   UNL     2      -7.799   3.060  68.045  1.00  0.00    -0.062 S  
HETATM   16  O   UNL     2      -9.072   2.500  67.581  1.00  0.00    -0.151 OA 
HETATM   17  O   UNL     2      -7.111   2.211  69.009  1.00  0.00    -0.039 OA 
HETATM   18  O   UNL     2      -6.964   3.611  66.992  1.00  0.00    -0.053 OA 
ENDBRANCH  13  14
ENDBRANCH  12  13
ENDBRANCH  11  12
ENDBRANCH  10  11
ENDBRANCH   9  10
ENDBRANCH   8   9
ENDBRANCH   7   8
ENDBRANCH   6   7
ENDBRANCH   5   6
ENDBRANCH   4   5
ENDBRANCH   3   4
TORSDOF 11
ENDMDL
MODEL      471
REMARK 921   NORMALIZED FREE ENERGY PREDICTED BY IDOCK:   -1.63 KCAL/MOL
REMARK 922        TOTAL FREE ENERGY PREDICTED BY IDOCK:   -4.11 KCAL/MOL
REMARK 923 INTER-LIGAND FREE ENERGY PREDICTED BY IDOCK:   -3.17 KCAL/MOL
REMARK 924 INTRA-LIGAND FREE ENERGY PREDICTED BY IDOCK:   -0.93 KCAL/MOL
REMARK 927      BINDING AFFINITY PREDICTED BY RF-SCORE:    0.00 PKD
ROOT
HETATM    1 NA   UNL     1      -6.040  15.517  74.209  1.00  0.00    -0.091 Na 
HETATM    2  C   UNL     2      -6.990  13.704  67.751  1.00  0.00    -0.168 C  
HETATM    3  C   UNL     2      -7.273  13.926  69.229  1.00  0.00     0.016 C  
ENDROOT
BRANCH   3   4
HETATM    4  C   UNL     2      -7.790  15.341  69.473  1.00  0.00    -0.204 C  
BRANCH   4   5
HETATM    5  C   UNL     2      -8.551  15.889  68.263  1.00  0.00    -0.176 C  
BRANCH   5   6
HETATM    6  C   UNL     2     -10.031  16.162  68.564  1.00  0.00    -0.229 C  
BRANCH   6   7
HETATM    7  C   UNL     2     -10.369  15.938  70.037  1.00  0.00    -0.242 C  
BRANCH   7   8
HETATM    8  C   UNL     2     -11.173  14.662  70.277  1.00  0.00    -0.199 C  
BRANCH   8   9
HETATM    9  C   UNL     2     -11.638  14.021  68.962  1.00  0.00    -0.345 C  
BRANCH   9  10
HETATM   10  C   UNL     2     -10.683  12.968  68.383  1.00  0.00    -0.273 C  
BRANCH  10  11
HETATM   11  C   UNL     2     -10.941  11.564  68.936  1.00  0.00    -0.279 C  
BRANCH  11  12
HETATM   12  C   UNL     2     -10.326  10.448  68.083  1.00  0.00    -0.202 C  
BRANCH  12  13
HETATM   13  C   UNL     2      -8.795  10.457  68.058  1.00  0.00    -0.130 C  
BRANCH  13  14
HETATM   14  O   UNL     2      -8.345   9.437  67.184  1.00  0.00    -0.122 OA 
HETATM   15  S   UNL     2      -7.883   9.863  65.683  1.00  0.00    -0.133 S  
HETATM   16  O   UNL     2      -7.427   8.595  65.105  1.00  0.00    -0.086 OA 
HETATM   17  O   UNL     2      -6.805  10.822  65.897  1.00  0.00    -0.132 OA 
HETATM   18  O   UNL     2      -9.086  10.404  65.076  1.00  0.00    -0.176 OA 
ENDBRANCH  13  14
ENDBRANCH  12  13
ENDBRANCH  11  12
ENDBRANCH  10  11
ENDBRANCH   9  10
ENDBRANCH   8   9
ENDBRANCH   7   8
ENDBRANCH   6   7
ENDBRANCH   5   6
ENDBRANCH   4   5
ENDBRANCH   3   4
TORSDOF 11
ENDMDL
MODEL      472
REMARK 921   NORMALIZED FREE ENERGY PREDICTED BY IDOCK:   -1.62 KCAL/MOL
REMARK 922        TOTAL FREE ENERGY PREDICTED BY IDOCK:   -4.10 KCAL/MOL
REMARK 923 INTER-LIGAND FREE ENERGY PREDICTED BY IDOCK:   -2.66 KCAL/MOL
REMARK 924 INTRA-LIGAND FREE ENERGY PREDICTED BY IDOCK:   -1.44 KCAL/MOL
REMARK 927      BINDING AFFINITY PREDICTED BY RF-SCORE:    0.00 PKD
ROOT
HETATM    1 NA   UNL     1     -11.842   8.722  71.776  1.00  0.00    -0.249 Na 
HETATM    2  C   UNL     2      -6.131   5.899  69.471  1.00  0.00    -0.029 C  
HETATM    3  C   UNL     2      -7.163   6.442  70.447  1.00  0.00    -0.083 C  
ENDROOT
BRANCH   3   4
HETATM    4  C   UNL     2      -8.190   5.369  70.798  1.00  0.00    -0.115 C  
BRANCH   4   5
HETATM    5  C   UNL     2      -8.059   4.135  69.901  1.00  0.00    -0.059 C  
BRANCH   5   6
HETATM    6  C   UNL     2      -9.413   3.501  69.559  1.00  0.00    -0.236 C  
BRANCH   6   7
HETATM    7  C   UNL     2      -9.482   3.047  68.101  1.00  0.00    -0.219 C  
BRANCH   7   8
HETATM    8  C   UNL     2      -9.034   4.126  67.118  1.00  0.00    -0.139 C  
BRANCH   8   9
HETATM    9  C   UNL     2     -10.072   5.250  66.987  1.00  0.00    -0.243 C  
BRANCH   9  10
HETATM   10  C   UNL     2      -9.544   6.547  66.360  1.00  0.00    -0.151 C  
BRANCH  10  11
HETATM   11  C   UNL     2      -8.783   7.424  67.358  1.00  0.00    -0.121 C  
BRANCH  11  12
HETATM   12  C   UNL     2      -7.570   8.136  66.748  1.00  0.00    -0.094 C  
BRANCH  12  13
HETATM   13  C   UNL     2      -7.392   9.579  67.227  1.00  0.00    -0.087 C  
BRANCH  13  14
HETATM   14  O   UNL     2      -8.002  10.451  66.292  1.00  0.00    -0.126 OA 
HETATM   15  S   UNL     2      -9.171  11.449  66.826  1.00  0.00    -0.181 S  
HETATM   16  O   UNL     2      -9.511  12.228  65.631  1.00  0.00    -0.186 OA 
HETATM   17  O   UNL     2      -8.522  12.239  67.866  1.00  0.00    -0.146 OA 
HETATM   18  O   UNL     2     -10.223  10.559  67.285  1.00  0.00    -0.195 OA 
ENDBRANCH  13  14
ENDBRANCH  12  13
ENDBRANCH  11  12
ENDBRANCH  10  11
ENDBRANCH   9  10
ENDBRANCH   8   9
ENDBRANCH   7   8
ENDBRANCH   6   7
ENDBRANCH   5   6
ENDBRANCH   4   5
ENDBRANCH   3   4
TORSDOF 11
ENDMDL
MODEL      473
REMARK 921   NORMALIZED FREE ENERGY PREDICTED BY IDOCK:   -1.60 KCAL/MOL
REMARK 922        TOTAL FREE ENERGY PREDICTED BY IDOCK:   -4.07 KCAL/MOL
REMARK 923 INTER-LIGAND FREE ENERGY PREDICTED BY IDOCK:   -3.66 KCAL/MOL
REMARK 924 INTRA-LIGAND FREE ENERGY PREDICTED BY IDOCK:   -0.41 KCAL/MOL
REMARK 927      BINDING AFFINITY PREDICTED BY RF-SCORE:    0.00 PKD
ROOT
HETATM    1 NA   UNL     1     -10.756  18.803  70.619  1.00  0.00    -0.390 Na 
HETATM    2  C   UNL     2      -5.367  21.348  67.399  1.00  0.00    -0.361 C  
HETATM    3  C   UNL     2      -6.486  20.388  67.772  1.00  0.00    -0.302 C  
ENDROOT
BRANCH   3   4
HETATM    4  C   UNL     2      -7.773  20.747  67.034  1.00  0.00    -0.271 C  
BRANCH   4   5
HETATM    5  C   UNL     2      -8.932  19.828  67.424  1.00  0.00    -0.402 C  
BRANCH   5   6
HETATM    6  C   UNL     2      -9.265  18.794  66.340  1.00  0.00    -0.312 C  
BRANCH   6   7
HETATM    7  C   UNL     2      -8.451  17.511  66.500  1.00  0.00    -0.300 C  
BRANCH   7   8
HETATM    8  C   UNL     2      -8.114  17.196  67.956  1.00  0.00    -0.210 C  
BRANCH   8   9
HETATM    9  C   UNL     2      -9.169  16.288  68.605  1.00  0.00    -0.227 C  
BRANCH   9  10
HETATM   10  C   UNL     2      -8.610  15.028  69.279  1.00  0.00    -0.167 C  
BRANCH  10  11
HETATM   11  C   UNL     2      -8.614  13.807  68.354  1.00  0.00    -0.156 C  
BRANCH  11  12
HETATM   12  C   UNL     2      -7.245  13.506  67.731  1.00  0.00    -0.157 C  
BRANCH  12  13
HETATM   13  C   UNL     2      -7.138  12.108  67.117  1.00  0.00    -0.120 C  
BRANCH  13  14
HETATM   14  O   UNL     2      -7.911  12.068  65.930  1.00  0.00     0.507 OA 
HETATM   15  S   UNL     2      -9.224  11.107  65.904  1.00  0.00    -0.209 S  
HETATM   16  O   UNL     2      -9.796  11.367  64.580  1.00  0.00    -0.242 OA 
HETATM   17  O   UNL     2     -10.051  11.600  66.999  1.00  0.00    -0.205 OA 
HETATM   18  O   UNL     2      -8.693   9.767  66.079  1.00  0.00    -0.135 OA 
ENDBRANCH  13  14
ENDBRANCH  12  13
ENDBRANCH  11  12
ENDBRANCH  10  11
ENDBRANCH   9  10
ENDBRANCH   8   9
ENDBRANCH   7   8
ENDBRANCH   6   7
ENDBRANCH   5   6
ENDBRANCH   4   5
ENDBRANCH   3   4
TORSDOF 11
ENDMDL
MODEL      474
REMARK 921   NORMALIZED FREE ENERGY PREDICTED BY IDOCK:   -1.60 KCAL/MOL
REMARK 922        TOTAL FREE ENERGY PREDICTED BY IDOCK:   -4.06 KCAL/MOL
REMARK 923 INTER-LIGAND FREE ENERGY PREDICTED BY IDOCK:   -3.10 KCAL/MOL
REMARK 924 INTRA-LIGAND FREE ENERGY PREDICTED BY IDOCK:   -0.96 KCAL/MOL
REMARK 927      BINDING AFFINITY PREDICTED BY RF-SCORE:    0.00 PKD
ROOT
HETATM    1 NA   UNL     1      -7.379   8.813  72.353  1.00  0.00    -0.102 Na 
HETATM    2  C   UNL     2      -9.024   8.538  65.787  1.00  0.00    -0.229 C  
HETATM    3  C   UNL     2      -8.178   8.502  67.050  1.00  0.00    -0.107 C  
ENDROOT
BRANCH   3   4
HETATM    4  C   UNL     2      -8.186   7.106  67.666  1.00  0.00    -0.114 C  
BRANCH   4   5
HETATM    5  C   UNL     2      -8.805   7.102  69.066  1.00  0.00    -0.131 C  
BRANCH   5   6
HETATM    6  C   UNL     2     -10.317   7.361  69.051  1.00  0.00    -0.214 C  
BRANCH   6   7
HETATM    7  C   UNL     2     -11.093   6.277  69.797  1.00  0.00    -0.473 C  
BRANCH   7   8
HETATM    8  C   UNL     2     -11.765   6.791  71.068  1.00  0.00    -0.406 C  
BRANCH   8   9
HETATM    9  C   UNL     2     -11.486   5.881  72.273  1.00  0.00    -0.351 C  
BRANCH   9  10
HETATM   10  C   UNL     2     -10.664   6.528  73.395  1.00  0.00    -0.295 C  
BRANCH  10  11
HETATM   11  C   UNL     2      -9.216   6.812  72.984  1.00  0.00    -0.145 C  
BRANCH  11  12
HETATM   12  C   UNL     2      -8.302   5.584  73.078  1.00  0.00    -0.119 C  
BRANCH  12  13
HETATM   13  C   UNL     2      -7.661   5.185  71.746  1.00  0.00    -0.106 C  
BRANCH  13  14
HETATM   14  O   UNL     2      -8.525   4.288  71.071  1.00  0.00    -0.081 OA 
HETATM   15  S   UNL     2      -8.121   2.712  71.041  1.00  0.00    -0.050 S  
HETATM   16  O   UNL     2      -9.250   2.096  70.336  1.00  0.00    -0.097 OA 
HETATM   17  O   UNL     2      -8.041   2.334  72.446  1.00  0.00    -0.053 OA 
HETATM   18  O   UNL     2      -6.865   2.677  70.313  1.00  0.00    -0.033 OA 
ENDBRANCH  13  14
ENDBRANCH  12  13
ENDBRANCH  11  12
ENDBRANCH  10  11
ENDBRANCH   9  10
ENDBRANCH   8   9
ENDBRANCH   7   8
ENDBRANCH   6   7
ENDBRANCH   5   6
ENDBRANCH   4   5
ENDBRANCH   3   4
TORSDOF 11
ENDMDL
MODEL      475
REMARK 921   NORMALIZED FREE ENERGY PREDICTED BY IDOCK:   -1.60 KCAL/MOL
REMARK 922        TOTAL FREE ENERGY PREDICTED BY IDOCK:   -4.06 KCAL/MOL
REMARK 923 INTER-LIGAND FREE ENERGY PREDICTED BY IDOCK:   -4.26 KCAL/MOL
REMARK 924 INTRA-LIGAND FREE ENERGY PREDICTED BY IDOCK:    0.20 KCAL/MOL
REMARK 927      BINDING AFFINITY PREDICTED BY RF-SCORE:    0.00 PKD
ROOT
HETATM    1 NA   UNL     1      -8.152  14.074  69.887  1.00  0.00    -0.335 Na 
HETATM    2  C   UNL     2     -10.580  19.842  67.291  1.00  0.00    -0.565 C  
HETATM    3  C   UNL     2      -9.613  18.862  67.937  1.00  0.00    -0.361 C  
ENDROOT
BRANCH   3   4
HETATM    4  C   UNL     2      -8.857  18.069  66.874  1.00  0.00    -0.266 C  
BRANCH   4   5
HETATM    5  C   UNL     2      -9.168  16.573  66.946  1.00  0.00    -0.244 C  
BRANCH   5   6
HETATM    6  C   UNL     2     -10.601  16.240  66.510  1.00  0.00    -0.256 C  
BRANCH   6   7
HETATM    7  C   UNL     2     -11.311  15.333  67.514  1.00  0.00    -0.300 C  
BRANCH   7   8
HETATM    8  C   UNL     2     -10.378  14.310  68.158  1.00  0.00    -0.233 C  
BRANCH   8   9
HETATM    9  C   UNL     2     -10.166  13.082  67.260  1.00  0.00    -0.239 C  
BRANCH   9  10
HETATM   10  C   UNL     2     -10.934  11.825  67.692  1.00  0.00    -0.286 C  
BRANCH  10  11
HETATM   11  C   UNL     2     -10.303  11.130  68.902  1.00  0.00    -0.220 C  
BRANCH  11  12
HETATM   12  C   UNL     2     -10.849   9.719  69.150  1.00  0.00    -0.231 C  
BRANCH  12  13
HETATM   13  C   UNL     2      -9.999   8.886  70.113  1.00  0.00    -0.185 C  
BRANCH  13  14
HETATM   14  O   UNL     2      -9.549   7.723  69.438  1.00  0.00    -0.156 OA 
HETATM   15  S   UNL     2     -10.666   6.675  68.891  1.00  0.00    -0.275 S  
HETATM   16  O   UNL     2      -9.858   5.660  68.207  1.00  0.00    -0.127 OA 
HETATM   17  O   UNL     2     -11.489   7.466  67.984  1.00  0.00     0.404 OA 
HETATM   18  O   UNL     2     -11.336   6.204  70.090  1.00  0.00    -0.382 OA 
ENDBRANCH  13  14
ENDBRANCH  12  13
ENDBRANCH  11  12
ENDBRANCH  10  11
ENDBRANCH   9  10
ENDBRANCH   8   9
ENDBRANCH   7   8
ENDBRANCH   6   7
ENDBRANCH   5   6
ENDBRANCH   4   5
ENDBRANCH   3   4
TORSDOF 11
ENDMDL
MODEL      476
REMARK 921   NORMALIZED FREE ENERGY PREDICTED BY IDOCK:   -1.59 KCAL/MOL
REMARK 922        TOTAL FREE ENERGY PREDICTED BY IDOCK:   -4.05 KCAL/MOL
REMARK 923 INTER-LIGAND FREE ENERGY PREDICTED BY IDOCK:   -3.71 KCAL/MOL
REMARK 924 INTRA-LIGAND FREE ENERGY PREDICTED BY IDOCK:   -0.35 KCAL/MOL
REMARK 927      BINDING AFFINITY PREDICTED BY RF-SCORE:    0.00 PKD
ROOT
HETATM    1 NA   UNL     1     -14.202  10.031  69.589  1.00  0.00    -0.565 Na 
HETATM    2  C   UNL     2     -12.242  12.715  63.686  1.00  0.00    -0.624 C  
HETATM    3  C   UNL     2     -12.575  12.609  65.166  1.00  0.00    -0.459 C  
ENDROOT
BRANCH   3   4
HETATM    4  C   UNL     2     -11.370  12.107  65.956  1.00  0.00    -0.410 C  
BRANCH   4   5
HETATM    5  C   UNL     2     -10.062  12.728  65.461  1.00  0.00    -0.278 C  
BRANCH   5   6
HETATM    6  C   UNL     2      -9.387  13.616  66.514  1.00  0.00    -0.242 C  
BRANCH   6   7
HETATM    7  C   UNL     2      -8.582  12.799  67.524  1.00  0.00    -0.187 C  
BRANCH   7   8
HETATM    8  C   UNL     2      -8.597  11.301  67.226  1.00  0.00    -0.143 C  
BRANCH   8   9
HETATM    9  C   UNL     2      -7.197  10.769  66.887  1.00  0.00    -0.115 C  
BRANCH   9  10
HETATM   10  C   UNL     2      -7.170   9.624  65.866  1.00  0.00    -0.099 C  
BRANCH  10  11
HETATM   11  C   UNL     2      -7.140   8.242  66.523  1.00  0.00    -0.072 C  
BRANCH  11  12
HETATM   12  C   UNL     2      -8.498   7.531  66.516  1.00  0.00    -0.131 C  
BRANCH  12  13
HETATM   13  C   UNL     2      -8.401   6.008  66.394  1.00  0.00    -0.118 C  
BRANCH  13  14
HETATM   14  O   UNL     2      -7.242   5.566  67.079  1.00  0.00    -0.075 OA 
HETATM   15  S   UNL     2      -6.788   4.014  66.895  1.00  0.00    -0.055 S  
HETATM   16  O   UNL     2      -5.547   3.939  67.673  1.00  0.00    -0.019 OA 
HETATM   17  O   UNL     2      -6.581   3.868  65.460  1.00  0.00    -0.039 OA 
HETATM   18  O   UNL     2      -7.892   3.249  67.447  1.00  0.00    -0.076 OA 
ENDBRANCH  13  14
ENDBRANCH  12  13
ENDBRANCH  11  12
ENDBRANCH  10  11
ENDBRANCH   9  10
ENDBRANCH   8   9
ENDBRANCH   7   8
ENDBRANCH   6   7
ENDBRANCH   5   6
ENDBRANCH   4   5
ENDBRANCH   3   4
TORSDOF 11
ENDMDL
MODEL      477
REMARK 921   NORMALIZED FREE ENERGY PREDICTED BY IDOCK:   -1.58 KCAL/MOL
REMARK 922        TOTAL FREE ENERGY PREDICTED BY IDOCK:   -4.03 KCAL/MOL
REMARK 923 INTER-LIGAND FREE ENERGY PREDICTED BY IDOCK:   -3.19 KCAL/MOL
REMARK 924 INTRA-LIGAND FREE ENERGY PREDICTED BY IDOCK:   -0.84 KCAL/MOL
REMARK 927      BINDING AFFINITY PREDICTED BY RF-SCORE:    0.00 PKD
ROOT
HETATM    1 NA   UNL     1      -9.811   8.782  62.498  1.00  0.00    -0.529 Na 
HETATM    2  C   UNL     2     -12.430  13.788  66.236  1.00  0.00    -0.441 C  
HETATM    3  C   UNL     2     -12.148  12.383  65.728  1.00  0.00    -0.381 C  
ENDROOT
BRANCH   3   4
HETATM    4  C   UNL     2     -10.902  11.808  66.395  1.00  0.00    -0.325 C  
BRANCH   4   5
HETATM    5  C   UNL     2      -9.696  12.740  66.258  1.00  0.00    -0.262 C  
BRANCH   5   6
HETATM    6  C   UNL     2      -8.732  12.647  67.448  1.00  0.00    -0.191 C  
BRANCH   6   7
HETATM    7  C   UNL     2      -8.093  11.263  67.562  1.00  0.00    -0.124 C  
BRANCH   7   8
HETATM    8  C   UNL     2      -7.740  10.886  68.999  1.00  0.00    -0.135 C  
BRANCH   8   9
HETATM    9  C   UNL     2      -7.786   9.367  69.221  1.00  0.00    -0.083 C  
BRANCH   9  10
HETATM   10  C   UNL     2      -8.929   8.643  68.499  1.00  0.00    -0.139 C  
BRANCH  10  11
HETATM   11  C   UNL     2      -8.652   7.151  68.292  1.00  0.00    -0.122 C  
BRANCH  11  12
HETATM   12  C   UNL     2      -7.251   6.721  68.744  1.00  0.00    -0.092 C  
BRANCH  12  13
HETATM   13  C   UNL     2      -6.799   5.376  68.169  1.00  0.00    -0.060 C  
BRANCH  13  14
HETATM   14  O   UNL     2      -7.641   5.038  67.080  1.00  0.00    -0.086 OA 
HETATM   15  S   UNL     2      -6.973   4.936  65.599  1.00  0.00    -0.064 S  
HETATM   16  O   UNL     2      -8.097   4.511  64.759  1.00  0.00    -0.096 OA 
HETATM   17  O   UNL     2      -5.939   3.918  65.741  1.00  0.00    -0.022 OA 
HETATM   18  O   UNL     2      -6.492   6.279  65.328  1.00  0.00    -0.037 OA 
ENDBRANCH  13  14
ENDBRANCH  12  13
ENDBRANCH  11  12
ENDBRANCH  10  11
ENDBRANCH   9  10
ENDBRANCH   8   9
ENDBRANCH   7   8
ENDBRANCH   6   7
ENDBRANCH   5   6
ENDBRANCH   4   5
ENDBRANCH   3   4
TORSDOF 11
ENDMDL
MODEL      478
REMARK 921   NORMALIZED FREE ENERGY PREDICTED BY IDOCK:   -1.58 KCAL/MOL
REMARK 922        TOTAL FREE ENERGY PREDICTED BY IDOCK:   -4.03 KCAL/MOL
REMARK 923 INTER-LIGAND FREE ENERGY PREDICTED BY IDOCK:   -3.17 KCAL/MOL
REMARK 924 INTRA-LIGAND FREE ENERGY PREDICTED BY IDOCK:   -0.86 KCAL/MOL
REMARK 927      BINDING AFFINITY PREDICTED BY RF-SCORE:    0.00 PKD
ROOT
HETATM    1 NA   UNL     1      -8.556  20.676  71.573  1.00  0.00    -0.039 Na 
HETATM    2  C   UNL     2      -7.017  15.482  67.505  1.00  0.00    -0.223 C  
HETATM    3  C   UNL     2      -6.978  16.419  68.703  1.00  0.00    -0.159 C  
ENDROOT
BRANCH   3   4
HETATM    4  C   UNL     2      -8.001  15.995  69.753  1.00  0.00     0.297 C  
BRANCH   4   5
HETATM    5  C   UNL     2      -8.889  14.851  69.258  1.00  0.00    -0.095 C  
BRANCH   5   6
HETATM    6  C   UNL     2     -10.298  15.315  68.867  1.00  0.00    -0.243 C  
BRANCH   6   7
HETATM    7  C   UNL     2     -10.973  14.347  67.897  1.00  0.00    -0.272 C  
BRANCH   7   8
HETATM    8  C   UNL     2     -10.886  12.891  68.349  1.00  0.00    -0.276 C  
BRANCH   8   9
HETATM    9  C   UNL     2     -11.373  11.922  67.262  1.00  0.00    -0.393 C  
BRANCH   9  10
HETATM   10  C   UNL     2     -11.354  12.489  65.836  1.00  0.00    -0.380 C  
BRANCH  10  11
HETATM   11  C   UNL     2     -11.041  11.427  64.778  1.00  0.00    -0.258 C  
BRANCH  11  12
HETATM   12  C   UNL     2      -9.546  11.300  64.462  1.00  0.00    -0.260 C  
BRANCH  12  13
HETATM   13  C   UNL     2      -8.934   9.961  64.883  1.00  0.00    -0.207 C  
BRANCH  13  14
HETATM   14  O   UNL     2      -9.501   9.568  66.121  1.00  0.00    -0.184 OA 
HETATM   15  S   UNL     2      -8.530   9.515  67.425  1.00  0.00    -0.125 S  
HETATM   16  O   UNL     2      -9.449   9.145  68.506  1.00  0.00    -0.145 OA 
HETATM   17  O   UNL     2      -8.013  10.873  67.545  1.00  0.00    -0.112 OA 
HETATM   18  O   UNL     2      -7.544   8.499  67.099  1.00  0.00    -0.094 OA 
ENDBRANCH  13  14
ENDBRANCH  12  13
ENDBRANCH  11  12
ENDBRANCH  10  11
ENDBRANCH   9  10
ENDBRANCH   8   9
ENDBRANCH   7   8
ENDBRANCH   6   7
ENDBRANCH   5   6
ENDBRANCH   4   5
ENDBRANCH   3   4
TORSDOF 11
ENDMDL
MODEL      479
REMARK 921   NORMALIZED FREE ENERGY PREDICTED BY IDOCK:   -1.57 KCAL/MOL
REMARK 922        TOTAL FREE ENERGY PREDICTED BY IDOCK:   -4.02 KCAL/MOL
REMARK 923 INTER-LIGAND FREE ENERGY PREDICTED BY IDOCK:   -3.34 KCAL/MOL
REMARK 924 INTRA-LIGAND FREE ENERGY PREDICTED BY IDOCK:   -0.69 KCAL/MOL
REMARK 927      BINDING AFFINITY PREDICTED BY RF-SCORE:    0.00 PKD
ROOT
HETATM    1 NA   UNL     1      -9.811   8.796  62.490  1.00  0.00    -0.529 Na 
HETATM    2  C   UNL     2     -12.409  14.174  65.686  1.00  0.00    -0.473 C  
HETATM    3  C   UNL     2     -12.148  12.723  65.313  1.00  0.00    -0.505 C  
ENDROOT
BRANCH   3   4
HETATM    4  C   UNL     2     -10.937  12.182  66.067  1.00  0.00    -0.332 C  
BRANCH   4   5
HETATM    5  C   UNL     2      -9.700  13.062  65.874  1.00  0.00    -0.187 C  
BRANCH   5   6
HETATM    6  C   UNL     2      -8.785  13.085  67.105  1.00  0.00    -0.204 C  
BRANCH   6   7
HETATM    7  C   UNL     2      -8.214  11.704  67.422  1.00  0.00    -0.153 C  
BRANCH   7   8
HETATM    8  C   UNL     2      -6.697  11.710  67.593  1.00  0.00    -0.087 C  
BRANCH   8   9
HETATM    9  C   UNL     2      -6.224  10.622  68.568  1.00  0.00    -0.049 C  
BRANCH   9  10
HETATM   10  C   UNL     2      -7.123  10.420  69.796  1.00  0.00    -0.148 C  
BRANCH  10  11
HETATM   11  C   UNL     2      -6.964   9.034  70.427  1.00  0.00    -0.058 C  
BRANCH  11  12
HETATM   12  C   UNL     2      -6.038   8.103  69.635  1.00  0.00    -0.029 C  
BRANCH  12  13
HETATM   13  C   UNL     2      -6.201   6.621  69.985  1.00  0.00    -0.034 C  
BRANCH  13  14
HETATM   14  O   UNL     2      -7.415   6.450  70.696  1.00  0.00    -0.083 OA 
HETATM   15  S   UNL     2      -8.584   5.549  70.009  1.00  0.00    -0.122 S  
HETATM   16  O   UNL     2      -9.634   5.536  71.033  1.00  0.00    -0.162 OA 
HETATM   17  O   UNL     2      -7.960   4.247  69.804  1.00  0.00    -0.056 OA 
HETATM   18  O   UNL     2      -8.931   6.272  68.799  1.00  0.00    -0.125 OA 
ENDBRANCH  13  14
ENDBRANCH  12  13
ENDBRANCH  11  12
ENDBRANCH  10  11
ENDBRANCH   9  10
ENDBRANCH   8   9
ENDBRANCH   7   8
ENDBRANCH   6   7
ENDBRANCH   5   6
ENDBRANCH   4   5
ENDBRANCH   3   4
TORSDOF 11
ENDMDL
MODEL      480
REMARK 921   NORMALIZED FREE ENERGY PREDICTED BY IDOCK:   -1.55 KCAL/MOL
REMARK 922        TOTAL FREE ENERGY PREDICTED BY IDOCK:   -3.98 KCAL/MOL
REMARK 923 INTER-LIGAND FREE ENERGY PREDICTED BY IDOCK:   -3.03 KCAL/MOL
REMARK 924 INTRA-LIGAND FREE ENERGY PREDICTED BY IDOCK:   -0.96 KCAL/MOL
REMARK 927      BINDING AFFINITY PREDICTED BY RF-SCORE:    0.00 PKD
ROOT
HETATM    1 NA   UNL     1      -7.517  20.935  72.016  1.00  0.00    -0.836 Na 
HETATM    2  C   UNL     2      -6.789  17.501  66.222  1.00  0.00    -0.323 C  
HETATM    3  C   UNL     2      -6.497  18.018  67.622  1.00  0.00    -0.187 C  
ENDROOT
BRANCH   3   4
HETATM    4  C   UNL     2      -7.201  17.161  68.671  1.00  0.00    -0.229 C  
BRANCH   4   5
HETATM    5  C   UNL     2      -8.063  16.069  68.034  1.00  0.00    -0.148 C  
BRANCH   5   6
HETATM    6  C   UNL     2      -9.488  16.027  68.601  1.00  0.00    -0.224 C  
BRANCH   6   7
HETATM    7  C   UNL     2      -9.873  14.630  69.085  1.00  0.00    -0.130 C  
BRANCH   7   8
HETATM    8  C   UNL     2      -8.698  13.656  69.091  1.00  0.00     0.476 C  
BRANCH   8   9
HETATM    9  C   UNL     2      -9.080  12.292  68.498  1.00  0.00    -0.076 C  
BRANCH   9  10
HETATM   10  C   UNL     2     -10.020  12.354  67.286  1.00  0.00    -0.209 C  
BRANCH  10  11
HETATM   11  C   UNL     2     -10.322  10.974  66.696  1.00  0.00    -0.288 C  
BRANCH  11  12
HETATM   12  C   UNL     2      -9.883  10.823  65.235  1.00  0.00    -0.329 C  
BRANCH  12  13
HETATM   13  C   UNL     2      -8.751   9.813  65.028  1.00  0.00    -0.174 C  
BRANCH  13  14
HETATM   14  O   UNL     2      -8.117   9.574  66.273  1.00  0.00    -0.110 OA 
HETATM   15  S   UNL     2      -6.525   9.886  66.393  1.00  0.00    -0.075 S  
HETATM   16  O   UNL     2      -6.237   9.595  67.801  1.00  0.00    -0.052 OA 
HETATM   17  O   UNL     2      -6.410  11.301  66.060  1.00  0.00    -0.064 OA 
HETATM   18  O   UNL     2      -5.906   8.972  65.450  1.00  0.00    -0.050 OA 
ENDBRANCH  13  14
ENDBRANCH  12  13
ENDBRANCH  11  12
ENDBRANCH  10  11
ENDBRANCH   9  10
ENDBRANCH   8   9
ENDBRANCH   7   8
ENDBRANCH   6   7
ENDBRANCH   5   6
ENDBRANCH   4   5
ENDBRANCH   3   4
TORSDOF 11
ENDMDL
MODEL      481
REMARK 921   NORMALIZED FREE ENERGY PREDICTED BY IDOCK:   -1.53 KCAL/MOL
REMARK 922        TOTAL FREE ENERGY PREDICTED BY IDOCK:   -3.96 KCAL/MOL
REMARK 923 INTER-LIGAND FREE ENERGY PREDICTED BY IDOCK:   -3.46 KCAL/MOL
REMARK 924 INTRA-LIGAND FREE ENERGY PREDICTED BY IDOCK:   -0.49 KCAL/MOL
REMARK 927      BINDING AFFINITY PREDICTED BY RF-SCORE:    0.00 PKD
ROOT
HETATM    1 NA   UNL     1     -11.766  13.847  67.672  1.00  0.00    -0.252 Na 
HETATM    2  C   UNL     2      -6.739  18.088  66.048  1.00  0.00    -0.323 C  
HETATM    3  C   UNL     2      -8.142  17.586  66.351  1.00  0.00    -0.309 C  
ENDROOT
BRANCH   3   4
HETATM    4  C   UNL     2      -8.418  17.628  67.851  1.00  0.00    -0.233 C  
BRANCH   4   5
HETATM    5  C   UNL     2      -9.400  16.537  68.284  1.00  0.00    -0.217 C  
BRANCH   5   6
HETATM    6  C   UNL     2      -8.715  15.191  68.554  1.00  0.00    -0.172 C  
BRANCH   6   7
HETATM    7  C   UNL     2      -8.247  14.515  67.265  1.00  0.00    -0.230 C  
BRANCH   7   8
HETATM    8  C   UNL     2      -6.999  13.657  67.461  1.00  0.00    -0.157 C  
BRANCH   8   9
HETATM    9  C   UNL     2      -7.343  12.165  67.585  1.00  0.00    -0.122 C  
BRANCH   9  10
HETATM   10  C   UNL     2      -8.561  11.713  66.769  1.00  0.00    -0.180 C  
BRANCH  10  11
HETATM   11  C   UNL     2      -9.164  10.400  67.277  1.00  0.00    -0.157 C  
BRANCH  11  12
HETATM   12  C   UNL     2      -8.163   9.522  68.038  1.00  0.00    -0.114 C  
BRANCH  12  13
HETATM   13  C   UNL     2      -8.818   8.432  68.891  1.00  0.00    -0.143 C  
BRANCH  13  14
HETATM   14  O   UNL     2      -8.904   8.888  70.230  1.00  0.00    -0.147 OA 
HETATM   15  S   UNL     2      -9.135   7.782  71.401  1.00  0.00    -0.136 S  
HETATM   16  O   UNL     2      -9.104   8.588  72.626  1.00  0.00    -0.253 OA 
HETATM   17  O   UNL     2      -7.997   6.880  71.274  1.00  0.00    -0.106 OA 
HETATM   18  O   UNL     2     -10.430   7.200  71.096  1.00  0.00    -0.210 OA 
ENDBRANCH  13  14
ENDBRANCH  12  13
ENDBRANCH  11  12
ENDBRANCH  10  11
ENDBRANCH   9  10
ENDBRANCH   8   9
ENDBRANCH   7   8
ENDBRANCH   6   7
ENDBRANCH   5   6
ENDBRANCH   4   5
ENDBRANCH   3   4
TORSDOF 11
ENDMDL
MODEL      482
REMARK 921   NORMALIZED FREE ENERGY PREDICTED BY IDOCK:   -1.52 KCAL/MOL
REMARK 922        TOTAL FREE ENERGY PREDICTED BY IDOCK:   -3.93 KCAL/MOL
REMARK 923 INTER-LIGAND FREE ENERGY PREDICTED BY IDOCK:   -3.33 KCAL/MOL
REMARK 924 INTRA-LIGAND FREE ENERGY PREDICTED BY IDOCK:   -0.60 KCAL/MOL
REMARK 927      BINDING AFFINITY PREDICTED BY RF-SCORE:    0.00 PKD
ROOT
HETATM    1 NA   UNL     1     -13.034  14.389  67.685  1.00  0.00    -0.584 Na 
HETATM    2  C   UNL     2      -9.610  20.095  66.416  1.00  0.00    -0.511 C  
HETATM    3  C   UNL     2     -10.561  19.121  67.094  1.00  0.00    -0.564 C  
ENDROOT
BRANCH   3   4
HETATM    4  C   UNL     2      -9.818  18.262  68.113  1.00  0.00    -0.356 C  
BRANCH   4   5
HETATM    5  C   UNL     2     -10.316  16.816  68.116  1.00  0.00    -0.318 C  
BRANCH   5   6
HETATM    6  C   UNL     2      -9.329  15.843  67.457  1.00  0.00    -0.217 C  
BRANCH   6   7
HETATM    7  C   UNL     2     -10.027  14.874  66.504  1.00  0.00    -0.277 C  
BRANCH   7   8
HETATM    8  C   UNL     2      -9.054  13.954  65.770  1.00  0.00     0.455 C  
BRANCH   8   9
HETATM    9  C   UNL     2      -9.091  12.521  66.323  1.00  0.00    -0.074 C  
BRANCH   9  10
HETATM   10  C   UNL     2      -8.355  12.324  67.655  1.00  0.00    -0.166 C  
BRANCH  10  11
HETATM   11  C   UNL     2      -7.636  10.975  67.743  1.00  0.00    -0.099 C  
BRANCH  11  12
HETATM   12  C   UNL     2      -8.263   9.889  66.861  1.00  0.00    -0.120 C  
BRANCH  12  13
HETATM   13  C   UNL     2      -7.238   9.001  66.149  1.00  0.00    -0.090 C  
BRANCH  13  14
HETATM   14  O   UNL     2      -7.727   8.683  64.858  1.00  0.00    -0.095 OA 
HETATM   15  S   UNL     2      -6.806   9.073  63.574  1.00  0.00    -0.089 S  
HETATM   16  O   UNL     2      -7.577   8.546  62.443  1.00  0.00    -0.103 OA 
HETATM   17  O   UNL     2      -5.553   8.364  63.801  1.00  0.00    -0.060 OA 
HETATM   18  O   UNL     2      -6.719  10.522  63.620  1.00  0.00    -0.061 OA 
ENDBRANCH  13  14
ENDBRANCH  12  13
ENDBRANCH  11  12
ENDBRANCH  10  11
ENDBRANCH   9  10
ENDBRANCH   8   9
ENDBRANCH   7   8
ENDBRANCH   6   7
ENDBRANCH   5   6
ENDBRANCH   4   5
ENDBRANCH   3   4
TORSDOF 11
ENDMDL
MODEL      483
REMARK 921   NORMALIZED FREE ENERGY PREDICTED BY IDOCK:   -1.48 KCAL/MOL
REMARK 922        TOTAL FREE ENERGY PREDICTED BY IDOCK:   -3.86 KCAL/MOL
REMARK 923 INTER-LIGAND FREE ENERGY PREDICTED BY IDOCK:   -3.04 KCAL/MOL
REMARK 924 INTRA-LIGAND FREE ENERGY PREDICTED BY IDOCK:   -0.82 KCAL/MOL
REMARK 927      BINDING AFFINITY PREDICTED BY RF-SCORE:    0.00 PKD
ROOT
HETATM    1 NA   UNL     1      -7.346  14.228  70.934  1.00  0.00    -0.400 Na 
HETATM    2  C   UNL     2      -6.241  20.751  69.475  1.00  0.00    -0.000 C  
HETATM    3  C   UNL     2      -6.098  19.393  70.144  1.00  0.00    -0.265 C  
ENDROOT
BRANCH   3   4
HETATM    4  C   UNL     2      -5.153  18.496  69.349  1.00  0.00    -0.179 C  
BRANCH   4   5
HETATM    5  C   UNL     2      -5.901  17.654  68.313  1.00  0.00    -0.160 C  
BRANCH   5   6
HETATM    6  C   UNL     2      -5.968  18.325  66.935  1.00  0.00    -0.172 C  
BRANCH   6   7
HETATM    7  C   UNL     2      -7.295  18.051  66.227  1.00  0.00    -0.317 C  
BRANCH   7   8
HETATM    8  C   UNL     2      -7.692  16.577  66.254  1.00  0.00    -0.215 C  
BRANCH   8   9
HETATM    9  C   UNL     2      -9.215  16.395  66.342  1.00  0.00    -0.335 C  
BRANCH   9  10
HETATM   10  C   UNL     2      -9.752  16.123  67.753  1.00  0.00    -0.229 C  
BRANCH  10  11
HETATM   11  C   UNL     2      -9.134  14.879  68.396  1.00  0.00    -0.185 C  
BRANCH  11  12
HETATM   12  C   UNL     2     -10.032  13.639  68.318  1.00  0.00    -0.236 C  
BRANCH  12  13
HETATM   13  C   UNL     2      -9.399  12.376  68.908  1.00  0.00     0.265 C  
BRANCH  13  14
HETATM   14  O   UNL     2      -8.373  11.929  68.039  1.00  0.00    -0.143 OA 
HETATM   15  S   UNL     2      -8.323  10.346  67.664  1.00  0.00    -0.114 S  
HETATM   16  O   UNL     2      -7.206  10.267  66.718  1.00  0.00    -0.098 OA 
HETATM   17  O   UNL     2      -9.619  10.080  67.053  1.00  0.00    -0.162 OA 
HETATM   18  O   UNL     2      -8.085   9.683  68.934  1.00  0.00    -0.092 OA 
ENDBRANCH  13  14
ENDBRANCH  12  13
ENDBRANCH  11  12
ENDBRANCH  10  11
ENDBRANCH   9  10
ENDBRANCH   8   9
ENDBRANCH   7   8
ENDBRANCH   6   7
ENDBRANCH   5   6
ENDBRANCH   4   5
ENDBRANCH   3   4
TORSDOF 11
ENDMDL
MODEL      484
REMARK 921   NORMALIZED FREE ENERGY PREDICTED BY IDOCK:   -1.46 KCAL/MOL
REMARK 922        TOTAL FREE ENERGY PREDICTED BY IDOCK:   -3.83 KCAL/MOL
REMARK 923 INTER-LIGAND FREE ENERGY PREDICTED BY IDOCK:   -2.98 KCAL/MOL
REMARK 924 INTRA-LIGAND FREE ENERGY PREDICTED BY IDOCK:   -0.85 KCAL/MOL
REMARK 927      BINDING AFFINITY PREDICTED BY RF-SCORE:    0.00 PKD
ROOT
HETATM    1 NA   UNL     1     -11.682   9.220  67.663  1.00  0.00    -0.523 Na 
HETATM    2  C   UNL     2     -10.053   7.186  73.916  1.00  0.00    -0.359 C  
HETATM    3  C   UNL     2     -10.280   7.140  72.413  1.00  0.00    -0.214 C  
ENDROOT
BRANCH   3   4
HETATM    4  C   UNL     2      -9.041   7.626  71.665  1.00  0.00    -0.157 C  
BRANCH   4   5
HETATM    5  C   UNL     2      -8.366   6.498  70.883  1.00  0.00    -0.126 C  
BRANCH   5   6
HETATM    6  C   UNL     2      -8.952   5.117  71.201  1.00  0.00    -0.162 C  
BRANCH   6   7
HETATM    7  C   UNL     2      -9.585   4.464  69.973  1.00  0.00    -0.273 C  
BRANCH   7   8
HETATM    8  C   UNL     2      -9.754   5.431  68.804  1.00  0.00    -0.194 C  
BRANCH   8   9
HETATM    9  C   UNL     2      -8.727   5.173  67.692  1.00  0.00    -0.103 C  
BRANCH   9  10
HETATM   10  C   UNL     2      -8.476   3.692  67.376  1.00  0.00    -0.103 C  
BRANCH  10  11
HETATM   11  C   UNL     2      -9.372   3.164  66.252  1.00  0.00    -0.110 C  
BRANCH  11  12
HETATM   12  C   UNL     2      -8.610   2.852  64.958  1.00  0.00    -0.102 C  
BRANCH  12  13
HETATM   13  C   UNL     2      -8.935   3.803  63.802  1.00  0.00    -0.110 C  
BRANCH  13  14
HETATM   14  O   UNL     2      -8.965   5.131  64.296  1.00  0.00    -0.089 OA 
HETATM   15  S   UNL     2      -7.732   6.120  63.908  1.00  0.00    -0.110 S  
HETATM   16  O   UNL     2      -8.127   7.393  64.519  1.00  0.00    -0.133 OA 
HETATM   17  O   UNL     2      -7.740   6.150  62.451  1.00  0.00    -0.067 OA 
HETATM   18  O   UNL     2      -6.568   5.497  64.512  1.00  0.00    -0.040 OA 
ENDBRANCH  13  14
ENDBRANCH  12  13
ENDBRANCH  11  12
ENDBRANCH  10  11
ENDBRANCH   9  10
ENDBRANCH   8   9
ENDBRANCH   7   8
ENDBRANCH   6   7
ENDBRANCH   5   6
ENDBRANCH   4   5
ENDBRANCH   3   4
TORSDOF 11
ENDMDL
MODEL      485
REMARK 921   NORMALIZED FREE ENERGY PREDICTED BY IDOCK:   -1.44 KCAL/MOL
REMARK 922        TOTAL FREE ENERGY PREDICTED BY IDOCK:   -3.80 KCAL/MOL
REMARK 923 INTER-LIGAND FREE ENERGY PREDICTED BY IDOCK:   -3.19 KCAL/MOL
REMARK 924 INTRA-LIGAND FREE ENERGY PREDICTED BY IDOCK:   -0.62 KCAL/MOL
REMARK 927      BINDING AFFINITY PREDICTED BY RF-SCORE:    0.00 PKD
ROOT
HETATM    1 NA   UNL     1     -14.174  10.110  69.604  1.00  0.00    -0.503 Na 
HETATM    2  C   UNL     2     -12.174  12.501  63.589  1.00  0.00    -0.642 C  
HETATM    3  C   UNL     2     -12.617  12.484  65.044  1.00  0.00    -0.424 C  
ENDROOT
BRANCH   3   4
HETATM    4  C   UNL     2     -11.420  12.287  65.970  1.00  0.00    -0.434 C  
BRANCH   4   5
HETATM    5  C   UNL     2     -10.190  13.061  65.490  1.00  0.00    -0.296 C  
BRANCH   5   6
HETATM    6  C   UNL     2      -9.753  14.155  66.473  1.00  0.00    -0.307 C  
BRANCH   6   7
HETATM    7  C   UNL     2      -8.976  13.585  67.658  1.00  0.00    -0.200 C  
BRANCH   7   8
HETATM    8  C   UNL     2      -8.228  12.297  67.318  1.00  0.00    -0.182 C  
BRANCH   8   9
HETATM    9  C   UNL     2      -6.716  12.435  67.547  1.00  0.00    -0.146 C  
BRANCH   9  10
HETATM   10  C   UNL     2      -5.842  11.563  66.635  1.00  0.00    -0.137 C  
BRANCH  10  11
HETATM   11  C   UNL     2      -5.533  10.192  67.242  1.00  0.00    -0.041 C  
BRANCH  11  12
HETATM   12  C   UNL     2      -5.464   9.065  66.204  1.00  0.00    -0.041 C  
BRANCH  12  13
HETATM   13  C   UNL     2      -6.817   8.711  65.581  1.00  0.00    -0.071 C  
BRANCH  13  14
HETATM   14  O   UNL     2      -6.787   7.359  65.159  1.00  0.00    -0.046 OA 
HETATM   15  S   UNL     2      -8.207   6.601  64.916  1.00  0.00    -0.036 S  
HETATM   16  O   UNL     2      -7.797   5.279  64.434  1.00  0.00    -0.088 OA 
HETATM   17  O   UNL     2      -8.875   7.406  63.901  1.00  0.00     0.549 OA 
HETATM   18  O   UNL     2      -8.840   6.596  66.223  1.00  0.00    -0.140 OA 
ENDBRANCH  13  14
ENDBRANCH  12  13
ENDBRANCH  11  12
ENDBRANCH  10  11
ENDBRANCH   9  10
ENDBRANCH   8   9
ENDBRANCH   7   8
ENDBRANCH   6   7
ENDBRANCH   5   6
ENDBRANCH   4   5
ENDBRANCH   3   4
TORSDOF 11
ENDMDL
MODEL      486
REMARK 921   NORMALIZED FREE ENERGY PREDICTED BY IDOCK:   -1.42 KCAL/MOL
REMARK 922        TOTAL FREE ENERGY PREDICTED BY IDOCK:   -3.78 KCAL/MOL
REMARK 923 INTER-LIGAND FREE ENERGY PREDICTED BY IDOCK:   -2.97 KCAL/MOL
REMARK 924 INTRA-LIGAND FREE ENERGY PREDICTED BY IDOCK:   -0.80 KCAL/MOL
REMARK 927      BINDING AFFINITY PREDICTED BY RF-SCORE:    0.00 PKD
ROOT
HETATM    1 NA   UNL     1      -7.478  16.242  70.452  1.00  0.00     0.041 Na 
HETATM    2  C   UNL     2     -10.886  13.564  65.245  1.00  0.00    -0.316 C  
HETATM    3  C   UNL     2      -9.734  13.883  66.186  1.00  0.00    -0.289 C  
ENDROOT
BRANCH   3   4
HETATM    4  C   UNL     2      -9.727  12.925  67.374  1.00  0.00    -0.201 C  
BRANCH   4   5
HETATM    5  C   UNL     2     -10.145  11.510  66.971  1.00  0.00    -0.237 C  
BRANCH   5   6
HETATM    6  C   UNL     2     -11.042  10.833  68.015  1.00  0.00    -0.359 C  
BRANCH   6   7
HETATM    7  C   UNL     2     -10.379  10.775  69.391  1.00  0.00    -0.207 C  
BRANCH   7   8
HETATM    8  C   UNL     2     -10.349   9.366  69.980  1.00  0.00    -0.265 C  
BRANCH   8   9
HETATM    9  C   UNL     2      -9.061   8.616  69.610  1.00  0.00    -0.149 C  
BRANCH   9  10
HETATM   10  C   UNL     2      -8.933   8.245  68.126  1.00  0.00    -0.139 C  
BRANCH  10  11
HETATM   11  C   UNL     2      -9.967   7.208  67.681  1.00  0.00    -0.201 C  
BRANCH  11  12
HETATM   12  C   UNL     2      -9.564   6.448  66.412  1.00  0.00    -0.156 C  
BRANCH  12  13
HETATM   13  C   UNL     2      -8.082   6.584  66.051  1.00  0.00    -0.121 C  
BRANCH  13  14
HETATM   14  O   UNL     2      -7.967   6.778  64.652  1.00  0.00    -0.122 OA 
HETATM   15  S   UNL     2      -6.803   7.778  64.111  1.00  0.00    -0.062 S  
HETATM   16  O   UNL     2      -6.937   7.682  62.654  1.00  0.00    -0.073 OA 
HETATM   17  O   UNL     2      -5.566   7.198  64.619  1.00  0.00    -0.031 OA 
HETATM   18  O   UNL     2      -7.156   9.074  64.665  1.00  0.00    -0.087 OA 
ENDBRANCH  13  14
ENDBRANCH  12  13
ENDBRANCH  11  12
ENDBRANCH  10  11
ENDBRANCH   9  10
ENDBRANCH   8   9
ENDBRANCH   7   8
ENDBRANCH   6   7
ENDBRANCH   5   6
ENDBRANCH   4   5
ENDBRANCH   3   4
TORSDOF 11
ENDMDL
MODEL      487
REMARK 921   NORMALIZED FREE ENERGY PREDICTED BY IDOCK:   -1.41 KCAL/MOL
REMARK 922        TOTAL FREE ENERGY PREDICTED BY IDOCK:   -3.76 KCAL/MOL
REMARK 923 INTER-LIGAND FREE ENERGY PREDICTED BY IDOCK:   -2.47 KCAL/MOL
REMARK 924 INTRA-LIGAND FREE ENERGY PREDICTED BY IDOCK:   -1.29 KCAL/MOL
REMARK 927      BINDING AFFINITY PREDICTED BY RF-SCORE:    0.00 PKD
ROOT
HETATM    1 NA   UNL     1      -9.752   8.682  62.472  1.00  0.00    -0.520 Na 
HETATM    2  C   UNL     2      -9.416  13.942  66.728  1.00  0.00    -0.287 C  
HETATM    3  C   UNL     2      -9.825  12.596  66.150  1.00  0.00    -0.265 C  
ENDROOT
BRANCH   3   4
HETATM    4  C   UNL     2      -8.833  11.510  66.557  1.00  0.00    -0.190 C  
BRANCH   4   5
HETATM    5  C   UNL     2      -9.520  10.347  67.276  1.00  0.00    -0.176 C  
BRANCH   5   6
HETATM    6  C   UNL     2      -9.655  10.576  68.787  1.00  0.00    -0.181 C  
BRANCH   6   7
HETATM    7  C   UNL     2      -8.343  10.318  69.527  1.00  0.00    -0.162 C  
BRANCH   7   8
HETATM    8  C   UNL     2      -8.262   8.916  70.127  1.00  0.00    -0.126 C  
BRANCH   8   9
HETATM    9  C   UNL     2      -6.812   8.493  70.404  1.00  0.00    -0.037 C  
BRANCH   9  10
HETATM   10  C   UNL     2      -5.931   8.349  69.156  1.00  0.00    -0.042 C  
BRANCH  10  11
HETATM   11  C   UNL     2      -6.618   7.573  68.029  1.00  0.00    -0.054 C  
BRANCH  11  12
HETATM   12  C   UNL     2      -6.324   8.133  66.632  1.00  0.00    -0.055 C  
BRANCH  12  13
HETATM   13  C   UNL     2      -5.921   7.067  65.610  1.00  0.00    -0.036 C  
BRANCH  13  14
HETATM   14  O   UNL     2      -7.013   6.831  64.739  1.00  0.00    -0.051 OA 
HETATM   15  S   UNL     2      -6.930   7.426  63.227  1.00  0.00    -0.063 S  
HETATM   16  O   UNL     2      -8.170   6.941  62.613  1.00  0.00    -0.096 OA 
HETATM   17  O   UNL     2      -5.730   6.817  62.666  1.00  0.00    -0.036 OA 
HETATM   18  O   UNL     2      -6.871   8.866  63.409  1.00  0.00    -0.090 OA 
ENDBRANCH  13  14
ENDBRANCH  12  13
ENDBRANCH  11  12
ENDBRANCH  10  11
ENDBRANCH   9  10
ENDBRANCH   8   9
ENDBRANCH   7   8
ENDBRANCH   6   7
ENDBRANCH   5   6
ENDBRANCH   4   5
ENDBRANCH   3   4
TORSDOF 11
ENDMDL
MODEL      488
REMARK 921   NORMALIZED FREE ENERGY PREDICTED BY IDOCK:   -1.38 KCAL/MOL
REMARK 922        TOTAL FREE ENERGY PREDICTED BY IDOCK:   -3.70 KCAL/MOL
REMARK 923 INTER-LIGAND FREE ENERGY PREDICTED BY IDOCK:   -3.47 KCAL/MOL
REMARK 924 INTRA-LIGAND FREE ENERGY PREDICTED BY IDOCK:   -0.23 KCAL/MOL
REMARK 927      BINDING AFFINITY PREDICTED BY RF-SCORE:    0.00 PKD
ROOT
HETATM    1 NA   UNL     1      -8.550   9.369  68.889  1.00  0.00    -0.111 Na 
HETATM    2  C   UNL     2     -12.786  13.655  65.793  1.00  0.00    -0.470 C  
HETATM    3  C   UNL     2     -11.486  13.034  66.280  1.00  0.00    -0.379 C  
ENDROOT
BRANCH   3   4
HETATM    4  C   UNL     2     -11.005  11.958  65.311  1.00  0.00    -0.354 C  
BRANCH   4   5
HETATM    5  C   UNL     2     -10.460  12.559  64.013  1.00  0.00    -0.449 C  
BRANCH   5   6
HETATM    6  C   UNL     2      -9.295  11.751  63.425  1.00  0.00    -0.075 C  
BRANCH   6   7
HETATM    7  C   UNL     2      -9.520  10.245  63.549  1.00  0.00    -0.345 C  
BRANCH   7   8
HETATM    8  C   UNL     2      -9.031   9.466  62.330  1.00  0.00    -0.258 C  
BRANCH   8   9
HETATM    9  C   UNL     2      -7.552   9.074  62.456  1.00  0.00    -0.107 C  
BRANCH   9  10
HETATM   10  C   UNL     2      -7.144   8.519  63.827  1.00  0.00    -0.092 C  
BRANCH  10  11
HETATM   11  C   UNL     2      -6.438   9.557  64.703  1.00  0.00    -0.089 C  
BRANCH  11  12
HETATM   12  C   UNL     2      -6.693   9.367  66.203  1.00  0.00    -0.077 C  
BRANCH  12  13
HETATM   13  C   UNL     2      -6.384   7.956  66.710  1.00  0.00    -0.054 C  
BRANCH  13  14
HETATM   14  O   UNL     2      -7.337   7.057  66.170  1.00  0.00    -0.072 OA 
HETATM   15  S   UNL     2      -8.745   6.867  66.963  1.00  0.00    -0.121 S  
HETATM   16  O   UNL     2      -9.486   5.941  66.100  1.00  0.00    -0.158 OA 
HETATM   17  O   UNL     2      -9.319   8.206  67.002  1.00  0.00    -0.140 OA 
HETATM   18  O   UNL     2      -8.363   6.315  68.250  1.00  0.00    -0.114 OA 
ENDBRANCH  13  14
ENDBRANCH  12  13
ENDBRANCH  11  12
ENDBRANCH  10  11
ENDBRANCH   9  10
ENDBRANCH   8   9
ENDBRANCH   7   8
ENDBRANCH   6   7
ENDBRANCH   5   6
ENDBRANCH   4   5
ENDBRANCH   3   4
TORSDOF 11
ENDMDL
MODEL      489
REMARK 921   NORMALIZED FREE ENERGY PREDICTED BY IDOCK:   -1.32 KCAL/MOL
REMARK 922        TOTAL FREE ENERGY PREDICTED BY IDOCK:   -3.60 KCAL/MOL
REMARK 923 INTER-LIGAND FREE ENERGY PREDICTED BY IDOCK:   -2.74 KCAL/MOL
REMARK 924 INTRA-LIGAND FREE ENERGY PREDICTED BY IDOCK:   -0.86 KCAL/MOL
REMARK 927      BINDING AFFINITY PREDICTED BY RF-SCORE:    0.00 PKD
ROOT
HETATM    1 NA   UNL     1     -11.259   5.002  65.471  1.00  0.00    -0.295 Na 
HETATM    2  C   UNL     2      -5.275   5.815  62.401  1.00  0.00    -0.013 C  
HETATM    3  C   UNL     2      -6.356   5.897  63.468  1.00  0.00    -0.025 C  
ENDROOT
BRANCH   3   4
HETATM    4  C   UNL     2      -6.347   4.646  64.342  1.00  0.00    -0.034 C  
BRANCH   4   5
HETATM    5  C   UNL     2      -5.668   4.895  65.691  1.00  0.00    -0.018 C  
BRANCH   5   6
HETATM    6  C   UNL     2      -6.413   4.243  66.863  1.00  0.00    -0.041 C  
BRANCH   6   7
HETATM    7  C   UNL     2      -7.727   4.957  67.176  1.00  0.00    -0.092 C  
BRANCH   7   8
HETATM    8  C   UNL     2      -7.822   5.422  68.628  1.00  0.00    -0.087 C  
BRANCH   8   9
HETATM    9  C   UNL     2      -9.138   4.984  69.286  1.00  0.00    -0.142 C  
BRANCH   9  10
HETATM   10  C   UNL     2     -10.380   5.106  68.392  1.00  0.00    -0.140 C  
BRANCH  10  11
HETATM   11  C   UNL     2     -10.988   6.511  68.408  1.00  0.00    -0.358 C  
BRANCH  11  12
HETATM   12  C   UNL     2     -10.623   7.351  67.178  1.00  0.00    -0.413 C  
BRANCH  12  13
HETATM   13  C   UNL     2      -9.666   8.508  67.479  1.00  0.00    -0.162 C  
BRANCH  13  14
HETATM   14  O   UNL     2     -10.412   9.599  67.990  1.00  0.00    -0.203 OA 
HETATM   15  S   UNL     2      -9.599  10.922  68.475  1.00  0.00    -0.193 S  
HETATM   16  O   UNL     2     -10.672  11.842  68.867  1.00  0.00    -0.221 OA 
HETATM   17  O   UNL     2      -8.872  11.353  67.287  1.00  0.00    -0.147 OA 
HETATM   18  O   UNL     2      -8.775  10.455  69.575  1.00  0.00    -0.157 OA 
ENDBRANCH  13  14
ENDBRANCH  12  13
ENDBRANCH  11  12
ENDBRANCH  10  11
ENDBRANCH   9  10
ENDBRANCH   8   9
ENDBRANCH   7   8
ENDBRANCH   6   7
ENDBRANCH   5   6
ENDBRANCH   4   5
ENDBRANCH   3   4
TORSDOF 11
ENDMDL
MODEL      490
REMARK 921   NORMALIZED FREE ENERGY PREDICTED BY IDOCK:   -1.19 KCAL/MOL
REMARK 922        TOTAL FREE ENERGY PREDICTED BY IDOCK:   -3.39 KCAL/MOL
REMARK 923 INTER-LIGAND FREE ENERGY PREDICTED BY IDOCK:   -3.44 KCAL/MOL
REMARK 924 INTRA-LIGAND FREE ENERGY PREDICTED BY IDOCK:    0.06 KCAL/MOL
REMARK 927      BINDING AFFINITY PREDICTED BY RF-SCORE:    0.00 PKD
ROOT
HETATM    1 NA   UNL     1     -11.498   5.301  65.527  1.00  0.00    -0.550 Na 
HETATM    2  C   UNL     2      -6.250   9.075  63.501  1.00  0.00    -0.089 C  
HETATM    3  C   UNL     2      -7.444   8.613  64.321  1.00  0.00    -0.109 C  
ENDROOT
BRANCH   3   4
HETATM    4  C   UNL     2      -7.009   7.618  65.393  1.00  0.00    -0.059 C  
BRANCH   4   5
HETATM    5  C   UNL     2      -6.400   8.317  66.611  1.00  0.00    -0.055 C  
BRANCH   5   6
HETATM    6  C   UNL     2      -7.188   8.060  67.902  1.00  0.00    -0.091 C  
BRANCH   6   7
HETATM    7  C   UNL     2      -8.219   9.154  68.174  1.00  0.00    -0.116 C  
BRANCH   7   8
HETATM    8  C   UNL     2      -7.854  10.036  69.367  1.00  0.00    -0.141 C  
BRANCH   8   9
HETATM    9  C   UNL     2      -9.050  10.258  70.303  1.00  0.00     0.398 C  
BRANCH   9  10
HETATM   10  C   UNL     2     -10.426  10.105  69.642  1.00  0.00    -0.282 C  
BRANCH  10  11
HETATM   11  C   UNL     2     -11.003  11.436  69.154  1.00  0.00    -0.289 C  
BRANCH  11  12
HETATM   12  C   UNL     2     -11.069  11.552  67.626  1.00  0.00    -0.324 C  
BRANCH  12  13
HETATM   13  C   UNL     2      -9.875  12.285  67.008  1.00  0.00    -0.205 C  
BRANCH  13  14
HETATM   14  O   UNL     2     -10.343  13.133  65.974  1.00  0.00    -0.276 OA 
HETATM   15  S   UNL     2     -11.284  12.481  64.817  1.00  0.00    -0.320 S  
HETATM   16  O   UNL     2     -11.624  13.636  63.980  1.00  0.00    -0.378 OA 
HETATM   17  O   UNL     2     -12.424  11.938  65.544  1.00  0.00    -0.264 OA 
HETATM   18  O   UNL     2     -10.432  11.499  64.170  1.00  0.00    -0.293 OA 
ENDBRANCH  13  14
ENDBRANCH  12  13
ENDBRANCH  11  12
ENDBRANCH  10  11
ENDBRANCH   9  10
ENDBRANCH   8   9
ENDBRANCH   7   8
ENDBRANCH   6   7
ENDBRANCH   5   6
ENDBRANCH   4   5
ENDBRANCH   3   4
TORSDOF 11
ENDMDL
MODEL      491
REMARK 921   NORMALIZED FREE ENERGY PREDICTED BY IDOCK:   -1.17 KCAL/MOL
REMARK 922        TOTAL FREE ENERGY PREDICTED BY IDOCK:   -3.36 KCAL/MOL
REMARK 923 INTER-LIGAND FREE ENERGY PREDICTED BY IDOCK:   -3.95 KCAL/MOL
REMARK 924 INTRA-LIGAND FREE ENERGY PREDICTED BY IDOCK:    0.59 KCAL/MOL
REMARK 927      BINDING AFFINITY PREDICTED BY RF-SCORE:    0.00 PKD
ROOT
HETATM    1 NA   UNL     1     -10.294  20.032  70.342  1.00  0.00    -0.552 Na 
HETATM    2  C   UNL     2      -5.946  18.242  65.465  1.00  0.00    -0.259 C  
HETATM    3  C   UNL     2      -7.151  18.197  66.391  1.00  0.00    -0.274 C  
ENDROOT
BRANCH   3   4
HETATM    4  C   UNL     2      -8.308  19.006  65.810  1.00  0.00     0.224 C  
BRANCH   4   5
HETATM    5  C   UNL     2      -8.995  19.866  66.873  1.00  0.00    -0.434 C  
BRANCH   5   6
HETATM    6  C   UNL     2     -10.504  19.604  66.969  1.00  0.00    -0.600 C  
BRANCH   6   7
HETATM    7  C   UNL     2     -10.821  18.113  67.075  1.00  0.00    -0.162 C  
BRANCH   7   8
HETATM    8  C   UNL     2      -9.654  17.291  67.616  1.00  0.00    -0.256 C  
BRANCH   8   9
HETATM    9  C   UNL     2      -9.918  16.790  69.044  1.00  0.00    -0.272 C  
BRANCH   9  10
HETATM   10  C   UNL     2      -9.205  15.483  69.413  1.00  0.00    -0.280 C  
BRANCH  10  11
HETATM   11  C   UNL     2     -10.175  14.371  69.823  1.00  0.00     0.279 C  
BRANCH  11  12
HETATM   12  C   UNL     2     -10.172  13.173  68.866  1.00  0.00    -0.021 C  
BRANCH  12  13
HETATM   13  C   UNL     2     -11.558  12.804  68.330  1.00  0.00    -0.325 C  
BRANCH  13  14
HETATM   14  O   UNL     2     -12.096  13.920  67.643  1.00  0.00    -0.377 OA 
HETATM   15  S   UNL     2     -11.631  14.167  66.103  1.00  0.00    -0.384 S  
HETATM   16  O   UNL     2     -12.419  15.337  65.704  1.00  0.00     0.399 OA 
HETATM   17  O   UNL     2     -12.019  12.944  65.410  1.00  0.00    -0.374 OA 
HETATM   18  O   UNL     2     -10.201  14.405  66.192  1.00  0.00    -0.284 OA 
ENDBRANCH  13  14
ENDBRANCH  12  13
ENDBRANCH  11  12
ENDBRANCH  10  11
ENDBRANCH   9  10
ENDBRANCH   8   9
ENDBRANCH   7   8
ENDBRANCH   6   7
ENDBRANCH   5   6
ENDBRANCH   4   5
ENDBRANCH   3   4
TORSDOF 11
ENDMDL
MODEL      492
REMARK 921   NORMALIZED FREE ENERGY PREDICTED BY IDOCK:   -1.14 KCAL/MOL
REMARK 922        TOTAL FREE ENERGY PREDICTED BY IDOCK:   -3.31 KCAL/MOL
REMARK 923 INTER-LIGAND FREE ENERGY PREDICTED BY IDOCK:   -2.71 KCAL/MOL
REMARK 924 INTRA-LIGAND FREE ENERGY PREDICTED BY IDOCK:   -0.60 KCAL/MOL
REMARK 927      BINDING AFFINITY PREDICTED BY RF-SCORE:    0.00 PKD
ROOT
HETATM    1 NA   UNL     1     -11.907   6.152  67.229  1.00  0.00    -0.484 Na 
HETATM    2  C   UNL     2     -11.177   4.293  73.702  1.00  0.00    -0.325 C  
HETATM    3  C   UNL     2     -10.855   4.901  72.346  1.00  0.00    -0.204 C  
ENDROOT
BRANCH   3   4
HETATM    4  C   UNL     2     -11.391   6.326  72.252  1.00  0.00    -0.337 C  
BRANCH   4   5
HETATM    5  C   UNL     2     -10.304   7.366  72.533  1.00  0.00    -0.272 C  
BRANCH   5   6
HETATM    6  C   UNL     2      -9.623   7.876  71.256  1.00  0.00    -0.186 C  
BRANCH   6   7
HETATM    7  C   UNL     2      -9.898   9.359  71.011  1.00  0.00    -0.317 C  
BRANCH   7   8
HETATM    8  C   UNL     2     -10.917   9.602  69.900  1.00  0.00    -0.281 C  
BRANCH   8   9
HETATM    9  C   UNL     2     -10.238   9.909  68.557  1.00  0.00    -0.199 C  
BRANCH   9  10
HETATM   10  C   UNL     2      -9.235  11.070  68.590  1.00  0.00    -0.186 C  
BRANCH  10  11
HETATM   11  C   UNL     2      -9.274  11.927  67.323  1.00  0.00    -0.179 C  
BRANCH  11  12
HETATM   12  C   UNL     2      -7.946  11.950  66.557  1.00  0.00     0.041 C  
BRANCH  12  13
HETATM   13  C   UNL     2      -6.980  13.042  67.024  1.00  0.00     0.313 C  
BRANCH  13  14
HETATM   14  O   UNL     2      -6.261  12.568  68.149  1.00  0.00    -0.060 OA 
HETATM   15  S   UNL     2      -6.062  13.576  69.411  1.00  0.00    -0.108 S  
HETATM   16  O   UNL     2      -5.353  12.745  70.388  1.00  0.00    -0.106 OA 
HETATM   17  O   UNL     2      -7.420  13.915  69.818  1.00  0.00     0.264 OA 
HETATM   18  O   UNL     2      -5.280  14.675  68.874  1.00  0.00    -0.085 OA 
ENDBRANCH  13  14
ENDBRANCH  12  13
ENDBRANCH  11  12
ENDBRANCH  10  11
ENDBRANCH   9  10
ENDBRANCH   8   9
ENDBRANCH   7   8
ENDBRANCH   6   7
ENDBRANCH   5   6
ENDBRANCH   4   5
ENDBRANCH   3   4
TORSDOF 11
ENDMDL
MODEL      493
REMARK 921   NORMALIZED FREE ENERGY PREDICTED BY IDOCK:   -1.11 KCAL/MOL
REMARK 922        TOTAL FREE ENERGY PREDICTED BY IDOCK:   -3.25 KCAL/MOL
REMARK 923 INTER-LIGAND FREE ENERGY PREDICTED BY IDOCK:   -2.04 KCAL/MOL
REMARK 924 INTRA-LIGAND FREE ENERGY PREDICTED BY IDOCK:   -1.22 KCAL/MOL
REMARK 927      BINDING AFFINITY PREDICTED BY RF-SCORE:    0.00 PKD
ROOT
HETATM    1 NA   UNL     1     -10.263   8.116  71.514  1.00  0.00    -0.177 Na 
HETATM    2  C   UNL     2      -5.588   3.411  70.132  1.00  0.00    -0.016 C  
HETATM    3  C   UNL     2      -6.542   4.285  70.932  1.00  0.00    -0.034 C  
ENDROOT
BRANCH   3   4
HETATM    4  C   UNL     2      -7.935   3.663  70.977  1.00  0.00    -0.062 C  
BRANCH   4   5
HETATM    5  C   UNL     2      -8.147   2.652  69.849  1.00  0.00    -0.057 C  
BRANCH   5   6
HETATM    6  C   UNL     2      -9.330   3.012  68.940  1.00  0.00    -0.228 C  
BRANCH   6   7
HETATM    7  C   UNL     2      -9.270   2.277  67.601  1.00  0.00    -0.207 C  
BRANCH   7   8
HETATM    8  C   UNL     2      -7.944   2.477  66.869  1.00  0.00    -0.076 C  
BRANCH   8   9
HETATM    9  C   UNL     2      -8.154   2.851  65.395  1.00  0.00    -0.086 C  
BRANCH   9  10
HETATM   10  C   UNL     2      -7.940   4.335  65.068  1.00  0.00    -0.093 C  
BRANCH  10  11
HETATM   11  C   UNL     2      -8.296   5.259  66.235  1.00  0.00    -0.114 C  
BRANCH  11  12
HETATM   12  C   UNL     2      -7.802   6.698  66.049  1.00  0.00    -0.104 C  
BRANCH  12  13
HETATM   13  C   UNL     2      -8.216   7.647  67.178  1.00  0.00    -0.118 C  
BRANCH  13  14
HETATM   14  O   UNL     2      -9.155   6.988  68.009  1.00  0.00    -0.129 OA 
HETATM   15  S   UNL     2     -10.407   7.853  68.585  1.00  0.00    -0.178 S  
HETATM   16  O   UNL     2     -11.184   6.855  69.326  1.00  0.00    -0.211 OA 
HETATM   17  O   UNL     2     -11.085   8.344  67.391  1.00  0.00     0.027 OA 
HETATM   18  O   UNL     2      -9.789   8.872  69.414  1.00  0.00    -0.175 OA 
ENDBRANCH  13  14
ENDBRANCH  12  13
ENDBRANCH  11  12
ENDBRANCH  10  11
ENDBRANCH   9  10
ENDBRANCH   8   9
ENDBRANCH   7   8
ENDBRANCH   6   7
ENDBRANCH   5   6
ENDBRANCH   4   5
ENDBRANCH   3   4
TORSDOF 11
ENDMDL
MODEL      494
REMARK 921   NORMALIZED FREE ENERGY PREDICTED BY IDOCK:   -0.98 KCAL/MOL
REMARK 922        TOTAL FREE ENERGY PREDICTED BY IDOCK:   -3.04 KCAL/MOL
REMARK 923 INTER-LIGAND FREE ENERGY PREDICTED BY IDOCK:   -2.10 KCAL/MOL
REMARK 924 INTRA-LIGAND FREE ENERGY PREDICTED BY IDOCK:   -0.94 KCAL/MOL
REMARK 927      BINDING AFFINITY PREDICTED BY RF-SCORE:    0.00 PKD
ROOT
HETATM    1 NA   UNL     1      -9.974   8.758  63.098  1.00  0.00    -0.233 Na 
HETATM    2  C   UNL     2     -12.502  14.210  66.226  1.00  0.00    -0.395 C  
HETATM    3  C   UNL     2     -12.064  12.772  65.992  1.00  0.00    -0.458 C  
ENDROOT
BRANCH   3   4
HETATM    4  C   UNL     2     -10.585  12.598  66.325  1.00  0.00    -0.274 C  
BRANCH   4   5
HETATM    5  C   UNL     2     -10.346  11.417  67.269  1.00  0.00    -0.230 C  
BRANCH   5   6
HETATM    6  C   UNL     2      -9.513  11.798  68.500  1.00  0.00    -0.165 C  
BRANCH   6   7
HETATM    7  C   UNL     2      -8.032  11.469  68.316  1.00  0.00    -0.142 C  
BRANCH   7   8
HETATM    8  C   UNL     2      -7.447  10.677  69.483  1.00  0.00    -0.132 C  
BRANCH   8   9
HETATM    9  C   UNL     2      -6.360   9.695  69.023  1.00  0.00    -0.041 C  
BRANCH   9  10
HETATM   10  C   UNL     2      -6.851   8.576  68.094  1.00  0.00    -0.069 C  
BRANCH  10  11
HETATM   11  C   UNL     2      -7.755   7.566  68.807  1.00  0.00    -0.119 C  
BRANCH  11  12
HETATM   12  C   UNL     2      -9.109   7.362  68.115  1.00  0.00    -0.131 C  
BRANCH  12  13
HETATM   13  C   UNL     2      -9.084   7.641  66.610  1.00  0.00    -0.164 C  
BRANCH  13  14
HETATM   14  O   UNL     2      -8.069   6.853  66.014  1.00  0.00    -0.107 OA 
HETATM   15  S   UNL     2      -7.987   6.810  64.390  1.00  0.00    -0.058 S  
HETATM   16  O   UNL     2      -6.808   5.975  64.141  1.00  0.00    -0.043 OA 
HETATM   17  O   UNL     2      -7.801   8.204  64.003  1.00  0.00    -0.130 OA 
HETATM   18  O   UNL     2      -9.246   6.213  63.981  1.00  0.00     0.790 OA 
ENDBRANCH  13  14
ENDBRANCH  12  13
ENDBRANCH  11  12
ENDBRANCH  10  11
ENDBRANCH   9  10
ENDBRANCH   8   9
ENDBRANCH   7   8
ENDBRANCH   6   7
ENDBRANCH   5   6
ENDBRANCH   4   5
ENDBRANCH   3   4
TORSDOF 11
ENDMDL
MODEL      495
REMARK 921   NORMALIZED FREE ENERGY PREDICTED BY IDOCK:   -0.95 KCAL/MOL
REMARK 922        TOTAL FREE ENERGY PREDICTED BY IDOCK:   -3.00 KCAL/MOL
REMARK 923 INTER-LIGAND FREE ENERGY PREDICTED BY IDOCK:   -2.30 KCAL/MOL
REMARK 924 INTRA-LIGAND FREE ENERGY PREDICTED BY IDOCK:   -0.69 KCAL/MOL
REMARK 927      BINDING AFFINITY PREDICTED BY RF-SCORE:    0.00 PKD
ROOT
HETATM    1 NA   UNL     1     -10.157   8.634  63.109  1.00  0.00     0.171 Na 
HETATM    2  C   UNL     2     -11.856  13.565  67.433  1.00  0.00    -0.423 C  
HETATM    3  C   UNL     2     -11.589  12.168  66.892  1.00  0.00    -0.408 C  
ENDROOT
BRANCH   3   4
HETATM    4  C   UNL     2     -10.115  11.803  67.044  1.00  0.00    -0.232 C  
BRANCH   4   5
HETATM    5  C   UNL     2      -9.766  11.419  68.484  1.00  0.00    -0.199 C  
BRANCH   5   6
HETATM    6  C   UNL     2      -8.393  11.943  68.925  1.00  0.00     0.111 C  
BRANCH   6   7
HETATM    7  C   UNL     2      -7.339  10.837  68.957  1.00  0.00    -0.109 C  
BRANCH   7   8
HETATM    8  C   UNL     2      -6.619  10.738  70.300  1.00  0.00    -0.100 C  
BRANCH   8   9
HETATM    9  C   UNL     2      -6.315   9.282  70.682  1.00  0.00    -0.068 C  
BRANCH   9  10
HETATM   10  C   UNL     2      -7.544   8.367  70.773  1.00  0.00    -0.071 C  
BRANCH  10  11
HETATM   11  C   UNL     2      -8.540   8.815  71.846  1.00  0.00    -0.169 C  
BRANCH  11  12
HETATM   12  C   UNL     2      -9.970   8.990  71.319  1.00  0.00    -0.381 C  
BRANCH  12  13
HETATM   13  C   UNL     2     -10.280   8.152  70.076  1.00  0.00    -0.202 C  
BRANCH  13  14
HETATM   14  O   UNL     2      -9.960   6.798  70.345  1.00  0.00    -0.179 OA 
HETATM   15  S   UNL     2     -10.283   5.692  69.196  1.00  0.00    -0.257 S  
HETATM   16  O   UNL     2      -9.770   4.449  69.782  1.00  0.00    -0.193 OA 
HETATM   17  O   UNL     2      -9.521   6.143  68.038  1.00  0.00    -0.115 OA 
HETATM   18  O   UNL     2     -11.727   5.737  69.049  1.00  0.00     0.520 OA 
ENDBRANCH  13  14
ENDBRANCH  12  13
ENDBRANCH  11  12
ENDBRANCH  10  11
ENDBRANCH   9  10
ENDBRANCH   8   9
ENDBRANCH   7   8
ENDBRANCH   6   7
ENDBRANCH   5   6
ENDBRANCH   4   5
ENDBRANCH   3   4
TORSDOF 11
ENDMDL
MODEL      496
REMARK 921   NORMALIZED FREE ENERGY PREDICTED BY IDOCK:   -0.79 KCAL/MOL
REMARK 922        TOTAL FREE ENERGY PREDICTED BY IDOCK:   -2.73 KCAL/MOL
REMARK 923 INTER-LIGAND FREE ENERGY PREDICTED BY IDOCK:   -2.03 KCAL/MOL
REMARK 924 INTRA-LIGAND FREE ENERGY PREDICTED BY IDOCK:   -0.70 KCAL/MOL
REMARK 927      BINDING AFFINITY PREDICTED BY RF-SCORE:    0.00 PKD
ROOT
HETATM    1 NA   UNL     1      -9.467  11.369  66.133  1.00  0.00    -0.178 Na 
HETATM    2  C   UNL     2     -10.582  17.952  67.283  1.00  0.00    -0.341 C  
HETATM    3  C   UNL     2     -10.487  16.454  67.531  1.00  0.00    -0.304 C  
ENDROOT
BRANCH   3   4
HETATM    4  C   UNL     2      -9.073  16.066  67.954  1.00  0.00    -0.187 C  
BRANCH   4   5
HETATM    5  C   UNL     2      -9.058  14.796  68.806  1.00  0.00    -0.191 C  
BRANCH   5   6
HETATM    6  C   UNL     2      -8.032  14.854  69.946  1.00  0.00     0.202 C  
BRANCH   6   7
HETATM    7  C   UNL     2      -6.595  14.819  69.426  1.00  0.00    -0.142 C  
BRANCH   7   8
HETATM    8  C   UNL     2      -6.315  13.618  68.526  1.00  0.00    -0.092 C  
BRANCH   8   9
HETATM    9  C   UNL     2      -6.049  12.342  69.338  1.00  0.00    -0.107 C  
BRANCH   9  10
HETATM   10  C   UNL     2      -5.240  12.551  70.624  1.00  0.00    -0.138 C  
BRANCH  10  11
HETATM   11  C   UNL     2      -5.179  11.296  71.499  1.00  0.00     0.025 C  
BRANCH  11  12
HETATM   12  C   UNL     2      -5.946  10.104  70.914  1.00  0.00    -0.070 C  
BRANCH  12  13
HETATM   13  C   UNL     2      -5.590   8.761  71.558  1.00  0.00    -0.045 C  
BRANCH  13  14
HETATM   14  O   UNL     2      -6.699   8.306  72.312  1.00  0.00    -0.072 OA 
HETATM   15  S   UNL     2      -6.435   7.807  73.838  1.00  0.00    -0.092 S  
HETATM   16  O   UNL     2      -7.782   7.483  74.318  1.00  0.00    -0.125 OA 
HETATM   17  O   UNL     2      -5.848   8.966  74.500  1.00  0.00    -0.125 OA 
HETATM   18  O   UNL     2      -5.555   6.661  73.695  1.00  0.00    -0.045 OA 
ENDBRANCH  13  14
ENDBRANCH  12  13
ENDBRANCH  11  12
ENDBRANCH  10  11
ENDBRANCH   9  10
ENDBRANCH   8   9
ENDBRANCH   7   8
ENDBRANCH   6   7
ENDBRANCH   5   6
ENDBRANCH   4   5
ENDBRANCH   3   4
TORSDOF 11
ENDMDL
MODEL      497
REMARK 921   NORMALIZED FREE ENERGY PREDICTED BY IDOCK:   -0.67 KCAL/MOL
REMARK 922        TOTAL FREE ENERGY PREDICTED BY IDOCK:   -2.54 KCAL/MOL
REMARK 923 INTER-LIGAND FREE ENERGY PREDICTED BY IDOCK:   -1.67 KCAL/MOL
REMARK 924 INTRA-LIGAND FREE ENERGY PREDICTED BY IDOCK:   -0.87 KCAL/MOL
REMARK 927      BINDING AFFINITY PREDICTED BY RF-SCORE:    0.00 PKD
ROOT
HETATM    1 NA   UNL     1     -10.263   8.116  71.514  1.00  0.00    -0.177 Na 
HETATM    2  C   UNL     2      -5.588   3.411  70.132  1.00  0.00    -0.016 C  
HETATM    3  C   UNL     2      -6.542   4.285  70.932  1.00  0.00    -0.034 C  
ENDROOT
BRANCH   3   4
HETATM    4  C   UNL     2      -7.935   3.663  70.977  1.00  0.00    -0.062 C  
BRANCH   4   5
HETATM    5  C   UNL     2      -8.147   2.652  69.849  1.00  0.00    -0.057 C  
BRANCH   5   6
HETATM    6  C   UNL     2      -9.330   3.012  68.940  1.00  0.00    -0.228 C  
BRANCH   6   7
HETATM    7  C   UNL     2      -9.270   2.277  67.601  1.00  0.00    -0.207 C  
BRANCH   7   8
HETATM    8  C   UNL     2      -7.944   2.477  66.869  1.00  0.00    -0.076 C  
BRANCH   8   9
HETATM    9  C   UNL     2      -8.154   2.851  65.395  1.00  0.00    -0.086 C  
BRANCH   9  10
HETATM   10  C   UNL     2      -7.940   4.335  65.068  1.00  0.00    -0.093 C  
BRANCH  10  11
HETATM   11  C   UNL     2      -8.296   5.259  66.235  1.00  0.00    -0.114 C  
BRANCH  11  12
HETATM   12  C   UNL     2      -7.802   6.698  66.049  1.00  0.00    -0.104 C  
BRANCH  12  13
HETATM   13  C   UNL     2      -8.216   7.647  67.178  1.00  0.00    -0.118 C  
BRANCH  13  14
HETATM   14  O   UNL     2      -7.191   8.607  67.369  1.00  0.00    -0.079 OA 
HETATM   15  S   UNL     2      -6.830   9.048  68.893  1.00  0.00    -0.057 S  
HETATM   16  O   UNL     2      -5.710   9.977  68.710  1.00  0.00    -0.036 OA 
HETATM   17  O   UNL     2      -6.448   7.803  69.547  1.00  0.00    -0.034 OA 
HETATM   18  O   UNL     2      -8.049   9.664  69.387  1.00  0.00    -0.098 OA 
ENDBRANCH  13  14
ENDBRANCH  12  13
ENDBRANCH  11  12
ENDBRANCH  10  11
ENDBRANCH   9  10
ENDBRANCH   8   9
ENDBRANCH   7   8
ENDBRANCH   6   7
ENDBRANCH   5   6
ENDBRANCH   4   5
ENDBRANCH   3   4
TORSDOF 11
ENDMDL
MODEL      498
REMARK 921   NORMALIZED FREE ENERGY PREDICTED BY IDOCK:   -0.65 KCAL/MOL
REMARK 922        TOTAL FREE ENERGY PREDICTED BY IDOCK:   -2.50 KCAL/MOL
REMARK 923 INTER-LIGAND FREE ENERGY PREDICTED BY IDOCK:   -1.79 KCAL/MOL
REMARK 924 INTRA-LIGAND FREE ENERGY PREDICTED BY IDOCK:   -0.71 KCAL/MOL
REMARK 927      BINDING AFFINITY PREDICTED BY RF-SCORE:    0.00 PKD
ROOT
HETATM    1 NA   UNL     1     -10.285   8.118  71.506  1.00  0.00    -0.177 Na 
HETATM    2  C   UNL     2      -5.671   3.677  69.295  1.00  0.00    -0.018 C  
HETATM    3  C   UNL     2      -6.524   4.493  70.255  1.00  0.00    -0.034 C  
ENDROOT
BRANCH   3   4
HETATM    4  C   UNL     2      -7.857   3.798  70.516  1.00  0.00    -0.050 C  
BRANCH   4   5
HETATM    5  C   UNL     2      -8.193   2.776  69.427  1.00  0.00    -0.071 C  
BRANCH   5   6
HETATM    6  C   UNL     2      -9.313   3.249  68.491  1.00  0.00    -0.237 C  
BRANCH   6   7
HETATM    7  C   UNL     2      -9.252   2.558  67.129  1.00  0.00    -0.141 C  
BRANCH   7   8
HETATM    8  C   UNL     2      -8.018   2.947  66.317  1.00  0.00    -0.082 C  
BRANCH   8   9
HETATM    9  C   UNL     2      -8.342   3.112  64.825  1.00  0.00    -0.090 C  
BRANCH   9  10
HETATM   10  C   UNL     2      -8.790   4.520  64.412  1.00  0.00    -0.152 C  
BRANCH  10  11
HETATM   11  C   UNL     2      -7.664   5.552  64.499  1.00  0.00    -0.090 C  
BRANCH  11  12
HETATM   12  C   UNL     2      -8.040   6.920  63.917  1.00  0.00     0.001 C  
BRANCH  12  13
HETATM   13  C   UNL     2      -6.844   7.728  63.406  1.00  0.00    -0.071 C  
BRANCH  13  14
HETATM   14  O   UNL     2      -6.270   8.433  64.492  1.00  0.00    -0.064 OA 
HETATM   15  S   UNL     2      -6.467  10.047  64.547  1.00  0.00    -0.127 S  
HETATM   16  O   UNL     2      -5.816  10.416  65.808  1.00  0.00    -0.084 OA 
HETATM   17  O   UNL     2      -7.913  10.232  64.566  1.00  0.00    -0.154 OA 
HETATM   18  O   UNL     2      -5.792  10.533  63.356  1.00  0.00    -0.148 OA 
ENDBRANCH  13  14
ENDBRANCH  12  13
ENDBRANCH  11  12
ENDBRANCH  10  11
ENDBRANCH   9  10
ENDBRANCH   8   9
ENDBRANCH   7   8
ENDBRANCH   6   7
ENDBRANCH   5   6
ENDBRANCH   4   5
ENDBRANCH   3   4
TORSDOF 11
ENDMDL
MODEL      499
REMARK 921   NORMALIZED FREE ENERGY PREDICTED BY IDOCK:   -0.64 KCAL/MOL
REMARK 922        TOTAL FREE ENERGY PREDICTED BY IDOCK:   -2.48 KCAL/MOL
REMARK 923 INTER-LIGAND FREE ENERGY PREDICTED BY IDOCK:   -3.16 KCAL/MOL
REMARK 924 INTRA-LIGAND FREE ENERGY PREDICTED BY IDOCK:    0.68 KCAL/MOL
REMARK 927      BINDING AFFINITY PREDICTED BY RF-SCORE:    0.00 PKD
ROOT
HETATM    1 NA   UNL     1      -9.906   9.035  62.710  1.00  0.00    -0.526 Na 
HETATM    2  C   UNL     2     -12.513  14.206  66.227  1.00  0.00    -0.395 C  
HETATM    3  C   UNL     2     -11.965  12.821  65.917  1.00  0.00    -0.506 C  
ENDROOT
BRANCH   3   4
HETATM    4  C   UNL     2     -10.443  12.806  66.031  1.00  0.00    -0.291 C  
BRANCH   4   5
HETATM    5  C   UNL     2      -9.979  12.582  67.472  1.00  0.00    -0.201 C  
BRANCH   5   6
HETATM    6  C   UNL     2      -9.072  13.707  67.988  1.00  0.00    -0.192 C  
BRANCH   6   7
HETATM    7  C   UNL     2      -7.614  13.504  67.578  1.00  0.00    -0.176 C  
BRANCH   7   8
HETATM    8  C   UNL     2      -6.780  12.820  68.658  1.00  0.00    -0.088 C  
BRANCH   8   9
HETATM    9  C   UNL     2      -6.161  11.506  68.159  1.00  0.00    -0.045 C  
BRANCH   9  10
HETATM   10  C   UNL     2      -7.018  10.730  67.150  1.00  0.00    -0.091 C  
BRANCH  10  11
HETATM   11  C   UNL     2      -6.190  10.105  66.024  1.00  0.00    -0.086 C  
BRANCH  11  12
HETATM   12  C   UNL     2      -5.617   8.728  66.378  1.00  0.00    -0.042 C  
BRANCH  12  13
HETATM   13  C   UNL     2      -5.911   8.284  67.813  1.00  0.00    -0.043 C  
BRANCH  13  14
HETATM   14  O   UNL     2      -7.278   8.525  68.097  1.00  0.00    -0.083 OA 
HETATM   15  S   UNL     2      -7.856   8.050  69.542  1.00  0.00    -0.107 S  
HETATM   16  O   UNL     2      -9.247   8.512  69.509  1.00  0.00    -0.149 OA 
HETATM   17  O   UNL     2      -7.032   8.764  70.510  1.00  0.00    -0.039 OA 
HETATM   18  O   UNL     2      -7.700   6.606  69.535  1.00  0.00    -0.100 OA 
ENDBRANCH  13  14
ENDBRANCH  12  13
ENDBRANCH  11  12
ENDBRANCH  10  11
ENDBRANCH   9  10
ENDBRANCH   8   9
ENDBRANCH   7   8
ENDBRANCH   6   7
ENDBRANCH   5   6
ENDBRANCH   4   5
ENDBRANCH   3   4
TORSDOF 11
ENDMDL
MODEL      500
REMARK 921   NORMALIZED FREE ENERGY PREDICTED BY IDOCK:   -0.41 KCAL/MOL
REMARK 922        TOTAL FREE ENERGY PREDICTED BY IDOCK:   -2.11 KCAL/MOL
REMARK 923 INTER-LIGAND FREE ENERGY PREDICTED BY IDOCK:   -2.23 KCAL/MOL
REMARK 924 INTRA-LIGAND FREE ENERGY PREDICTED BY IDOCK:    0.12 KCAL/MOL
REMARK 927      BINDING AFFINITY PREDICTED BY RF-SCORE:    0.00 PKD
ROOT
HETATM    1 NA   UNL     1      -9.932   9.055  62.683  1.00  0.00    -0.521 Na 
HETATM    2  C   UNL     2     -12.446  14.314  66.134  1.00  0.00    -0.362 C  
HETATM    3  C   UNL     2     -11.964  12.904  65.831  1.00  0.00    -0.504 C  
ENDROOT
BRANCH   3   4
HETATM    4  C   UNL     2     -10.457  12.793  66.042  1.00  0.00    -0.291 C  
BRANCH   4   5
HETATM    5  C   UNL     2     -10.111  12.274  67.440  1.00  0.00    -0.207 C  
BRANCH   5   6
HETATM    6  C   UNL     2      -9.127  13.184  68.187  1.00  0.00    -0.200 C  
BRANCH   6   7
HETATM    7  C   UNL     2      -7.688  12.983  67.716  1.00  0.00    -0.151 C  
BRANCH   7   8
HETATM    8  C   UNL     2      -7.008  11.782  68.371  1.00  0.00    -0.080 C  
BRANCH   8   9
HETATM    9  C   UNL     2      -6.484  10.781  67.331  1.00  0.00    -0.063 C  
BRANCH   9  10
HETATM   10  C   UNL     2      -7.327  10.678  66.052  1.00  0.00    -0.132 C  
BRANCH  10  11
HETATM   11  C   UNL     2      -6.474  10.540  64.788  1.00  0.00     0.012 C  
BRANCH  11  12
HETATM   12  C   UNL     2      -6.204   9.085  64.388  1.00  0.00    -0.071 C  
BRANCH  12  13
HETATM   13  C   UNL     2      -6.927   8.057  65.261  1.00  0.00    -0.063 C  
BRANCH  13  14
HETATM   14  O   UNL     2      -8.283   8.444  65.398  1.00  0.00    -0.127 OA 
HETATM   15  S   UNL     2      -9.302   7.418  66.144  1.00  0.00     0.015 S  
HETATM   16  O   UNL     2     -10.565   8.162  66.162  1.00  0.00     0.391 OA 
HETATM   17  O   UNL     2      -8.720   7.234  67.468  1.00  0.00    -0.121 OA 
HETATM   18  O   UNL     2      -9.309   6.238  65.298  1.00  0.00     0.243 OA 
ENDBRANCH  13  14
ENDBRANCH  12  13
ENDBRANCH  11  12
ENDBRANCH  10  11
ENDBRANCH   9  10
ENDBRANCH   8   9
ENDBRANCH   7   8
ENDBRANCH   6   7
ENDBRANCH   5   6
ENDBRANCH   4   5
ENDBRANCH   3   4
TORSDOF 11
ENDMDL
MODEL      501
REMARK 921   NORMALIZED FREE ENERGY PREDICTED BY IDOCK:   -0.41 KCAL/MOL
REMARK 922        TOTAL FREE ENERGY PREDICTED BY IDOCK:   -2.10 KCAL/MOL
REMARK 923 INTER-LIGAND FREE ENERGY PREDICTED BY IDOCK:   -2.55 KCAL/MOL
REMARK 924 INTRA-LIGAND FREE ENERGY PREDICTED BY IDOCK:    0.45 KCAL/MOL
REMARK 927      BINDING AFFINITY PREDICTED BY RF-SCORE:    0.00 PKD
ROOT
HETATM    1 NA   UNL     1     -10.064   5.145  67.972  1.00  0.00    -0.128 Na 
HETATM    2  C   UNL     2      -5.200   8.748  64.930  1.00  0.00    -0.038 C  
HETATM    3  C   UNL     2      -6.425   8.427  65.772  1.00  0.00    -0.053 C  
ENDROOT
BRANCH   3   4
HETATM    4  C   UNL     2      -6.021   8.076  67.201  1.00  0.00    -0.049 C  
BRANCH   4   5
HETATM    5  C   UNL     2      -7.193   8.209  68.176  1.00  0.00    -0.094 C  
BRANCH   5   6
HETATM    6  C   UNL     2      -6.955   9.276  69.253  1.00  0.00    -0.053 C  
BRANCH   6   7
HETATM    7  C   UNL     2      -8.118  10.263  69.351  1.00  0.00    -0.167 C  
BRANCH   7   8
HETATM    8  C   UNL     2      -8.129  11.285  68.217  1.00  0.00    -0.137 C  
BRANCH   8   9
HETATM    9  C   UNL     2      -8.192  12.726  68.744  1.00  0.00     0.117 C  
BRANCH   9  10
HETATM   10  C   UNL     2      -6.828  13.374  69.018  1.00  0.00    -0.103 C  
BRANCH  10  11
HETATM   11  C   UNL     2      -6.380  14.315  67.896  1.00  0.00    -0.173 C  
BRANCH  11  12
HETATM   12  C   UNL     2      -7.546  14.971  67.146  1.00  0.00    -0.174 C  
BRANCH  12  13
HETATM   13  C   UNL     2      -8.732  15.337  68.042  1.00  0.00    -0.160 C  
BRANCH  13  14
HETATM   14  O   UNL     2      -9.935  15.020  67.362  1.00  0.00    -0.225 OA 
HETATM   15  S   UNL     2     -11.308  14.939  68.232  1.00  0.00    -0.323 S  
HETATM   16  O   UNL     2     -12.327  14.665  67.214  1.00  0.00    -0.203 OA 
HETATM   17  O   UNL     2     -11.431  16.261  68.834  1.00  0.00    -0.340 OA 
HETATM   18  O   UNL     2     -11.079  13.849  69.164  1.00  0.00    -0.248 OA 
ENDBRANCH  13  14
ENDBRANCH  12  13
ENDBRANCH  11  12
ENDBRANCH  10  11
ENDBRANCH   9  10
ENDBRANCH   8   9
ENDBRANCH   7   8
ENDBRANCH   6   7
ENDBRANCH   5   6
ENDBRANCH   4   5
ENDBRANCH   3   4
TORSDOF 11
ENDMDL
MODEL      502
REMARK 921   NORMALIZED FREE ENERGY PREDICTED BY IDOCK:   -0.25 KCAL/MOL
REMARK 922        TOTAL FREE ENERGY PREDICTED BY IDOCK:   -1.84 KCAL/MOL
REMARK 923 INTER-LIGAND FREE ENERGY PREDICTED BY IDOCK:   -3.67 KCAL/MOL
REMARK 924 INTRA-LIGAND FREE ENERGY PREDICTED BY IDOCK:    1.82 KCAL/MOL
REMARK 927      BINDING AFFINITY PREDICTED BY RF-SCORE:    0.00 PKD
ROOT
HETATM    1 NA   UNL     1     -10.780  19.860  70.803  1.00  0.00    -0.807 Na 
HETATM    2  C   UNL     2      -7.033  19.165  65.202  1.00  0.00     0.056 C  
HETATM    3  C   UNL     2      -8.201  19.022  66.166  1.00  0.00    -0.246 C  
ENDROOT
BRANCH   3   4
HETATM    4  C   UNL     2      -9.161  20.200  66.029  1.00  0.00    -0.236 C  
BRANCH   4   5
HETATM    5  C   UNL     2      -8.923  21.262  67.105  1.00  0.00     0.356 C  
BRANCH   5   6
HETATM    6  C   UNL     2      -9.383  20.813  68.498  1.00  0.00     0.590 C  
BRANCH   6   7
HETATM    7  C   UNL     2      -9.383  19.291  68.640  1.00  0.00    -0.446 C  
BRANCH   7   8
HETATM    8  C   UNL     2      -7.978  18.695  68.671  1.00  0.00    -0.356 C  
BRANCH   8   9
HETATM    9  C   UNL     2      -7.972  17.272  69.250  1.00  0.00     0.113 C  
BRANCH   9  10
HETATM   10  C   UNL     2      -7.950  16.149  68.204  1.00  0.00    -0.148 C  
BRANCH  10  11
HETATM   11  C   UNL     2      -9.337  15.839  67.636  1.00  0.00    -0.216 C  
BRANCH  11  12
HETATM   12  C   UNL     2     -10.481  16.156  68.607  1.00  0.00    -0.269 C  
BRANCH  12  13
HETATM   13  C   UNL     2     -10.940  14.956  69.439  1.00  0.00    -0.271 C  
BRANCH  13  14
HETATM   14  O   UNL     2     -12.341  15.040  69.632  1.00  0.00    -0.276 OA 
HETATM   15  S   UNL     2     -12.910  14.978  71.155  1.00  0.00    -0.409 S  
HETATM   16  O   UNL     2     -14.354  15.158  70.975  1.00  0.00    -0.350 OA 
HETATM   17  O   UNL     2     -12.266  16.101  71.825  1.00  0.00    -0.469 OA 
HETATM   18  O   UNL     2     -12.522  13.662  71.631  1.00  0.00    -0.283 OA 
ENDBRANCH  13  14
ENDBRANCH  12  13
ENDBRANCH  11  12
ENDBRANCH  10  11
ENDBRANCH   9  10
ENDBRANCH   8   9
ENDBRANCH   7   8
ENDBRANCH   6   7
ENDBRANCH   5   6
ENDBRANCH   4   5
ENDBRANCH   3   4
TORSDOF 11
ENDMDL
MODEL      503
REMARK 921   NORMALIZED FREE ENERGY PREDICTED BY IDOCK:   -0.11 KCAL/MOL
REMARK 922        TOTAL FREE ENERGY PREDICTED BY IDOCK:   -1.62 KCAL/MOL
REMARK 923 INTER-LIGAND FREE ENERGY PREDICTED BY IDOCK:   -0.55 KCAL/MOL
REMARK 924 INTRA-LIGAND FREE ENERGY PREDICTED BY IDOCK:   -1.07 KCAL/MOL
REMARK 927      BINDING AFFINITY PREDICTED BY RF-SCORE:    0.00 PKD
ROOT
HETATM    1 NA   UNL     1     -11.475  12.311  64.220  1.00  0.00    -0.288 Na 
HETATM    2  C   UNL     2     -10.193  18.069  67.553  1.00  0.00    -0.376 C  
HETATM    3  C   UNL     2     -10.906  17.061  66.664  1.00  0.00     0.034 C  
ENDROOT
BRANCH   3   4
HETATM    4  C   UNL     2     -11.800  16.145  67.495  1.00  0.00     0.556 C  
BRANCH   4   5
HETATM    5  C   UNL     2     -11.798  16.534  68.976  1.00  0.00     0.235 C  
BRANCH   5   6
HETATM    6  C   UNL     2     -12.434  15.464  69.874  1.00  0.00    -0.274 C  
BRANCH   6   7
HETATM    7  C   UNL     2     -12.545  14.113  69.167  1.00  0.00     0.219 C  
BRANCH   7   8
HETATM    8  C   UNL     2     -12.768  12.952  70.133  1.00  0.00     0.133 C  
BRANCH   8   9
HETATM    9  C   UNL     2     -12.307  11.614  69.537  1.00  0.00    -0.152 C  
BRANCH   9  10
HETATM   10  C   UNL     2     -12.169  11.600  68.008  1.00  0.00     0.284 C  
BRANCH  10  11
HETATM   11  C   UNL     2     -10.754  11.248  67.542  1.00  0.00    -0.275 C  
BRANCH  11  12
HETATM   12  C   UNL     2      -9.874  12.476  67.278  1.00  0.00    -0.204 C  
BRANCH  12  13
HETATM   13  C   UNL     2      -8.523  12.144  66.637  1.00  0.00    -0.088 C  
BRANCH  13  14
HETATM   14  O   UNL     2      -7.495  12.391  67.581  1.00  0.00    -0.115 OA 
HETATM   15  S   UNL     2      -6.581  11.135  68.063  1.00  0.00    -0.059 S  
HETATM   16  O   UNL     2      -5.606  11.763  68.961  1.00  0.00    -0.050 OA 
HETATM   17  O   UNL     2      -5.989  10.628  66.831  1.00  0.00    -0.055 OA 
HETATM   18  O   UNL     2      -7.516  10.240  68.720  1.00  0.00    -0.080 OA 
ENDBRANCH  13  14
ENDBRANCH  12  13
ENDBRANCH  11  12
ENDBRANCH  10  11
ENDBRANCH   9  10
ENDBRANCH   8   9
ENDBRANCH   7   8
ENDBRANCH   6   7
ENDBRANCH   5   6
ENDBRANCH   4   5
ENDBRANCH   3   4
TORSDOF 11
ENDMDL
MODEL      504
REMARK 921   NORMALIZED FREE ENERGY PREDICTED BY IDOCK:    2.06 KCAL/MOL
REMARK 922        TOTAL FREE ENERGY PREDICTED BY IDOCK:    1.96 KCAL/MOL
REMARK 923 INTER-LIGAND FREE ENERGY PREDICTED BY IDOCK:   -0.66 KCAL/MOL
REMARK 924 INTRA-LIGAND FREE ENERGY PREDICTED BY IDOCK:    2.62 KCAL/MOL
REMARK 927      BINDING AFFINITY PREDICTED BY RF-SCORE:    0.00 PKD
ROOT
HETATM    1 NA   UNL     1     -11.177  20.515  70.405  1.00  0.00    -0.761 Na 
HETATM    2  C   UNL     2      -6.316  18.684  66.056  1.00  0.00    -0.252 C  
HETATM    3  C   UNL     2      -7.611  18.640  66.852  1.00  0.00    -0.232 C  
ENDROOT
BRANCH   3   4
HETATM    4  C   UNL     2      -8.713  19.412  66.133  1.00  0.00    -0.294 C  
BRANCH   4   5
HETATM    5  C   UNL     2      -9.017  20.747  66.818  1.00  0.00    -0.079 C  
BRANCH   5   6
HETATM    6  C   UNL     2      -9.618  20.574  68.220  1.00  0.00    -0.052 C  
BRANCH   6   7
HETATM    7  C   UNL     2      -8.912  19.479  69.017  1.00  0.00    -0.240 C  
BRANCH   7   8
HETATM    8  C   UNL     2      -7.543  19.909  69.539  1.00  0.00     0.075 C  
BRANCH   8   9
HETATM    9  C   UNL     2      -6.968  18.898  70.542  1.00  0.00     1.089 C  
BRANCH   9  10
HETATM   10  C   UNL     2      -5.776  18.081  70.026  1.00  0.00    -0.238 C  
BRANCH  10  11
HETATM   11  C   UNL     2      -6.169  17.078  68.938  1.00  0.00    -0.176 C  
BRANCH  11  12
HETATM   12  C   UNL     2      -7.647  16.673  68.984  1.00  0.00    -0.226 C  
BRANCH  12  13
HETATM   13  C   UNL     2      -7.970  15.620  70.047  1.00  0.00     0.416 C  
BRANCH  13  14
HETATM   14  O   UNL     2      -8.941  14.728  69.528  1.00  0.00    -0.036 OA 
HETATM   15  S   UNL     2     -10.484  14.911  70.011  1.00  0.00     0.049 S  
HETATM   16  O   UNL     2     -11.195  13.887  69.239  1.00  0.00    -0.252 OA 
HETATM   17  O   UNL     2     -10.825  16.273  69.617  1.00  0.00    -0.303 OA 
HETATM   18  O   UNL     2     -10.445  14.668  71.442  1.00  0.00     0.848 OA 
ENDBRANCH  13  14
ENDBRANCH  12  13
ENDBRANCH  11  12
ENDBRANCH  10  11
ENDBRANCH   9  10
ENDBRANCH   8   9
ENDBRANCH   7   8
ENDBRANCH   6   7
ENDBRANCH   5   6
ENDBRANCH   4   5
ENDBRANCH   3   4
TORSDOF 11
ENDMDL
MODEL      505
REMARK 921   NORMALIZED FREE ENERGY PREDICTED BY IDOCK:    3.11 KCAL/MOL
REMARK 922        TOTAL FREE ENERGY PREDICTED BY IDOCK:    3.67 KCAL/MOL
REMARK 923 INTER-LIGAND FREE ENERGY PREDICTED BY IDOCK:   -1.27 KCAL/MOL
REMARK 924 INTRA-LIGAND FREE ENERGY PREDICTED BY IDOCK:    4.94 KCAL/MOL
REMARK 927      BINDING AFFINITY PREDICTED BY RF-SCORE:    0.00 PKD
ROOT
HETATM    1 NA   UNL     1      -9.846   7.204  71.308  1.00  0.00    -0.170 Na 
HETATM    2  C   UNL     2      -5.156   4.204  67.448  1.00  0.00    -0.007 C  
HETATM    3  C   UNL     2      -5.869   4.717  68.689  1.00  0.00    -0.021 C  
ENDROOT
BRANCH   3   4
HETATM    4  C   UNL     2      -6.891   3.698  69.185  1.00  0.00    -0.045 C  
BRANCH   4   5
HETATM    5  C   UNL     2      -6.841   2.398  68.378  1.00  0.00    -0.040 C  
BRANCH   5   6
HETATM    6  C   UNL     2      -7.507   2.525  67.001  1.00  0.00    -0.065 C  
BRANCH   6   7
HETATM    7  C   UNL     2      -6.487   2.478  65.864  1.00  0.00    -0.028 C  
BRANCH   7   8
HETATM    8  C   UNL     2      -5.631   3.740  65.778  1.00  0.00    -0.018 C  
BRANCH   8   9
HETATM    9  C   UNL     2      -5.180   4.030  64.340  1.00  0.00    -0.009 C  
BRANCH   9  10
HETATM   10  C   UNL     2      -6.270   4.601  63.423  1.00  0.00    -0.022 C  
BRANCH  10  11
HETATM   11  C   UNL     2      -6.992   5.804  64.036  1.00  0.00    -0.050 C  
BRANCH  11  12
HETATM   12  C   UNL     2      -8.005   6.458  63.088  1.00  0.00    -0.086 C  
BRANCH  12  13
HETATM   13  C   UNL     2      -8.130   7.974  63.264  1.00  0.00    -0.107 C  
BRANCH  13  14
HETATM   14  O   UNL     2      -6.879   8.574  62.977  1.00  0.00    -0.090 OA 
HETATM   15  S   UNL     2      -6.707  10.165  63.272  1.00  0.00    -0.110 S  
HETATM   16  O   UNL     2      -5.303  10.413  62.930  1.00  0.00    -0.112 OA 
HETATM   17  O   UNL     2      -6.988  10.299  64.696  1.00  0.00    -0.133 OA 
HETATM   18  O   UNL     2      -7.665  10.801  62.385  1.00  0.00    -0.161 OA 
ENDBRANCH  13  14
ENDBRANCH  12  13
ENDBRANCH  11  12
ENDBRANCH  10  11
ENDBRANCH   9  10
ENDBRANCH   8   9
ENDBRANCH   7   8
ENDBRANCH   6   7
ENDBRANCH   5   6
ENDBRANCH   4   5
ENDBRANCH   3   4
TORSDOF 11
ENDMDL
