MODEL        1
REMARK 921   NORMALIZED FREE ENERGY PREDICTED BY IDOCK:   -6.27 KCAL/MOL
REMARK 922        TOTAL FREE ENERGY PREDICTED BY IDOCK:   -7.24 KCAL/MOL
REMARK 923 INTER-LIGAND FREE ENERGY PREDICTED BY IDOCK:   -6.63 KCAL/MOL
REMARK 924 INTRA-LIGAND FREE ENERGY PREDICTED BY IDOCK:   -0.60 KCAL/MOL
REMARK 927      BINDING AFFINITY PREDICTED BY RF-SCORE:    0.00 PKD
ROOT
HETATM    1 NA   UNL     1      -8.821  17.107  67.397  1.00  0.00    -0.196 Na 
HETATM    2 NA   UNL     2     -10.062  11.656  64.957  1.00  0.00    -0.213 Na 
HETATM    3  O   UNL     3      -9.938  13.929  64.264  1.00  0.00    -0.714 OA 
HETATM    4  H   UNL     3      -9.079  14.175  64.588  1.00  0.00     0.000 HD 
HETATM    5  C   UNL     3     -10.962  14.551  65.109  1.00  0.00    -0.379 C  
HETATM    6  O   UNL     3     -10.030  16.529  66.018  1.00  0.00    -0.313 OA 
HETATM    7  C   UNL     3     -10.778  16.083  65.084  1.00  0.00    -0.409 C  
HETATM    8  O   UNL     3     -11.301  16.719  64.136  1.00  0.00    -1.194 OA 
ENDROOT
BRANCH   5   9
HETATM    9  C   UNL     3     -12.346  14.153  64.586  1.00  0.00    -0.410 C  
HETATM   10  C   UNL     3     -12.626  12.686  65.018  1.00  0.00    -0.430 C  
HETATM   11  O   UNL     3     -12.312  14.292  63.144  1.00  0.00    -1.096 OA 
HETATM   12  H   UNL     3     -13.170  14.046  62.820  1.00  0.00     0.000 HD 
HETATM   13  O   UNL     3     -13.378  11.981  64.301  1.00  0.00    -0.709 OA 
HETATM   14  O   UNL     3     -11.916  12.245  65.987  1.00  0.00    -0.570 OA 
ENDBRANCH   5   9
TORSDOF 1
ENDMDL
MODEL        2
REMARK 921   NORMALIZED FREE ENERGY PREDICTED BY IDOCK:   -5.40 KCAL/MOL
REMARK 922        TOTAL FREE ENERGY PREDICTED BY IDOCK:   -6.32 KCAL/MOL
REMARK 923 INTER-LIGAND FREE ENERGY PREDICTED BY IDOCK:   -5.66 KCAL/MOL
REMARK 924 INTRA-LIGAND FREE ENERGY PREDICTED BY IDOCK:   -0.66 KCAL/MOL
REMARK 927      BINDING AFFINITY PREDICTED BY RF-SCORE:    0.00 PKD
ROOT
HETATM    1 NA   UNL     1     -10.424   7.494  65.838  1.00  0.00    -0.462 Na 
HETATM    2 NA   UNL     2     -13.019  11.758  62.332  1.00  0.00    -0.584 Na 
HETATM    3  O   UNL     3     -10.839  11.131  63.051  1.00  0.00    -0.797 OA 
HETATM    4  H   UNL     3     -10.830  10.206  62.833  1.00  0.00     0.000 HD 
HETATM    5  C   UNL     3     -10.956  11.275  64.506  1.00  0.00    -0.231 C  
HETATM    6  O   UNL     3     -10.011   9.340  65.492  1.00  0.00    -0.228 OA 
HETATM    7  C   UNL     3      -9.771  10.555  65.183  1.00  0.00    -0.282 C  
HETATM    8  O   UNL     3      -8.692  11.187  65.297  1.00  0.00    -0.142 OA 
ENDROOT
BRANCH   5   9
HETATM    9  C   UNL     3     -10.970  12.766  64.857  1.00  0.00    -0.294 C  
HETATM   10  C   UNL     3     -12.408  13.308  64.621  1.00  0.00    -0.391 C  
HETATM   11  O   UNL     3     -10.002  13.415  63.997  1.00  0.00    -0.764 OA 
HETATM   12  H   UNL     3     -10.011  14.340  64.215  1.00  0.00     0.000 HD 
HETATM   13  O   UNL     3     -12.553  14.517  64.313  1.00  0.00    -0.681 OA 
HETATM   14  O   UNL     3     -13.336  12.427  64.580  1.00  0.00    -0.800 OA 
ENDBRANCH   5   9
TORSDOF 1
ENDMDL
MODEL        3
REMARK 921   NORMALIZED FREE ENERGY PREDICTED BY IDOCK:   -5.39 KCAL/MOL
REMARK 922        TOTAL FREE ENERGY PREDICTED BY IDOCK:   -6.31 KCAL/MOL
REMARK 923 INTER-LIGAND FREE ENERGY PREDICTED BY IDOCK:   -5.65 KCAL/MOL
REMARK 924 INTRA-LIGAND FREE ENERGY PREDICTED BY IDOCK:   -0.66 KCAL/MOL
REMARK 927      BINDING AFFINITY PREDICTED BY RF-SCORE:    0.00 PKD
ROOT
HETATM    1 NA   UNL     1     -10.933  18.998  65.165  1.00  0.00    -0.480 Na 
HETATM    2 NA   UNL     2     -13.907  13.674  65.260  1.00  0.00    -0.728 Na 
HETATM    3  O   UNL     3     -12.004  14.667  66.287  1.00  0.00    -0.348 OA 
HETATM    4  H   UNL     3     -12.372  15.479  66.614  1.00  0.00     0.000 HD 
HETATM    5  C   UNL     3     -11.161  14.961  65.123  1.00  0.00    -0.393 C  
HETATM    6  O   UNL     3     -10.357  17.175  65.367  1.00  0.00    -0.619 OA 
HETATM    7  C   UNL     3     -10.050  15.947  65.538  1.00  0.00    -0.320 C  
HETATM    8  O   UNL     3      -9.011  15.471  66.057  1.00  0.00    -0.324 OA 
ENDROOT
BRANCH   5   9
HETATM    9  C   UNL     3     -10.568  13.650  64.596  1.00  0.00    -0.430 C  
HETATM   10  C   UNL     3     -11.634  12.959  63.701  1.00  0.00    -0.485 C  
HETATM   11  O   UNL     3     -10.228  12.843  65.749  1.00  0.00    -0.280 OA 
HETATM   12  H   UNL     3      -9.860  12.031  65.422  1.00  0.00     0.000 HD 
HETATM   13  O   UNL     3     -11.623  11.706  63.609  1.00  0.00    -0.424 OA 
HETATM   14  O   UNL     3     -12.570  13.715  63.261  1.00  0.00    -0.816 OA 
ENDBRANCH   5   9
TORSDOF 1
ENDMDL
MODEL        4
REMARK 921   NORMALIZED FREE ENERGY PREDICTED BY IDOCK:   -5.26 KCAL/MOL
REMARK 922        TOTAL FREE ENERGY PREDICTED BY IDOCK:   -6.17 KCAL/MOL
REMARK 923 INTER-LIGAND FREE ENERGY PREDICTED BY IDOCK:   -5.52 KCAL/MOL
REMARK 924 INTRA-LIGAND FREE ENERGY PREDICTED BY IDOCK:   -0.65 KCAL/MOL
REMARK 927      BINDING AFFINITY PREDICTED BY RF-SCORE:    0.00 PKD
ROOT
HETATM    1 NA   UNL     1     -10.552   8.082  67.369  1.00  0.00    -0.185 Na 
HETATM    2 NA   UNL     2     -12.609  11.037  62.446  1.00  0.00    -0.915 Na 
HETATM    3  O   UNL     3     -10.556  10.736  63.611  1.00  0.00    -0.527 OA 
HETATM    4  H   UNL     3     -10.517   9.789  63.676  1.00  0.00     0.000 HD 
HETATM    5  C   UNL     3     -10.882  11.290  64.930  1.00  0.00    -0.229 C  
HETATM    6  O   UNL     3     -10.092   9.764  66.559  1.00  0.00    -0.222 OA 
HETATM    7  C   UNL     3      -9.808  10.847  65.945  1.00  0.00    -0.236 C  
HETATM    8  O   UNL     3      -8.757  11.529  66.017  1.00  0.00    -0.176 OA 
ENDROOT
BRANCH   5   9
HETATM    9  C   UNL     3     -10.946  12.817  64.824  1.00  0.00    -0.305 C  
HETATM   10  C   UNL     3     -12.372  13.213  64.348  1.00  0.00    -0.360 C  
HETATM   11  O   UNL     3      -9.930  13.221  63.874  1.00  0.00    -0.753 OA 
HETATM   12  H   UNL     3      -9.969  14.168  63.808  1.00  0.00     0.000 HD 
HETATM   13  O   UNL     3     -12.514  14.273  63.688  1.00  0.00    -0.816 OA 
HETATM   14  O   UNL     3     -13.280  12.325  64.509  1.00  0.00    -0.799 OA 
ENDBRANCH   5   9
TORSDOF 1
ENDMDL
MODEL        5
REMARK 921   NORMALIZED FREE ENERGY PREDICTED BY IDOCK:   -5.22 KCAL/MOL
REMARK 922        TOTAL FREE ENERGY PREDICTED BY IDOCK:   -6.13 KCAL/MOL
REMARK 923 INTER-LIGAND FREE ENERGY PREDICTED BY IDOCK:   -5.47 KCAL/MOL
REMARK 924 INTRA-LIGAND FREE ENERGY PREDICTED BY IDOCK:   -0.66 KCAL/MOL
REMARK 927      BINDING AFFINITY PREDICTED BY RF-SCORE:    0.00 PKD
ROOT
HETATM    1 NA   UNL     1      -9.220  11.782  69.282  1.00  0.00    -0.324 Na 
HETATM    2 NA   UNL     2     -11.508  17.066  67.268  1.00  0.00    -0.191 Na 
HETATM    3  O   UNL     3     -12.203  14.803  67.508  1.00  0.00    -0.547 OA 
HETATM    4  H   UNL     3     -11.987  14.638  68.419  1.00  0.00     0.000 HD 
HETATM    5  C   UNL     3     -11.235  14.105  66.655  1.00  0.00    -0.325 C  
HETATM    6  O   UNL     3     -10.441  12.230  67.865  1.00  0.00    -0.204 OA 
HETATM    7  C   UNL     3     -11.277  12.596  66.971  1.00  0.00    -0.300 C  
HETATM    8  O   UNL     3     -12.150  11.902  66.394  1.00  0.00    -0.552 OA 
ENDROOT
BRANCH   5   9
HETATM    9  C   UNL     3     -11.584  14.372  65.188  1.00  0.00    -0.361 C  
HETATM   10  C   UNL     3     -11.016  15.766  64.798  1.00  0.00    -0.393 C  
HETATM   11  O   UNL     3     -13.028  14.331  65.080  1.00  0.00    -0.693 OA 
HETATM   12  H   UNL     3     -13.244  14.496  64.170  1.00  0.00     0.000 HD 
HETATM   13  O   UNL     3     -11.597  16.424  63.900  1.00  0.00    -1.100 OA 
HETATM   14  O   UNL     3     -10.092  16.223  65.557  1.00  0.00    -0.477 OA 
ENDBRANCH   5   9
TORSDOF 1
ENDMDL
MODEL        6
REMARK 921   NORMALIZED FREE ENERGY PREDICTED BY IDOCK:   -5.18 KCAL/MOL
REMARK 922        TOTAL FREE ENERGY PREDICTED BY IDOCK:   -6.08 KCAL/MOL
REMARK 923 INTER-LIGAND FREE ENERGY PREDICTED BY IDOCK:   -5.87 KCAL/MOL
REMARK 924 INTRA-LIGAND FREE ENERGY PREDICTED BY IDOCK:   -0.22 KCAL/MOL
REMARK 927      BINDING AFFINITY PREDICTED BY RF-SCORE:    0.00 PKD
ROOT
HETATM    1 NA   UNL     1     -10.416  10.684  68.188  1.00  0.00    -0.153 Na 
HETATM    2 NA   UNL     2     -14.292  14.658  65.662  1.00  0.00    -0.591 Na 
HETATM    3  O   UNL     3     -13.113  12.686  65.045  1.00  0.00    -0.808 OA 
HETATM    4  H   UNL     3     -13.351  12.098  65.751  1.00  0.00     0.000 HD 
HETATM    5  C   UNL     3     -11.720  13.107  65.225  1.00  0.00    -0.344 C  
HETATM    6  O   UNL     3     -10.603  11.386  66.408  1.00  0.00    -0.246 OA 
HETATM    7  C   UNL     3     -10.811  11.860  65.241  1.00  0.00    -0.297 C  
HETATM    8  O   UNL     3     -10.434  11.399  64.136  1.00  0.00    -0.306 OA 
ENDROOT
BRANCH   5   9
HETATM    9  C   UNL     3     -11.337  14.056  64.085  1.00  0.00    -0.153 C  
HETATM   10  C   UNL     3     -11.189  15.488  64.672  1.00  0.00    -0.371 C  
HETATM   11  O   UNL     3     -12.395  13.985  63.099  1.00  0.00    -1.133 OA 
HETATM   12  H   UNL     3     -12.157  14.573  62.392  1.00  0.00     0.000 HD 
HETATM   13  O   UNL     3     -11.418  16.471  63.925  1.00  0.00    -1.145 OA 
HETATM   14  O   UNL     3     -11.018  15.556  65.939  1.00  0.00    -0.320 OA 
ENDBRANCH   5   9
TORSDOF 1
ENDMDL
MODEL        7
REMARK 921   NORMALIZED FREE ENERGY PREDICTED BY IDOCK:   -5.04 KCAL/MOL
REMARK 922        TOTAL FREE ENERGY PREDICTED BY IDOCK:   -5.94 KCAL/MOL
REMARK 923 INTER-LIGAND FREE ENERGY PREDICTED BY IDOCK:   -5.28 KCAL/MOL
REMARK 924 INTRA-LIGAND FREE ENERGY PREDICTED BY IDOCK:   -0.66 KCAL/MOL
REMARK 927      BINDING AFFINITY PREDICTED BY RF-SCORE:    0.00 PKD
ROOT
HETATM    1 NA   UNL     1      -7.456  17.023  65.115  1.00  0.00    -0.008 Na 
HETATM    2 NA   UNL     2     -12.171  14.335  62.332  1.00  0.00    -0.947 Na 
HETATM    3  O   UNL     3     -11.794  15.856  64.123  1.00  0.00    -0.821 OA 
HETATM    4  H   UNL     3     -11.236  16.501  63.705  1.00  0.00     0.000 HD 
HETATM    5  C   UNL     3     -10.981  15.042  65.033  1.00  0.00    -0.423 C  
HETATM    6  O   UNL     3      -9.155  16.375  65.740  1.00  0.00    -0.465 OA 
HETATM    7  C   UNL     3     -10.315  15.962  66.078  1.00  0.00    -0.348 C  
HETATM    8  O   UNL     3     -10.984  16.270  67.094  1.00  0.00    -0.248 OA 
ENDROOT
BRANCH   5   9
HETATM    9  C   UNL     3     -11.881  14.002  65.707  1.00  0.00    -0.383 C  
HETATM   10  C   UNL     3     -12.085  12.821  64.717  1.00  0.00    -0.432 C  
HETATM   11  O   UNL     3     -13.131  14.661  66.023  1.00  0.00    -0.196 OA 
HETATM   12  H   UNL     3     -13.689  14.016  66.441  1.00  0.00     0.000 HD 
HETATM   13  O   UNL     3     -13.147  12.153  64.787  1.00  0.00    -0.602 OA 
HETATM   14  O   UNL     3     -11.224  12.728  63.774  1.00  0.00    -0.407 OA 
ENDBRANCH   5   9
TORSDOF 1
ENDMDL
MODEL        8
REMARK 921   NORMALIZED FREE ENERGY PREDICTED BY IDOCK:   -5.03 KCAL/MOL
REMARK 922        TOTAL FREE ENERGY PREDICTED BY IDOCK:   -5.93 KCAL/MOL
REMARK 923 INTER-LIGAND FREE ENERGY PREDICTED BY IDOCK:   -5.27 KCAL/MOL
REMARK 924 INTRA-LIGAND FREE ENERGY PREDICTED BY IDOCK:   -0.66 KCAL/MOL
REMARK 927      BINDING AFFINITY PREDICTED BY RF-SCORE:    0.00 PKD
ROOT
HETATM    1 NA   UNL     1     -12.422  11.103  62.566  1.00  0.00    -0.882 Na 
HETATM    2 NA   UNL     2     -10.014  11.106  68.170  1.00  0.00    -0.152 Na 
HETATM    3  O   UNL     3     -12.032  11.773  67.101  1.00  0.00    -0.617 OA 
HETATM    4  H   UNL     3     -12.264  10.981  66.630  1.00  0.00     0.000 HD 
HETATM    5  C   UNL     3     -11.543  12.771  66.144  1.00  0.00    -0.379 C  
HETATM    6  O   UNL     3     -12.560  12.313  64.055  1.00  0.00    -0.567 OA 
HETATM    7  C   UNL     3     -12.640  13.048  65.096  1.00  0.00    -0.469 C  
HETATM    8  O   UNL     3     -13.523  13.892  65.385  1.00  0.00    -0.672 OA 
ENDROOT
BRANCH   5   9
HETATM    9  C   UNL     3     -11.169  14.047  66.905  1.00  0.00    -0.313 C  
HETATM   10  C   UNL     3      -9.762  13.845  67.533  1.00  0.00    -0.232 C  
HETATM   11  O   UNL     3     -12.186  14.252  67.916  1.00  0.00    -0.573 OA 
HETATM   12  H   UNL     3     -11.954  15.043  68.388  1.00  0.00     0.000 HD 
HETATM   13  O   UNL     3      -9.480  14.462  68.590  1.00  0.00    -0.203 OA 
HETATM   14  O   UNL     3      -9.049  12.914  67.018  1.00  0.00    -0.214 OA 
ENDBRANCH   5   9
TORSDOF 1
ENDMDL
MODEL        9
REMARK 921   NORMALIZED FREE ENERGY PREDICTED BY IDOCK:   -4.98 KCAL/MOL
REMARK 922        TOTAL FREE ENERGY PREDICTED BY IDOCK:   -5.88 KCAL/MOL
REMARK 923 INTER-LIGAND FREE ENERGY PREDICTED BY IDOCK:   -5.66 KCAL/MOL
REMARK 924 INTRA-LIGAND FREE ENERGY PREDICTED BY IDOCK:   -0.21 KCAL/MOL
REMARK 927      BINDING AFFINITY PREDICTED BY RF-SCORE:    0.00 PKD
ROOT
HETATM    1 NA   UNL     1      -7.443  17.067  65.207  1.00  0.00    -0.152 Na 
HETATM    2 NA   UNL     2     -12.073  14.327  62.333  1.00  0.00    -0.860 Na 
HETATM    3  O   UNL     3     -11.751  15.991  64.003  1.00  0.00    -1.123 OA 
HETATM    4  H   UNL     3     -11.135  16.571  63.571  1.00  0.00     0.000 HD 
HETATM    5  C   UNL     3     -11.044  15.233  65.041  1.00  0.00    -0.426 C  
HETATM    6  O   UNL     3      -9.211  16.550  65.759  1.00  0.00    -0.486 OA 
HETATM    7  C   UNL     3     -10.411  16.218  66.045  1.00  0.00    -0.349 C  
HETATM    8  O   UNL     3     -11.134  16.647  66.977  1.00  0.00    -0.060 OA 
ENDROOT
BRANCH   5   9
HETATM    9  C   UNL     3     -12.037  14.297  65.736  1.00  0.00    -0.405 C  
HETATM   10  C   UNL     3     -11.314  12.955  66.036  1.00  0.00    -0.317 C  
HETATM   11  O   UNL     3     -13.155  14.116  64.833  1.00  0.00    -0.677 OA 
HETATM   12  H   UNL     3     -13.771  13.536  65.264  1.00  0.00     0.000 HD 
HETATM   13  O   UNL     3     -11.995  11.901  66.084  1.00  0.00    -0.537 OA 
HETATM   14  O   UNL     3     -10.034  12.998  66.033  1.00  0.00    -0.272 OA 
ENDBRANCH   5   9
TORSDOF 1
ENDMDL
MODEL       10
REMARK 921   NORMALIZED FREE ENERGY PREDICTED BY IDOCK:   -4.97 KCAL/MOL
REMARK 922        TOTAL FREE ENERGY PREDICTED BY IDOCK:   -5.86 KCAL/MOL
REMARK 923 INTER-LIGAND FREE ENERGY PREDICTED BY IDOCK:   -5.20 KCAL/MOL
REMARK 924 INTRA-LIGAND FREE ENERGY PREDICTED BY IDOCK:   -0.66 KCAL/MOL
REMARK 927      BINDING AFFINITY PREDICTED BY RF-SCORE:    0.00 PKD
ROOT
HETATM    1 NA   UNL     1      -9.446  18.869  65.715  1.00  0.00    -0.312 Na 
HETATM    2 NA   UNL     2      -8.809  12.832  66.314  1.00  0.00    -0.201 Na 
HETATM    3  O   UNL     3      -9.714  14.379  64.748  1.00  0.00    -0.440 OA 
HETATM    4  H   UNL     3      -8.983  14.974  64.632  1.00  0.00     0.000 HD 
HETATM    5  C   UNL     3     -10.745  15.043  65.552  1.00  0.00    -0.359 C  
HETATM    6  O   UNL     3     -10.537  17.374  65.193  1.00  0.00    -0.681 OA 
HETATM    7  C   UNL     3     -11.190  16.336  64.838  1.00  0.00    -0.236 C  
HETATM    8  O   UNL     3     -12.072  16.238  63.950  1.00  0.00    -0.986 OA 
ENDROOT
BRANCH   5   9
HETATM    9  C   UNL     3     -11.923  14.081  65.740  1.00  0.00    -0.404 C  
HETATM   10  C   UNL     3     -11.582  13.114  66.907  1.00  0.00    -0.368 C  
HETATM   11  O   UNL     3     -12.098  13.373  64.488  1.00  0.00    -0.379 OA 
HETATM   12  H   UNL     3     -12.828  12.778  64.604  1.00  0.00     0.000 HD 
HETATM   13  O   UNL     3     -12.083  11.963  66.902  1.00  0.00    -0.599 OA 
HETATM   14  O   UNL     3     -10.658  13.506  67.704  1.00  0.00    -0.238 OA 
ENDBRANCH   5   9
TORSDOF 1
ENDMDL
MODEL       11
REMARK 921   NORMALIZED FREE ENERGY PREDICTED BY IDOCK:   -4.95 KCAL/MOL
REMARK 922        TOTAL FREE ENERGY PREDICTED BY IDOCK:   -5.85 KCAL/MOL
REMARK 923 INTER-LIGAND FREE ENERGY PREDICTED BY IDOCK:   -5.20 KCAL/MOL
REMARK 924 INTRA-LIGAND FREE ENERGY PREDICTED BY IDOCK:   -0.65 KCAL/MOL
REMARK 927      BINDING AFFINITY PREDICTED BY RF-SCORE:    0.00 PKD
ROOT
HETATM    1 NA   UNL     1      -9.992  14.057  70.024  1.00  0.00    -0.397 Na 
HETATM    2 NA   UNL     2      -9.543  12.615  64.115  1.00  0.00    -0.399 Na 
HETATM    3  O   UNL     3      -9.340  14.542  65.496  1.00  0.00    -0.508 OA 
HETATM    4  H   UNL     3      -8.734  14.232  66.159  1.00  0.00     0.000 HD 
HETATM    5  C   UNL     3     -10.682  14.628  66.081  1.00  0.00    -0.314 C  
HETATM    6  O   UNL     3     -10.424  15.000  68.405  1.00  0.00    -0.230 OA 
HETATM    7  C   UNL     3     -10.647  15.583  67.291  1.00  0.00    -0.299 C  
HETATM    8  O   UNL     3     -10.764  16.813  67.068  1.00  0.00    -0.270 OA 
ENDROOT
BRANCH   5   9
HETATM    9  C   UNL     3     -11.658  15.127  65.011  1.00  0.00    -0.294 C  
HETATM   10  C   UNL     3     -12.126  13.905  64.171  1.00  0.00    -0.425 C  
HETATM   11  O   UNL     3     -10.946  16.094  64.202  1.00  0.00    -1.061 OA 
HETATM   12  H   UNL     3     -11.551  16.404  63.539  1.00  0.00     0.000 HD 
HETATM   13  O   UNL     3     -12.458  14.089  62.973  1.00  0.00    -0.641 OA 
HETATM   14  O   UNL     3     -11.963  12.758  64.716  1.00  0.00    -0.357 OA 
ENDBRANCH   5   9
TORSDOF 1
ENDMDL
MODEL       12
REMARK 921   NORMALIZED FREE ENERGY PREDICTED BY IDOCK:   -4.95 KCAL/MOL
REMARK 922        TOTAL FREE ENERGY PREDICTED BY IDOCK:   -5.84 KCAL/MOL
REMARK 923 INTER-LIGAND FREE ENERGY PREDICTED BY IDOCK:   -5.22 KCAL/MOL
REMARK 924 INTRA-LIGAND FREE ENERGY PREDICTED BY IDOCK:   -0.62 KCAL/MOL
REMARK 927      BINDING AFFINITY PREDICTED BY RF-SCORE:    0.00 PKD
ROOT
HETATM    1 NA   UNL     1     -12.021   9.468  67.869  1.00  0.00    -0.528 Na 
HETATM    2 NA   UNL     2      -9.825  13.485  63.838  1.00  0.00    -0.480 Na 
HETATM    3  O   UNL     3     -10.059  13.279  66.197  1.00  0.00    -0.282 OA 
HETATM    4  H   UNL     3      -9.674  12.423  66.348  1.00  0.00     0.000 HD 
HETATM    5  C   UNL     3     -11.515  13.178  66.341  1.00  0.00    -0.334 C  
HETATM    6  O   UNL     3     -11.961  11.390  67.828  1.00  0.00    -0.637 OA 
HETATM    7  C   UNL     3     -11.850  12.660  67.755  1.00  0.00    -0.323 C  
HETATM    8  O   UNL     3     -11.906  13.499  68.687  1.00  0.00    -0.333 OA 
ENDROOT
BRANCH   5   9
HETATM    9  C   UNL     3     -12.134  14.558  66.098  1.00  0.00    -0.286 C  
HETATM   10  C   UNL     3     -12.381  14.718  64.572  1.00  0.00    -0.366 C  
HETATM   11  O   UNL     3     -11.194  15.540  66.597  1.00  0.00    -0.252 OA 
HETATM   12  H   UNL     3     -11.578  16.396  66.446  1.00  0.00     0.000 HD 
HETATM   13  O   UNL     3     -12.356  15.872  64.075  1.00  0.00    -0.724 OA 
HETATM   14  O   UNL     3     -12.413  13.632  63.894  1.00  0.00    -0.680 OA 
ENDBRANCH   5   9
TORSDOF 1
ENDMDL
MODEL       13
REMARK 921   NORMALIZED FREE ENERGY PREDICTED BY IDOCK:   -4.92 KCAL/MOL
REMARK 922        TOTAL FREE ENERGY PREDICTED BY IDOCK:   -5.81 KCAL/MOL
REMARK 923 INTER-LIGAND FREE ENERGY PREDICTED BY IDOCK:   -5.15 KCAL/MOL
REMARK 924 INTRA-LIGAND FREE ENERGY PREDICTED BY IDOCK:   -0.66 KCAL/MOL
REMARK 927      BINDING AFFINITY PREDICTED BY RF-SCORE:    0.00 PKD
ROOT
HETATM    1 NA   UNL     1     -12.127  16.172  63.126  1.00  0.00    -0.866 Na 
HETATM    2 NA   UNL     2      -9.056  14.122  67.982  1.00  0.00    -0.153 Na 
HETATM    3  O   UNL     3     -10.291  13.232  66.153  1.00  0.00    -0.278 OA 
HETATM    4  H   UNL     3      -9.879  13.672  65.418  1.00  0.00     0.000 HD 
HETATM    5  C   UNL     3     -11.616  13.821  66.377  1.00  0.00    -0.360 C  
HETATM    6  O   UNL     3     -12.378  14.671  64.303  1.00  0.00    -0.582 OA 
HETATM    7  C   UNL     3     -12.460  13.673  65.095  1.00  0.00    -0.449 C  
HETATM    8  O   UNL     3     -13.071  12.591  64.920  1.00  0.00    -0.833 OA 
ENDROOT
BRANCH   5   9
HETATM    9  C   UNL     3     -12.280  13.112  67.562  1.00  0.00    -0.116 C  
HETATM   10  C   UNL     3     -11.723  13.730  68.874  1.00  0.00    -0.336 C  
HETATM   11  O   UNL     3     -11.956  11.704  67.450  1.00  0.00    -0.621 OA 
HETATM   12  H   UNL     3     -12.368  11.265  68.184  1.00  0.00     0.000 HD 
HETATM   13  O   UNL     3     -11.675  13.014  69.905  1.00  0.00    -0.304 OA 
HETATM   14  O   UNL     3     -11.179  14.884  68.760  1.00  0.00    -0.250 OA 
ENDBRANCH   5   9
TORSDOF 1
ENDMDL
MODEL       14
REMARK 921   NORMALIZED FREE ENERGY PREDICTED BY IDOCK:   -4.89 KCAL/MOL
REMARK 922        TOTAL FREE ENERGY PREDICTED BY IDOCK:   -5.78 KCAL/MOL
REMARK 923 INTER-LIGAND FREE ENERGY PREDICTED BY IDOCK:   -5.12 KCAL/MOL
REMARK 924 INTRA-LIGAND FREE ENERGY PREDICTED BY IDOCK:   -0.66 KCAL/MOL
REMARK 927      BINDING AFFINITY PREDICTED BY RF-SCORE:    0.00 PKD
ROOT
HETATM    1 NA   UNL     1     -13.047  16.217  63.487  1.00  0.00    -0.724 Na 
HETATM    2 NA   UNL     2      -8.254  13.363  65.956  1.00  0.00    -0.370 Na 
HETATM    3  O   UNL     3      -9.781  13.047  64.158  1.00  0.00    -0.673 OA 
HETATM    4  H   UNL     3      -9.721  13.884  63.714  1.00  0.00     0.000 HD 
HETATM    5  C   UNL     3     -11.062  12.976  64.869  1.00  0.00    -0.301 C  
HETATM    6  O   UNL     3     -12.596  14.361  63.713  1.00  0.00    -0.829 OA 
HETATM    7  C   UNL     3     -12.213  13.151  63.857  1.00  0.00    -0.433 C  
HETATM    8  O   UNL     3     -12.604  12.134  63.235  1.00  0.00    -0.641 OA 
ENDROOT
BRANCH   5   9
HETATM    9  C   UNL     3     -11.158  11.625  65.586  1.00  0.00    -0.249 C  
HETATM   10  C   UNL     3     -10.356  11.721  66.914  1.00  0.00    -0.217 C  
HETATM   11  O   UNL     3     -10.602  10.629  64.693  1.00  0.00    -0.296 OA 
HETATM   12  H   UNL     3     -10.662   9.792  65.137  1.00  0.00     0.000 HD 
HETATM   13  O   UNL     3      -9.839  10.677  67.382  1.00  0.00    -0.165 OA 
HETATM   14  O   UNL     3     -10.126  12.906  67.343  1.00  0.00    -0.219 OA 
ENDBRANCH   5   9
TORSDOF 1
ENDMDL
MODEL       15
REMARK 921   NORMALIZED FREE ENERGY PREDICTED BY IDOCK:   -4.86 KCAL/MOL
REMARK 922        TOTAL FREE ENERGY PREDICTED BY IDOCK:   -5.75 KCAL/MOL
REMARK 923 INTER-LIGAND FREE ENERGY PREDICTED BY IDOCK:   -5.10 KCAL/MOL
REMARK 924 INTRA-LIGAND FREE ENERGY PREDICTED BY IDOCK:   -0.65 KCAL/MOL
REMARK 927      BINDING AFFINITY PREDICTED BY RF-SCORE:    0.00 PKD
ROOT
HETATM    1 NA   UNL     1     -12.809  10.137  69.574  1.00  0.00    -0.527 Na 
HETATM    2 NA   UNL     2     -11.287  10.637  63.689  1.00  0.00    -0.532 Na 
HETATM    3  O   UNL     3     -10.559  11.478  65.792  1.00  0.00    -0.251 OA 
HETATM    4  H   UNL     3     -10.467  10.676  66.292  1.00  0.00     0.000 HD 
HETATM    5  C   UNL     3     -11.755  12.191  66.254  1.00  0.00    -0.320 C  
HETATM    6  O   UNL     3     -12.116  11.585  68.515  1.00  0.00    -0.522 OA 
HETATM    7  C   UNL     3     -11.617  12.488  67.762  1.00  0.00    -0.343 C  
HETATM    8  O   UNL     3     -10.983  13.517  68.099  1.00  0.00    -0.240 OA 
ENDROOT
BRANCH   5   9
HETATM    9  C   UNL     3     -11.903  13.486  65.448  1.00  0.00    -0.357 C  
HETATM   10  C   UNL     3     -12.652  13.153  64.127  1.00  0.00    -0.184 C  
HETATM   11  O   UNL     3     -10.567  13.987  65.198  1.00  0.00    -0.337 OA 
HETATM   12  H   UNL     3     -10.660  14.789  64.698  1.00  0.00     0.000 HD 
HETATM   13  O   UNL     3     -12.426  13.858  63.112  1.00  0.00    -0.766 OA 
HETATM   14  O   UNL     3     -13.317  12.058  64.123  1.00  0.00    -0.725 OA 
ENDBRANCH   5   9
TORSDOF 1
ENDMDL
MODEL       16
REMARK 921   NORMALIZED FREE ENERGY PREDICTED BY IDOCK:   -4.82 KCAL/MOL
REMARK 922        TOTAL FREE ENERGY PREDICTED BY IDOCK:   -5.71 KCAL/MOL
REMARK 923 INTER-LIGAND FREE ENERGY PREDICTED BY IDOCK:   -5.05 KCAL/MOL
REMARK 924 INTRA-LIGAND FREE ENERGY PREDICTED BY IDOCK:   -0.66 KCAL/MOL
REMARK 927      BINDING AFFINITY PREDICTED BY RF-SCORE:    0.00 PKD
ROOT
HETATM    1 NA   UNL     1     -13.286  14.747  67.223  1.00  0.00    -0.470 Na 
HETATM    2 NA   UNL     2      -7.937  12.287  65.628  1.00  0.00    -0.343 Na 
HETATM    3  O   UNL     3      -9.806  13.317  64.575  1.00  0.00    -0.619 OA 
HETATM    4  H   UNL     3      -9.886  14.118  65.080  1.00  0.00     0.000 HD 
HETATM    5  C   UNL     3     -10.894  12.408  64.952  1.00  0.00    -0.297 C  
HETATM    6  O   UNL     3     -12.709  13.737  65.692  1.00  0.00    -0.509 OA 
HETATM    7  C   UNL     3     -12.247  13.099  64.686  1.00  0.00    -0.414 C  
HETATM    8  O   UNL     3     -12.717  13.036  63.524  1.00  0.00    -0.708 OA 
ENDROOT
BRANCH   5   9
HETATM    9  C   UNL     3     -10.765  11.116  64.138  1.00  0.00    -0.345 C  
HETATM   10  C   UNL     3      -9.691  10.219  64.815  1.00  0.00    -0.332 C  
HETATM   11  O   UNL     3     -10.379  11.496  62.795  1.00  0.00    -0.630 OA 
HETATM   12  H   UNL     3     -10.300  10.695  62.290  1.00  0.00     0.000 HD 
HETATM   13  O   UNL     3      -9.035   9.421  64.101  1.00  0.00    -0.214 OA 
HETATM   14  O   UNL     3      -9.424  10.494  66.038  1.00  0.00    -0.170 OA 
ENDBRANCH   5   9
TORSDOF 1
ENDMDL
MODEL       17
REMARK 921   NORMALIZED FREE ENERGY PREDICTED BY IDOCK:   -4.81 KCAL/MOL
REMARK 922        TOTAL FREE ENERGY PREDICTED BY IDOCK:   -5.70 KCAL/MOL
REMARK 923 INTER-LIGAND FREE ENERGY PREDICTED BY IDOCK:   -5.04 KCAL/MOL
REMARK 924 INTRA-LIGAND FREE ENERGY PREDICTED BY IDOCK:   -0.66 KCAL/MOL
REMARK 927      BINDING AFFINITY PREDICTED BY RF-SCORE:    0.00 PKD
ROOT
HETATM    1 NA   UNL     1     -12.977  11.076  62.355  1.00  0.00    -0.972 Na 
HETATM    2 NA   UNL     2     -11.102  11.727  68.123  1.00  0.00    -0.180 Na 
HETATM    3  O   UNL     3     -12.388  12.931  66.523  1.00  0.00    -0.440 OA 
HETATM    4  H   UNL     3     -13.008  12.268  66.245  1.00  0.00     0.000 HD 
HETATM    5  C   UNL     3     -11.406  13.143  65.455  1.00  0.00    -0.297 C  
HETATM    6  O   UNL     3     -12.457  12.602  63.403  1.00  0.00    -0.663 OA 
HETATM    7  C   UNL     3     -12.141  13.574  64.169  1.00  0.00    -0.435 C  
HETATM    8  O   UNL     3     -12.417  14.791  64.034  1.00  0.00    -0.803 OA 
ENDROOT
BRANCH   5   9
HETATM    9  C   UNL     3     -10.406  14.214  65.905  1.00  0.00    -0.316 C  
HETATM   10  C   UNL     3      -9.360  13.542  66.838  1.00  0.00    -0.253 C  
HETATM   11  O   UNL     3     -11.163  15.239  66.594  1.00  0.00    -0.314 OA 
HETATM   12  H   UNL     3     -10.543  15.903  66.873  1.00  0.00     0.000 HD 
HETATM   13  O   UNL     3      -8.808  14.239  67.725  1.00  0.00    -0.169 OA 
HETATM   14  O   UNL     3      -9.270  12.268  66.749  1.00  0.00    -0.200 OA 
ENDBRANCH   5   9
TORSDOF 1
ENDMDL
MODEL       18
REMARK 921   NORMALIZED FREE ENERGY PREDICTED BY IDOCK:   -4.72 KCAL/MOL
REMARK 922        TOTAL FREE ENERGY PREDICTED BY IDOCK:   -5.60 KCAL/MOL
REMARK 923 INTER-LIGAND FREE ENERGY PREDICTED BY IDOCK:   -4.94 KCAL/MOL
REMARK 924 INTRA-LIGAND FREE ENERGY PREDICTED BY IDOCK:   -0.65 KCAL/MOL
REMARK 927      BINDING AFFINITY PREDICTED BY RF-SCORE:    0.00 PKD
ROOT
HETATM    1 NA   UNL     1     -11.193  18.307  68.693  1.00  0.00    -0.238 Na 
HETATM    2 NA   UNL     2     -12.546  12.624  66.937  1.00  0.00    -0.336 Na 
HETATM    3  O   UNL     3     -10.642  14.048  67.041  1.00  0.00    -0.276 OA 
HETATM    4  H   UNL     3     -10.678  14.341  67.944  1.00  0.00     0.000 HD 
HETATM    5  C   UNL     3     -11.053  15.152  66.166  1.00  0.00    -0.311 C  
HETATM    6  O   UNL     3     -10.536  17.175  67.283  1.00  0.00    -0.325 OA 
HETATM    7  C   UNL     3     -10.117  16.356  66.398  1.00  0.00    -0.316 C  
HETATM    8  O   UNL     3      -9.031  16.381  65.769  1.00  0.00    -0.455 OA 
ENDROOT
BRANCH   5   9
HETATM    9  C   UNL     3     -10.995  14.679  64.710  1.00  0.00    -0.386 C  
HETATM   10  C   UNL     3     -12.328  13.949  64.382  1.00  0.00    -0.361 C  
HETATM   11  O   UNL     3      -9.854  13.794  64.596  1.00  0.00    -0.602 OA 
HETATM   12  H   UNL     3      -9.818  13.501  63.693  1.00  0.00     0.000 HD 
HETATM   13  O   UNL     3     -12.320  13.044  63.511  1.00  0.00    -0.654 OA 
HETATM   14  O   UNL     3     -13.310  14.203  65.164  1.00  0.00    -0.684 OA 
ENDBRANCH   5   9
TORSDOF 1
ENDMDL
MODEL       19
REMARK 921   NORMALIZED FREE ENERGY PREDICTED BY IDOCK:   -4.65 KCAL/MOL
REMARK 922        TOTAL FREE ENERGY PREDICTED BY IDOCK:   -5.53 KCAL/MOL
REMARK 923 INTER-LIGAND FREE ENERGY PREDICTED BY IDOCK:   -4.87 KCAL/MOL
REMARK 924 INTRA-LIGAND FREE ENERGY PREDICTED BY IDOCK:   -0.66 KCAL/MOL
REMARK 927      BINDING AFFINITY PREDICTED BY RF-SCORE:    0.00 PKD
ROOT
HETATM    1 NA   UNL     1     -12.138  15.082  62.973  1.00  0.00    -0.818 Na 
HETATM    2 NA   UNL     2      -8.638  19.338  65.587  1.00  0.00    -0.303 Na 
HETATM    3  O   UNL     3      -8.980  16.987  65.723  1.00  0.00    -0.526 OA 
HETATM    4  H   UNL     3      -8.906  16.736  64.810  1.00  0.00     0.000 HD 
HETATM    5  C   UNL     3     -10.390  16.917  66.123  1.00  0.00    -0.320 C  
HETATM    6  O   UNL     3     -11.440  15.298  64.752  1.00  0.00    -0.401 OA 
HETATM    7  C   UNL     3     -10.910  15.483  65.898  1.00  0.00    -0.313 C  
HETATM    8  O   UNL     3     -10.704  14.638  66.804  1.00  0.00    -0.291 OA 
ENDROOT
BRANCH   5   9
HETATM    9  C   UNL     3     -10.508  17.324  67.596  1.00  0.00    -0.363 C  
HETATM   10  C   UNL     3     -10.509  18.876  67.674  1.00  0.00    -0.443 C  
HETATM   11  O   UNL     3      -9.371  16.751  68.287  1.00  0.00    -0.218 OA 
HETATM   12  H   UNL     3      -9.444  17.003  69.200  1.00  0.00     0.000 HD 
HETATM   13  O   UNL     3     -10.062  19.428  68.710  1.00  0.00    -0.432 OA 
HETATM   14  O   UNL     3     -10.803  19.489  66.588  1.00  0.00    -0.442 OA 
ENDBRANCH   5   9
TORSDOF 1
ENDMDL
MODEL       20
REMARK 921   NORMALIZED FREE ENERGY PREDICTED BY IDOCK:   -4.56 KCAL/MOL
REMARK 922        TOTAL FREE ENERGY PREDICTED BY IDOCK:   -5.43 KCAL/MOL
REMARK 923 INTER-LIGAND FREE ENERGY PREDICTED BY IDOCK:   -4.80 KCAL/MOL
REMARK 924 INTRA-LIGAND FREE ENERGY PREDICTED BY IDOCK:   -0.63 KCAL/MOL
REMARK 927      BINDING AFFINITY PREDICTED BY RF-SCORE:    0.00 PKD
ROOT
HETATM    1 NA   UNL     1     -12.904  11.046  62.350  1.00  0.00    -1.003 Na 
HETATM    2 NA   UNL     2     -10.804  16.082  65.075  1.00  0.00    -0.302 Na 
HETATM    3  O   UNL     3      -9.952  14.019  64.251  1.00  0.00    -0.668 OA 
HETATM    4  H   UNL     3     -10.310  14.009  63.371  1.00  0.00     0.000 HD 
HETATM    5  C   UNL     3     -10.684  13.049  65.072  1.00  0.00    -0.315 C  
HETATM    6  O   UNL     3     -11.500  11.361  63.625  1.00  0.00    -0.364 OA 
HETATM    7  C   UNL     3     -10.557  11.649  64.437  1.00  0.00    -0.323 C  
HETATM    8  O   UNL     3      -9.535  10.974  64.711  1.00  0.00    -0.215 OA 
ENDROOT
BRANCH   5   9
HETATM    9  C   UNL     3     -10.107  13.066  66.492  1.00  0.00    -0.270 C  
HETATM   10  C   UNL     3     -10.823  14.188  67.294  1.00  0.00    -0.285 C  
HETATM   11  O   UNL     3      -8.685  13.315  66.370  1.00  0.00    -0.437 OA 
HETATM   12  H   UNL     3      -8.328  13.325  67.250  1.00  0.00     0.000 HD 
HETATM   13  O   UNL     3     -10.202  14.749  68.231  1.00  0.00    -0.220 OA 
HETATM   14  O   UNL     3     -11.943  14.587  66.818  1.00  0.00    -0.397 OA 
ENDBRANCH   5   9
TORSDOF 1
ENDMDL
MODEL       21
REMARK 921   NORMALIZED FREE ENERGY PREDICTED BY IDOCK:   -4.54 KCAL/MOL
REMARK 922        TOTAL FREE ENERGY PREDICTED BY IDOCK:   -5.42 KCAL/MOL
REMARK 923 INTER-LIGAND FREE ENERGY PREDICTED BY IDOCK:   -5.11 KCAL/MOL
REMARK 924 INTRA-LIGAND FREE ENERGY PREDICTED BY IDOCK:   -0.30 KCAL/MOL
REMARK 927      BINDING AFFINITY PREDICTED BY RF-SCORE:    0.00 PKD
ROOT
HETATM    1 NA   UNL     1     -10.976  12.779  70.277  1.00  0.00    -0.462 Na 
HETATM    2 NA   UNL     2      -9.405  12.354  64.399  1.00  0.00    -0.406 Na 
HETATM    3  O   UNL     3      -9.471  14.009  66.107  1.00  0.00    -0.417 OA 
HETATM    4  H   UNL     3      -9.003  13.571  66.808  1.00  0.00     0.000 HD 
HETATM    5  C   UNL     3     -10.901  14.037  66.434  1.00  0.00    -0.299 C  
HETATM    6  O   UNL     3     -11.092  13.998  68.795  1.00  0.00    -0.243 OA 
HETATM    7  C   UNL     3     -11.098  14.770  67.777  1.00  0.00    -0.299 C  
HETATM    8  O   UNL     3     -11.171  16.023  67.753  1.00  0.00    -0.315 OA 
ENDROOT
BRANCH   5   9
HETATM    9  C   UNL     3     -11.655  14.743  65.303  1.00  0.00    -0.338 C  
HETATM   10  C   UNL     3     -12.363  13.661  64.441  1.00  0.00    -0.338 C  
HETATM   11  O   UNL     3     -10.675  15.485  64.537  1.00  0.00    -0.648 OA 
HETATM   12  H   UNL     3     -11.143  15.923  63.836  1.00  0.00     0.000 HD 
HETATM   13  O   UNL     3     -12.566  13.898  63.224  1.00  0.00    -0.824 OA 
HETATM   14  O   UNL     3     -12.527  12.521  65.001  1.00  0.00    -0.523 OA 
ENDBRANCH   5   9
TORSDOF 1
ENDMDL
MODEL       22
REMARK 921   NORMALIZED FREE ENERGY PREDICTED BY IDOCK:   -4.53 KCAL/MOL
REMARK 922        TOTAL FREE ENERGY PREDICTED BY IDOCK:   -5.40 KCAL/MOL
REMARK 923 INTER-LIGAND FREE ENERGY PREDICTED BY IDOCK:   -5.23 KCAL/MOL
REMARK 924 INTRA-LIGAND FREE ENERGY PREDICTED BY IDOCK:   -0.17 KCAL/MOL
REMARK 927      BINDING AFFINITY PREDICTED BY RF-SCORE:    0.00 PKD
ROOT
HETATM    1 NA   UNL     1     -11.028  13.174  70.288  1.00  0.00    -0.457 Na 
HETATM    2 NA   UNL     2     -13.887  13.150  64.900  1.00  0.00    -0.701 Na 
HETATM    3  O   UNL     3     -11.832  12.389  65.827  1.00  0.00    -0.407 OA 
HETATM    4  H   UNL     3     -12.138  11.905  66.585  1.00  0.00     0.000 HD 
HETATM    5  C   UNL     3     -11.228  13.647  66.277  1.00  0.00    -0.305 C  
HETATM    6  O   UNL     3     -10.409  13.300  68.471  1.00  0.00    -0.245 OA 
HETATM    7  C   UNL     3     -10.066  13.335  67.242  1.00  0.00    -0.234 C  
HETATM    8  O   UNL     3      -8.944  13.079  66.741  1.00  0.00    -0.221 OA 
ENDROOT
BRANCH   5   9
HETATM    9  C   UNL     3     -10.736  14.427  65.053  1.00  0.00    -0.423 C  
HETATM   10  C   UNL     3     -10.879  15.945  65.353  1.00  0.00    -0.349 C  
HETATM   11  O   UNL     3     -11.557  14.020  63.931  1.00  0.00    -0.632 OA 
HETATM   12  H   UNL     3     -11.251  14.503  63.172  1.00  0.00     0.000 HD 
HETATM   13  O   UNL     3     -11.066  16.733  64.393  1.00  0.00    -1.072 OA 
HETATM   14  O   UNL     3     -10.979  16.263  66.589  1.00  0.00    -0.184 OA 
ENDBRANCH   5   9
TORSDOF 1
ENDMDL
MODEL       23
REMARK 921   NORMALIZED FREE ENERGY PREDICTED BY IDOCK:   -4.51 KCAL/MOL
REMARK 922        TOTAL FREE ENERGY PREDICTED BY IDOCK:   -5.38 KCAL/MOL
REMARK 923 INTER-LIGAND FREE ENERGY PREDICTED BY IDOCK:   -4.75 KCAL/MOL
REMARK 924 INTRA-LIGAND FREE ENERGY PREDICTED BY IDOCK:   -0.63 KCAL/MOL
REMARK 927      BINDING AFFINITY PREDICTED BY RF-SCORE:    0.00 PKD
ROOT
HETATM    1 NA   UNL     1      -9.042   8.821  67.049  1.00  0.00    -0.119 Na 
HETATM    2 NA   UNL     2      -9.306  14.149  64.092  1.00  0.00    -0.356 Na 
HETATM    3  O   UNL     3      -9.965  13.246  66.192  1.00  0.00    -0.283 OA 
HETATM    4  H   UNL     3      -9.154  12.849  66.486  1.00  0.00     0.000 HD 
HETATM    5  C   UNL     3     -10.891  12.186  65.779  1.00  0.00    -0.281 C  
HETATM    6  O   UNL     3     -10.340  10.240  67.011  1.00  0.00    -0.219 OA 
HETATM    7  C   UNL     3     -11.137  11.237  66.970  1.00  0.00    -0.293 C  
HETATM    8  O   UNL     3     -12.020  11.560  67.802  1.00  0.00    -0.623 OA 
ENDROOT
BRANCH   5   9
HETATM    9  C   UNL     3     -12.199  12.828  65.304  1.00  0.00    -0.483 C  
HETATM   10  C   UNL     3     -12.046  13.189  63.800  1.00  0.00    -0.495 C  
HETATM   11  O   UNL     3     -12.417  14.004  66.120  1.00  0.00    -0.467 OA 
HETATM   12  H   UNL     3     -13.228  14.401  65.826  1.00  0.00     0.000 HD 
HETATM   13  O   UNL     3     -12.703  14.157  63.343  1.00  0.00    -0.767 OA 
HETATM   14  O   UNL     3     -11.112  12.578  63.172  1.00  0.00    -0.366 OA 
ENDBRANCH   5   9
TORSDOF 1
ENDMDL
MODEL       24
REMARK 921   NORMALIZED FREE ENERGY PREDICTED BY IDOCK:   -4.49 KCAL/MOL
REMARK 922        TOTAL FREE ENERGY PREDICTED BY IDOCK:   -5.36 KCAL/MOL
REMARK 923 INTER-LIGAND FREE ENERGY PREDICTED BY IDOCK:   -4.72 KCAL/MOL
REMARK 924 INTRA-LIGAND FREE ENERGY PREDICTED BY IDOCK:   -0.63 KCAL/MOL
REMARK 927      BINDING AFFINITY PREDICTED BY RF-SCORE:    0.00 PKD
ROOT
HETATM    1 NA   UNL     1     -14.240  14.330  65.330  1.00  0.00    -0.751 Na 
HETATM    2 NA   UNL     2     -11.028  19.495  65.803  1.00  0.00    -0.386 Na 
HETATM    3  O   UNL     3     -10.837  17.372  64.745  1.00  0.00    -0.846 OA 
HETATM    4  H   UNL     3     -11.672  17.312  64.296  1.00  0.00     0.000 HD 
HETATM    5  C   UNL     3     -10.852  16.466  65.898  1.00  0.00    -0.114 C  
HETATM    6  O   UNL     3     -12.354  14.704  65.400  1.00  0.00    -0.305 OA 
HETATM    7  C   UNL     3     -11.119  15.027  65.409  1.00  0.00    -0.374 C  
HETATM    8  O   UNL     3     -10.137  14.355  65.008  1.00  0.00    -0.390 OA 
ENDROOT
BRANCH   5   9
HETATM    9  C   UNL     3      -9.506  16.562  66.623  1.00  0.00    -0.258 C  
HETATM   10  C   UNL     3      -9.578  17.745  67.629  1.00  0.00    -0.266 C  
HETATM   11  O   UNL     3      -8.493  16.779  65.610  1.00  0.00    -0.387 OA 
HETATM   12  H   UNL     3      -7.658  16.838  66.060  1.00  0.00     0.000 HD 
HETATM   13  O   UNL     3      -8.519  18.353  67.921  1.00  0.00    -0.252 OA 
HETATM   14  O   UNL     3     -10.756  18.132  67.951  1.00  0.00    -0.396 OA 
ENDBRANCH   5   9
TORSDOF 1
ENDMDL
MODEL       25
REMARK 921   NORMALIZED FREE ENERGY PREDICTED BY IDOCK:   -4.47 KCAL/MOL
REMARK 922        TOTAL FREE ENERGY PREDICTED BY IDOCK:   -5.34 KCAL/MOL
REMARK 923 INTER-LIGAND FREE ENERGY PREDICTED BY IDOCK:   -4.68 KCAL/MOL
REMARK 924 INTRA-LIGAND FREE ENERGY PREDICTED BY IDOCK:   -0.66 KCAL/MOL
REMARK 927      BINDING AFFINITY PREDICTED BY RF-SCORE:    0.00 PKD
ROOT
HETATM    1 NA   UNL     1     -11.082  14.516  67.368  1.00  0.00    -0.262 Na 
HETATM    2 NA   UNL     2      -9.936  20.063  69.632  1.00  0.00    -0.365 Na 
HETATM    3  O   UNL     3     -11.050  19.100  67.763  1.00  0.00    -0.301 OA 
HETATM    4  H   UNL     3     -11.614  18.465  68.189  1.00  0.00     0.000 HD 
HETATM    5  C   UNL     3      -9.951  18.389  67.099  1.00  0.00    -0.337 C  
HETATM    6  O   UNL     3     -10.732  16.222  66.552  1.00  0.00    -0.284 OA 
HETATM    7  C   UNL     3     -10.536  17.392  66.078  1.00  0.00    -0.276 C  
HETATM    8  O   UNL     3     -10.825  17.826  64.937  1.00  0.00    -0.815 OA 
ENDROOT
BRANCH   5   9
HETATM    9  C   UNL     3      -9.041  19.413  66.412  1.00  0.00    -0.360 C  
HETATM   10  C   UNL     3      -8.081  20.006  67.481  1.00  0.00    -0.316 C  
HETATM   11  O   UNL     3      -9.901  20.429  65.839  1.00  0.00    -0.642 OA 
HETATM   12  H   UNL     3      -9.337  21.063  65.413  1.00  0.00     0.000 HD 
HETATM   13  O   UNL     3      -7.652  21.175  67.323  1.00  0.00    -0.383 OA 
HETATM   14  O   UNL     3      -7.941  19.314  68.550  1.00  0.00    -0.334 OA 
ENDBRANCH   5   9
TORSDOF 1
ENDMDL
MODEL       26
REMARK 921   NORMALIZED FREE ENERGY PREDICTED BY IDOCK:   -4.46 KCAL/MOL
REMARK 922        TOTAL FREE ENERGY PREDICTED BY IDOCK:   -5.32 KCAL/MOL
REMARK 923 INTER-LIGAND FREE ENERGY PREDICTED BY IDOCK:   -5.12 KCAL/MOL
REMARK 924 INTRA-LIGAND FREE ENERGY PREDICTED BY IDOCK:   -0.21 KCAL/MOL
REMARK 927      BINDING AFFINITY PREDICTED BY RF-SCORE:    0.00 PKD
ROOT
HETATM    1 NA   UNL     1     -12.140  16.130  63.442  1.00  0.00    -0.909 Na 
HETATM    2 NA   UNL     2     -13.102  15.161  69.387  1.00  0.00    -0.522 Na 
HETATM    3  O   UNL     3     -11.282  15.657  67.937  1.00  0.00    -0.336 OA 
HETATM    4  H   UNL     3     -11.618  16.411  67.467  1.00  0.00     0.000 HD 
HETATM    5  C   UNL     3     -11.292  14.495  67.042  1.00  0.00    -0.349 C  
HETATM    6  O   UNL     3     -11.092  15.302  64.825  1.00  0.00    -0.407 OA 
HETATM    7  C   UNL     3     -10.433  14.804  65.799  1.00  0.00    -0.334 C  
HETATM    8  O   UNL     3      -9.195  14.615  65.884  1.00  0.00    -0.194 OA 
ENDROOT
BRANCH   5   9
HETATM    9  C   UNL     3     -10.750  13.280  67.801  1.00  0.00    -0.244 C  
HETATM   10  C   UNL     3     -11.563  12.029  67.363  1.00  0.00    -0.318 C  
HETATM   11  O   UNL     3     -10.907  13.556  69.214  1.00  0.00    -0.401 OA 
HETATM   12  H   UNL     3     -10.570  12.802  69.684  1.00  0.00     0.000 HD 
HETATM   13  O   UNL     3     -11.696  11.082  68.176  1.00  0.00    -0.497 OA 
HETATM   14  O   UNL     3     -12.198  12.137  66.256  1.00  0.00    -0.604 OA 
ENDBRANCH   5   9
TORSDOF 1
ENDMDL
MODEL       27
REMARK 921   NORMALIZED FREE ENERGY PREDICTED BY IDOCK:   -4.45 KCAL/MOL
REMARK 922        TOTAL FREE ENERGY PREDICTED BY IDOCK:   -5.31 KCAL/MOL
REMARK 923 INTER-LIGAND FREE ENERGY PREDICTED BY IDOCK:   -4.67 KCAL/MOL
REMARK 924 INTRA-LIGAND FREE ENERGY PREDICTED BY IDOCK:   -0.64 KCAL/MOL
REMARK 927      BINDING AFFINITY PREDICTED BY RF-SCORE:    0.00 PKD
ROOT
HETATM    1 NA   UNL     1      -8.540  13.338  68.865  1.00  0.00    -0.169 Na 
HETATM    2 NA   UNL     2     -12.998  12.850  73.000  1.00  0.00    -0.418 Na 
HETATM    3  O   UNL     3     -12.768  13.328  70.680  1.00  0.00    -0.252 OA 
HETATM    4  H   UNL     3     -12.238  12.594  70.391  1.00  0.00     0.000 HD 
HETATM    5  C   UNL     3     -11.934  14.535  70.710  1.00  0.00    -0.322 C  
HETATM    6  O   UNL     3     -10.215  14.252  69.106  1.00  0.00    -0.193 OA 
HETATM    7  C   UNL     3     -11.358  14.786  69.301  1.00  0.00    -0.294 C  
HETATM    8  O   UNL     3     -12.074  15.410  68.480  1.00  0.00    -0.249 OA 
ENDROOT
BRANCH   5   9
HETATM    9  C   UNL     3     -12.789  15.717  71.176  1.00  0.00    -0.480 C  
HETATM   10  C   UNL     3     -12.783  15.739  72.731  1.00  0.00    -0.454 C  
HETATM   11  O   UNL     3     -14.122  15.513  70.647  1.00  0.00    -0.849 OA 
HETATM   12  H   UNL     3     -14.652  16.247  70.936  1.00  0.00     0.000 HD 
HETATM   13  O   UNL     3     -13.776  16.218  73.331  1.00  0.00    -0.597 OA 
HETATM   14  O   UNL     3     -11.831  15.093  73.294  1.00  0.00    -0.395 OA 
ENDBRANCH   5   9
TORSDOF 1
ENDMDL
MODEL       28
REMARK 921   NORMALIZED FREE ENERGY PREDICTED BY IDOCK:   -4.43 KCAL/MOL
REMARK 922        TOTAL FREE ENERGY PREDICTED BY IDOCK:   -5.29 KCAL/MOL
REMARK 923 INTER-LIGAND FREE ENERGY PREDICTED BY IDOCK:   -4.63 KCAL/MOL
REMARK 924 INTRA-LIGAND FREE ENERGY PREDICTED BY IDOCK:   -0.66 KCAL/MOL
REMARK 927      BINDING AFFINITY PREDICTED BY RF-SCORE:    0.00 PKD
ROOT
HETATM    1 NA   UNL     1     -13.006  15.607  68.600  1.00  0.00    -0.534 Na 
HETATM    2 NA   UNL     2     -10.948  19.962  64.858  1.00  0.00    -0.488 Na 
HETATM    3  O   UNL     3     -10.543  17.659  65.301  1.00  0.00    -0.663 OA 
HETATM    4  H   UNL     3     -11.423  17.304  65.259  1.00  0.00     0.000 HD 
HETATM    5  C   UNL     3     -10.113  17.700  66.703  1.00  0.00    -0.335 C  
HETATM    6  O   UNL     3     -11.275  15.988  67.854  1.00  0.00    -0.338 OA 
HETATM    7  C   UNL     3     -10.166  16.275  67.291  1.00  0.00    -0.279 C  
HETATM    8  O   UNL     3      -9.174  15.529  67.102  1.00  0.00    -0.203 OA 
ENDROOT
BRANCH   5   9
HETATM    9  C   UNL     3      -8.694  18.274  66.770  1.00  0.00    -0.272 C  
HETATM   10  C   UNL     3      -8.791  19.823  66.696  1.00  0.00    -0.359 C  
HETATM   11  O   UNL     3      -7.960  17.726  65.648  1.00  0.00    -0.532 OA 
HETATM   12  H   UNL     3      -7.080  18.081  65.690  1.00  0.00     0.000 HD 
HETATM   13  O   UNL     3      -7.830  20.464  66.201  1.00  0.00    -0.195 OA 
HETATM   14  O   UNL     3      -9.934  20.325  66.982  1.00  0.00    -0.432 OA 
ENDBRANCH   5   9
TORSDOF 1
ENDMDL
MODEL       29
REMARK 921   NORMALIZED FREE ENERGY PREDICTED BY IDOCK:   -4.43 KCAL/MOL
REMARK 922        TOTAL FREE ENERGY PREDICTED BY IDOCK:   -5.29 KCAL/MOL
REMARK 923 INTER-LIGAND FREE ENERGY PREDICTED BY IDOCK:   -4.65 KCAL/MOL
REMARK 924 INTRA-LIGAND FREE ENERGY PREDICTED BY IDOCK:   -0.65 KCAL/MOL
REMARK 927      BINDING AFFINITY PREDICTED BY RF-SCORE:    0.00 PKD
ROOT
HETATM    1 NA   UNL     1     -13.566  12.462  63.780  1.00  0.00    -0.662 Na 
HETATM    2 NA   UNL     2      -8.432  15.200  65.609  1.00  0.00    -0.405 Na 
HETATM    3  O   UNL     3      -9.549  13.123  65.923  1.00  0.00    -0.422 OA 
HETATM    4  H   UNL     3      -9.714  12.862  65.024  1.00  0.00     0.000 HD 
HETATM    5  C   UNL     3     -10.812  13.557  66.531  1.00  0.00    -0.282 C  
HETATM    6  O   UNL     3     -12.566  12.416  65.421  1.00  0.00    -0.637 OA 
HETATM    7  C   UNL     3     -11.830  12.400  66.465  1.00  0.00    -0.339 C  
HETATM    8  O   UNL     3     -11.793  11.537  67.375  1.00  0.00    -0.607 OA 
ENDROOT
BRANCH   5   9
HETATM    9  C   UNL     3     -10.546  13.978  67.980  1.00  0.00    -0.247 C  
HETATM   10  C   UNL     3     -10.081  15.461  67.979  1.00  0.00    -0.226 C  
HETATM   11  O   UNL     3      -9.523  13.093  68.499  1.00  0.00    -0.327 OA 
HETATM   12  H   UNL     3      -9.359  13.354  69.397  1.00  0.00     0.000 HD 
HETATM   13  O   UNL     3      -9.318  15.853  68.896  1.00  0.00    -0.205 OA 
HETATM   14  O   UNL     3     -10.368  16.135  66.928  1.00  0.00    -0.287 OA 
ENDBRANCH   5   9
TORSDOF 1
ENDMDL
MODEL       30
REMARK 921   NORMALIZED FREE ENERGY PREDICTED BY IDOCK:   -4.41 KCAL/MOL
REMARK 922        TOTAL FREE ENERGY PREDICTED BY IDOCK:   -5.28 KCAL/MOL
REMARK 923 INTER-LIGAND FREE ENERGY PREDICTED BY IDOCK:   -5.06 KCAL/MOL
REMARK 924 INTRA-LIGAND FREE ENERGY PREDICTED BY IDOCK:   -0.21 KCAL/MOL
REMARK 927      BINDING AFFINITY PREDICTED BY RF-SCORE:    0.00 PKD
ROOT
HETATM    1 NA   UNL     1     -10.253  17.869  69.291  1.00  0.00    -0.298 Na 
HETATM    2 NA   UNL     2      -8.334  12.934  66.264  1.00  0.00    -0.348 Na 
HETATM    3  O   UNL     3      -8.728  15.241  65.837  1.00  0.00    -0.387 OA 
HETATM    4  H   UNL     3      -8.238  15.647  66.542  1.00  0.00     0.000 HD 
HETATM    5  C   UNL     3     -10.161  15.354  66.126  1.00  0.00    -0.308 C  
HETATM    6  O   UNL     3     -10.466  17.277  67.474  1.00  0.00    -0.345 OA 
HETATM    7  C   UNL     3     -10.532  16.844  66.275  1.00  0.00    -0.262 C  
HETATM    8  O   UNL     3     -10.785  17.489  65.228  1.00  0.00    -0.656 OA 
ENDROOT
BRANCH   5   9
HETATM    9  C   UNL     3     -10.950  14.698  64.988  1.00  0.00    -0.405 C  
HETATM   10  C   UNL     3     -12.160  13.942  65.606  1.00  0.00    -0.421 C  
HETATM   11  O   UNL     3     -10.044  13.797  64.306  1.00  0.00    -0.744 OA 
HETATM   12  H   UNL     3     -10.533  13.391  63.601  1.00  0.00     0.000 HD 
HETATM   13  O   UNL     3     -12.610  12.934  65.008  1.00  0.00    -0.513 OA 
HETATM   14  O   UNL     3     -12.497  14.302  66.788  1.00  0.00    -0.376 OA 
ENDBRANCH   5   9
TORSDOF 1
ENDMDL
MODEL       31
REMARK 921   NORMALIZED FREE ENERGY PREDICTED BY IDOCK:   -4.41 KCAL/MOL
REMARK 922        TOTAL FREE ENERGY PREDICTED BY IDOCK:   -5.27 KCAL/MOL
REMARK 923 INTER-LIGAND FREE ENERGY PREDICTED BY IDOCK:   -5.13 KCAL/MOL
REMARK 924 INTRA-LIGAND FREE ENERGY PREDICTED BY IDOCK:   -0.14 KCAL/MOL
REMARK 927      BINDING AFFINITY PREDICTED BY RF-SCORE:    0.00 PKD
ROOT
HETATM    1 NA   UNL     1      -8.925  19.988  66.210  1.00  0.00    -0.288 Na 
HETATM    2 NA   UNL     2     -13.035  16.063  68.425  1.00  0.00    -0.417 Na 
HETATM    3  O   UNL     3     -10.691  16.147  68.025  1.00  0.00    -0.299 OA 
HETATM    4  H   UNL     3     -10.458  16.961  68.455  1.00  0.00     0.000 HD 
HETATM    5  C   UNL     3     -10.647  16.347  66.572  1.00  0.00    -0.235 C  
HETATM    6  O   UNL     3      -9.085  18.073  66.138  1.00  0.00    -0.472 OA 
HETATM    7  C   UNL     3      -9.231  16.805  66.167  1.00  0.00    -0.249 C  
HETATM    8  O   UNL     3      -8.362  15.918  65.980  1.00  0.00    -0.202 OA 
ENDROOT
BRANCH   5   9
HETATM    9  C   UNL     3     -11.024  15.034  65.879  1.00  0.00    -0.343 C  
HETATM   10  C   UNL     3     -11.697  15.376  64.520  1.00  0.00    -0.277 C  
HETATM   11  O   UNL     3     -11.928  14.329  66.764  1.00  0.00    -0.414 OA 
HETATM   12  H   UNL     3     -12.161  13.515  66.335  1.00  0.00     0.000 HD 
HETATM   13  O   UNL     3     -12.541  14.576  64.048  1.00  0.00    -0.797 OA 
HETATM   14  O   UNL     3     -11.471  16.552  64.066  1.00  0.00    -1.137 OA 
ENDBRANCH   5   9
TORSDOF 1
ENDMDL
MODEL       32
REMARK 921   NORMALIZED FREE ENERGY PREDICTED BY IDOCK:   -4.37 KCAL/MOL
REMARK 922        TOTAL FREE ENERGY PREDICTED BY IDOCK:   -5.23 KCAL/MOL
REMARK 923 INTER-LIGAND FREE ENERGY PREDICTED BY IDOCK:   -5.02 KCAL/MOL
REMARK 924 INTRA-LIGAND FREE ENERGY PREDICTED BY IDOCK:   -0.21 KCAL/MOL
REMARK 927      BINDING AFFINITY PREDICTED BY RF-SCORE:    0.00 PKD
ROOT
HETATM    1 NA   UNL     1     -13.167  14.332  64.189  1.00  0.00    -0.606 Na 
HETATM    2 NA   UNL     2     -14.003  14.700  70.219  1.00  0.00    -0.567 Na 
HETATM    3  O   UNL     3     -12.375  15.341  68.607  1.00  0.00    -0.580 OA 
HETATM    4  H   UNL     3     -12.913  15.803  67.974  1.00  0.00     0.000 HD 
HETATM    5  C   UNL     3     -11.989  14.042  68.046  1.00  0.00    -0.350 C  
HETATM    6  O   UNL     3     -11.966  14.263  65.689  1.00  0.00    -0.367 OA 
HETATM    7  C   UNL     3     -11.222  14.268  66.727  1.00  0.00    -0.332 C  
HETATM    8  O   UNL     3      -9.991  14.502  66.799  1.00  0.00    -0.252 OA 
ENDROOT
BRANCH   5   9
HETATM    9  C   UNL     3     -11.123  13.299  69.068  1.00  0.00    -0.244 C  
HETATM   10  C   UNL     3     -11.486  11.788  69.007  1.00  0.00    -0.297 C  
HETATM   11  O   UNL     3     -11.413  13.870  70.367  1.00  0.00    -0.496 OA 
HETATM   12  H   UNL     3     -10.876  13.409  71.001  1.00  0.00     0.000 HD 
HETATM   13  O   UNL     3     -11.347  11.093  70.044  1.00  0.00    -0.279 OA 
HETATM   14  O   UNL     3     -12.079  11.400  67.941  1.00  0.00    -0.646 OA 
ENDBRANCH   5   9
TORSDOF 1
ENDMDL
MODEL       33
REMARK 921   NORMALIZED FREE ENERGY PREDICTED BY IDOCK:   -4.36 KCAL/MOL
REMARK 922        TOTAL FREE ENERGY PREDICTED BY IDOCK:   -5.22 KCAL/MOL
REMARK 923 INTER-LIGAND FREE ENERGY PREDICTED BY IDOCK:   -4.56 KCAL/MOL
REMARK 924 INTRA-LIGAND FREE ENERGY PREDICTED BY IDOCK:   -0.66 KCAL/MOL
REMARK 927      BINDING AFFINITY PREDICTED BY RF-SCORE:    0.00 PKD
ROOT
HETATM    1 NA   UNL     1     -13.869  12.059  64.141  1.00  0.00    -0.751 Na 
HETATM    2 NA   UNL     2     -11.572   8.919  68.839  1.00  0.00    -0.438 Na 
HETATM    3  O   UNL     3     -12.244  11.148  68.348  1.00  0.00    -0.703 OA 
HETATM    4  H   UNL     3     -13.116  11.007  67.998  1.00  0.00     0.000 HD 
HETATM    5  C   UNL     3     -11.340  11.493  67.245  1.00  0.00    -0.290 C  
HETATM    6  O   UNL     3     -12.641  12.512  65.549  1.00  0.00    -0.642 OA 
HETATM    7  C   UNL     3     -11.866  12.757  66.534  1.00  0.00    -0.405 C  
HETATM    8  O   UNL     3     -11.553  13.872  67.019  1.00  0.00    -0.331 OA 
ENDROOT
BRANCH   5   9
HETATM    9  C   UNL     3      -9.934  11.720  67.809  1.00  0.00    -0.190 C  
HETATM   10  C   UNL     3      -9.240  10.337  67.959  1.00  0.00    -0.135 C  
HETATM   11  O   UNL     3     -10.090  12.385  69.087  1.00  0.00    -0.414 OA 
HETATM   12  H   UNL     3      -9.218  12.526  69.436  1.00  0.00     0.000 HD 
HETATM   13  O   UNL     3      -8.368  10.195  68.852  1.00  0.00    -0.113 OA 
HETATM   14  O   UNL     3      -9.744   9.382  67.271  1.00  0.00    -0.152 OA 
ENDBRANCH   5   9
TORSDOF 1
ENDMDL
MODEL       34
REMARK 921   NORMALIZED FREE ENERGY PREDICTED BY IDOCK:   -4.36 KCAL/MOL
REMARK 922        TOTAL FREE ENERGY PREDICTED BY IDOCK:   -5.22 KCAL/MOL
REMARK 923 INTER-LIGAND FREE ENERGY PREDICTED BY IDOCK:   -4.56 KCAL/MOL
REMARK 924 INTRA-LIGAND FREE ENERGY PREDICTED BY IDOCK:   -0.66 KCAL/MOL
REMARK 927      BINDING AFFINITY PREDICTED BY RF-SCORE:    0.00 PKD
ROOT
HETATM    1 NA   UNL     1      -9.352  14.578  70.147  1.00  0.00    -0.391 Na 
HETATM    2 NA   UNL     2     -10.694  10.734  65.605  1.00  0.00    -0.243 Na 
HETATM    3  O   UNL     3      -9.278  12.607  65.990  1.00  0.00    -0.419 OA 
HETATM    4  H   UNL     3      -8.833  12.343  66.787  1.00  0.00     0.000 HD 
HETATM    5  C   UNL     3     -10.255  13.652  66.315  1.00  0.00    -0.296 C  
HETATM    6  O   UNL     3      -9.469  14.788  68.239  1.00  0.00    -0.195 OA 
HETATM    7  C   UNL     3      -9.523  14.845  66.964  1.00  0.00    -0.229 C  
HETATM    8  O   UNL     3      -9.001  15.695  66.202  1.00  0.00    -0.323 OA 
ENDROOT
BRANCH   5   9
HETATM    9  C   UNL     3     -10.972  14.077  65.030  1.00  0.00    -0.375 C  
HETATM   10  C   UNL     3     -12.135  13.079  64.769  1.00  0.00    -0.415 C  
HETATM   11  O   UNL     3      -9.990  14.050  63.965  1.00  0.00    -0.409 OA 
HETATM   12  H   UNL     3     -10.435  14.314  63.169  1.00  0.00     0.000 HD 
HETATM   13  O   UNL     3     -12.499  12.875  63.584  1.00  0.00    -0.652 OA 
HETATM   14  O   UNL     3     -12.520  12.394  65.780  1.00  0.00    -0.615 OA 
ENDBRANCH   5   9
TORSDOF 1
ENDMDL
MODEL       35
REMARK 921   NORMALIZED FREE ENERGY PREDICTED BY IDOCK:   -4.35 KCAL/MOL
REMARK 922        TOTAL FREE ENERGY PREDICTED BY IDOCK:   -5.21 KCAL/MOL
REMARK 923 INTER-LIGAND FREE ENERGY PREDICTED BY IDOCK:   -4.69 KCAL/MOL
REMARK 924 INTRA-LIGAND FREE ENERGY PREDICTED BY IDOCK:   -0.52 KCAL/MOL
REMARK 927      BINDING AFFINITY PREDICTED BY RF-SCORE:    0.00 PKD
ROOT
HETATM    1 NA   UNL     1     -11.081   9.765  64.969  1.00  0.00     0.056 Na 
HETATM    2 NA   UNL     2     -11.660  15.165  67.744  1.00  0.00    -0.269 Na 
HETATM    3  O   UNL     3     -12.656  13.977  65.940  1.00  0.00    -0.488 OA 
HETATM    4  H   UNL     3     -12.865  13.148  66.355  1.00  0.00     0.000 HD 
HETATM    5  C   UNL     3     -11.510  13.785  65.044  1.00  0.00    -0.332 C  
HETATM    6  O   UNL     3     -11.529  11.525  64.338  1.00  0.00    -0.271 OA 
HETATM    7  C   UNL     3     -11.861  12.710  63.996  1.00  0.00    -0.431 C  
HETATM    8  O   UNL     3     -12.486  13.076  62.970  1.00  0.00    -0.565 OA 
ENDROOT
BRANCH   5   9
HETATM    9  C   UNL     3     -11.175  15.122  64.375  1.00  0.00    -0.169 C  
HETATM   10  C   UNL     3     -10.480  16.032  65.426  1.00  0.00    -0.392 C  
HETATM   11  O   UNL     3     -12.424  15.691  63.912  1.00  0.00    -0.907 OA 
HETATM   12  H   UNL     3     -12.216  16.519  63.496  1.00  0.00     0.000 HD 
HETATM   13  O   UNL     3     -10.601  17.278  65.317  1.00  0.00    -0.667 OA 
HETATM   14  O   UNL     3      -9.981  15.432  66.441  1.00  0.00    -0.252 OA 
ENDBRANCH   5   9
TORSDOF 1
ENDMDL
MODEL       36
REMARK 921   NORMALIZED FREE ENERGY PREDICTED BY IDOCK:   -4.31 KCAL/MOL
REMARK 922        TOTAL FREE ENERGY PREDICTED BY IDOCK:   -5.17 KCAL/MOL
REMARK 923 INTER-LIGAND FREE ENERGY PREDICTED BY IDOCK:   -4.51 KCAL/MOL
REMARK 924 INTRA-LIGAND FREE ENERGY PREDICTED BY IDOCK:   -0.66 KCAL/MOL
REMARK 927      BINDING AFFINITY PREDICTED BY RF-SCORE:    0.00 PKD
ROOT
HETATM    1 NA   UNL     1     -11.646  15.356  65.673  1.00  0.00    -0.336 Na 
HETATM    2 NA   UNL     2     -10.915  15.776  71.714  1.00  0.00    -0.325 Na 
HETATM    3  O   UNL     3     -10.672  14.142  70.002  1.00  0.00    -0.442 OA 
HETATM    4  H   UNL     3     -10.133  14.608  69.375  1.00  0.00     0.000 HD 
HETATM    5  C   UNL     3     -12.040  14.054  69.481  1.00  0.00    -0.347 C  
HETATM    6  O   UNL     3     -11.908  14.114  67.118  1.00  0.00    -0.383 OA 
HETATM    7  C   UNL     3     -12.019  13.330  68.119  1.00  0.00    -0.304 C  
HETATM    8  O   UNL     3     -12.037  12.075  68.126  1.00  0.00    -0.480 OA 
ENDROOT
BRANCH   5   9
HETATM    9  C   UNL     3     -12.910  13.302  70.494  1.00  0.00     0.011 C  
HETATM   10  C   UNL     3     -13.374  14.311  71.581  1.00  0.00    -0.365 C  
HETATM   11  O   UNL     3     -12.092  12.246  71.054  1.00  0.00    -0.387 OA 
HETATM   12  H   UNL     3     -12.631  11.779  71.682  1.00  0.00     0.000 HD 
HETATM   13  O   UNL     3     -13.608  13.884  72.739  1.00  0.00    -0.654 OA 
HETATM   14  O   UNL     3     -13.310  15.548  71.258  1.00  0.00    -0.497 OA 
ENDBRANCH   5   9
TORSDOF 1
ENDMDL
MODEL       37
REMARK 921   NORMALIZED FREE ENERGY PREDICTED BY IDOCK:   -4.29 KCAL/MOL
REMARK 922        TOTAL FREE ENERGY PREDICTED BY IDOCK:   -5.14 KCAL/MOL
REMARK 923 INTER-LIGAND FREE ENERGY PREDICTED BY IDOCK:   -4.94 KCAL/MOL
REMARK 924 INTRA-LIGAND FREE ENERGY PREDICTED BY IDOCK:   -0.20 KCAL/MOL
REMARK 927      BINDING AFFINITY PREDICTED BY RF-SCORE:    0.00 PKD
ROOT
HETATM    1 NA   UNL     1     -10.578  15.907  68.665  1.00  0.00    -0.206 Na 
HETATM    2 NA   UNL     2     -13.276  14.874  63.293  1.00  0.00    -0.666 Na 
HETATM    3  O   UNL     3     -13.429  14.101  65.538  1.00  0.00    -0.710 OA 
HETATM    4  H   UNL     3     -13.501  14.921  66.012  1.00  0.00     0.000 HD 
HETATM    5  C   UNL     3     -12.089  13.545  65.751  1.00  0.00    -0.433 C  
HETATM    6  O   UNL     3     -11.315  14.331  67.847  1.00  0.00    -0.270 OA 
HETATM    7  C   UNL     3     -11.861  13.335  67.262  1.00  0.00    -0.372 C  
HETATM    8  O   UNL     3     -12.286  12.271  67.774  1.00  0.00    -0.425 OA 
ENDROOT
BRANCH   5   9
HETATM    9  C   UNL     3     -11.973  12.223  64.985  1.00  0.00    -0.354 C  
HETATM   10  C   UNL     3     -10.792  12.342  63.983  1.00  0.00    -0.397 C  
HETATM   11  O   UNL     3     -13.235  12.012  64.307  1.00  0.00    -0.710 OA 
HETATM   12  H   UNL     3     -13.164  11.192  63.833  1.00  0.00     0.000 HD 
HETATM   13  O   UNL     3     -10.830  11.669  62.923  1.00  0.00    -0.125 OA 
HETATM   14  O   UNL     3      -9.942  13.268  64.230  1.00  0.00    -0.270 OA 
ENDBRANCH   5   9
TORSDOF 1
ENDMDL
MODEL       38
REMARK 921   NORMALIZED FREE ENERGY PREDICTED BY IDOCK:   -4.26 KCAL/MOL
REMARK 922        TOTAL FREE ENERGY PREDICTED BY IDOCK:   -5.11 KCAL/MOL
REMARK 923 INTER-LIGAND FREE ENERGY PREDICTED BY IDOCK:   -4.90 KCAL/MOL
REMARK 924 INTRA-LIGAND FREE ENERGY PREDICTED BY IDOCK:   -0.22 KCAL/MOL
REMARK 927      BINDING AFFINITY PREDICTED BY RF-SCORE:    0.00 PKD
ROOT
HETATM    1 NA   UNL     1      -8.343  12.452  69.082  1.00  0.00    -0.274 Na 
HETATM    2 NA   UNL     2     -11.405  16.402  65.586  1.00  0.00    -0.265 Na 
HETATM    3  O   UNL     3     -11.871  14.770  67.253  1.00  0.00    -0.378 OA 
HETATM    4  H   UNL     3     -11.275  15.033  67.943  1.00  0.00     0.000 HD 
HETATM    5  C   UNL     3     -11.359  13.549  66.621  1.00  0.00    -0.322 C  
HETATM    6  O   UNL     3     -10.071  12.396  68.240  1.00  0.00    -0.217 OA 
HETATM    7  C   UNL     3     -11.222  12.445  67.689  1.00  0.00    -0.288 C  
HETATM    8  O   UNL     3     -12.243  11.767  67.962  1.00  0.00    -0.518 OA 
ENDROOT
BRANCH   5   9
HETATM    9  C   UNL     3     -12.322  13.125  65.507  1.00  0.00    -0.474 C  
HETATM   10  C   UNL     3     -11.616  13.352  64.141  1.00  0.00    -0.398 C  
HETATM   11  O   UNL     3     -13.512  13.940  65.641  1.00  0.00    -0.655 OA 
HETATM   12  H   UNL     3     -14.109  13.676  64.951  1.00  0.00     0.000 HD 
HETATM   13  O   UNL     3     -12.323  13.602  63.133  1.00  0.00    -0.729 OA 
HETATM   14  O   UNL     3     -10.340  13.449  64.181  1.00  0.00    -0.380 OA 
ENDBRANCH   5   9
TORSDOF 1
ENDMDL
MODEL       39
REMARK 921   NORMALIZED FREE ENERGY PREDICTED BY IDOCK:   -4.26 KCAL/MOL
REMARK 922        TOTAL FREE ENERGY PREDICTED BY IDOCK:   -5.11 KCAL/MOL
REMARK 923 INTER-LIGAND FREE ENERGY PREDICTED BY IDOCK:   -4.46 KCAL/MOL
REMARK 924 INTRA-LIGAND FREE ENERGY PREDICTED BY IDOCK:   -0.65 KCAL/MOL
REMARK 927      BINDING AFFINITY PREDICTED BY RF-SCORE:    0.00 PKD
ROOT
HETATM    1 NA   UNL     1     -10.960  20.075  70.713  1.00  0.00    -0.729 Na 
HETATM    2 NA   UNL     2      -9.288  20.743  64.885  1.00  0.00    -0.497 Na 
HETATM    3  O   UNL     3     -10.267  19.079  66.275  1.00  0.00    -0.393 OA 
HETATM    4  H   UNL     3     -10.977  19.565  66.676  1.00  0.00     0.000 HD 
HETATM    5  C   UNL     3      -9.211  18.869  67.271  1.00  0.00    -0.283 C  
HETATM    6  O   UNL     3     -10.237  18.863  69.405  1.00  0.00    -0.166 OA 
HETATM    7  C   UNL     3      -9.796  18.105  68.477  1.00  0.00    -0.382 C  
HETATM    8  O   UNL     3      -9.851  16.854  68.404  1.00  0.00    -0.244 OA 
ENDROOT
BRANCH   5   9
HETATM    9  C   UNL     3      -8.065  18.085  66.623  1.00  0.00    -0.260 C  
HETATM   10  C   UNL     3      -7.135  19.094  65.894  1.00  0.00    -0.273 C  
HETATM   11  O   UNL     3      -8.664  17.142  65.701  1.00  0.00    -0.473 OA 
HETATM   12  H   UNL     3      -7.954  16.655  65.300  1.00  0.00     0.000 HD 
HETATM   13  O   UNL     3      -6.490  18.702  64.891  1.00  0.00    -0.494 OA 
HETATM   14  O   UNL     3      -7.236  20.315  66.268  1.00  0.00    -0.272 OA 
ENDBRANCH   5   9
TORSDOF 1
ENDMDL
MODEL       40
REMARK 921   NORMALIZED FREE ENERGY PREDICTED BY IDOCK:   -4.24 KCAL/MOL
REMARK 922        TOTAL FREE ENERGY PREDICTED BY IDOCK:   -5.09 KCAL/MOL
REMARK 923 INTER-LIGAND FREE ENERGY PREDICTED BY IDOCK:   -4.43 KCAL/MOL
REMARK 924 INTRA-LIGAND FREE ENERGY PREDICTED BY IDOCK:   -0.66 KCAL/MOL
REMARK 927      BINDING AFFINITY PREDICTED BY RF-SCORE:    0.00 PKD
ROOT
HETATM    1 NA   UNL     1      -7.820  19.465  69.097  1.00  0.00    -0.295 Na 
HETATM    2 NA   UNL     2      -8.465  14.256  65.989  1.00  0.00    -0.408 Na 
HETATM    3  O   UNL     3      -8.580  16.597  65.580  1.00  0.00    -0.388 OA 
HETATM    4  H   UNL     3      -7.754  16.891  65.947  1.00  0.00     0.000 HD 
HETATM    5  C   UNL     3      -9.668  17.000  66.477  1.00  0.00    -0.282 C  
HETATM    6  O   UNL     3      -8.955  18.938  67.637  1.00  0.00    -0.283 OA 
HETATM    7  C   UNL     3      -9.647  18.534  66.643  1.00  0.00    -0.321 C  
HETATM    8  O   UNL     3     -10.231  19.223  65.771  1.00  0.00    -0.473 OA 
ENDROOT
BRANCH   5   9
HETATM    9  C   UNL     3     -11.000  16.526  65.886  1.00  0.00     0.029 C  
HETATM   10  C   UNL     3     -11.205  15.037  66.280  1.00  0.00    -0.309 C  
HETATM   11  O   UNL     3     -10.911  16.695  64.450  1.00  0.00    -1.092 OA 
HETATM   12  H   UNL     3     -11.737  16.402  64.083  1.00  0.00     0.000 HD 
HETATM   13  O   UNL     3     -11.879  14.300  65.519  1.00  0.00    -0.345 OA 
HETATM   14  O   UNL     3     -10.512  14.623  67.274  1.00  0.00    -0.262 OA 
ENDBRANCH   5   9
TORSDOF 1
ENDMDL
MODEL       41
REMARK 921   NORMALIZED FREE ENERGY PREDICTED BY IDOCK:   -4.23 KCAL/MOL
REMARK 922        TOTAL FREE ENERGY PREDICTED BY IDOCK:   -5.08 KCAL/MOL
REMARK 923 INTER-LIGAND FREE ENERGY PREDICTED BY IDOCK:   -4.42 KCAL/MOL
REMARK 924 INTRA-LIGAND FREE ENERGY PREDICTED BY IDOCK:   -0.66 KCAL/MOL
REMARK 927      BINDING AFFINITY PREDICTED BY RF-SCORE:    0.00 PKD
ROOT
HETATM    1 NA   UNL     1      -9.620  13.495  64.381  1.00  0.00    -0.526 Na 
HETATM    2 NA   UNL     2      -9.584  16.513  69.682  1.00  0.00    -0.232 Na 
HETATM    3  O   UNL     3     -10.897  16.415  67.700  1.00  0.00    -0.327 OA 
HETATM    4  H   UNL     3     -11.057  15.481  67.629  1.00  0.00     0.000 HD 
HETATM    5  C   UNL     3      -9.920  16.809  66.679  1.00  0.00    -0.293 C  
HETATM    6  O   UNL     3     -10.117  15.285  64.878  1.00  0.00    -0.286 OA 
HETATM    7  C   UNL     3     -10.468  16.444  65.285  1.00  0.00    -0.261 C  
HETATM    8  O   UNL     3     -11.243  17.260  64.730  1.00  0.00    -0.890 OA 
ENDROOT
BRANCH   5   9
HETATM    9  C   UNL     3      -9.663  18.315  66.795  1.00  0.00    -0.322 C  
HETATM   10  C   UNL     3      -8.635  18.547  67.937  1.00  0.00    -0.287 C  
HETATM   11  O   UNL     3     -10.936  18.943  67.081  1.00  0.00    -0.410 OA 
HETATM   12  H   UNL     3     -10.777  19.877  67.152  1.00  0.00     0.000 HD 
HETATM   13  O   UNL     3      -8.672  19.632  68.570  1.00  0.00    -0.348 OA 
HETATM   14  O   UNL     3      -7.935  17.529  68.273  1.00  0.00    -0.240 OA 
ENDBRANCH   5   9
TORSDOF 1
ENDMDL
MODEL       42
REMARK 921   NORMALIZED FREE ENERGY PREDICTED BY IDOCK:   -4.22 KCAL/MOL
REMARK 922        TOTAL FREE ENERGY PREDICTED BY IDOCK:   -5.07 KCAL/MOL
REMARK 923 INTER-LIGAND FREE ENERGY PREDICTED BY IDOCK:   -4.51 KCAL/MOL
REMARK 924 INTRA-LIGAND FREE ENERGY PREDICTED BY IDOCK:   -0.56 KCAL/MOL
REMARK 927      BINDING AFFINITY PREDICTED BY RF-SCORE:    0.00 PKD
ROOT
HETATM    1 NA   UNL     1      -8.460  16.303  68.264  1.00  0.00    -0.158 Na 
HETATM    2 NA   UNL     2     -13.779  14.555  65.843  1.00  0.00    -0.572 Na 
HETATM    3  O   UNL     3     -11.883  13.558  66.881  1.00  0.00    -0.366 OA 
HETATM    4  H   UNL     3     -11.813  14.075  67.675  1.00  0.00     0.000 HD 
HETATM    5  C   UNL     3     -10.807  13.946  65.963  1.00  0.00    -0.290 C  
HETATM    6  O   UNL     3      -9.005  14.745  67.276  1.00  0.00    -0.179 OA 
HETATM    7  C   UNL     3      -9.446  13.721  66.654  1.00  0.00    -0.279 C  
HETATM    8  O   UNL     3      -8.950  12.569  66.605  1.00  0.00    -0.216 OA 
ENDROOT
BRANCH   5   9
HETATM    9  C   UNL     3     -10.922  13.113  64.683  1.00  0.00    -0.356 C  
HETATM   10  C   UNL     3     -12.107  13.668  63.845  1.00  0.00    -0.411 C  
HETATM   11  O   UNL     3     -11.145  11.740  65.087  1.00  0.00    -0.308 OA 
HETATM   12  H   UNL     3     -11.216  11.224  64.293  1.00  0.00     0.000 HD 
HETATM   13  O   UNL     3     -12.729  12.884  63.086  1.00  0.00    -0.606 OA 
HETATM   14  O   UNL     3     -12.483  14.859  64.130  1.00  0.00    -0.763 OA 
ENDBRANCH   5   9
TORSDOF 1
ENDMDL
MODEL       43
REMARK 921   NORMALIZED FREE ENERGY PREDICTED BY IDOCK:   -4.21 KCAL/MOL
REMARK 922        TOTAL FREE ENERGY PREDICTED BY IDOCK:   -5.07 KCAL/MOL
REMARK 923 INTER-LIGAND FREE ENERGY PREDICTED BY IDOCK:   -4.40 KCAL/MOL
REMARK 924 INTRA-LIGAND FREE ENERGY PREDICTED BY IDOCK:   -0.66 KCAL/MOL
REMARK 927      BINDING AFFINITY PREDICTED BY RF-SCORE:    0.00 PKD
ROOT
HETATM    1 NA   UNL     1     -12.564  15.106  68.929  1.00  0.00    -0.462 Na 
HETATM    2 NA   UNL     2      -7.454  12.965  66.378  1.00  0.00    -0.363 Na 
HETATM    3  O   UNL     3      -9.333  14.286  65.758  1.00  0.00    -0.520 OA 
HETATM    4  H   UNL     3      -9.341  14.935  66.451  1.00  0.00     0.000 HD 
HETATM    5  C   UNL     3     -10.439  13.346  65.972  1.00  0.00    -0.294 C  
HETATM    6  O   UNL     3     -12.135  14.500  67.154  1.00  0.00    -0.397 OA 
HETATM    7  C   UNL     3     -11.770  14.125  65.990  1.00  0.00    -0.382 C  
HETATM    8  O   UNL     3     -12.315  14.374  64.887  1.00  0.00    -0.423 OA 
ENDROOT
BRANCH   5   9
HETATM    9  C   UNL     3     -10.425  12.300  64.854  1.00  0.00    -0.289 C  
HETATM   10  C   UNL     3      -9.386  11.205  65.224  1.00  0.00    -0.219 C  
HETATM   11  O   UNL     3     -10.067  12.989  63.631  1.00  0.00    -0.699 OA 
HETATM   12  H   UNL     3     -10.059  12.341  62.937  1.00  0.00     0.000 HD 
HETATM   13  O   UNL     3      -8.811  10.582  64.297  1.00  0.00    -0.187 OA 
HETATM   14  O   UNL     3      -9.056  11.144  66.460  1.00  0.00    -0.171 OA 
ENDBRANCH   5   9
TORSDOF 1
ENDMDL
MODEL       44
REMARK 921   NORMALIZED FREE ENERGY PREDICTED BY IDOCK:   -4.16 KCAL/MOL
REMARK 922        TOTAL FREE ENERGY PREDICTED BY IDOCK:   -5.01 KCAL/MOL
REMARK 923 INTER-LIGAND FREE ENERGY PREDICTED BY IDOCK:   -4.79 KCAL/MOL
REMARK 924 INTRA-LIGAND FREE ENERGY PREDICTED BY IDOCK:   -0.21 KCAL/MOL
REMARK 927      BINDING AFFINITY PREDICTED BY RF-SCORE:    0.00 PKD
ROOT
HETATM    1 NA   UNL     1     -10.385  10.780  62.395  1.00  0.00    -0.456 Na 
HETATM    2 NA   UNL     2      -9.883  11.711  68.402  1.00  0.00    -0.156 Na 
HETATM    3  O   UNL     3     -11.601  11.359  66.794  1.00  0.00    -0.465 OA 
HETATM    4  H   UNL     3     -11.288  10.576  66.356  1.00  0.00     0.000 HD 
HETATM    5  C   UNL     3     -11.411  12.509  65.903  1.00  0.00    -0.340 C  
HETATM    6  O   UNL     3     -11.479  11.705  63.677  1.00  0.00    -0.418 OA 
HETATM    7  C   UNL     3     -12.178  12.264  64.588  1.00  0.00    -0.377 C  
HETATM    8  O   UNL     3     -13.398  12.558  64.560  1.00  0.00    -0.780 OA 
ENDROOT
BRANCH   5   9
HETATM    9  C   UNL     3     -11.914  13.772  66.609  1.00  0.00    -0.431 C  
HETATM   10  C   UNL     3     -10.947  14.940  66.268  1.00  0.00    -0.338 C  
HETATM   11  O   UNL     3     -11.933  13.487  68.029  1.00  0.00    -0.355 OA 
HETATM   12  H   UNL     3     -12.245  14.270  68.467  1.00  0.00     0.000 HD 
HETATM   13  O   UNL     3     -10.812  15.873  67.098  1.00  0.00    -0.319 OA 
HETATM   14  O   UNL     3     -10.212  14.770  65.233  1.00  0.00    -0.358 OA 
ENDBRANCH   5   9
TORSDOF 1
ENDMDL
MODEL       45
REMARK 921   NORMALIZED FREE ENERGY PREDICTED BY IDOCK:   -4.15 KCAL/MOL
REMARK 922        TOTAL FREE ENERGY PREDICTED BY IDOCK:   -5.00 KCAL/MOL
REMARK 923 INTER-LIGAND FREE ENERGY PREDICTED BY IDOCK:   -4.35 KCAL/MOL
REMARK 924 INTRA-LIGAND FREE ENERGY PREDICTED BY IDOCK:   -0.65 KCAL/MOL
REMARK 927      BINDING AFFINITY PREDICTED BY RF-SCORE:    0.00 PKD
ROOT
HETATM    1 NA   UNL     1      -9.736   8.180  74.406  1.00  0.00    -0.384 Na 
HETATM    2 NA   UNL     2     -14.085   9.651  70.389  1.00  0.00    -0.600 Na 
HETATM    3  O   UNL     3     -12.167   8.247  70.501  1.00  0.00    -0.491 OA 
HETATM    4  H   UNL     3     -12.335   7.766  71.303  1.00  0.00     0.000 HD 
HETATM    5  C   UNL     3     -11.100   9.223  70.745  1.00  0.00    -0.285 C  
HETATM    6  O   UNL     3      -9.746   8.376  72.493  1.00  0.00    -0.277 OA 
HETATM    7  C   UNL     3      -9.835   8.482  71.224  1.00  0.00    -0.216 C  
HETATM    8  O   UNL     3      -9.073   8.003  70.349  1.00  0.00    -0.148 OA 
ENDROOT
BRANCH   5   9
HETATM    9  C   UNL     3     -10.831   9.998  69.451  1.00  0.00    -0.239 C  
HETATM   10  C   UNL     3     -11.848  11.171  69.365  1.00  0.00    -0.345 C  
HETATM   11  O   UNL     3     -10.993   9.064  68.355  1.00  0.00    -0.451 OA 
HETATM   12  H   UNL     3     -10.826   9.545  67.553  1.00  0.00     0.000 HD 
HETATM   13  O   UNL     3     -12.192  11.587  68.231  1.00  0.00    -0.561 OA 
HETATM   14  O   UNL     3     -12.403  11.510  70.468  1.00  0.00    -0.350 OA 
ENDBRANCH   5   9
TORSDOF 1
ENDMDL
MODEL       46
REMARK 921   NORMALIZED FREE ENERGY PREDICTED BY IDOCK:   -4.13 KCAL/MOL
REMARK 922        TOTAL FREE ENERGY PREDICTED BY IDOCK:   -4.98 KCAL/MOL
REMARK 923 INTER-LIGAND FREE ENERGY PREDICTED BY IDOCK:   -4.32 KCAL/MOL
REMARK 924 INTRA-LIGAND FREE ENERGY PREDICTED BY IDOCK:   -0.66 KCAL/MOL
REMARK 927      BINDING AFFINITY PREDICTED BY RF-SCORE:    0.00 PKD
ROOT
HETATM    1 NA   UNL     1     -10.771  14.168  64.569  1.00  0.00    -0.324 Na 
HETATM    2 NA   UNL     2      -8.757  14.988  70.268  1.00  0.00    -0.372 Na 
HETATM    3  O   UNL     3      -9.660  13.236  68.935  1.00  0.00    -0.408 OA 
HETATM    4  H   UNL     3      -9.099  13.277  68.170  1.00  0.00     0.000 HD 
HETATM    5  C   UNL     3     -10.978  13.779  68.589  1.00  0.00    -0.266 C  
HETATM    6  O   UNL     3     -11.301  13.439  66.268  1.00  0.00    -0.295 OA 
HETATM    7  C   UNL     3     -11.571  12.963  67.422  1.00  0.00    -0.360 C  
HETATM    8  O   UNL     3     -12.181  11.902  67.701  1.00  0.00    -0.510 OA 
ENDROOT
BRANCH   5   9
HETATM    9  C   UNL     3     -11.882  13.713  69.824  1.00  0.00    -0.327 C  
HETATM   10  C   UNL     3     -11.571  14.944  70.721  1.00  0.00    -0.296 C  
HETATM   11  O   UNL     3     -11.588  12.467  70.501  1.00  0.00    -0.490 OA 
HETATM   12  H   UNL     3     -12.148  12.426  71.267  1.00  0.00     0.000 HD 
HETATM   13  O   UNL     3     -11.747  14.846  71.961  1.00  0.00    -0.365 OA 
HETATM   14  O   UNL     3     -10.979  15.921  70.142  1.00  0.00    -0.307 OA 
ENDBRANCH   5   9
TORSDOF 1
ENDMDL
MODEL       47
REMARK 921   NORMALIZED FREE ENERGY PREDICTED BY IDOCK:   -4.12 KCAL/MOL
REMARK 922        TOTAL FREE ENERGY PREDICTED BY IDOCK:   -4.96 KCAL/MOL
REMARK 923 INTER-LIGAND FREE ENERGY PREDICTED BY IDOCK:   -4.31 KCAL/MOL
REMARK 924 INTRA-LIGAND FREE ENERGY PREDICTED BY IDOCK:   -0.65 KCAL/MOL
REMARK 927      BINDING AFFINITY PREDICTED BY RF-SCORE:    0.00 PKD
ROOT
HETATM    1 NA   UNL     1     -11.596  17.372  71.299  1.00  0.00    -0.629 Na 
HETATM    2 NA   UNL     2      -9.722  11.759  69.821  1.00  0.00    -0.387 Na 
HETATM    3  O   UNL     3      -9.501  13.982  69.001  1.00  0.00    -0.396 OA 
HETATM    4  H   UNL     3      -9.217  14.441  69.782  1.00  0.00     0.000 HD 
HETATM    5  C   UNL     3     -10.898  14.334  68.724  1.00  0.00    -0.253 C  
HETATM    6  O   UNL     3     -11.279  16.493  69.619  1.00  0.00    -0.284 OA 
HETATM    7  C   UNL     3     -11.009  15.862  68.542  1.00  0.00    -0.324 C  
HETATM    8  O   UNL     3     -10.759  16.334  67.407  1.00  0.00    -0.319 OA 
ENDROOT
BRANCH   5   9
HETATM    9  C   UNL     3     -11.356  13.593  67.463  1.00  0.00    -0.308 C  
HETATM   10  C   UNL     3     -11.714  12.133  67.860  1.00  0.00    -0.336 C  
HETATM   11  O   UNL     3     -10.258  13.640  66.520  1.00  0.00    -0.272 OA 
HETATM   12  H   UNL     3     -10.542  13.181  65.738  1.00  0.00     0.000 HD 
HETATM   13  O   UNL     3     -11.585  11.227  67.000  1.00  0.00    -0.496 OA 
HETATM   14  O   UNL     3     -11.943  11.933  69.104  1.00  0.00    -0.306 OA 
ENDBRANCH   5   9
TORSDOF 1
ENDMDL
MODEL       48
REMARK 921   NORMALIZED FREE ENERGY PREDICTED BY IDOCK:   -4.12 KCAL/MOL
REMARK 922        TOTAL FREE ENERGY PREDICTED BY IDOCK:   -4.96 KCAL/MOL
REMARK 923 INTER-LIGAND FREE ENERGY PREDICTED BY IDOCK:   -4.34 KCAL/MOL
REMARK 924 INTRA-LIGAND FREE ENERGY PREDICTED BY IDOCK:   -0.62 KCAL/MOL
REMARK 927      BINDING AFFINITY PREDICTED BY RF-SCORE:    0.00 PKD
ROOT
HETATM    1 NA   UNL     1      -8.239  12.008  69.158  1.00  0.00    -0.214 Na 
HETATM    2 NA   UNL     2     -13.277  14.380  66.668  1.00  0.00    -0.608 Na 
HETATM    3  O   UNL     3     -12.148  12.287  66.746  1.00  0.00    -0.593 OA 
HETATM    4  H   UNL     3     -12.027  12.176  67.682  1.00  0.00     0.000 HD 
HETATM    5  C   UNL     3     -10.857  12.626  66.137  1.00  0.00    -0.273 C  
HETATM    6  O   UNL     3      -9.160  11.691  67.499  1.00  0.00    -0.165 OA 
HETATM    7  C   UNL     3      -9.844  11.502  66.438  1.00  0.00    -0.205 C  
HETATM    8  O   UNL     3      -9.838  10.503  65.677  1.00  0.00    -0.221 OA 
ENDROOT
BRANCH   5   9
HETATM    9  C   UNL     3     -11.052  12.806  64.629  1.00  0.00    -0.318 C  
HETATM   10  C   UNL     3     -11.710  14.193  64.385  1.00  0.00    -0.392 C  
HETATM   11  O   UNL     3     -11.899  11.722  64.177  1.00  0.00    -0.327 OA 
HETATM   12  H   UNL     3     -12.019  11.833  63.241  1.00  0.00     0.000 HD 
HETATM   13  O   UNL     3     -12.438  14.345  63.372  1.00  0.00    -0.709 OA 
HETATM   14  O   UNL     3     -11.607  15.036  65.343  1.00  0.00    -0.318 OA 
ENDBRANCH   5   9
TORSDOF 1
ENDMDL
MODEL       49
REMARK 921   NORMALIZED FREE ENERGY PREDICTED BY IDOCK:   -4.11 KCAL/MOL
REMARK 922        TOTAL FREE ENERGY PREDICTED BY IDOCK:   -4.95 KCAL/MOL
REMARK 923 INTER-LIGAND FREE ENERGY PREDICTED BY IDOCK:   -4.29 KCAL/MOL
REMARK 924 INTRA-LIGAND FREE ENERGY PREDICTED BY IDOCK:   -0.66 KCAL/MOL
REMARK 927      BINDING AFFINITY PREDICTED BY RF-SCORE:    0.00 PKD
ROOT
HETATM    1 NA   UNL     1     -13.651  13.396  65.487  1.00  0.00    -0.529 Na 
HETATM    2 NA   UNL     2     -11.539  12.978  71.193  1.00  0.00    -0.460 Na 
HETATM    3  O   UNL     3     -10.680  12.978  68.975  1.00  0.00    -0.372 OA 
HETATM    4  H   UNL     3     -11.081  13.763  68.620  1.00  0.00     0.000 HD 
HETATM    5  C   UNL     3     -11.344  11.803  68.401  1.00  0.00    -0.270 C  
HETATM    6  O   UNL     3     -12.191  12.427  66.280  1.00  0.00    -0.620 OA 
HETATM    7  C   UNL     3     -11.215  11.847  66.865  1.00  0.00    -0.325 C  
HETATM    8  O   UNL     3     -10.164  11.390  66.354  1.00  0.00    -0.217 OA 
ENDROOT
BRANCH   5   9
HETATM    9  C   UNL     3     -10.696  10.538  68.974  1.00  0.00    -0.225 C  
HETATM   10  C   UNL     3     -11.349  10.238  70.353  1.00  0.00    -0.332 C  
HETATM   11  O   UNL     3      -9.278  10.805  69.097  1.00  0.00    -0.290 OA 
HETATM   12  H   UNL     3      -8.876  10.021  69.452  1.00  0.00     0.000 HD 
HETATM   13  O   UNL     3     -10.670   9.638  71.223  1.00  0.00    -0.335 OA 
HETATM   14  O   UNL     3     -12.484  10.793  70.565  1.00  0.00    -0.320 OA 
ENDBRANCH   5   9
TORSDOF 1
ENDMDL
MODEL       50
REMARK 921   NORMALIZED FREE ENERGY PREDICTED BY IDOCK:   -4.11 KCAL/MOL
REMARK 922        TOTAL FREE ENERGY PREDICTED BY IDOCK:   -4.95 KCAL/MOL
REMARK 923 INTER-LIGAND FREE ENERGY PREDICTED BY IDOCK:   -4.29 KCAL/MOL
REMARK 924 INTRA-LIGAND FREE ENERGY PREDICTED BY IDOCK:   -0.66 KCAL/MOL
REMARK 927      BINDING AFFINITY PREDICTED BY RF-SCORE:    0.00 PKD
ROOT
HETATM    1 NA   UNL     1     -11.084  12.519  70.478  1.00  0.00    -0.486 Na 
HETATM    2 NA   UNL     2      -8.142  11.618  65.211  1.00  0.00    -0.358 Na 
HETATM    3  O   UNL     3      -9.125  13.420  66.414  1.00  0.00    -0.431 OA 
HETATM    4  H   UNL     3      -8.718  13.319  67.266  1.00  0.00     0.000 HD 
HETATM    5  C   UNL     3     -10.524  12.988  66.500  1.00  0.00    -0.277 C  
HETATM    6  O   UNL     3     -11.234  13.318  68.735  1.00  0.00    -0.248 OA 
HETATM    7  C   UNL     3     -11.251  13.833  67.567  1.00  0.00    -0.294 C  
HETATM    8  O   UNL     3     -11.711  14.946  67.215  1.00  0.00    -0.362 OA 
ENDROOT
BRANCH   5   9
HETATM    9  C   UNL     3     -11.180  13.150  65.125  1.00  0.00    -0.294 C  
HETATM   10  C   UNL     3     -10.824  11.904  64.266  1.00  0.00    -0.344 C  
HETATM   11  O   UNL     3     -10.657  14.370  64.546  1.00  0.00    -0.592 OA 
HETATM   12  H   UNL     3     -11.064  14.471  63.694  1.00  0.00     0.000 HD 
HETATM   13  O   UNL     3     -10.763  12.031  63.018  1.00  0.00    -0.294 OA 
HETATM   14  O   UNL     3     -10.437  10.871  64.916  1.00  0.00    -0.311 OA 
ENDBRANCH   5   9
TORSDOF 1
ENDMDL
MODEL       51
REMARK 921   NORMALIZED FREE ENERGY PREDICTED BY IDOCK:   -4.07 KCAL/MOL
REMARK 922        TOTAL FREE ENERGY PREDICTED BY IDOCK:   -4.91 KCAL/MOL
REMARK 923 INTER-LIGAND FREE ENERGY PREDICTED BY IDOCK:   -4.33 KCAL/MOL
REMARK 924 INTRA-LIGAND FREE ENERGY PREDICTED BY IDOCK:   -0.59 KCAL/MOL
REMARK 927      BINDING AFFINITY PREDICTED BY RF-SCORE:    0.00 PKD
ROOT
HETATM    1 NA   UNL     1     -13.477  11.038  72.588  1.00  0.00    -0.567 Na 
HETATM    2 NA   UNL     2     -10.214  11.101  67.435  1.00  0.00    -0.169 Na 
HETATM    3  O   UNL     3     -10.417  12.386  69.427  1.00  0.00    -0.423 OA 
HETATM    4  H   UNL     3     -10.335  11.712  70.092  1.00  0.00     0.000 HD 
HETATM    5  C   UNL     3     -11.817  12.818  69.358  1.00  0.00    -0.300 C  
HETATM    6  O   UNL     3     -12.781  12.456  71.490  1.00  0.00    -0.323 OA 
HETATM    7  C   UNL     3     -12.254  13.345  70.740  1.00  0.00    -0.328 C  
HETATM    8  O   UNL     3     -11.993  14.540  71.018  1.00  0.00    -0.316 OA 
ENDROOT
BRANCH   5   9
HETATM    9  C   UNL     3     -11.949  13.904  68.285  1.00  0.00    -0.357 C  
HETATM   10  C   UNL     3     -11.896  13.220  66.890  1.00  0.00    -0.392 C  
HETATM   11  O   UNL     3     -10.847  14.824  68.475  1.00  0.00    -0.238 OA 
HETATM   12  H   UNL     3     -10.929  15.498  67.810  1.00  0.00     0.000 HD 
HETATM   13  O   UNL     3     -11.449  13.873  65.915  1.00  0.00    -0.313 OA 
HETATM   14  O   UNL     3     -12.147  11.964  66.875  1.00  0.00    -0.599 OA 
ENDBRANCH   5   9
TORSDOF 1
ENDMDL
MODEL       52
REMARK 921   NORMALIZED FREE ENERGY PREDICTED BY IDOCK:   -4.04 KCAL/MOL
REMARK 922        TOTAL FREE ENERGY PREDICTED BY IDOCK:   -4.88 KCAL/MOL
REMARK 923 INTER-LIGAND FREE ENERGY PREDICTED BY IDOCK:   -4.27 KCAL/MOL
REMARK 924 INTRA-LIGAND FREE ENERGY PREDICTED BY IDOCK:   -0.61 KCAL/MOL
REMARK 927      BINDING AFFINITY PREDICTED BY RF-SCORE:    0.00 PKD
ROOT
HETATM    1 NA   UNL     1      -9.170  18.605  67.324  1.00  0.00    -0.264 Na 
HETATM    2 NA   UNL     2     -13.533  14.409  66.569  1.00  0.00    -0.555 Na 
HETATM    3  O   UNL     3     -12.250  15.342  68.343  1.00  0.00    -0.535 OA 
HETATM    4  H   UNL     3     -12.386  16.272  68.201  1.00  0.00     0.000 HD 
HETATM    5  C   UNL     3     -10.885  14.993  67.934  1.00  0.00    -0.280 C  
HETATM    6  O   UNL     3      -9.548  16.931  68.192  1.00  0.00    -0.243 OA 
HETATM    7  C   UNL     3      -9.882  15.833  68.752  1.00  0.00    -0.214 C  
HETATM    8  O   UNL     3      -9.554  15.408  69.887  1.00  0.00    -0.259 OA 
ENDROOT
BRANCH   5   9
HETATM    9  C   UNL     3     -10.667  13.494  68.162  1.00  0.00    -0.252 C  
HETATM   10  C   UNL     3     -11.394  12.718  67.028  1.00  0.00    -0.314 C  
HETATM   11  O   UNL     3     -11.214  13.178  69.466  1.00  0.00    -0.416 OA 
HETATM   12  H   UNL     3     -11.078  12.249  69.607  1.00  0.00     0.000 HD 
HETATM   13  O   UNL     3     -11.819  11.561  67.267  1.00  0.00    -0.609 OA 
HETATM   14  O   UNL     3     -11.669  13.396  65.976  1.00  0.00    -0.333 OA 
ENDBRANCH   5   9
TORSDOF 1
ENDMDL
MODEL       53
REMARK 921   NORMALIZED FREE ENERGY PREDICTED BY IDOCK:   -4.03 KCAL/MOL
REMARK 922        TOTAL FREE ENERGY PREDICTED BY IDOCK:   -4.87 KCAL/MOL
REMARK 923 INTER-LIGAND FREE ENERGY PREDICTED BY IDOCK:   -4.60 KCAL/MOL
REMARK 924 INTRA-LIGAND FREE ENERGY PREDICTED BY IDOCK:   -0.27 KCAL/MOL
REMARK 927      BINDING AFFINITY PREDICTED BY RF-SCORE:    0.00 PKD
ROOT
HETATM    1 NA   UNL     1     -14.044  14.291  65.271  1.00  0.00    -0.761 Na 
HETATM    2 NA   UNL     2     -11.253  18.081  69.150  1.00  0.00    -0.262 Na 
HETATM    3  O   UNL     3     -10.712  16.189  67.813  1.00  0.00    -0.311 OA 
HETATM    4  H   UNL     3     -11.046  16.458  66.966  1.00  0.00     0.000 HD 
HETATM    5  C   UNL     3     -11.603  15.167  68.374  1.00  0.00    -0.337 C  
HETATM    6  O   UNL     3     -12.637  14.050  66.559  1.00  0.00    -0.393 OA 
HETATM    7  C   UNL     3     -11.679  13.972  67.401  1.00  0.00    -0.388 C  
HETATM    8  O   UNL     3     -10.780  13.100  67.476  1.00  0.00    -0.235 OA 
ENDROOT
BRANCH   5   9
HETATM    9  C   UNL     3     -11.063  14.734  69.740  1.00  0.00    -0.258 C  
HETATM   10  C   UNL     3     -11.964  15.361  70.841  1.00  0.00    -0.359 C  
HETATM   11  O   UNL     3      -9.697  15.208  69.828  1.00  0.00    -0.415 OA 
HETATM   12  H   UNL     3      -9.362  14.939  70.675  1.00  0.00     0.000 HD 
HETATM   13  O   UNL     3     -11.458  15.612  71.963  1.00  0.00    -0.415 OA 
HETATM   14  O   UNL     3     -13.124  15.746  70.460  1.00  0.00    -0.461 OA 
ENDBRANCH   5   9
TORSDOF 1
ENDMDL
MODEL       54
REMARK 921   NORMALIZED FREE ENERGY PREDICTED BY IDOCK:   -4.02 KCAL/MOL
REMARK 922        TOTAL FREE ENERGY PREDICTED BY IDOCK:   -4.86 KCAL/MOL
REMARK 923 INTER-LIGAND FREE ENERGY PREDICTED BY IDOCK:   -4.21 KCAL/MOL
REMARK 924 INTRA-LIGAND FREE ENERGY PREDICTED BY IDOCK:   -0.66 KCAL/MOL
REMARK 927      BINDING AFFINITY PREDICTED BY RF-SCORE:    0.00 PKD
ROOT
HETATM    1 NA   UNL     1     -10.067  10.659  70.828  1.00  0.00    -0.371 Na 
HETATM    2 NA   UNL     2     -11.749  16.348  69.409  1.00  0.00    -0.284 Na 
HETATM    3  O   UNL     3     -12.486  14.122  69.005  1.00  0.00    -0.531 OA 
HETATM    4  H   UNL     3     -12.513  13.772  69.888  1.00  0.00     0.000 HD 
HETATM    5  C   UNL     3     -11.332  13.552  68.302  1.00  0.00    -0.294 C  
HETATM    6  O   UNL     3     -10.880  11.439  69.270  1.00  0.00    -0.228 OA 
HETATM    7  C   UNL     3     -11.457  12.015  68.286  1.00  0.00    -0.303 C  
HETATM    8  O   UNL     3     -12.152  11.495  67.380  1.00  0.00    -0.593 OA 
ENDROOT
BRANCH   5   9
HETATM    9  C   UNL     3     -11.290  14.118  66.878  1.00  0.00    -0.331 C  
HETATM   10  C   UNL     3     -10.584  15.502  66.925  1.00  0.00    -0.307 C  
HETATM   11  O   UNL     3     -12.661  14.228  66.424  1.00  0.00    -0.526 OA 
HETATM   12  H   UNL     3     -12.635  14.578  65.541  1.00  0.00     0.000 HD 
HETATM   13  O   UNL     3     -10.893  16.365  66.067  1.00  0.00    -0.225 OA 
HETATM   14  O   UNL     3      -9.862  15.725  67.959  1.00  0.00    -0.215 OA 
ENDBRANCH   5   9
TORSDOF 1
ENDMDL
MODEL       55
REMARK 921   NORMALIZED FREE ENERGY PREDICTED BY IDOCK:   -4.02 KCAL/MOL
REMARK 922        TOTAL FREE ENERGY PREDICTED BY IDOCK:   -4.86 KCAL/MOL
REMARK 923 INTER-LIGAND FREE ENERGY PREDICTED BY IDOCK:   -4.68 KCAL/MOL
REMARK 924 INTRA-LIGAND FREE ENERGY PREDICTED BY IDOCK:   -0.18 KCAL/MOL
REMARK 927      BINDING AFFINITY PREDICTED BY RF-SCORE:    0.00 PKD
ROOT
HETATM    1 NA   UNL     1     -13.396  10.168  69.387  1.00  0.00    -0.578 Na 
HETATM    2 NA   UNL     2     -13.961  14.469  65.099  1.00  0.00    -0.693 Na 
HETATM    3  O   UNL     3     -12.699  12.488  65.475  1.00  0.00    -0.583 OA 
HETATM    4  H   UNL     3     -13.386  11.868  65.690  1.00  0.00     0.000 HD 
HETATM    5  C   UNL     3     -11.969  12.832  66.700  1.00  0.00    -0.341 C  
HETATM    6  O   UNL     3     -12.147  10.990  68.177  1.00  0.00    -0.610 OA 
HETATM    7  C   UNL     3     -11.383  11.546  67.319  1.00  0.00    -0.290 C  
HETATM    8  O   UNL     3     -10.279  11.139  66.882  1.00  0.00    -0.207 OA 
ENDROOT
BRANCH   5   9
HETATM    9  C   UNL     3     -10.861  13.832  66.353  1.00  0.00    -0.287 C  
HETATM   10  C   UNL     3     -10.681  14.797  67.558  1.00  0.00    -0.269 C  
HETATM   11  O   UNL     3     -11.283  14.536  65.159  1.00  0.00    -0.332 OA 
HETATM   12  H   UNL     3     -10.596  15.156  64.944  1.00  0.00     0.000 HD 
HETATM   13  O   UNL     3     -10.271  15.964  67.340  1.00  0.00    -0.259 OA 
HETATM   14  O   UNL     3     -11.141  14.381  68.679  1.00  0.00    -0.233 OA 
ENDBRANCH   5   9
TORSDOF 1
ENDMDL
MODEL       56
REMARK 921   NORMALIZED FREE ENERGY PREDICTED BY IDOCK:   -4.01 KCAL/MOL
REMARK 922        TOTAL FREE ENERGY PREDICTED BY IDOCK:   -4.85 KCAL/MOL
REMARK 923 INTER-LIGAND FREE ENERGY PREDICTED BY IDOCK:   -4.19 KCAL/MOL
REMARK 924 INTRA-LIGAND FREE ENERGY PREDICTED BY IDOCK:   -0.65 KCAL/MOL
REMARK 927      BINDING AFFINITY PREDICTED BY RF-SCORE:    0.00 PKD
ROOT
HETATM    1 NA   UNL     1     -13.064  15.809  69.668  1.00  0.00    -0.559 Na 
HETATM    2 NA   UNL     2      -9.988  20.774  67.910  1.00  0.00    -0.360 Na 
HETATM    3  O   UNL     3     -10.760  18.732  66.963  1.00  0.00    -0.416 OA 
HETATM    4  H   UNL     3     -11.675  18.744  67.216  1.00  0.00     0.000 HD 
HETATM    5  C   UNL     3     -10.053  17.741  67.782  1.00  0.00    -0.345 C  
HETATM    6  O   UNL     3     -11.627  16.091  68.421  1.00  0.00    -0.364 OA 
HETATM    7  C   UNL     3     -10.704  16.358  67.579  1.00  0.00    -0.298 C  
HETATM    8  O   UNL     3     -10.331  15.676  66.593  1.00  0.00    -0.275 OA 
ENDROOT
BRANCH   5   9
HETATM    9  C   UNL     3      -8.576  17.723  67.374  1.00  0.00    -0.231 C  
HETATM   10  C   UNL     3      -7.868  18.928  68.053  1.00  0.00    -0.277 C  
HETATM   11  O   UNL     3      -8.533  17.818  65.929  1.00  0.00    -0.522 OA 
HETATM   12  H   UNL     3      -7.618  17.805  65.676  1.00  0.00     0.000 HD 
HETATM   13  O   UNL     3      -6.869  19.436  67.487  1.00  0.00    -0.203 OA 
HETATM   14  O   UNL     3      -8.473  19.435  69.062  1.00  0.00    -0.345 OA 
ENDBRANCH   5   9
TORSDOF 1
ENDMDL
MODEL       57
REMARK 921   NORMALIZED FREE ENERGY PREDICTED BY IDOCK:   -3.97 KCAL/MOL
REMARK 922        TOTAL FREE ENERGY PREDICTED BY IDOCK:   -4.81 KCAL/MOL
REMARK 923 INTER-LIGAND FREE ENERGY PREDICTED BY IDOCK:   -4.15 KCAL/MOL
REMARK 924 INTRA-LIGAND FREE ENERGY PREDICTED BY IDOCK:   -0.66 KCAL/MOL
REMARK 927      BINDING AFFINITY PREDICTED BY RF-SCORE:    0.00 PKD
ROOT
HETATM    1 NA   UNL     1     -11.160  13.623  70.630  1.00  0.00    -0.477 Na 
HETATM    2 NA   UNL     2      -9.211  18.968  68.431  1.00  0.00    -0.272 Na 
HETATM    3  O   UNL     3     -10.829  17.308  67.895  1.00  0.00    -0.369 OA 
HETATM    4  H   UNL     3     -11.282  17.216  68.725  1.00  0.00     0.000 HD 
HETATM    5  C   UNL     3      -9.982  16.129  67.683  1.00  0.00    -0.241 C  
HETATM    6  O   UNL     3     -10.973  14.321  68.848  1.00  0.00    -0.242 OA 
HETATM    7  C   UNL     3     -10.864  14.863  67.697  1.00  0.00    -0.286 C  
HETATM    8  O   UNL     3     -11.433  14.536  66.627  1.00  0.00    -0.347 OA 
ENDROOT
BRANCH   5   9
HETATM    9  C   UNL     3      -9.251  16.278  66.345  1.00  0.00    -0.299 C  
HETATM   10  C   UNL     3      -8.021  17.204  66.563  1.00  0.00    -0.289 C  
HETATM   11  O   UNL     3     -10.194  16.849  65.406  1.00  0.00    -0.605 OA 
HETATM   12  H   UNL     3      -9.741  16.941  64.576  1.00  0.00     0.000 HD 
HETATM   13  O   UNL     3      -7.607  17.893  65.598  1.00  0.00    -0.546 OA 
HETATM   14  O   UNL     3      -7.628  17.333  67.775  1.00  0.00    -0.175 OA 
ENDBRANCH   5   9
TORSDOF 1
ENDMDL
MODEL       58
REMARK 921   NORMALIZED FREE ENERGY PREDICTED BY IDOCK:   -3.96 KCAL/MOL
REMARK 922        TOTAL FREE ENERGY PREDICTED BY IDOCK:   -4.80 KCAL/MOL
REMARK 923 INTER-LIGAND FREE ENERGY PREDICTED BY IDOCK:   -4.14 KCAL/MOL
REMARK 924 INTRA-LIGAND FREE ENERGY PREDICTED BY IDOCK:   -0.66 KCAL/MOL
REMARK 927      BINDING AFFINITY PREDICTED BY RF-SCORE:    0.00 PKD
ROOT
HETATM    1 NA   UNL     1     -12.227  16.186  63.237  1.00  0.00    -0.896 Na 
HETATM    2 NA   UNL     2     -10.577  13.777  68.592  1.00  0.00    -0.205 Na 
HETATM    3  O   UNL     3     -10.954  15.929  67.650  1.00  0.00    -0.322 OA 
HETATM    4  H   UNL     3     -11.816  15.817  67.268  1.00  0.00     0.000 HD 
HETATM    5  C   UNL     3      -9.956  15.959  66.575  1.00  0.00    -0.272 C  
HETATM    6  O   UNL     3     -11.033  16.768  64.627  1.00  0.00    -0.839 OA 
HETATM    7  C   UNL     3     -10.289  17.113  65.607  1.00  0.00    -0.183 C  
HETATM    8  O   UNL     3      -9.875  18.260  65.901  1.00  0.00    -0.527 OA 
ENDROOT
BRANCH   5   9
HETATM    9  C   UNL     3      -8.566  16.141  67.193  1.00  0.00    -0.187 C  
HETATM   10  C   UNL     3      -8.046  14.746  67.640  1.00  0.00    -0.170 C  
HETATM   11  O   UNL     3      -8.714  17.045  68.315  1.00  0.00    -0.225 OA 
HETATM   12  H   UNL     3      -7.852  17.158  68.698  1.00  0.00     0.000 HD 
HETATM   13  O   UNL     3      -7.247  14.682  68.607  1.00  0.00    -0.108 OA 
HETATM   14  O   UNL     3      -8.619  13.737  67.098  1.00  0.00    -0.206 OA 
ENDBRANCH   5   9
TORSDOF 1
ENDMDL
MODEL       59
REMARK 921   NORMALIZED FREE ENERGY PREDICTED BY IDOCK:   -3.94 KCAL/MOL
REMARK 922        TOTAL FREE ENERGY PREDICTED BY IDOCK:   -4.78 KCAL/MOL
REMARK 923 INTER-LIGAND FREE ENERGY PREDICTED BY IDOCK:   -4.17 KCAL/MOL
REMARK 924 INTRA-LIGAND FREE ENERGY PREDICTED BY IDOCK:   -0.61 KCAL/MOL
REMARK 927      BINDING AFFINITY PREDICTED BY RF-SCORE:    0.00 PKD
ROOT
HETATM    1 NA   UNL     1      -7.646  17.802  67.499  1.00  0.00    -0.180 Na 
HETATM    2 NA   UNL     2     -10.426  14.721  71.969  1.00  0.00    -0.545 Na 
HETATM    3  O   UNL     3     -10.125  14.555  69.615  1.00  0.00    -0.425 OA 
HETATM    4  H   UNL     3      -9.182  14.636  69.542  1.00  0.00     0.000 HD 
HETATM    5  C   UNL     3     -10.748  15.799  69.150  1.00  0.00    -0.246 C  
HETATM    6  O   UNL     3      -9.277  16.786  67.577  1.00  0.00    -0.213 OA 
HETATM    7  C   UNL     3     -10.324  16.063  67.690  1.00  0.00    -0.284 C  
HETATM    8  O   UNL     3     -10.981  15.500  66.781  1.00  0.00    -0.314 OA 
ENDROOT
BRANCH   5   9
HETATM    9  C   UNL     3     -12.269  15.667  69.268  1.00  0.00    -0.142 C  
HETATM   10  C   UNL     3     -12.657  15.827  70.765  1.00  0.00    -0.357 C  
HETATM   11  O   UNL     3     -12.624  14.360  68.757  1.00  0.00    -0.548 OA 
HETATM   12  H   UNL     3     -13.568  14.278  68.830  1.00  0.00     0.000 HD 
HETATM   13  O   UNL     3     -13.689  15.247  71.185  1.00  0.00    -0.467 OA 
HETATM   14  O   UNL     3     -11.784  16.396  71.510  1.00  0.00    -0.448 OA 
ENDBRANCH   5   9
TORSDOF 1
ENDMDL
MODEL       60
REMARK 921   NORMALIZED FREE ENERGY PREDICTED BY IDOCK:   -3.93 KCAL/MOL
REMARK 922        TOTAL FREE ENERGY PREDICTED BY IDOCK:   -4.77 KCAL/MOL
REMARK 923 INTER-LIGAND FREE ENERGY PREDICTED BY IDOCK:   -4.11 KCAL/MOL
REMARK 924 INTRA-LIGAND FREE ENERGY PREDICTED BY IDOCK:   -0.66 KCAL/MOL
REMARK 927      BINDING AFFINITY PREDICTED BY RF-SCORE:    0.00 PKD
ROOT
HETATM    1 NA   UNL     1     -13.153  14.462  62.895  1.00  0.00    -0.838 Na 
HETATM    2 NA   UNL     2     -10.402  17.662  67.299  1.00  0.00    -0.276 Na 
HETATM    3  O   UNL     3      -9.873  15.912  65.777  1.00  0.00    -0.319 OA 
HETATM    4  H   UNL     3     -10.157  16.290  64.953  1.00  0.00     0.000 HD 
HETATM    5  C   UNL     3     -10.828  14.873  66.178  1.00  0.00    -0.327 C  
HETATM    6  O   UNL     3     -11.818  14.015  64.205  1.00  0.00    -0.421 OA 
HETATM    7  C   UNL     3     -10.905  13.801  65.072  1.00  0.00    -0.371 C  
HETATM    8  O   UNL     3     -10.044  12.887  65.084  1.00  0.00    -0.278 OA 
ENDROOT
BRANCH   5   9
HETATM    9  C   UNL     3     -10.370  14.264  67.507  1.00  0.00    -0.248 C  
HETATM   10  C   UNL     3     -10.815  15.212  68.656  1.00  0.00    -0.245 C  
HETATM   11  O   UNL     3      -8.928  14.138  67.442  1.00  0.00    -0.183 OA 
HETATM   12  H   UNL     3      -8.644  13.760  68.266  1.00  0.00     0.000 HD 
HETATM   13  O   UNL     3     -10.135  15.241  69.711  1.00  0.00    -0.255 OA 
HETATM   14  O   UNL     3     -11.752  16.037  68.367  1.00  0.00    -0.346 OA 
ENDBRANCH   5   9
TORSDOF 1
ENDMDL
MODEL       61
REMARK 921   NORMALIZED FREE ENERGY PREDICTED BY IDOCK:   -3.93 KCAL/MOL
REMARK 922        TOTAL FREE ENERGY PREDICTED BY IDOCK:   -4.76 KCAL/MOL
REMARK 923 INTER-LIGAND FREE ENERGY PREDICTED BY IDOCK:   -4.11 KCAL/MOL
REMARK 924 INTRA-LIGAND FREE ENERGY PREDICTED BY IDOCK:   -0.66 KCAL/MOL
REMARK 927      BINDING AFFINITY PREDICTED BY RF-SCORE:    0.00 PKD
ROOT
HETATM    1 NA   UNL     1     -11.581  17.290  71.180  1.00  0.00    -0.619 Na 
HETATM    2 NA   UNL     2     -11.005  14.693  65.692  1.00  0.00    -0.286 Na 
HETATM    3  O   UNL     3     -12.360  14.465  67.634  1.00  0.00    -0.619 OA 
HETATM    4  H   UNL     3     -12.652  15.360  67.763  1.00  0.00     0.000 HD 
HETATM    5  C   UNL     3     -11.359  14.139  68.655  1.00  0.00    -0.277 C  
HETATM    6  O   UNL     3     -11.809  15.488  70.549  1.00  0.00    -0.297 OA 
HETATM    7  C   UNL     3     -11.984  14.324  70.054  1.00  0.00    -0.334 C  
HETATM    8  O   UNL     3     -12.647  13.369  70.528  1.00  0.00    -0.286 OA 
ENDROOT
BRANCH   5   9
HETATM    9  C   UNL     3     -10.889  12.696  68.446  1.00  0.00    -0.245 C  
HETATM   10  C   UNL     3      -9.838  12.688  67.301  1.00  0.00    -0.206 C  
HETATM   11  O   UNL     3     -12.059  11.912  68.109  1.00  0.00    -0.516 OA 
HETATM   12  H   UNL     3     -11.767  11.017  67.980  1.00  0.00     0.000 HD 
HETATM   13  O   UNL     3      -9.718  11.652  66.601  1.00  0.00    -0.195 OA 
HETATM   14  O   UNL     3      -9.291  13.815  67.037  1.00  0.00    -0.229 OA 
ENDBRANCH   5   9
TORSDOF 1
ENDMDL
MODEL       62
REMARK 921   NORMALIZED FREE ENERGY PREDICTED BY IDOCK:   -3.90 KCAL/MOL
REMARK 922        TOTAL FREE ENERGY PREDICTED BY IDOCK:   -4.74 KCAL/MOL
REMARK 923 INTER-LIGAND FREE ENERGY PREDICTED BY IDOCK:   -4.11 KCAL/MOL
REMARK 924 INTRA-LIGAND FREE ENERGY PREDICTED BY IDOCK:   -0.63 KCAL/MOL
REMARK 927      BINDING AFFINITY PREDICTED BY RF-SCORE:    0.00 PKD
ROOT
HETATM    1 NA   UNL     1     -11.414  17.226  71.049  1.00  0.00    -0.600 Na 
HETATM    2 NA   UNL     2     -11.725  12.324  67.432  1.00  0.00    -0.248 Na 
HETATM    3  O   UNL     3     -10.138  13.991  68.036  1.00  0.00    -0.227 OA 
HETATM    4  H   UNL     3     -10.173  13.946  68.985  1.00  0.00     0.000 HD 
HETATM    5  C   UNL     3     -10.813  15.215  67.592  1.00  0.00    -0.295 C  
HETATM    6  O   UNL     3     -10.637  16.801  69.342  1.00  0.00    -0.324 OA 
HETATM    7  C   UNL     3     -10.121  16.436  68.232  1.00  0.00    -0.248 C  
HETATM    8  O   UNL     3      -9.103  16.897  67.659  1.00  0.00    -0.220 OA 
ENDROOT
BRANCH   5   9
HETATM    9  C   UNL     3     -10.756  15.286  66.063  1.00  0.00    -0.320 C  
HETATM   10  C   UNL     3     -11.829  14.318  65.490  1.00  0.00    -0.363 C  
HETATM   11  O   UNL     3      -9.417  14.898  65.669  1.00  0.00    -0.466 OA 
HETATM   12  H   UNL     3      -9.381  14.942  64.720  1.00  0.00     0.000 HD 
HETATM   13  O   UNL     3     -11.632  13.798  64.364  1.00  0.00    -0.380 OA 
HETATM   14  O   UNL     3     -12.762  13.978  66.299  1.00  0.00    -0.414 OA 
ENDBRANCH   5   9
TORSDOF 1
ENDMDL
MODEL       63
REMARK 921   NORMALIZED FREE ENERGY PREDICTED BY IDOCK:   -3.90 KCAL/MOL
REMARK 922        TOTAL FREE ENERGY PREDICTED BY IDOCK:   -4.73 KCAL/MOL
REMARK 923 INTER-LIGAND FREE ENERGY PREDICTED BY IDOCK:   -4.08 KCAL/MOL
REMARK 924 INTRA-LIGAND FREE ENERGY PREDICTED BY IDOCK:   -0.65 KCAL/MOL
REMARK 927      BINDING AFFINITY PREDICTED BY RF-SCORE:    0.00 PKD
ROOT
HETATM    1 NA   UNL     1     -10.568   8.480  65.710  1.00  0.00    -0.429 Na 
HETATM    2 NA   UNL     2     -11.441  14.063  63.414  1.00  0.00    -0.580 Na 
HETATM    3  O   UNL     3      -9.653  12.759  64.288  1.00  0.00    -0.527 OA 
HETATM    4  H   UNL     3      -9.737  11.962  63.777  1.00  0.00     0.000 HD 
HETATM    5  C   UNL     3     -10.118  12.499  65.654  1.00  0.00    -0.269 C  
HETATM    6  O   UNL     3      -9.787  10.195  66.093  1.00  0.00    -0.209 OA 
HETATM    7  C   UNL     3      -9.282  11.355  66.265  1.00  0.00    -0.208 C  
HETATM    8  O   UNL     3      -8.182  11.654  66.793  1.00  0.00    -0.164 OA 
ENDROOT
BRANCH   5   9
HETATM    9  C   UNL     3      -9.982  13.784  66.477  1.00  0.00    -0.288 C  
HETATM   10  C   UNL     3     -11.179  14.713  66.130  1.00  0.00    -0.341 C  
HETATM   11  O   UNL     3      -8.713  14.385  66.122  1.00  0.00    -0.424 OA 
HETATM   12  H   UNL     3      -8.629  15.181  66.633  1.00  0.00     0.000 HD 
HETATM   13  O   UNL     3     -11.024  15.956  66.226  1.00  0.00    -0.244 OA 
HETATM   14  O   UNL     3     -12.191  14.142  65.591  1.00  0.00    -0.401 OA 
ENDBRANCH   5   9
TORSDOF 1
ENDMDL
MODEL       64
REMARK 921   NORMALIZED FREE ENERGY PREDICTED BY IDOCK:   -3.89 KCAL/MOL
REMARK 922        TOTAL FREE ENERGY PREDICTED BY IDOCK:   -4.72 KCAL/MOL
REMARK 923 INTER-LIGAND FREE ENERGY PREDICTED BY IDOCK:   -4.06 KCAL/MOL
REMARK 924 INTRA-LIGAND FREE ENERGY PREDICTED BY IDOCK:   -0.65 KCAL/MOL
REMARK 927      BINDING AFFINITY PREDICTED BY RF-SCORE:    0.00 PKD
ROOT
HETATM    1 NA   UNL     1      -9.599  12.789  69.301  1.00  0.00    -0.377 Na 
HETATM    2 NA   UNL     2      -7.540  17.866  66.621  1.00  0.00    -0.170 Na 
HETATM    3  O   UNL     3      -8.538  17.223  68.682  1.00  0.00    -0.269 OA 
HETATM    4  H   UNL     3      -7.976  16.503  68.944  1.00  0.00     0.000 HD 
HETATM    5  C   UNL     3      -9.825  16.682  68.231  1.00  0.00    -0.253 C  
HETATM    6  O   UNL     3     -10.167  14.626  69.354  1.00  0.00    -0.185 OA 
HETATM    7  C   UNL     3     -10.462  15.868  69.375  1.00  0.00    -0.265 C  
HETATM    8  O   UNL     3     -11.129  16.493  70.236  1.00  0.00    -0.348 OA 
ENDROOT
BRANCH   5   9
HETATM    9  C   UNL     3     -10.730  17.844  67.808  1.00  0.00    -0.326 C  
HETATM   10  C   UNL     3     -10.386  18.219  66.339  1.00  0.00    -0.400 C  
HETATM   11  O   UNL     3     -10.469  18.940  68.719  1.00  0.00    -0.455 OA 
HETATM   12  H   UNL     3     -11.030  19.659  68.457  1.00  0.00     0.000 HD 
HETATM   13  O   UNL     3     -10.565  19.404  65.963  1.00  0.00    -0.481 OA 
HETATM   14  O   UNL     3      -9.768  17.323  65.664  1.00  0.00    -0.535 OA 
ENDBRANCH   5   9
TORSDOF 1
ENDMDL
MODEL       65
REMARK 921   NORMALIZED FREE ENERGY PREDICTED BY IDOCK:   -3.86 KCAL/MOL
REMARK 922        TOTAL FREE ENERGY PREDICTED BY IDOCK:   -4.69 KCAL/MOL
REMARK 923 INTER-LIGAND FREE ENERGY PREDICTED BY IDOCK:   -4.04 KCAL/MOL
REMARK 924 INTRA-LIGAND FREE ENERGY PREDICTED BY IDOCK:   -0.66 KCAL/MOL
REMARK 927      BINDING AFFINITY PREDICTED BY RF-SCORE:    0.00 PKD
ROOT
HETATM    1 NA   UNL     1     -13.792  12.957  71.388  1.00  0.00    -0.333 Na 
HETATM    2 NA   UNL     2      -9.976   8.524  69.659  1.00  0.00    -0.171 Na 
HETATM    3  O   UNL     3     -12.268   8.768  70.247  1.00  0.00    -0.403 OA 
HETATM    4  H   UNL     3     -12.530   9.486  69.682  1.00  0.00     0.000 HD 
HETATM    5  C   UNL     3     -12.167   9.261  71.626  1.00  0.00    -0.370 C  
HETATM    6  O   UNL     3     -13.654  11.092  71.837  1.00  0.00    -0.242 OA 
HETATM    7  C   UNL     3     -13.531   9.840  72.057  1.00  0.00    -0.407 C  
HETATM    8  O   UNL     3     -14.390   9.040  72.501  1.00  0.00    -0.570 OA 
ENDROOT
BRANCH   5   9
HETATM    9  C   UNL     3     -11.745   8.104  72.536  1.00  0.00    -0.394 C  
HETATM   10  C   UNL     3     -10.197   7.979  72.479  1.00  0.00    -0.294 C  
HETATM   11  O   UNL     3     -12.400   6.911  72.040  1.00  0.00    -0.398 OA 
HETATM   12  H   UNL     3     -12.138   6.194  72.605  1.00  0.00     0.000 HD 
HETATM   13  O   UNL     3      -9.676   6.852  72.668  1.00  0.00    -0.149 OA 
HETATM   14  O   UNL     3      -9.569   9.013  72.058  1.00  0.00    -0.306 OA 
ENDBRANCH   5   9
TORSDOF 1
ENDMDL
MODEL       66
REMARK 921   NORMALIZED FREE ENERGY PREDICTED BY IDOCK:   -3.83 KCAL/MOL
REMARK 922        TOTAL FREE ENERGY PREDICTED BY IDOCK:   -4.66 KCAL/MOL
REMARK 923 INTER-LIGAND FREE ENERGY PREDICTED BY IDOCK:   -4.00 KCAL/MOL
REMARK 924 INTRA-LIGAND FREE ENERGY PREDICTED BY IDOCK:   -0.66 KCAL/MOL
REMARK 927      BINDING AFFINITY PREDICTED BY RF-SCORE:    0.00 PKD
ROOT
HETATM    1 NA   UNL     1      -9.815   4.096  72.898  1.00  0.00    -0.117 Na 
HETATM    2 NA   UNL     2     -14.360   7.417  70.550  1.00  0.00    -0.628 Na 
HETATM    3  O   UNL     3     -12.156   6.748  69.956  1.00  0.00    -0.650 OA 
HETATM    4  H   UNL     3     -12.205   5.808  70.086  1.00  0.00     0.000 HD 
HETATM    5  C   UNL     3     -11.366   7.337  71.043  1.00  0.00    -0.274 C  
HETATM    6  O   UNL     3      -9.858   5.680  71.808  1.00  0.00    -0.163 OA 
HETATM    7  C   UNL     3      -9.960   6.702  71.050  1.00  0.00    -0.183 C  
HETATM    8  O   UNL     3      -9.096   7.188  70.280  1.00  0.00    -0.155 OA 
ENDROOT
BRANCH   5   9
HETATM    9  C   UNL     3     -11.287   8.853  70.833  1.00  0.00    -0.283 C  
HETATM   10  C   UNL     3     -12.573   9.494  71.427  1.00  0.00    -0.359 C  
HETATM   11  O   UNL     3     -11.182   9.080  69.406  1.00  0.00    -0.439 OA 
HETATM   12  H   UNL     3     -11.133  10.019  69.276  1.00  0.00     0.000 HD 
HETATM   13  O   UNL     3     -12.996  10.567  70.929  1.00  0.00    -0.374 OA 
HETATM   14  O   UNL     3     -13.215   8.777  72.271  1.00  0.00    -0.378 OA 
ENDBRANCH   5   9
TORSDOF 1
ENDMDL
MODEL       67
REMARK 921   NORMALIZED FREE ENERGY PREDICTED BY IDOCK:   -3.82 KCAL/MOL
REMARK 922        TOTAL FREE ENERGY PREDICTED BY IDOCK:   -4.64 KCAL/MOL
REMARK 923 INTER-LIGAND FREE ENERGY PREDICTED BY IDOCK:   -3.99 KCAL/MOL
REMARK 924 INTRA-LIGAND FREE ENERGY PREDICTED BY IDOCK:   -0.65 KCAL/MOL
REMARK 927      BINDING AFFINITY PREDICTED BY RF-SCORE:    0.00 PKD
ROOT
HETATM    1 NA   UNL     1     -11.945  12.393  70.129  1.00  0.00    -0.244 Na 
HETATM    2 NA   UNL     2     -11.340  12.933  64.083  1.00  0.00    -0.302 Na 
HETATM    3  O   UNL     3     -10.070  13.381  66.045  1.00  0.00    -0.293 OA 
HETATM    4  H   UNL     3     -10.122  12.546  66.495  1.00  0.00     0.000 HD 
HETATM    5  C   UNL     3     -10.930  14.348  66.737  1.00  0.00    -0.314 C  
HETATM    6  O   UNL     3     -11.065  13.683  69.006  1.00  0.00    -0.251 OA 
HETATM    7  C   UNL     3     -10.468  14.477  68.204  1.00  0.00    -0.239 C  
HETATM    8  O   UNL     3      -9.528  15.271  68.452  1.00  0.00    -0.196 OA 
ENDROOT
BRANCH   5   9
HETATM    9  C   UNL     3     -10.847  15.694  66.011  1.00  0.00    -0.275 C  
HETATM   10  C   UNL     3     -11.856  15.673  64.829  1.00  0.00    -0.047 C  
HETATM   11  O   UNL     3      -9.482  15.846  65.551  1.00  0.00    -0.369 OA 
HETATM   12  H   UNL     3      -9.431  16.681  65.101  1.00  0.00     0.000 HD 
HETATM   13  O   UNL     3     -11.610  16.371  63.814  1.00  0.00    -1.055 OA 
HETATM   14  O   UNL     3     -12.784  14.794  64.904  1.00  0.00    -0.408 OA 
ENDBRANCH   5   9
TORSDOF 1
ENDMDL
MODEL       68
REMARK 921   NORMALIZED FREE ENERGY PREDICTED BY IDOCK:   -3.81 KCAL/MOL
REMARK 922        TOTAL FREE ENERGY PREDICTED BY IDOCK:   -4.64 KCAL/MOL
REMARK 923 INTER-LIGAND FREE ENERGY PREDICTED BY IDOCK:   -4.03 KCAL/MOL
REMARK 924 INTRA-LIGAND FREE ENERGY PREDICTED BY IDOCK:   -0.61 KCAL/MOL
REMARK 927      BINDING AFFINITY PREDICTED BY RF-SCORE:    0.00 PKD
ROOT
HETATM    1 NA   UNL     1      -6.458  18.285  64.521  1.00  0.00    -0.247 Na 
HETATM    2 NA   UNL     2     -11.190  14.500  63.826  1.00  0.00    -0.559 Na 
HETATM    3  O   UNL     3     -10.713  16.574  64.889  1.00  0.00    -0.702 OA 
HETATM    4  H   UNL     3     -10.324  17.064  64.174  1.00  0.00     0.000 HD 
HETATM    5  C   UNL     3      -9.657  16.187  65.831  1.00  0.00    -0.324 C  
HETATM    6  O   UNL     3      -7.927  17.794  65.661  1.00  0.00    -0.532 OA 
HETATM    7  C   UNL     3      -8.949  17.456  66.348  1.00  0.00    -0.246 C  
HETATM    8  O   UNL     3      -9.468  18.060  67.318  1.00  0.00    -0.254 OA 
ENDROOT
BRANCH   5   9
HETATM    9  C   UNL     3     -10.286  15.396  66.983  1.00  0.00    -0.262 C  
HETATM   10  C   UNL     3     -10.601  13.962  66.474  1.00  0.00    -0.279 C  
HETATM   11  O   UNL     3     -11.487  16.103  67.378  1.00  0.00    -0.033 OA 
HETATM   12  H   UNL     3     -11.876  15.613  68.093  1.00  0.00     0.000 HD 
HETATM   13  O   UNL     3     -11.556  13.334  66.995  1.00  0.00    -0.322 OA 
HETATM   14  O   UNL     3      -9.970  13.591  65.423  1.00  0.00    -0.273 OA 
ENDBRANCH   5   9
TORSDOF 1
ENDMDL
MODEL       69
REMARK 921   NORMALIZED FREE ENERGY PREDICTED BY IDOCK:   -3.77 KCAL/MOL
REMARK 922        TOTAL FREE ENERGY PREDICTED BY IDOCK:   -4.60 KCAL/MOL
REMARK 923 INTER-LIGAND FREE ENERGY PREDICTED BY IDOCK:   -3.94 KCAL/MOL
REMARK 924 INTRA-LIGAND FREE ENERGY PREDICTED BY IDOCK:   -0.66 KCAL/MOL
REMARK 927      BINDING AFFINITY PREDICTED BY RF-SCORE:    0.00 PKD
ROOT
HETATM    1 NA   UNL     1     -11.737  16.892  64.337  1.00  0.00    -0.442 Na 
HETATM    2 NA   UNL     2      -9.141  16.036  69.789  1.00  0.00    -0.226 Na 
HETATM    3  O   UNL     3     -10.246  17.774  68.599  1.00  0.00    -0.355 OA 
HETATM    4  H   UNL     3     -11.040  17.334  68.321  1.00  0.00     0.000 HD 
HETATM    5  C   UNL     3      -9.365  17.944  67.439  1.00  0.00    -0.257 C  
HETATM    6  O   UNL     3     -10.736  18.041  65.511  1.00  0.00    -0.597 OA 
HETATM    7  C   UNL     3     -10.103  18.758  66.356  1.00  0.00    -0.404 C  
HETATM    8  O   UNL     3     -10.074  20.010  66.447  1.00  0.00    -0.441 OA 
ENDROOT
BRANCH   5   9
HETATM    9  C   UNL     3      -8.084  18.654  67.888  1.00  0.00    -0.264 C  
HETATM   10  C   UNL     3      -7.137  17.597  68.522  1.00  0.00    -0.239 C  
HETATM   11  O   UNL     3      -8.474  19.669  68.845  1.00  0.00    -0.321 OA 
HETATM   12  H   UNL     3      -7.680  20.110  69.123  1.00  0.00     0.000 HD 
HETATM   13  O   UNL     3      -6.329  17.967  69.409  1.00  0.00    -0.244 OA 
HETATM   14  O   UNL     3      -7.380  16.377  68.217  1.00  0.00    -0.149 OA 
ENDBRANCH   5   9
TORSDOF 1
ENDMDL
MODEL       70
REMARK 921   NORMALIZED FREE ENERGY PREDICTED BY IDOCK:   -3.76 KCAL/MOL
REMARK 922        TOTAL FREE ENERGY PREDICTED BY IDOCK:   -4.58 KCAL/MOL
REMARK 923 INTER-LIGAND FREE ENERGY PREDICTED BY IDOCK:   -3.99 KCAL/MOL
REMARK 924 INTRA-LIGAND FREE ENERGY PREDICTED BY IDOCK:   -0.59 KCAL/MOL
REMARK 927      BINDING AFFINITY PREDICTED BY RF-SCORE:    0.00 PKD
ROOT
HETATM    1 NA   UNL     1     -11.573  14.975  69.323  1.00  0.00    -0.227 Na 
HETATM    2 NA   UNL     2     -11.497   8.921  68.589  1.00  0.00    -0.432 Na 
HETATM    3  O   UNL     3     -12.948  10.587  69.471  1.00  0.00    -0.602 OA 
HETATM    4  H   UNL     3     -12.985  11.203  68.749  1.00  0.00     0.000 HD 
HETATM    5  C   UNL     3     -12.124  11.159  70.542  1.00  0.00    -0.381 C  
HETATM    6  O   UNL     3     -12.265  13.516  70.367  1.00  0.00    -0.339 OA 
HETATM    7  C   UNL     3     -12.734  12.503  70.988  1.00  0.00    -0.225 C  
HETATM    8  O   UNL     3     -13.657  12.472  71.838  1.00  0.00    -0.368 OA 
ENDROOT
BRANCH   5   9
HETATM    9  C   UNL     3     -12.064  10.165  71.706  1.00  0.00    -0.174 C  
HETATM   10  C   UNL     3     -10.870   9.200  71.462  1.00  0.00    -0.366 C  
HETATM   11  O   UNL     3     -13.330   9.460  71.729  1.00  0.00    -0.367 OA 
HETATM   12  H   UNL     3     -13.293   8.845  72.451  1.00  0.00     0.000 HD 
HETATM   13  O   UNL     3     -10.932   8.036  71.929  1.00  0.00    -0.238 OA 
HETATM   14  O   UNL     3      -9.980   9.611  70.639  1.00  0.00    -0.273 OA 
ENDBRANCH   5   9
TORSDOF 1
ENDMDL
MODEL       71
REMARK 921   NORMALIZED FREE ENERGY PREDICTED BY IDOCK:   -3.76 KCAL/MOL
REMARK 922        TOTAL FREE ENERGY PREDICTED BY IDOCK:   -4.58 KCAL/MOL
REMARK 923 INTER-LIGAND FREE ENERGY PREDICTED BY IDOCK:   -3.94 KCAL/MOL
REMARK 924 INTRA-LIGAND FREE ENERGY PREDICTED BY IDOCK:   -0.64 KCAL/MOL
REMARK 927      BINDING AFFINITY PREDICTED BY RF-SCORE:    0.00 PKD
ROOT
HETATM    1 NA   UNL     1     -11.619   5.148  66.936  1.00  0.00    -0.398 Na 
HETATM    2 NA   UNL     2     -13.657   6.063  72.611  1.00  0.00    -0.528 Na 
HETATM    3  O   UNL     3     -12.800   7.346  70.801  1.00  0.00    -0.581 OA 
HETATM    4  H   UNL     3     -13.352   7.052  70.086  1.00  0.00     0.000 HD 
HETATM    5  C   UNL     3     -11.461   6.768  70.638  1.00  0.00    -0.351 C  
HETATM    6  O   UNL     3     -11.129   6.385  68.325  1.00  0.00    -0.308 OA 
HETATM    7  C   UNL     3     -10.885   7.203  69.274  1.00  0.00    -0.183 C  
HETATM    8  O   UNL     3     -10.312   8.318  69.211  1.00  0.00    -0.212 OA 
ENDROOT
BRANCH   5   9
HETATM    9  C   UNL     3     -10.572   7.243  71.791  1.00  0.00    -0.205 C  
HETATM   10  C   UNL     3     -10.783   6.284  72.996  1.00  0.00    -0.253 C  
HETATM   11  O   UNL     3     -10.972   8.599  72.106  1.00  0.00    -0.341 OA 
HETATM   12  H   UNL     3     -10.420   8.893  72.821  1.00  0.00     0.000 HD 
HETATM   13  O   UNL     3     -10.621   6.732  74.158  1.00  0.00    -0.312 OA 
HETATM   14  O   UNL     3     -11.289   5.141  72.717  1.00  0.00    -0.271 OA 
ENDBRANCH   5   9
TORSDOF 1
ENDMDL
MODEL       72
REMARK 921   NORMALIZED FREE ENERGY PREDICTED BY IDOCK:   -3.75 KCAL/MOL
REMARK 922        TOTAL FREE ENERGY PREDICTED BY IDOCK:   -4.57 KCAL/MOL
REMARK 923 INTER-LIGAND FREE ENERGY PREDICTED BY IDOCK:   -4.36 KCAL/MOL
REMARK 924 INTRA-LIGAND FREE ENERGY PREDICTED BY IDOCK:   -0.22 KCAL/MOL
REMARK 927      BINDING AFFINITY PREDICTED BY RF-SCORE:    0.00 PKD
ROOT
HETATM    1 NA   UNL     1     -10.175  14.783  71.452  1.00  0.00    -0.508 Na 
HETATM    2 NA   UNL     2      -8.093  12.556  66.169  1.00  0.00    -0.361 Na 
HETATM    3  O   UNL     3      -8.773  14.650  67.073  1.00  0.00    -0.215 OA 
HETATM    4  H   UNL     3      -8.254  14.687  67.867  1.00  0.00     0.000 HD 
HETATM    5  C   UNL     3     -10.169  14.378  67.429  1.00  0.00    -0.247 C  
HETATM    6  O   UNL     3     -10.525  15.221  69.613  1.00  0.00    -0.245 OA 
HETATM    7  C   UNL     3     -10.677  15.487  68.373  1.00  0.00    -0.263 C  
HETATM    8  O   UNL     3     -11.110  16.544  67.853  1.00  0.00    -0.319 OA 
ENDROOT
BRANCH   5   9
HETATM    9  C   UNL     3     -11.006  14.318  66.147  1.00  0.00    -0.313 C  
HETATM   10  C   UNL     3     -12.033  13.160  66.289  1.00  0.00    -0.415 C  
HETATM   11  O   UNL     3     -10.088  14.091  65.050  1.00  0.00    -0.513 OA 
HETATM   12  H   UNL     3     -10.606  14.054  64.255  1.00  0.00     0.000 HD 
HETATM   13  O   UNL     3     -12.428  12.574  65.251  1.00  0.00    -0.608 OA 
HETATM   14  O   UNL     3     -12.265  12.764  67.485  1.00  0.00    -0.348 OA 
ENDBRANCH   5   9
TORSDOF 1
ENDMDL
MODEL       73
REMARK 921   NORMALIZED FREE ENERGY PREDICTED BY IDOCK:   -3.73 KCAL/MOL
REMARK 922        TOTAL FREE ENERGY PREDICTED BY IDOCK:   -4.55 KCAL/MOL
REMARK 923 INTER-LIGAND FREE ENERGY PREDICTED BY IDOCK:   -3.94 KCAL/MOL
REMARK 924 INTRA-LIGAND FREE ENERGY PREDICTED BY IDOCK:   -0.62 KCAL/MOL
REMARK 927      BINDING AFFINITY PREDICTED BY RF-SCORE:    0.00 PKD
ROOT
HETATM    1 NA   UNL     1      -9.183   9.562  68.090  1.00  0.00    -0.125 Na 
HETATM    2 NA   UNL     2     -10.604  14.476  71.412  1.00  0.00    -0.503 Na 
HETATM    3  O   UNL     3     -11.651  13.026  69.844  1.00  0.00    -0.456 OA 
HETATM    4  H   UNL     3     -11.460  12.175  70.221  1.00  0.00     0.000 HD 
HETATM    5  C   UNL     3     -10.812  13.220  68.657  1.00  0.00    -0.259 C  
HETATM    6  O   UNL     3     -10.323  11.078  67.773  1.00  0.00    -0.178 OA 
HETATM    7  C   UNL     3     -11.094  12.088  67.647  1.00  0.00    -0.264 C  
HETATM    8  O   UNL     3     -12.069  12.229  66.869  1.00  0.00    -0.583 OA 
ENDROOT
BRANCH   5   9
HETATM    9  C   UNL     3     -11.120  14.592  68.050  1.00  0.00    -0.281 C  
HETATM   10  C   UNL     3     -10.221  15.648  68.751  1.00  0.00    -0.215 C  
HETATM   11  O   UNL     3     -12.528  14.850  68.275  1.00  0.00    -0.542 OA 
HETATM   12  H   UNL     3     -12.719  15.701  67.898  1.00  0.00     0.000 HD 
HETATM   13  O   UNL     3     -10.636  16.830  68.839  1.00  0.00    -0.310 OA 
HETATM   14  O   UNL     3      -9.189  15.189  69.355  1.00  0.00    -0.220 OA 
ENDBRANCH   5   9
TORSDOF 1
ENDMDL
MODEL       74
REMARK 921   NORMALIZED FREE ENERGY PREDICTED BY IDOCK:   -3.72 KCAL/MOL
REMARK 922        TOTAL FREE ENERGY PREDICTED BY IDOCK:   -4.55 KCAL/MOL
REMARK 923 INTER-LIGAND FREE ENERGY PREDICTED BY IDOCK:   -3.89 KCAL/MOL
REMARK 924 INTRA-LIGAND FREE ENERGY PREDICTED BY IDOCK:   -0.65 KCAL/MOL
REMARK 927      BINDING AFFINITY PREDICTED BY RF-SCORE:    0.00 PKD
ROOT
HETATM    1 NA   UNL     1     -11.668  15.812  74.049  1.00  0.00    -0.405 Na 
HETATM    2 NA   UNL     2     -11.421  17.365  68.155  1.00  0.00    -0.348 Na 
HETATM    3  O   UNL     3     -12.684  15.920  69.563  1.00  0.00    -0.491 OA 
HETATM    4  H   UNL     3     -12.949  16.517  70.252  1.00  0.00     0.000 HD 
HETATM    5  C   UNL     3     -11.641  15.029  70.081  1.00  0.00    -0.287 C  
HETATM    6  O   UNL     3     -11.967  14.836  72.419  1.00  0.00    -0.308 OA 
HETATM    7  C   UNL     3     -12.191  14.261  71.301  1.00  0.00    -0.350 C  
HETATM    8  O   UNL     3     -12.851  13.215  71.084  1.00  0.00    -0.330 OA 
ENDROOT
BRANCH   5   9
HETATM    9  C   UNL     3     -11.213  14.066  68.969  1.00  0.00    -0.276 C  
HETATM   10  C   UNL     3     -10.147  14.779  68.091  1.00  0.00    -0.221 C  
HETATM   11  O   UNL     3     -12.402  13.737  68.210  1.00  0.00    -0.430 OA 
HETATM   12  H   UNL     3     -12.137  13.140  67.521  1.00  0.00     0.000 HD 
HETATM   13  O   UNL     3     -10.050  14.458  66.881  1.00  0.00    -0.252 OA 
HETATM   14  O   UNL     3      -9.561  15.782  68.630  1.00  0.00    -0.194 OA 
ENDBRANCH   5   9
TORSDOF 1
ENDMDL
MODEL       75
REMARK 921   NORMALIZED FREE ENERGY PREDICTED BY IDOCK:   -3.71 KCAL/MOL
REMARK 922        TOTAL FREE ENERGY PREDICTED BY IDOCK:   -4.53 KCAL/MOL
REMARK 923 INTER-LIGAND FREE ENERGY PREDICTED BY IDOCK:   -3.89 KCAL/MOL
REMARK 924 INTRA-LIGAND FREE ENERGY PREDICTED BY IDOCK:   -0.65 KCAL/MOL
REMARK 927      BINDING AFFINITY PREDICTED BY RF-SCORE:    0.00 PKD
ROOT
HETATM    1 NA   UNL     1     -10.722   9.517  65.685  1.00  0.00    -0.243 Na 
HETATM    2 NA   UNL     2      -8.815  14.785  68.096  1.00  0.00    -0.144 Na 
HETATM    3  O   UNL     3      -9.751  12.726  68.835  1.00  0.00    -0.411 OA 
HETATM    4  H   UNL     3      -9.172  12.099  68.420  1.00  0.00     0.000 HD 
HETATM    5  C   UNL     3     -11.039  12.720  68.133  1.00  0.00    -0.256 C  
HETATM    6  O   UNL     3     -11.319  10.571  67.178  1.00  0.00    -0.312 OA 
HETATM    7  C   UNL     3     -11.635  11.298  68.180  1.00  0.00    -0.289 C  
HETATM    8  O   UNL     3     -12.291  10.973  69.199  1.00  0.00    -0.451 OA 
ENDROOT
BRANCH   5   9
HETATM    9  C   UNL     3     -11.974  13.733  68.801  1.00  0.00    -0.365 C  
HETATM   10  C   UNL     3     -11.690  15.134  68.191  1.00  0.00    -0.302 C  
HETATM   11  O   UNL     3     -11.693  13.698  70.222  1.00  0.00    -0.448 OA 
HETATM   12  H   UNL     3     -12.273  14.326  70.636  1.00  0.00     0.000 HD 
HETATM   13  O   UNL     3     -11.897  16.152  68.897  1.00  0.00    -0.338 OA 
HETATM   14  O   UNL     3     -11.087  15.139  67.061  1.00  0.00    -0.329 OA 
ENDBRANCH   5   9
TORSDOF 1
ENDMDL
MODEL       76
REMARK 921   NORMALIZED FREE ENERGY PREDICTED BY IDOCK:   -3.71 KCAL/MOL
REMARK 922        TOTAL FREE ENERGY PREDICTED BY IDOCK:   -4.53 KCAL/MOL
REMARK 923 INTER-LIGAND FREE ENERGY PREDICTED BY IDOCK:   -3.89 KCAL/MOL
REMARK 924 INTRA-LIGAND FREE ENERGY PREDICTED BY IDOCK:   -0.64 KCAL/MOL
REMARK 927      BINDING AFFINITY PREDICTED BY RF-SCORE:    0.00 PKD
ROOT
HETATM    1 NA   UNL     1      -7.532  17.183  65.415  1.00  0.00    -0.258 Na 
HETATM    2 NA   UNL     2      -9.535  14.739  70.632  1.00  0.00    -0.427 Na 
HETATM    3  O   UNL     3      -9.700  14.325  68.295  1.00  0.00    -0.209 OA 
HETATM    4  H   UNL     3      -8.786  14.337  68.039  1.00  0.00     0.000 HD 
HETATM    5  C   UNL     3     -10.344  15.555  67.823  1.00  0.00    -0.263 C  
HETATM    6  O   UNL     3      -9.161  16.287  65.906  1.00  0.00    -0.385 OA 
HETATM    7  C   UNL     3     -10.198  15.647  66.290  1.00  0.00    -0.299 C  
HETATM    8  O   UNL     3     -11.042  15.042  65.585  1.00  0.00    -0.337 OA 
ENDROOT
BRANCH   5   9
HETATM    9  C   UNL     3     -11.819  15.534  68.237  1.00  0.00    -0.173 C  
HETATM   10  C   UNL     3     -11.908  15.915  69.741  1.00  0.00    -0.295 C  
HETATM   11  O   UNL     3     -12.311  14.194  67.991  1.00  0.00    -0.560 OA 
HETATM   12  H   UNL     3     -13.225  14.181  68.247  1.00  0.00     0.000 HD 
HETATM   13  O   UNL     3     -12.861  15.461  70.422  1.00  0.00    -0.390 OA 
HETATM   14  O   UNL     3     -10.890  16.524  70.224  1.00  0.00    -0.294 OA 
ENDBRANCH   5   9
TORSDOF 1
ENDMDL
MODEL       77
REMARK 921   NORMALIZED FREE ENERGY PREDICTED BY IDOCK:   -3.69 KCAL/MOL
REMARK 922        TOTAL FREE ENERGY PREDICTED BY IDOCK:   -4.51 KCAL/MOL
REMARK 923 INTER-LIGAND FREE ENERGY PREDICTED BY IDOCK:   -3.88 KCAL/MOL
REMARK 924 INTRA-LIGAND FREE ENERGY PREDICTED BY IDOCK:   -0.63 KCAL/MOL
REMARK 927      BINDING AFFINITY PREDICTED BY RF-SCORE:    0.00 PKD
ROOT
HETATM    1 NA   UNL     1      -9.467  10.727  70.161  1.00  0.00    -0.368 Na 
HETATM    2 NA   UNL     2     -12.607  15.061  67.237  1.00  0.00    -0.470 Na 
HETATM    3  O   UNL     3     -11.457  13.044  66.721  1.00  0.00    -0.312 OA 
HETATM    4  H   UNL     3     -11.848  12.442  67.343  1.00  0.00     0.000 HD 
HETATM    5  C   UNL     3     -10.094  13.362  67.158  1.00  0.00    -0.240 C  
HETATM    6  O   UNL     3      -9.302  11.518  68.417  1.00  0.00    -0.186 OA 
HETATM    7  C   UNL     3      -9.277  12.057  67.259  1.00  0.00    -0.182 C  
HETATM    8  O   UNL     3      -8.742  11.620  66.210  1.00  0.00    -0.187 OA 
ENDROOT
BRANCH   5   9
HETATM    9  C   UNL     3      -9.464  14.332  66.153  1.00  0.00    -0.222 C  
HETATM   10  C   UNL     3     -10.028  15.754  66.431  1.00  0.00    -0.277 C  
HETATM   11  O   UNL     3      -9.817  13.862  64.830  1.00  0.00    -0.603 OA 
HETATM   12  H   UNL     3      -9.426  14.463  64.207  1.00  0.00     0.000 HD 
HETATM   13  O   UNL     3     -10.107  16.567  65.477  1.00  0.00    -0.535 OA 
HETATM   14  O   UNL     3     -10.544  15.933  67.589  1.00  0.00    -0.292 OA 
ENDBRANCH   5   9
TORSDOF 1
ENDMDL
MODEL       78
REMARK 921   NORMALIZED FREE ENERGY PREDICTED BY IDOCK:   -3.69 KCAL/MOL
REMARK 922        TOTAL FREE ENERGY PREDICTED BY IDOCK:   -4.51 KCAL/MOL
REMARK 923 INTER-LIGAND FREE ENERGY PREDICTED BY IDOCK:   -3.86 KCAL/MOL
REMARK 924 INTRA-LIGAND FREE ENERGY PREDICTED BY IDOCK:   -0.65 KCAL/MOL
REMARK 927      BINDING AFFINITY PREDICTED BY RF-SCORE:    0.00 PKD
ROOT
HETATM    1 NA   UNL     1      -9.000   7.206  64.953  1.00  0.00    -0.303 Na 
HETATM    2 NA   UNL     2     -10.139  12.984  63.363  1.00  0.00    -0.364 Na 
HETATM    3  O   UNL     3      -9.181  11.797  65.189  1.00  0.00    -0.414 OA 
HETATM    4  H   UNL     3      -8.551  11.244  64.742  1.00  0.00     0.000 HD 
HETATM    5  C   UNL     3     -10.311  10.972  65.629  1.00  0.00    -0.251 C  
HETATM    6  O   UNL     3      -9.500   8.770  65.953  1.00  0.00    -0.235 OA 
HETATM    7  C   UNL     3      -9.791   9.856  66.559  1.00  0.00    -0.215 C  
HETATM    8  O   UNL     3      -9.637  10.133  67.774  1.00  0.00    -0.146 OA 
ENDROOT
BRANCH   5   9
HETATM    9  C   UNL     3     -11.326  11.864  66.350  1.00  0.00    -0.339 C  
HETATM   10  C   UNL     3     -12.169  12.608  65.277  1.00  0.00    -0.475 C  
HETATM   11  O   UNL     3     -10.573  12.785  67.176  1.00  0.00    -0.235 OA 
HETATM   12  H   UNL     3     -11.202  13.338  67.623  1.00  0.00     0.000 HD 
HETATM   13  O   UNL     3     -12.650  13.733  65.561  1.00  0.00    -0.482 OA 
HETATM   14  O   UNL     3     -12.159  12.093  64.104  1.00  0.00    -0.400 OA 
ENDBRANCH   5   9
TORSDOF 1
ENDMDL
MODEL       79
REMARK 921   NORMALIZED FREE ENERGY PREDICTED BY IDOCK:   -3.68 KCAL/MOL
REMARK 922        TOTAL FREE ENERGY PREDICTED BY IDOCK:   -4.50 KCAL/MOL
REMARK 923 INTER-LIGAND FREE ENERGY PREDICTED BY IDOCK:   -3.92 KCAL/MOL
REMARK 924 INTRA-LIGAND FREE ENERGY PREDICTED BY IDOCK:   -0.59 KCAL/MOL
REMARK 927      BINDING AFFINITY PREDICTED BY RF-SCORE:    0.00 PKD
ROOT
HETATM    1 NA   UNL     1      -6.551  17.885  68.966  1.00  0.00    -0.178 Na 
HETATM    2 NA   UNL     2     -11.198  17.958  65.016  1.00  0.00    -0.483 Na 
HETATM    3  O   UNL     3     -10.849  17.626  67.346  1.00  0.00    -0.301 OA 
HETATM    4  H   UNL     3     -10.338  18.395  67.569  1.00  0.00     0.000 HD 
HETATM    5  C   UNL     3      -9.969  16.453  67.348  1.00  0.00    -0.251 C  
HETATM    6  O   UNL     3      -8.196  16.895  68.854  1.00  0.00    -0.254 OA 
HETATM    7  C   UNL     3      -9.323  16.306  68.741  1.00  0.00    -0.235 C  
HETATM    8  O   UNL     3      -9.977  15.705  69.628  1.00  0.00    -0.266 OA 
ENDROOT
BRANCH   5   9
HETATM    9  C   UNL     3     -10.794  15.213  66.988  1.00  0.00    -0.314 C  
HETATM   10  C   UNL     3     -11.069  15.238  65.459  1.00  0.00    -0.327 C  
HETATM   11  O   UNL     3     -12.020  15.280  67.757  1.00  0.00    -0.412 OA 
HETATM   12  H   UNL     3     -12.531  14.512  67.534  1.00  0.00     0.000 HD 
HETATM   13  O   UNL     3     -12.113  14.690  65.025  1.00  0.00    -0.386 OA 
HETATM   14  O   UNL     3     -10.293  15.984  64.765  1.00  0.00    -0.510 OA 
ENDBRANCH   5   9
TORSDOF 1
ENDMDL
MODEL       80
REMARK 921   NORMALIZED FREE ENERGY PREDICTED BY IDOCK:   -3.64 KCAL/MOL
REMARK 922        TOTAL FREE ENERGY PREDICTED BY IDOCK:   -4.46 KCAL/MOL
REMARK 923 INTER-LIGAND FREE ENERGY PREDICTED BY IDOCK:   -3.84 KCAL/MOL
REMARK 924 INTRA-LIGAND FREE ENERGY PREDICTED BY IDOCK:   -0.62 KCAL/MOL
REMARK 927      BINDING AFFINITY PREDICTED BY RF-SCORE:    0.00 PKD
ROOT
HETATM    1 NA   UNL     1     -13.826   9.012  73.617  1.00  0.00    -0.822 Na 
HETATM    2 NA   UNL     2     -11.858   9.357  67.853  1.00  0.00    -0.530 Na 
HETATM    3  O   UNL     3     -11.487   8.014  69.782  1.00  0.00    -0.454 OA 
HETATM    4  H   UNL     3     -12.377   7.781  70.020  1.00  0.00     0.000 HD 
HETATM    5  C   UNL     3     -10.984   9.006  70.739  1.00  0.00    -0.258 C  
HETATM    6  O   UNL     3     -12.127   8.665  72.785  1.00  0.00    -0.298 OA 
HETATM    7  C   UNL     3     -11.042   8.412  72.162  1.00  0.00    -0.345 C  
HETATM    8  O   UNL     3     -10.080   7.696  72.535  1.00  0.00    -0.195 OA 
ENDROOT
BRANCH   5   9
HETATM    9  C   UNL     3      -9.550   9.383  70.355  1.00  0.00    -0.266 C  
HETATM   10  C   UNL     3      -9.611  10.533  69.311  1.00  0.00    -0.181 C  
HETATM   11  O   UNL     3      -8.929   8.193  69.809  1.00  0.00    -0.142 OA 
HETATM   12  H   UNL     3      -8.040   8.427  69.572  1.00  0.00     0.000 HD 
HETATM   13  O   UNL     3      -8.680  10.638  68.475  1.00  0.00    -0.127 OA 
HETATM   14  O   UNL     3     -10.712  11.186  69.265  1.00  0.00    -0.217 OA 
ENDBRANCH   5   9
TORSDOF 1
ENDMDL
MODEL       81
REMARK 921   NORMALIZED FREE ENERGY PREDICTED BY IDOCK:   -3.62 KCAL/MOL
REMARK 922        TOTAL FREE ENERGY PREDICTED BY IDOCK:   -4.44 KCAL/MOL
REMARK 923 INTER-LIGAND FREE ENERGY PREDICTED BY IDOCK:   -3.78 KCAL/MOL
REMARK 924 INTRA-LIGAND FREE ENERGY PREDICTED BY IDOCK:   -0.66 KCAL/MOL
REMARK 927      BINDING AFFINITY PREDICTED BY RF-SCORE:    0.00 PKD
ROOT
HETATM    1 NA   UNL     1      -8.044  12.833  67.341  1.00  0.00    -0.121 Na 
HETATM    2 NA   UNL     2     -10.585   7.739  69.534  1.00  0.00    -0.195 Na 
HETATM    3  O   UNL     3     -11.243   9.671  68.312  1.00  0.00    -0.500 OA 
HETATM    4  H   UNL     3     -10.600   9.678  67.613  1.00  0.00     0.000 HD 
HETATM    5  C   UNL     3     -10.926  10.743  69.261  1.00  0.00    -0.241 C  
HETATM    6  O   UNL     3      -9.781  12.437  68.067  1.00  0.00    -0.198 OA 
HETATM    7  C   UNL     3     -10.926  12.095  68.518  1.00  0.00    -0.238 C  
HETATM    8  O   UNL     3     -12.027  12.678  68.367  1.00  0.00    -0.317 OA 
ENDROOT
BRANCH   5   9
HETATM    9  C   UNL     3     -11.964  10.732  70.388  1.00  0.00    -0.357 C  
HETATM   10  C   UNL     3     -11.527   9.677  71.442  1.00  0.00    -0.385 C  
HETATM   11  O   UNL     3     -13.239  10.397  69.787  1.00  0.00    -0.541 OA 
HETATM   12  H   UNL     3     -13.883  10.390  70.486  1.00  0.00     0.000 HD 
HETATM   13  O   UNL     3     -12.413   9.107  72.127  1.00  0.00    -0.368 OA 
HETATM   14  O   UNL     3     -10.295   9.331  71.408  1.00  0.00    -0.321 OA 
ENDBRANCH   5   9
TORSDOF 1
ENDMDL
MODEL       82
REMARK 921   NORMALIZED FREE ENERGY PREDICTED BY IDOCK:   -3.61 KCAL/MOL
REMARK 922        TOTAL FREE ENERGY PREDICTED BY IDOCK:   -4.43 KCAL/MOL
REMARK 923 INTER-LIGAND FREE ENERGY PREDICTED BY IDOCK:   -3.81 KCAL/MOL
REMARK 924 INTRA-LIGAND FREE ENERGY PREDICTED BY IDOCK:   -0.62 KCAL/MOL
REMARK 927      BINDING AFFINITY PREDICTED BY RF-SCORE:    0.00 PKD
ROOT
HETATM    1 NA   UNL     1     -12.634  15.763  68.440  1.00  0.00    -0.523 Na 
HETATM    2 NA   UNL     2      -8.450  11.497  69.665  1.00  0.00    -0.348 Na 
HETATM    3  O   UNL     3      -9.599  12.371  67.773  1.00  0.00    -0.190 OA 
HETATM    4  H   UNL     3      -9.444  13.302  67.875  1.00  0.00     0.000 HD 
HETATM    5  C   UNL     3     -10.995  12.080  68.116  1.00  0.00    -0.230 C  
HETATM    6  O   UNL     3     -12.257  14.036  67.681  1.00  0.00    -0.352 OA 
HETATM    7  C   UNL     3     -11.924  12.902  67.198  1.00  0.00    -0.310 C  
HETATM    8  O   UNL     3     -12.197  12.428  66.069  1.00  0.00    -0.636 OA 
ENDROOT
BRANCH   5   9
HETATM    9  C   UNL     3     -11.244  10.578  67.951  1.00  0.00    -0.289 C  
HETATM   10  C   UNL     3     -10.850   9.870  69.279  1.00  0.00    -0.227 C  
HETATM   11  O   UNL     3     -10.428  10.130  66.841  1.00  0.00    -0.233 OA 
HETATM   12  H   UNL     3     -10.583   9.199  66.739  1.00  0.00     0.000 HD 
HETATM   13  O   UNL     3     -10.452   8.680  69.232  1.00  0.00    -0.220 OA 
HETATM   14  O   UNL     3     -10.789  10.622  70.314  1.00  0.00    -0.248 OA 
ENDBRANCH   5   9
TORSDOF 1
ENDMDL
MODEL       83
REMARK 921   NORMALIZED FREE ENERGY PREDICTED BY IDOCK:   -3.61 KCAL/MOL
REMARK 922        TOTAL FREE ENERGY PREDICTED BY IDOCK:   -4.43 KCAL/MOL
REMARK 923 INTER-LIGAND FREE ENERGY PREDICTED BY IDOCK:   -3.77 KCAL/MOL
REMARK 924 INTRA-LIGAND FREE ENERGY PREDICTED BY IDOCK:   -0.66 KCAL/MOL
REMARK 927      BINDING AFFINITY PREDICTED BY RF-SCORE:    0.00 PKD
ROOT
HETATM    1 NA   UNL     1     -11.451  15.829  68.770  1.00  0.00    -0.246 Na 
HETATM    2 NA   UNL     2      -6.351  19.147  69.202  1.00  0.00    -0.210 Na 
HETATM    3  O   UNL     3      -8.688  19.504  68.939  1.00  0.00    -0.355 OA 
HETATM    4  H   UNL     3      -9.038  18.984  69.652  1.00  0.00     0.000 HD 
HETATM    5  C   UNL     3      -8.951  18.812  67.672  1.00  0.00    -0.279 C  
HETATM    6  O   UNL     3     -10.890  17.487  67.974  1.00  0.00    -0.378 OA 
HETATM    7  C   UNL     3     -10.471  18.603  67.515  1.00  0.00    -0.428 C  
HETATM    8  O   UNL     3     -11.144  19.547  67.035  1.00  0.00    -0.424 OA 
ENDROOT
BRANCH   5   9
HETATM    9  C   UNL     3      -8.387  19.652  66.522  1.00  0.00    -0.332 C  
HETATM   10  C   UNL     3      -6.873  19.330  66.381  1.00  0.00    -0.205 C  
HETATM   11  O   UNL     3      -8.612  21.042  66.860  1.00  0.00    -0.555 OA 
HETATM   12  H   UNL     3      -8.263  21.563  66.146  1.00  0.00     0.000 HD 
HETATM   13  O   UNL     3      -6.108  20.218  65.929  1.00  0.00    -0.185 OA 
HETATM   14  O   UNL     3      -6.484  18.232  66.912  1.00  0.00    -0.173 OA 
ENDBRANCH   5   9
TORSDOF 1
ENDMDL
MODEL       84
REMARK 921   NORMALIZED FREE ENERGY PREDICTED BY IDOCK:   -3.59 KCAL/MOL
REMARK 922        TOTAL FREE ENERGY PREDICTED BY IDOCK:   -4.40 KCAL/MOL
REMARK 923 INTER-LIGAND FREE ENERGY PREDICTED BY IDOCK:   -3.75 KCAL/MOL
REMARK 924 INTRA-LIGAND FREE ENERGY PREDICTED BY IDOCK:   -0.66 KCAL/MOL
REMARK 927      BINDING AFFINITY PREDICTED BY RF-SCORE:    0.00 PKD
ROOT
HETATM    1 NA   UNL     1      -8.849  10.627  69.471  1.00  0.00    -0.147 Na 
HETATM    2 NA   UNL     2     -10.971   4.926  69.909  1.00  0.00    -0.276 Na 
HETATM    3  O   UNL     3     -11.813   7.149  70.004  1.00  0.00    -0.547 OA 
HETATM    4  H   UNL     3     -11.458   7.516  69.203  1.00  0.00     0.000 HD 
HETATM    5  C   UNL     3     -11.074   7.695  71.147  1.00  0.00    -0.251 C  
HETATM    6  O   UNL     3     -10.252   9.824  70.512  1.00  0.00    -0.274 OA 
HETATM    7  C   UNL     3     -11.194   9.233  71.140  1.00  0.00    -0.343 C  
HETATM    8  O   UNL     3     -12.212   9.742  71.670  1.00  0.00    -0.371 OA 
ENDROOT
BRANCH   5   9
HETATM    9  C   UNL     3     -11.647   7.102  72.438  1.00  0.00    -0.253 C  
HETATM   10  C   UNL     3     -10.978   5.720  72.678  1.00  0.00    -0.268 C  
HETATM   11  O   UNL     3     -13.078   6.981  72.251  1.00  0.00    -0.523 OA 
HETATM   12  H   UNL     3     -13.434   6.614  73.052  1.00  0.00     0.000 HD 
HETATM   13  O   UNL     3     -11.620   4.840  73.302  1.00  0.00    -0.333 OA 
HETATM   14  O   UNL     3      -9.877   5.518  72.055  1.00  0.00    -0.161 OA 
ENDBRANCH   5   9
TORSDOF 1
ENDMDL
MODEL       85
REMARK 921   NORMALIZED FREE ENERGY PREDICTED BY IDOCK:   -3.56 KCAL/MOL
REMARK 922        TOTAL FREE ENERGY PREDICTED BY IDOCK:   -4.38 KCAL/MOL
REMARK 923 INTER-LIGAND FREE ENERGY PREDICTED BY IDOCK:   -3.72 KCAL/MOL
REMARK 924 INTRA-LIGAND FREE ENERGY PREDICTED BY IDOCK:   -0.65 KCAL/MOL
REMARK 927      BINDING AFFINITY PREDICTED BY RF-SCORE:    0.00 PKD
ROOT
HETATM    1 NA   UNL     1     -10.943   2.707  73.605  1.00  0.00    -0.114 Na 
HETATM    2 NA   UNL     2     -12.754   6.806  69.466  1.00  0.00    -0.621 Na 
HETATM    3  O   UNL     3     -10.899   6.436  70.909  1.00  0.00    -0.237 OA 
HETATM    4  H   UNL     3     -10.673   5.538  70.695  1.00  0.00     0.000 HD 
HETATM    5  C   UNL     3     -11.541   6.462  72.228  1.00  0.00    -0.299 C  
HETATM    6  O   UNL     3     -10.721   4.612  73.457  1.00  0.00    -0.208 OA 
HETATM    7  C   UNL     3     -10.576   5.867  73.274  1.00  0.00    -0.255 C  
HETATM    8  O   UNL     3      -9.717   6.632  73.777  1.00  0.00    -0.180 OA 
ENDROOT
BRANCH   5   9
HETATM    9  C   UNL     3     -11.906   7.910  72.573  1.00  0.00    -0.335 C  
HETATM   10  C   UNL     3     -13.221   8.272  71.826  1.00  0.00    -0.347 C  
HETATM   11  O   UNL     3     -10.799   8.741  72.146  1.00  0.00    -0.354 OA 
HETATM   12  H   UNL     3     -11.025   9.638  72.361  1.00  0.00     0.000 HD 
HETATM   13  O   UNL     3     -13.422   9.469  71.506  1.00  0.00    -0.376 OA 
HETATM   14  O   UNL     3     -13.927   7.280  71.427  1.00  0.00    -0.398 OA 
ENDBRANCH   5   9
TORSDOF 1
ENDMDL
MODEL       86
REMARK 921   NORMALIZED FREE ENERGY PREDICTED BY IDOCK:   -3.56 KCAL/MOL
REMARK 922        TOTAL FREE ENERGY PREDICTED BY IDOCK:   -4.37 KCAL/MOL
REMARK 923 INTER-LIGAND FREE ENERGY PREDICTED BY IDOCK:   -3.73 KCAL/MOL
REMARK 924 INTRA-LIGAND FREE ENERGY PREDICTED BY IDOCK:   -0.63 KCAL/MOL
REMARK 927      BINDING AFFINITY PREDICTED BY RF-SCORE:    0.00 PKD
ROOT
HETATM    1 NA   UNL     1      -6.322  10.589  70.204  1.00  0.00    -0.047 Na 
HETATM    2 NA   UNL     2     -10.849  14.254  68.393  1.00  0.00    -0.217 Na 
HETATM    3  O   UNL     3     -10.578  12.241  69.632  1.00  0.00    -0.357 OA 
HETATM    4  H   UNL     3      -9.915  12.497  70.262  1.00  0.00     0.000 HD 
HETATM    5  C   UNL     3      -9.967  11.359  68.631  1.00  0.00    -0.202 C  
HETATM    6  O   UNL     3      -8.139  10.265  69.666  1.00  0.00    -0.166 OA 
HETATM    7  C   UNL     3      -9.366  10.128  69.339  1.00  0.00    -0.219 C  
HETATM    8  O   UNL     3     -10.133   9.165  69.587  1.00  0.00    -0.184 OA 
ENDROOT
BRANCH   5   9
HETATM    9  C   UNL     3     -11.036  10.946  67.615  1.00  0.00    -0.313 C  
HETATM   10  C   UNL     3     -11.114  12.042  66.516  1.00  0.00    -0.314 C  
HETATM   11  O   UNL     3     -12.285  10.821  68.339  1.00  0.00    -0.832 OA 
HETATM   12  H   UNL     3     -12.948  10.564  67.709  1.00  0.00     0.000 HD 
HETATM   13  O   UNL     3     -12.205  12.223  65.921  1.00  0.00    -0.634 OA 
HETATM   14  O   UNL     3     -10.095  12.812  66.423  1.00  0.00    -0.248 OA 
ENDBRANCH   5   9
TORSDOF 1
ENDMDL
MODEL       87
REMARK 921   NORMALIZED FREE ENERGY PREDICTED BY IDOCK:   -3.55 KCAL/MOL
REMARK 922        TOTAL FREE ENERGY PREDICTED BY IDOCK:   -4.36 KCAL/MOL
REMARK 923 INTER-LIGAND FREE ENERGY PREDICTED BY IDOCK:   -3.71 KCAL/MOL
REMARK 924 INTRA-LIGAND FREE ENERGY PREDICTED BY IDOCK:   -0.64 KCAL/MOL
REMARK 927      BINDING AFFINITY PREDICTED BY RF-SCORE:    0.00 PKD
ROOT
HETATM    1 NA   UNL     1      -8.466  16.868  67.523  1.00  0.00    -0.176 Na 
HETATM    2 NA   UNL     2      -8.707  12.132  63.687  1.00  0.00    -0.418 Na 
HETATM    3  O   UNL     3     -10.203  13.685  64.691  1.00  0.00    -0.546 OA 
HETATM    4  H   UNL     3      -9.784  14.511  64.480  1.00  0.00     0.000 HD 
HETATM    5  C   UNL     3     -10.007  13.403  66.117  1.00  0.00    -0.294 C  
HETATM    6  O   UNL     3      -9.765  15.482  67.227  1.00  0.00    -0.217 OA 
HETATM    7  C   UNL     3     -10.603  14.558  66.949  1.00  0.00    -0.279 C  
HETATM    8  O   UNL     3     -11.831  14.522  67.203  1.00  0.00    -0.392 OA 
ENDROOT
BRANCH   5   9
HETATM    9  C   UNL     3     -10.683  12.072  66.458  1.00  0.00    -0.258 C  
HETATM   10  C   UNL     3      -9.753  10.919  65.986  1.00  0.00    -0.224 C  
HETATM   11  O   UNL     3     -11.957  12.052  65.768  1.00  0.00    -0.514 OA 
HETATM   12  H   UNL     3     -12.376  11.227  65.979  1.00  0.00     0.000 HD 
HETATM   13  O   UNL     3     -10.272   9.824  65.655  1.00  0.00    -0.265 OA 
HETATM   14  O   UNL     3      -8.527  11.234  65.794  1.00  0.00    -0.130 OA 
ENDBRANCH   5   9
TORSDOF 1
ENDMDL
MODEL       88
REMARK 921   NORMALIZED FREE ENERGY PREDICTED BY IDOCK:   -3.53 KCAL/MOL
REMARK 922        TOTAL FREE ENERGY PREDICTED BY IDOCK:   -4.34 KCAL/MOL
REMARK 923 INTER-LIGAND FREE ENERGY PREDICTED BY IDOCK:   -3.74 KCAL/MOL
REMARK 924 INTRA-LIGAND FREE ENERGY PREDICTED BY IDOCK:   -0.61 KCAL/MOL
REMARK 927      BINDING AFFINITY PREDICTED BY RF-SCORE:    0.00 PKD
ROOT
HETATM    1 NA   UNL     1     -11.923   5.357  65.494  1.00  0.00    -0.685 Na 
HETATM    2 NA   UNL     2     -12.951   8.946  70.317  1.00  0.00    -0.492 Na 
HETATM    3  O   UNL     3     -11.112   8.249  68.978  1.00  0.00    -0.430 OA 
HETATM    4  H   UNL     3     -11.435   8.438  68.105  1.00  0.00     0.000 HD 
HETATM    5  C   UNL     3     -11.128   6.798  69.188  1.00  0.00    -0.218 C  
HETATM    6  O   UNL     3     -10.897   5.770  67.067  1.00  0.00    -0.291 OA 
HETATM    7  C   UNL     3     -10.253   6.121  68.112  1.00  0.00    -0.175 C  
HETATM    8  O   UNL     3      -9.019   6.047  68.326  1.00  0.00    -0.115 OA 
ENDROOT
BRANCH   5   9
HETATM    9  C   UNL     3     -10.607   6.494  70.596  1.00  0.00    -0.233 C  
HETATM   10  C   UNL     3     -11.733   6.828  71.615  1.00  0.00    -0.314 C  
HETATM   11  O   UNL     3      -9.433   7.317  70.802  1.00  0.00    -0.164 OA 
HETATM   12  H   UNL     3      -9.110   7.128  71.675  1.00  0.00     0.000 HD 
HETATM   13  O   UNL     3     -11.409   7.180  72.776  1.00  0.00    -0.284 OA 
HETATM   14  O   UNL     3     -12.918   6.894  71.134  1.00  0.00    -0.336 OA 
ENDBRANCH   5   9
TORSDOF 1
ENDMDL
MODEL       89
REMARK 921   NORMALIZED FREE ENERGY PREDICTED BY IDOCK:   -3.53 KCAL/MOL
REMARK 922        TOTAL FREE ENERGY PREDICTED BY IDOCK:   -4.34 KCAL/MOL
REMARK 923 INTER-LIGAND FREE ENERGY PREDICTED BY IDOCK:   -3.68 KCAL/MOL
REMARK 924 INTRA-LIGAND FREE ENERGY PREDICTED BY IDOCK:   -0.66 KCAL/MOL
REMARK 927      BINDING AFFINITY PREDICTED BY RF-SCORE:    0.00 PKD
ROOT
HETATM    1 NA   UNL     1     -10.267   9.006  64.833  1.00  0.00    -0.418 Na 
HETATM    2 NA   UNL     2     -10.475  15.085  65.285  1.00  0.00    -0.257 Na 
HETATM    3  O   UNL     3      -9.255  13.272  66.227  1.00  0.00    -0.433 OA 
HETATM    4  H   UNL     3      -8.970  12.813  65.445  1.00  0.00     0.000 HD 
HETATM    5  C   UNL     3     -10.324  12.499  66.869  1.00  0.00    -0.229 C  
HETATM    6  O   UNL     3     -10.001  10.224  66.296  1.00  0.00    -0.213 OA 
HETATM    7  C   UNL     3      -9.795  11.091  67.212  1.00  0.00    -0.178 C  
HETATM    8  O   UNL     3      -9.168  10.949  68.290  1.00  0.00    -0.148 OA 
ENDROOT
BRANCH   5   9
HETATM    9  C   UNL     3     -10.782  13.239  68.129  1.00  0.00    -0.249 C  
HETATM   10  C   UNL     3     -11.810  14.327  67.709  1.00  0.00    -0.379 C  
HETATM   11  O   UNL     3      -9.602  13.820  68.735  1.00  0.00    -0.369 OA 
HETATM   12  H   UNL     3      -9.886  14.279  69.516  1.00  0.00     0.000 HD 
HETATM   13  O   UNL     3     -11.910  15.365  68.409  1.00  0.00    -0.347 OA 
HETATM   14  O   UNL     3     -12.358  14.163  66.562  1.00  0.00    -0.460 OA 
ENDBRANCH   5   9
TORSDOF 1
ENDMDL
MODEL       90
REMARK 921   NORMALIZED FREE ENERGY PREDICTED BY IDOCK:   -3.52 KCAL/MOL
REMARK 922        TOTAL FREE ENERGY PREDICTED BY IDOCK:   -4.33 KCAL/MOL
REMARK 923 INTER-LIGAND FREE ENERGY PREDICTED BY IDOCK:   -3.71 KCAL/MOL
REMARK 924 INTRA-LIGAND FREE ENERGY PREDICTED BY IDOCK:   -0.62 KCAL/MOL
REMARK 927      BINDING AFFINITY PREDICTED BY RF-SCORE:    0.00 PKD
ROOT
HETATM    1 NA   UNL     1     -12.198  16.191  63.665  1.00  0.00    -0.738 Na 
HETATM    2 NA   UNL     2      -6.960  14.946  66.532  1.00  0.00    -0.152 Na 
HETATM    3  O   UNL     3      -9.095  13.945  66.214  1.00  0.00    -0.468 OA 
HETATM    4  H   UNL     3      -9.180  13.984  65.269  1.00  0.00     0.000 HD 
HETATM    5  C   UNL     3      -9.983  14.949  66.812  1.00  0.00    -0.246 C  
HETATM    6  O   UNL     3     -11.784  15.290  65.313  1.00  0.00    -0.209 OA 
HETATM    7  C   UNL     3     -11.434  14.668  66.372  1.00  0.00    -0.347 C  
HETATM    8  O   UNL     3     -12.092  13.825  67.030  1.00  0.00    -0.406 OA 
ENDROOT
BRANCH   5   9
HETATM    9  C   UNL     3      -9.846  14.887  68.337  1.00  0.00    -0.216 C  
HETATM   10  C   UNL     3      -8.520  15.594  68.736  1.00  0.00    -0.192 C  
HETATM   11  O   UNL     3      -9.841  13.486  68.707  1.00  0.00    -0.383 OA 
HETATM   12  H   UNL     3      -9.756  13.448  69.652  1.00  0.00     0.000 HD 
HETATM   13  O   UNL     3      -7.931  15.223  69.780  1.00  0.00    -0.204 OA 
HETATM   14  O   UNL     3      -8.028  16.390  67.861  1.00  0.00    -0.150 OA 
ENDBRANCH   5   9
TORSDOF 1
ENDMDL
MODEL       91
REMARK 921   NORMALIZED FREE ENERGY PREDICTED BY IDOCK:   -3.47 KCAL/MOL
REMARK 922        TOTAL FREE ENERGY PREDICTED BY IDOCK:   -4.28 KCAL/MOL
REMARK 923 INTER-LIGAND FREE ENERGY PREDICTED BY IDOCK:   -3.65 KCAL/MOL
REMARK 924 INTRA-LIGAND FREE ENERGY PREDICTED BY IDOCK:   -0.63 KCAL/MOL
REMARK 927      BINDING AFFINITY PREDICTED BY RF-SCORE:    0.00 PKD
ROOT
HETATM    1 NA   UNL     1      -9.948  20.059  66.073  1.00  0.00    -0.320 Na 
HETATM    2 NA   UNL     2     -12.696  15.316  68.748  1.00  0.00    -0.520 Na 
HETATM    3  O   UNL     3     -10.917  16.829  69.202  1.00  0.00    -0.301 OA 
HETATM    4  H   UNL     3     -11.341  17.666  69.053  1.00  0.00     0.000 HD 
HETATM    5  C   UNL     3     -10.004  16.553  68.088  1.00  0.00    -0.248 C  
HETATM    6  O   UNL     3      -9.312  18.638  67.202  1.00  0.00    -0.282 OA 
HETATM    7  C   UNL     3      -8.968  17.692  67.988  1.00  0.00    -0.264 C  
HETATM    8  O   UNL     3      -7.951  17.622  68.720  1.00  0.00    -0.285 OA 
ENDROOT
BRANCH   5   9
HETATM    9  C   UNL     3      -9.320  15.204  68.329  1.00  0.00    -0.193 C  
HETATM   10  C   UNL     3     -10.328  14.076  67.972  1.00  0.00    -0.240 C  
HETATM   11  O   UNL     3      -8.940  15.163  69.726  1.00  0.00    -0.446 OA 
HETATM   12  H   UNL     3      -8.516  14.326  69.875  1.00  0.00     0.000 HD 
HETATM   13  O   UNL     3     -10.233  12.973  68.564  1.00  0.00    -0.241 OA 
HETATM   14  O   UNL     3     -11.307  14.420  67.221  1.00  0.00    -0.313 OA 
ENDBRANCH   5   9
TORSDOF 1
ENDMDL
MODEL       92
REMARK 921   NORMALIZED FREE ENERGY PREDICTED BY IDOCK:   -3.47 KCAL/MOL
REMARK 922        TOTAL FREE ENERGY PREDICTED BY IDOCK:   -4.28 KCAL/MOL
REMARK 923 INTER-LIGAND FREE ENERGY PREDICTED BY IDOCK:   -4.10 KCAL/MOL
REMARK 924 INTRA-LIGAND FREE ENERGY PREDICTED BY IDOCK:   -0.17 KCAL/MOL
REMARK 927      BINDING AFFINITY PREDICTED BY RF-SCORE:    0.00 PKD
ROOT
HETATM    1 NA   UNL     1      -5.645  16.800  69.385  1.00  0.00    -0.122 Na 
HETATM    2 NA   UNL     2      -9.208  21.343  67.417  1.00  0.00    -0.411 Na 
HETATM    3  O   UNL     3      -9.308  19.555  68.984  1.00  0.00    -0.377 OA 
HETATM    4  H   UNL     3      -8.506  19.692  69.474  1.00  0.00     0.000 HD 
HETATM    5  C   UNL     3      -9.139  18.388  68.110  1.00  0.00    -0.309 C  
HETATM    6  O   UNL     3      -7.544  16.963  69.127  1.00  0.00    -0.233 OA 
HETATM    7  C   UNL     3      -8.797  17.156  68.972  1.00  0.00    -0.105 C  
HETATM    8  O   UNL     3      -9.749  16.520  69.486  1.00  0.00    -0.179 OA 
ENDROOT
BRANCH   5   9
HETATM    9  C   UNL     3     -10.433  18.168  67.320  1.00  0.00    -0.393 C  
HETATM   10  C   UNL     3     -10.060  17.584  65.929  1.00  0.00    -0.185 C  
HETATM   11  O   UNL     3     -11.086  19.456  67.205  1.00  0.00    -0.458 OA 
HETATM   12  H   UNL     3     -11.888  19.320  66.716  1.00  0.00     0.000 HD 
HETATM   13  O   UNL     3     -10.817  17.819  64.954  1.00  0.00    -0.815 OA 
HETATM   14  O   UNL     3      -8.900  17.050  65.841  1.00  0.00    -0.518 OA 
ENDBRANCH   5   9
TORSDOF 1
ENDMDL
MODEL       93
REMARK 921   NORMALIZED FREE ENERGY PREDICTED BY IDOCK:   -3.42 KCAL/MOL
REMARK 922        TOTAL FREE ENERGY PREDICTED BY IDOCK:   -4.22 KCAL/MOL
REMARK 923 INTER-LIGAND FREE ENERGY PREDICTED BY IDOCK:   -4.01 KCAL/MOL
REMARK 924 INTRA-LIGAND FREE ENERGY PREDICTED BY IDOCK:   -0.21 KCAL/MOL
REMARK 927      BINDING AFFINITY PREDICTED BY RF-SCORE:    0.00 PKD
ROOT
HETATM    1 NA   UNL     1     -10.323   8.894  65.199  1.00  0.00    -0.419 Na 
HETATM    2 NA   UNL     2     -14.224   9.721  69.815  1.00  0.00    -0.629 Na 
HETATM    3  O   UNL     3     -12.534  10.946  68.673  1.00  0.00    -0.772 OA 
HETATM    4  H   UNL     3     -12.806  10.840  67.769  1.00  0.00     0.000 HD 
HETATM    5  C   UNL     3     -11.351  10.113  68.916  1.00  0.00    -0.120 C  
HETATM    6  O   UNL     3     -10.215   9.872  66.852  1.00  0.00    -0.218 OA 
HETATM    7  C   UNL     3     -10.229  10.533  67.944  1.00  0.00    -0.183 C  
HETATM    8  O   UNL     3      -9.503  11.502  68.275  1.00  0.00    -0.178 OA 
ENDROOT
BRANCH   5   9
HETATM    9  C   UNL     3     -10.914  10.286  70.374  1.00  0.00    -0.296 C  
HETATM   10  C   UNL     3     -11.082   8.920  71.097  1.00  0.00    -0.285 C  
HETATM   11  O   UNL     3     -11.759  11.309  70.953  1.00  0.00    -0.359 OA 
HETATM   12  H   UNL     3     -11.487  11.416  71.857  1.00  0.00     0.000 HD 
HETATM   13  O   UNL     3     -11.316   8.917  72.331  1.00  0.00    -0.299 OA 
HETATM   14  O   UNL     3     -11.152   7.891  70.337  1.00  0.00    -0.254 OA 
ENDBRANCH   5   9
TORSDOF 1
ENDMDL
MODEL       94
REMARK 921   NORMALIZED FREE ENERGY PREDICTED BY IDOCK:   -3.41 KCAL/MOL
REMARK 922        TOTAL FREE ENERGY PREDICTED BY IDOCK:   -4.22 KCAL/MOL
REMARK 923 INTER-LIGAND FREE ENERGY PREDICTED BY IDOCK:   -4.06 KCAL/MOL
REMARK 924 INTRA-LIGAND FREE ENERGY PREDICTED BY IDOCK:   -0.16 KCAL/MOL
REMARK 927      BINDING AFFINITY PREDICTED BY RF-SCORE:    0.00 PKD
ROOT
HETATM    1 NA   UNL     1     -10.750  18.255  67.469  1.00  0.00    -0.324 Na 
HETATM    2 NA   UNL     2     -12.804  13.783  63.866  1.00  0.00    -0.582 Na 
HETATM    3  O   UNL     3     -13.095  14.540  66.103  1.00  0.00    -0.247 OA 
HETATM    4  H   UNL     3     -13.293  15.458  65.964  1.00  0.00     0.000 HD 
HETATM    5  C   UNL     3     -11.732  14.422  66.633  1.00  0.00    -0.394 C  
HETATM    6  O   UNL     3     -11.246  16.426  67.798  1.00  0.00    -0.254 OA 
HETATM    7  C   UNL     3     -11.631  15.219  67.951  1.00  0.00    -0.289 C  
HETATM    8  O   UNL     3     -11.995  14.647  69.008  1.00  0.00    -0.307 OA 
ENDROOT
BRANCH   5   9
HETATM    9  C   UNL     3     -11.413  12.941  66.857  1.00  0.00    -0.341 C  
HETATM   10  C   UNL     3      -9.890  12.731  66.629  1.00  0.00    -0.250 C  
HETATM   11  O   UNL     3     -12.207  12.187  65.909  1.00  0.00    -0.604 OA 
HETATM   12  H   UNL     3     -12.010  11.268  66.048  1.00  0.00     0.000 HD 
HETATM   13  O   UNL     3      -9.489  11.611  66.226  1.00  0.00    -0.206 OA 
HETATM   14  O   UNL     3      -9.165  13.785  66.698  1.00  0.00    -0.256 OA 
ENDBRANCH   5   9
TORSDOF 1
ENDMDL
MODEL       95
REMARK 921   NORMALIZED FREE ENERGY PREDICTED BY IDOCK:   -3.41 KCAL/MOL
REMARK 922        TOTAL FREE ENERGY PREDICTED BY IDOCK:   -4.21 KCAL/MOL
REMARK 923 INTER-LIGAND FREE ENERGY PREDICTED BY IDOCK:   -3.55 KCAL/MOL
REMARK 924 INTRA-LIGAND FREE ENERGY PREDICTED BY IDOCK:   -0.66 KCAL/MOL
REMARK 927      BINDING AFFINITY PREDICTED BY RF-SCORE:    0.00 PKD
ROOT
HETATM    1 NA   UNL     1      -9.969   6.175  70.737  1.00  0.00    -0.167 Na 
HETATM    2 NA   UNL     2      -8.993  11.362  67.680  1.00  0.00    -0.128 Na 
HETATM    3  O   UNL     3      -9.548  10.678  69.890  1.00  0.00    -0.399 OA 
HETATM    4  H   UNL     3      -8.870  10.034  70.061  1.00  0.00     0.000 HD 
HETATM    5  C   UNL     3     -10.821   9.982  69.672  1.00  0.00    -0.260 C  
HETATM    6  O   UNL     3     -10.728   7.937  70.863  1.00  0.00    -0.216 OA 
HETATM    7  C   UNL     3     -11.157   9.139  70.919  1.00  0.00    -0.291 C  
HETATM    8  O   UNL     3     -11.737   9.713  71.873  1.00  0.00    -0.357 OA 
ENDROOT
BRANCH   5   9
HETATM    9  C   UNL     3     -11.913  11.021  69.397  1.00  0.00    -0.337 C  
HETATM   10  C   UNL     3     -11.841  11.417  67.895  1.00  0.00    -0.165 C  
HETATM   11  O   UNL     3     -11.653  12.152  70.264  1.00  0.00    -0.516 OA 
HETATM   12  H   UNL     3     -12.330  12.795  70.094  1.00  0.00     0.000 HD 
HETATM   13  O   UNL     3     -12.215  12.567  67.557  1.00  0.00    -0.418 OA 
HETATM   14  O   UNL     3     -11.227  10.593  67.130  1.00  0.00    -0.296 OA 
ENDBRANCH   5   9
TORSDOF 1
ENDMDL
MODEL       96
REMARK 921   NORMALIZED FREE ENERGY PREDICTED BY IDOCK:   -3.37 KCAL/MOL
REMARK 922        TOTAL FREE ENERGY PREDICTED BY IDOCK:   -4.17 KCAL/MOL
REMARK 923 INTER-LIGAND FREE ENERGY PREDICTED BY IDOCK:   -3.51 KCAL/MOL
REMARK 924 INTRA-LIGAND FREE ENERGY PREDICTED BY IDOCK:   -0.66 KCAL/MOL
REMARK 927      BINDING AFFINITY PREDICTED BY RF-SCORE:    0.00 PKD
ROOT
HETATM    1 NA   UNL     1     -10.178   8.457  65.642  1.00  0.00    -0.440 Na 
HETATM    2 NA   UNL     2     -10.646  12.456  70.224  1.00  0.00    -0.383 Na 
HETATM    3  O   UNL     3      -9.735  10.292  69.838  1.00  0.00    -0.373 OA 
HETATM    4  H   UNL     3      -9.215  10.446  69.058  1.00  0.00     0.000 HD 
HETATM    5  C   UNL     3     -10.933   9.530  69.468  1.00  0.00    -0.195 C  
HETATM    6  O   UNL     3     -10.401   8.258  67.542  1.00  0.00    -0.229 OA 
HETATM    7  C   UNL     3     -10.505   8.200  68.814  1.00  0.00    -0.174 C  
HETATM    8  O   UNL     3     -10.236   7.237  69.572  1.00  0.00    -0.187 OA 
ENDROOT
BRANCH   5   9
HETATM    9  C   UNL     3     -11.772   9.283  70.725  1.00  0.00    -0.269 C  
HETATM   10  C   UNL     3     -12.626  10.553  70.998  1.00  0.00    -0.400 C  
HETATM   11  O   UNL     3     -10.848   9.014  71.807  1.00  0.00    -0.334 OA 
HETATM   12  H   UNL     3     -11.368   8.860  72.587  1.00  0.00     0.000 HD 
HETATM   13  O   UNL     3     -12.952  10.817  72.182  1.00  0.00    -0.424 OA 
HETATM   14  O   UNL     3     -12.784  11.344  70.003  1.00  0.00    -0.105 OA 
ENDBRANCH   5   9
TORSDOF 1
ENDMDL
MODEL       97
REMARK 921   NORMALIZED FREE ENERGY PREDICTED BY IDOCK:   -3.35 KCAL/MOL
REMARK 922        TOTAL FREE ENERGY PREDICTED BY IDOCK:   -4.15 KCAL/MOL
REMARK 923 INTER-LIGAND FREE ENERGY PREDICTED BY IDOCK:   -3.49 KCAL/MOL
REMARK 924 INTRA-LIGAND FREE ENERGY PREDICTED BY IDOCK:   -0.66 KCAL/MOL
REMARK 927      BINDING AFFINITY PREDICTED BY RF-SCORE:    0.00 PKD
ROOT
HETATM    1 NA   UNL     1     -10.324   9.646  64.970  1.00  0.00    -0.311 Na 
HETATM    2 NA   UNL     2      -8.063  15.235  65.895  1.00  0.00    -0.335 Na 
HETATM    3  O   UNL     3      -9.219  13.558  67.124  1.00  0.00    -0.218 OA 
HETATM    4  H   UNL     3      -8.680  12.795  66.952  1.00  0.00     0.000 HD 
HETATM    5  C   UNL     3     -10.467  13.441  66.361  1.00  0.00    -0.286 C  
HETATM    6  O   UNL     3     -10.895  11.133  66.048  1.00  0.00    -0.243 OA 
HETATM    7  C   UNL     3     -11.191  12.142  66.772  1.00  0.00    -0.322 C  
HETATM    8  O   UNL     3     -11.924  12.180  67.790  1.00  0.00    -0.506 OA 
ENDROOT
BRANCH   5   9
HETATM    9  C   UNL     3     -11.336  14.671  66.639  1.00  0.00    -0.356 C  
HETATM   10  C   UNL     3     -10.835  15.835  65.739  1.00  0.00    -0.280 C  
HETATM   11  O   UNL     3     -11.197  14.981  68.047  1.00  0.00    -0.290 OA 
HETATM   12  H   UNL     3     -11.736  15.743  68.220  1.00  0.00     0.000 HD 
HETATM   13  O   UNL     3     -10.988  17.015  66.140  1.00  0.00    -0.039 OA 
HETATM   14  O   UNL     3     -10.131  15.493  64.725  1.00  0.00    -0.298 OA 
ENDBRANCH   5   9
TORSDOF 1
ENDMDL
MODEL       98
REMARK 921   NORMALIZED FREE ENERGY PREDICTED BY IDOCK:   -3.33 KCAL/MOL
REMARK 922        TOTAL FREE ENERGY PREDICTED BY IDOCK:   -4.13 KCAL/MOL
REMARK 923 INTER-LIGAND FREE ENERGY PREDICTED BY IDOCK:   -3.49 KCAL/MOL
REMARK 924 INTRA-LIGAND FREE ENERGY PREDICTED BY IDOCK:   -0.64 KCAL/MOL
REMARK 927      BINDING AFFINITY PREDICTED BY RF-SCORE:    0.00 PKD
ROOT
HETATM    1 NA   UNL     1     -12.211   6.841  66.832  1.00  0.00    -0.683 Na 
HETATM    2 NA   UNL     2     -10.150   9.576  71.880  1.00  0.00    -0.289 Na 
HETATM    3  O   UNL     3      -9.437   7.903  70.346  1.00  0.00    -0.162 OA 
HETATM    4  H   UNL     3      -9.551   8.351  69.516  1.00  0.00     0.000 HD 
HETATM    5  C   UNL     3     -10.494   6.898  70.494  1.00  0.00    -0.211 C  
HETATM    6  O   UNL     3     -11.153   6.232  68.319  1.00  0.00    -0.324 OA 
HETATM    7  C   UNL     3     -10.421   5.907  69.313  1.00  0.00    -0.274 C  
HETATM    8  O   UNL     3      -9.618   4.947  69.406  1.00  0.00    -0.138 OA 
ENDROOT
BRANCH   5   9
HETATM    9  C   UNL     3     -10.309   6.176  71.832  1.00  0.00    -0.208 C  
HETATM   10  C   UNL     3     -10.856   7.095  72.961  1.00  0.00    -0.328 C  
HETATM   11  O   UNL     3      -8.891   5.922  71.986  1.00  0.00    -0.137 OA 
HETATM   12  H   UNL     3      -8.777   5.474  72.816  1.00  0.00     0.000 HD 
HETATM   13  O   UNL     3     -10.356   7.002  74.109  1.00  0.00    -0.346 OA 
HETATM   14  O   UNL     3     -11.663   8.017  72.587  1.00  0.00    -0.388 OA 
ENDBRANCH   5   9
TORSDOF 1
ENDMDL
MODEL       99
REMARK 921   NORMALIZED FREE ENERGY PREDICTED BY IDOCK:   -3.33 KCAL/MOL
REMARK 922        TOTAL FREE ENERGY PREDICTED BY IDOCK:   -4.13 KCAL/MOL
REMARK 923 INTER-LIGAND FREE ENERGY PREDICTED BY IDOCK:   -3.47 KCAL/MOL
REMARK 924 INTRA-LIGAND FREE ENERGY PREDICTED BY IDOCK:   -0.66 KCAL/MOL
REMARK 927      BINDING AFFINITY PREDICTED BY RF-SCORE:    0.00 PKD
ROOT
HETATM    1 NA   UNL     1     -11.090  15.919  69.007  1.00  0.00    -0.201 Na 
HETATM    2 NA   UNL     2      -8.990  21.381  67.286  1.00  0.00    -0.482 Na 
HETATM    3  O   UNL     3      -9.482  19.272  66.299  1.00  0.00    -0.342 OA 
HETATM    4  H   UNL     3     -10.368  19.124  66.608  1.00  0.00     0.000 HD 
HETATM    5  C   UNL     3      -8.569  18.386  67.028  1.00  0.00    -0.262 C  
HETATM    6  O   UNL     3      -9.806  16.477  67.688  1.00  0.00    -0.240 OA 
HETATM    7  C   UNL     3      -8.999  16.921  66.804  1.00  0.00    -0.240 C  
HETATM    8  O   UNL     3      -8.587  16.344  65.768  1.00  0.00    -0.398 OA 
ENDROOT
BRANCH   5   9
HETATM    9  C   UNL     3      -7.140  18.625  66.530  1.00  0.00    -0.220 C  
HETATM   10  C   UNL     3      -6.564  19.860  67.278  1.00  0.00    -0.204 C  
HETATM   11  O   UNL     3      -7.221  18.850  65.101  1.00  0.00    -0.418 OA 
HETATM   12  H   UNL     3      -6.335  18.998  64.792  1.00  0.00     0.000 HD 
HETATM   13  O   UNL     3      -5.694  20.560  66.703  1.00  0.00    -0.168 OA 
HETATM   14  O   UNL     3      -7.158  20.180  68.366  1.00  0.00    -0.292 OA 
ENDBRANCH   5   9
TORSDOF 1
ENDMDL
MODEL      100
REMARK 921   NORMALIZED FREE ENERGY PREDICTED BY IDOCK:   -3.30 KCAL/MOL
REMARK 922        TOTAL FREE ENERGY PREDICTED BY IDOCK:   -4.10 KCAL/MOL
REMARK 923 INTER-LIGAND FREE ENERGY PREDICTED BY IDOCK:   -3.89 KCAL/MOL
REMARK 924 INTRA-LIGAND FREE ENERGY PREDICTED BY IDOCK:   -0.21 KCAL/MOL
REMARK 927      BINDING AFFINITY PREDICTED BY RF-SCORE:    0.00 PKD
ROOT
HETATM    1 NA   UNL     1     -13.015  14.521  63.180  1.00  0.00    -0.854 Na 
HETATM    2 NA   UNL     2     -12.449  11.666  68.541  1.00  0.00    -0.318 Na 
HETATM    3  O   UNL     3     -11.725  13.689  67.517  1.00  0.00    -0.328 OA 
HETATM    4  H   UNL     3     -12.547  14.037  67.193  1.00  0.00     0.000 HD 
HETATM    5  C   UNL     3     -10.943  13.182  66.385  1.00  0.00    -0.288 C  
HETATM    6  O   UNL     3     -11.590  14.411  64.466  1.00  0.00    -0.393 OA 
HETATM    7  C   UNL     3     -10.703  14.329  65.381  1.00  0.00    -0.343 C  
HETATM    8  O   UNL     3      -9.732  15.096  65.593  1.00  0.00    -0.336 OA 
ENDROOT
BRANCH   5   9
HETATM    9  C   UNL     3      -9.618  12.620  66.909  1.00  0.00    -0.232 C  
HETATM   10  C   UNL     3      -9.371  11.243  66.232  1.00  0.00    -0.207 C  
HETATM   11  O   UNL     3      -9.747  12.497  68.346  1.00  0.00    -0.221 OA 
HETATM   12  H   UNL     3      -8.925  12.149  68.671  1.00  0.00     0.000 HD 
HETATM   13  O   UNL     3      -8.702  10.379  66.850  1.00  0.00    -0.127 OA 
HETATM   14  O   UNL     3     -10.030  11.025  65.155  1.00  0.00    -0.243 OA 
ENDBRANCH   5   9
TORSDOF 1
ENDMDL
MODEL      101
REMARK 921   NORMALIZED FREE ENERGY PREDICTED BY IDOCK:   -3.29 KCAL/MOL
REMARK 922        TOTAL FREE ENERGY PREDICTED BY IDOCK:   -4.09 KCAL/MOL
REMARK 923 INTER-LIGAND FREE ENERGY PREDICTED BY IDOCK:   -3.44 KCAL/MOL
REMARK 924 INTRA-LIGAND FREE ENERGY PREDICTED BY IDOCK:   -0.65 KCAL/MOL
REMARK 927      BINDING AFFINITY PREDICTED BY RF-SCORE:    0.00 PKD
ROOT
HETATM    1 NA   UNL     1     -12.531  10.026  68.631  1.00  0.00    -0.503 Na 
HETATM    2 NA   UNL     2      -7.549  13.040  66.816  1.00  0.00    -0.234 Na 
HETATM    3  O   UNL     3      -9.037  13.019  68.672  1.00  0.00    -0.368 OA 
HETATM    4  H   UNL     3      -9.039  12.096  68.898  1.00  0.00     0.000 HD 
HETATM    5  C   UNL     3     -10.313  13.354  68.030  1.00  0.00    -0.241 C  
HETATM    6  O   UNL     3     -11.941  11.843  68.852  1.00  0.00    -0.299 OA 
HETATM    7  C   UNL     3     -11.469  13.020  68.996  1.00  0.00    -0.303 C  
HETATM    8  O   UNL     3     -11.778  13.881  69.856  1.00  0.00    -0.280 OA 
ENDROOT
BRANCH   5   9
HETATM    9  C   UNL     3     -10.310  14.841  67.665  1.00  0.00    -0.237 C  
HETATM   10  C   UNL     3      -9.610  15.003  66.286  1.00  0.00    -0.307 C  
HETATM   11  O   UNL     3      -9.594  15.536  68.716  1.00  0.00    -0.190 OA 
HETATM   12  H   UNL     3      -9.593  16.458  68.490  1.00  0.00     0.000 HD 
HETATM   13  O   UNL     3      -9.016  16.080  66.035  1.00  0.00    -0.337 OA 
HETATM   14  O   UNL     3      -9.537  13.943  65.571  1.00  0.00    -0.138 OA 
ENDBRANCH   5   9
TORSDOF 1
ENDMDL
MODEL      102
REMARK 921   NORMALIZED FREE ENERGY PREDICTED BY IDOCK:   -3.28 KCAL/MOL
REMARK 922        TOTAL FREE ENERGY PREDICTED BY IDOCK:   -4.08 KCAL/MOL
REMARK 923 INTER-LIGAND FREE ENERGY PREDICTED BY IDOCK:   -3.86 KCAL/MOL
REMARK 924 INTRA-LIGAND FREE ENERGY PREDICTED BY IDOCK:   -0.22 KCAL/MOL
REMARK 927      BINDING AFFINITY PREDICTED BY RF-SCORE:    0.00 PKD
ROOT
HETATM    1 NA   UNL     1     -10.999  11.592  70.442  1.00  0.00    -0.428 Na 
HETATM    2 NA   UNL     2      -7.053  11.810  65.796  1.00  0.00    -0.349 Na 
HETATM    3  O   UNL     3      -9.051  12.903  66.485  1.00  0.00    -0.337 OA 
HETATM    4  H   UNL     3      -8.829  13.153  67.374  1.00  0.00     0.000 HD 
HETATM    5  C   UNL     3      -9.999  11.784  66.528  1.00  0.00    -0.204 C  
HETATM    6  O   UNL     3     -11.200  11.946  68.562  1.00  0.00    -0.215 OA 
HETATM    7  C   UNL     3     -11.254  12.214  67.315  1.00  0.00    -0.306 C  
HETATM    8  O   UNL     3     -12.151  12.832  66.691  1.00  0.00    -0.468 OA 
ENDROOT
BRANCH   5   9
HETATM    9  C   UNL     3     -10.356  11.381  65.094  1.00  0.00    -0.290 C  
HETATM   10  C   UNL     3      -9.711   9.997  64.801  1.00  0.00    -0.293 C  
HETATM   11  O   UNL     3      -9.835  12.413  64.220  1.00  0.00    -0.512 OA 
HETATM   12  H   UNL     3     -10.057  12.163  63.331  1.00  0.00     0.000 HD 
HETATM   13  O   UNL     3      -9.396   9.717  63.618  1.00  0.00    -0.253 OA 
HETATM   14  O   UNL     3      -9.379   9.309  65.829  1.00  0.00    -0.208 OA 
ENDBRANCH   5   9
TORSDOF 1
ENDMDL
MODEL      103
REMARK 921   NORMALIZED FREE ENERGY PREDICTED BY IDOCK:   -3.27 KCAL/MOL
REMARK 922        TOTAL FREE ENERGY PREDICTED BY IDOCK:   -4.07 KCAL/MOL
REMARK 923 INTER-LIGAND FREE ENERGY PREDICTED BY IDOCK:   -3.41 KCAL/MOL
REMARK 924 INTRA-LIGAND FREE ENERGY PREDICTED BY IDOCK:   -0.66 KCAL/MOL
REMARK 927      BINDING AFFINITY PREDICTED BY RF-SCORE:    0.00 PKD
ROOT
HETATM    1 NA   UNL     1      -7.209  15.477  66.759  1.00  0.00    -0.163 Na 
HETATM    2 NA   UNL     2     -12.134  14.588  63.272  1.00  0.00    -0.699 Na 
HETATM    3  O   UNL     3     -11.571  14.609  65.584  1.00  0.00    -0.346 OA 
HETATM    4  H   UNL     3     -11.126  15.445  65.659  1.00  0.00     0.000 HD 
HETATM    5  C   UNL     3     -10.578  13.532  65.655  1.00  0.00    -0.284 C  
HETATM    6  O   UNL     3      -8.747  14.335  66.924  1.00  0.00    -0.218 OA 
HETATM    7  C   UNL     3      -9.813  13.636  66.991  1.00  0.00    -0.251 C  
HETATM    8  O   UNL     3     -10.331  13.104  68.003  1.00  0.00    -0.225 OA 
ENDROOT
BRANCH   5   9
HETATM    9  C   UNL     3     -11.297  12.185  65.533  1.00  0.00    -0.344 C  
HETATM   10  C   UNL     3     -11.594  11.926  64.030  1.00  0.00    -0.389 C  
HETATM   11  O   UNL     3     -12.514  12.281  66.313  1.00  0.00    -0.421 OA 
HETATM   12  H   UNL     3     -12.960  11.445  66.238  1.00  0.00     0.000 HD 
HETATM   13  O   UNL     3     -12.591  11.226  63.724  1.00  0.00     0.181 OA 
HETATM   14  O   UNL     3     -10.894  12.603  63.198  1.00  0.00    -0.254 OA 
ENDBRANCH   5   9
TORSDOF 1
ENDMDL
MODEL      104
REMARK 921   NORMALIZED FREE ENERGY PREDICTED BY IDOCK:   -3.26 KCAL/MOL
REMARK 922        TOTAL FREE ENERGY PREDICTED BY IDOCK:   -4.06 KCAL/MOL
REMARK 923 INTER-LIGAND FREE ENERGY PREDICTED BY IDOCK:   -3.41 KCAL/MOL
REMARK 924 INTRA-LIGAND FREE ENERGY PREDICTED BY IDOCK:   -0.65 KCAL/MOL
REMARK 927      BINDING AFFINITY PREDICTED BY RF-SCORE:    0.00 PKD
ROOT
HETATM    1 NA   UNL     1      -8.600   9.302  70.561  1.00  0.00    -0.110 Na 
HETATM    2 NA   UNL     2     -12.805  13.618  69.616  1.00  0.00    -0.306 Na 
HETATM    3  O   UNL     3     -12.247  11.464  68.775  1.00  0.00    -0.502 OA 
HETATM    4  H   UNL     3     -12.182  10.961  69.579  1.00  0.00     0.000 HD 
HETATM    5  C   UNL     3     -10.898  11.693  68.247  1.00  0.00    -0.219 C  
HETATM    6  O   UNL     3      -9.529   9.910  68.991  1.00  0.00    -0.166 OA 
HETATM    7  C   UNL     3     -10.213  10.333  67.999  1.00  0.00    -0.169 C  
HETATM    8  O   UNL     3     -10.443   9.754  66.910  1.00  0.00    -0.238 OA 
ENDROOT
BRANCH   5   9
HETATM    9  C   UNL     3     -11.004  12.503  66.951  1.00  0.00    -0.257 C  
HETATM   10  C   UNL     3     -11.088  14.010  67.324  1.00  0.00    -0.302 C  
HETATM   11  O   UNL     3     -12.196  12.052  66.263  1.00  0.00    -0.548 OA 
HETATM   12  H   UNL     3     -12.261  12.554  65.460  1.00  0.00     0.000 HD 
HETATM   13  O   UNL     3     -11.700  14.789  66.552  1.00  0.00    -0.350 OA 
HETATM   14  O   UNL     3     -10.678  14.318  68.498  1.00  0.00    -0.241 OA 
ENDBRANCH   5   9
TORSDOF 1
ENDMDL
MODEL      105
REMARK 921   NORMALIZED FREE ENERGY PREDICTED BY IDOCK:   -3.26 KCAL/MOL
REMARK 922        TOTAL FREE ENERGY PREDICTED BY IDOCK:   -4.06 KCAL/MOL
REMARK 923 INTER-LIGAND FREE ENERGY PREDICTED BY IDOCK:   -4.94 KCAL/MOL
REMARK 924 INTRA-LIGAND FREE ENERGY PREDICTED BY IDOCK:    0.88 KCAL/MOL
REMARK 927      BINDING AFFINITY PREDICTED BY RF-SCORE:    0.00 PKD
ROOT
HETATM    1 NA   UNL     1      -8.200   9.217  66.271  1.00  0.00    -0.098 Na 
HETATM    2 NA   UNL     2     -12.277  13.230  68.388  1.00  0.00    -0.284 Na 
HETATM    3  O   UNL     3     -11.981  11.831  66.487  1.00  0.00    -0.545 OA 
HETATM    4  H   UNL     3     -11.807  10.992  66.899  1.00  0.00     0.000 HD 
HETATM    5  C   UNL     3     -10.730  12.354  65.928  1.00  0.00    -0.266 C  
HETATM    6  O   UNL     3      -9.349  10.500  65.414  1.00  0.00    -0.184 OA 
HETATM    7  C   UNL     3     -10.167  11.341  64.910  1.00  0.00    -0.286 C  
HETATM    8  O   UNL     3     -10.607  11.388  63.735  1.00  0.00    -0.343 OA 
ENDROOT
BRANCH   5   9
HETATM    9  C   UNL     3     -11.010  13.706  65.265  1.00  0.00    -0.310 C  
HETATM   10  C   UNL     3     -12.406  13.635  64.585  1.00  0.00    -0.371 C  
HETATM   11  O   UNL     3      -9.953  13.935  64.301  1.00  0.00    -0.714 OA 
HETATM   12  H   UNL     3     -10.127  14.773  63.890  1.00  0.00     0.000 HD 
HETATM   13  O   UNL     3     -12.622  14.350  63.575  1.00  0.00    -0.784 OA 
HETATM   14  O   UNL     3     -13.183  12.707  65.003  1.00  0.00    -0.753 OA 
ENDBRANCH   5   9
TORSDOF 1
ENDMDL
MODEL      106
REMARK 921   NORMALIZED FREE ENERGY PREDICTED BY IDOCK:   -3.25 KCAL/MOL
REMARK 922        TOTAL FREE ENERGY PREDICTED BY IDOCK:   -4.04 KCAL/MOL
REMARK 923 INTER-LIGAND FREE ENERGY PREDICTED BY IDOCK:   -3.82 KCAL/MOL
REMARK 924 INTRA-LIGAND FREE ENERGY PREDICTED BY IDOCK:   -0.22 KCAL/MOL
REMARK 927      BINDING AFFINITY PREDICTED BY RF-SCORE:    0.00 PKD
ROOT
HETATM    1 NA   UNL     1      -6.351  19.453  63.972  1.00  0.00    -0.253 Na 
HETATM    2 NA   UNL     2     -11.043  15.986  65.753  1.00  0.00    -0.314 Na 
HETATM    3  O   UNL     3     -10.402  18.276  65.809  1.00  0.00    -0.594 OA 
HETATM    4  H   UNL     3     -10.178  18.429  64.899  1.00  0.00     0.000 HD 
HETATM    5  C   UNL     3      -9.167  18.218  66.599  1.00  0.00    -0.295 C  
HETATM    6  O   UNL     3      -7.543  19.528  65.479  1.00  0.00    -0.425 OA 
HETATM    7  C   UNL     3      -8.395  19.543  66.431  1.00  0.00    -0.347 C  
HETATM    8  O   UNL     3      -8.716  20.504  67.171  1.00  0.00    -0.336 OA 
ENDROOT
BRANCH   5   9
HETATM    9  C   UNL     3      -9.528  17.971  68.067  1.00  0.00    -0.284 C  
HETATM   10  C   UNL     3      -8.555  16.899  68.634  1.00  0.00    -0.267 C  
HETATM   11  O   UNL     3     -10.903  17.518  68.096  1.00  0.00    -0.361 OA 
HETATM   12  H   UNL     3     -11.127  17.365  69.007  1.00  0.00     0.000 HD 
HETATM   13  O   UNL     3      -8.952  16.159  69.568  1.00  0.00    -0.188 OA 
HETATM   14  O   UNL     3      -7.469  16.728  67.977  1.00  0.00    -0.159 OA 
ENDBRANCH   5   9
TORSDOF 1
ENDMDL
MODEL      107
REMARK 921   NORMALIZED FREE ENERGY PREDICTED BY IDOCK:   -3.24 KCAL/MOL
REMARK 922        TOTAL FREE ENERGY PREDICTED BY IDOCK:   -4.03 KCAL/MOL
REMARK 923 INTER-LIGAND FREE ENERGY PREDICTED BY IDOCK:   -3.83 KCAL/MOL
REMARK 924 INTRA-LIGAND FREE ENERGY PREDICTED BY IDOCK:   -0.20 KCAL/MOL
REMARK 927      BINDING AFFINITY PREDICTED BY RF-SCORE:    0.00 PKD
ROOT
HETATM    1 NA   UNL     1     -10.613  14.238  70.136  1.00  0.00    -0.370 Na 
HETATM    2 NA   UNL     2     -11.052  14.343  64.053  1.00  0.00    -0.470 Na 
HETATM    3  O   UNL     3     -12.147  13.315  65.898  1.00  0.00    -0.398 OA 
HETATM    4  H   UNL     3     -12.327  14.066  66.450  1.00  0.00     0.000 HD 
HETATM    5  C   UNL     3     -11.055  12.538  66.493  1.00  0.00    -0.287 C  
HETATM    6  O   UNL     3     -11.105  12.914  68.831  1.00  0.00    -0.246 OA 
HETATM    7  C   UNL     3     -11.462  12.098  67.915  1.00  0.00    -0.328 C  
HETATM    8  O   UNL     3     -12.147  11.053  68.029  1.00  0.00    -0.615 OA 
ENDROOT
BRANCH   5   9
HETATM    9  C   UNL     3     -10.765  11.326  65.602  1.00  0.00    -0.217 C  
HETATM   10  C   UNL     3      -9.233  11.062  65.622  1.00  0.00    -0.210 C  
HETATM   11  O   UNL     3     -11.236  11.653  64.272  1.00  0.00    -0.341 OA 
HETATM   12  H   UNL     3     -11.057  10.901  63.720  1.00  0.00     0.000 HD 
HETATM   13  O   UNL     3      -8.700  10.527  64.618  1.00  0.00    -0.183 OA 
HETATM   14  O   UNL     3      -8.591  11.580  66.601  1.00  0.00    -0.168 OA 
ENDBRANCH   5   9
TORSDOF 1
ENDMDL
MODEL      108
REMARK 921   NORMALIZED FREE ENERGY PREDICTED BY IDOCK:   -3.21 KCAL/MOL
REMARK 922        TOTAL FREE ENERGY PREDICTED BY IDOCK:   -4.00 KCAL/MOL
REMARK 923 INTER-LIGAND FREE ENERGY PREDICTED BY IDOCK:   -3.34 KCAL/MOL
REMARK 924 INTRA-LIGAND FREE ENERGY PREDICTED BY IDOCK:   -0.66 KCAL/MOL
REMARK 927      BINDING AFFINITY PREDICTED BY RF-SCORE:    0.00 PKD
ROOT
HETATM    1 NA   UNL     1      -7.123  17.685  69.572  1.00  0.00    -0.236 Na 
HETATM    2 NA   UNL     2      -9.755  12.358  68.191  1.00  0.00    -0.167 Na 
HETATM    3  O   UNL     3      -8.362  13.979  67.144  1.00  0.00    -0.231 OA 
HETATM    4  H   UNL     3      -7.668  14.070  67.786  1.00  0.00     0.000 HD 
HETATM    5  C   UNL     3      -9.213  15.173  67.190  1.00  0.00    -0.213 C  
HETATM    6  O   UNL     3      -7.875  16.972  67.952  1.00  0.00    -0.177 OA 
HETATM    7  C   UNL     3      -8.352  16.420  66.904  1.00  0.00    -0.228 C  
HETATM    8  O   UNL     3      -8.146  16.724  65.704  1.00  0.00    -0.221 OA 
ENDROOT
BRANCH   5   9
HETATM    9  C   UNL     3     -10.333  15.025  66.155  1.00  0.00    -0.299 C  
HETATM   10  C   UNL     3     -11.478  14.189  66.792  1.00  0.00    -0.369 C  
HETATM   11  O   UNL     3      -9.760  14.361  65.001  1.00  0.00    -0.509 OA 
HETATM   12  H   UNL     3     -10.454  14.270  64.359  1.00  0.00     0.000 HD 
HETATM   13  O   UNL     3     -12.207  13.495  66.041  1.00  0.00    -0.414 OA 
HETATM   14  O   UNL     3     -11.479  14.127  68.071  1.00  0.00    -0.279 OA 
ENDBRANCH   5   9
TORSDOF 1
ENDMDL
MODEL      109
REMARK 921   NORMALIZED FREE ENERGY PREDICTED BY IDOCK:   -3.21 KCAL/MOL
REMARK 922        TOTAL FREE ENERGY PREDICTED BY IDOCK:   -4.00 KCAL/MOL
REMARK 923 INTER-LIGAND FREE ENERGY PREDICTED BY IDOCK:   -3.34 KCAL/MOL
REMARK 924 INTRA-LIGAND FREE ENERGY PREDICTED BY IDOCK:   -0.66 KCAL/MOL
REMARK 927      BINDING AFFINITY PREDICTED BY RF-SCORE:    0.00 PKD
ROOT
HETATM    1 NA   UNL     1      -6.953   9.167  66.520  1.00  0.00    -0.069 Na 
HETATM    2 NA   UNL     2     -11.508  12.050  69.373  1.00  0.00    -0.202 Na 
HETATM    3  O   UNL     3     -11.194  10.692  67.445  1.00  0.00    -0.317 OA 
HETATM    4  H   UNL     3     -10.730   9.950  67.814  1.00  0.00     0.000 HD 
HETATM    5  C   UNL     3     -10.252  11.502  66.665  1.00  0.00    -0.219 C  
HETATM    6  O   UNL     3      -8.539  10.059  65.896  1.00  0.00    -0.133 OA 
HETATM    7  C   UNL     3      -9.630  10.629  65.556  1.00  0.00    -0.221 C  
HETATM    8  O   UNL     3     -10.270  10.503  64.484  1.00  0.00    -0.348 OA 
ENDROOT
BRANCH   5   9
HETATM    9  C   UNL     3     -11.000  12.700  66.071  1.00  0.00    -0.282 C  
HETATM   10  C   UNL     3     -11.116  13.795  67.168  1.00  0.00    -0.302 C  
HETATM   11  O   UNL     3     -12.300  12.221  65.649  1.00  0.00    -0.619 OA 
HETATM   12  H   UNL     3     -12.764  12.964  65.280  1.00  0.00     0.000 HD 
HETATM   13  O   UNL     3     -12.093  14.583  67.132  1.00  0.00    -0.397 OA 
HETATM   14  O   UNL     3     -10.293  13.695  68.144  1.00  0.00    -0.232 OA 
ENDBRANCH   5   9
TORSDOF 1
ENDMDL
MODEL      110
REMARK 921   NORMALIZED FREE ENERGY PREDICTED BY IDOCK:   -3.21 KCAL/MOL
REMARK 922        TOTAL FREE ENERGY PREDICTED BY IDOCK:   -4.00 KCAL/MOL
REMARK 923 INTER-LIGAND FREE ENERGY PREDICTED BY IDOCK:   -3.79 KCAL/MOL
REMARK 924 INTRA-LIGAND FREE ENERGY PREDICTED BY IDOCK:   -0.21 KCAL/MOL
REMARK 927      BINDING AFFINITY PREDICTED BY RF-SCORE:    0.00 PKD
ROOT
HETATM    1 NA   UNL     1      -9.316  14.448  64.966  1.00  0.00    -0.467 Na 
HETATM    2 NA   UNL     2      -5.673  18.063  68.262  1.00  0.00    -0.142 Na 
HETATM    3  O   UNL     3      -8.001  17.637  68.009  1.00  0.00    -0.227 OA 
HETATM    4  H   UNL     3      -8.028  16.692  68.105  1.00  0.00     0.000 HD 
HETATM    5  C   UNL     3      -8.211  17.979  66.598  1.00  0.00    -0.261 C  
HETATM    6  O   UNL     3      -9.499  16.243  65.630  1.00  0.00    -0.463 OA 
HETATM    7  C   UNL     3      -9.570  17.413  66.137  1.00  0.00    -0.193 C  
HETATM    8  O   UNL     3     -10.596  18.100  66.364  1.00  0.00    -0.356 OA 
ENDROOT
BRANCH   5   9
HETATM    9  C   UNL     3      -8.166  19.502  66.444  1.00  0.00    -0.333 C  
HETATM   10  C   UNL     3      -6.949  19.865  65.549  1.00  0.00    -0.309 C  
HETATM   11  O   UNL     3      -8.041  20.060  67.775  1.00  0.00    -0.293 OA 
HETATM   12  H   UNL     3      -8.013  21.005  67.680  1.00  0.00     0.000 HD 
HETATM   13  O   UNL     3      -6.391  20.979  65.712  1.00  0.00    -0.243 OA 
HETATM   14  O   UNL     3      -6.486  18.916  64.825  1.00  0.00    -0.504 OA 
ENDBRANCH   5   9
TORSDOF 1
ENDMDL
MODEL      111
REMARK 921   NORMALIZED FREE ENERGY PREDICTED BY IDOCK:   -3.19 KCAL/MOL
REMARK 922        TOTAL FREE ENERGY PREDICTED BY IDOCK:   -3.99 KCAL/MOL
REMARK 923 INTER-LIGAND FREE ENERGY PREDICTED BY IDOCK:   -3.33 KCAL/MOL
REMARK 924 INTRA-LIGAND FREE ENERGY PREDICTED BY IDOCK:   -0.65 KCAL/MOL
REMARK 927      BINDING AFFINITY PREDICTED BY RF-SCORE:    0.00 PKD
ROOT
HETATM    1 NA   UNL     1      -7.068   4.789  70.058  1.00  0.00    -0.039 Na 
HETATM    2 NA   UNL     2     -11.390   6.530  73.993  1.00  0.00    -0.428 Na 
HETATM    3  O   UNL     3     -11.243   5.481  71.863  1.00  0.00    -0.216 OA 
HETATM    4  H   UNL     3     -10.620   4.785  72.041  1.00  0.00     0.000 HD 
HETATM    5  C   UNL     3     -10.580   6.520  71.068  1.00  0.00    -0.231 C  
HETATM    6  O   UNL     3      -8.849   5.477  69.833  1.00  0.00    -0.123 OA 
HETATM    7  C   UNL     3     -10.053   5.897  69.759  1.00  0.00    -0.197 C  
HETATM    8  O   UNL     3     -10.853   5.797  68.797  1.00  0.00    -0.264 OA 
ENDROOT
BRANCH   5   9
HETATM    9  C   UNL     3     -11.584   7.641  70.782  1.00  0.00    -0.265 C  
HETATM   10  C   UNL     3     -11.597   8.606  72.000  1.00  0.00    -0.370 C  
HETATM   11  O   UNL     3     -12.875   7.015  70.578  1.00  0.00    -0.583 OA 
HETATM   12  H   UNL     3     -13.497   7.710  70.400  1.00  0.00     0.000 HD 
HETATM   13  O   UNL     3     -12.650   9.242  72.254  1.00  0.00    -0.369 OA 
HETATM   14  O   UNL     3     -10.576   8.545  72.771  1.00  0.00    -0.248 OA 
ENDBRANCH   5   9
TORSDOF 1
ENDMDL
MODEL      112
REMARK 921   NORMALIZED FREE ENERGY PREDICTED BY IDOCK:   -3.18 KCAL/MOL
REMARK 922        TOTAL FREE ENERGY PREDICTED BY IDOCK:   -3.97 KCAL/MOL
REMARK 923 INTER-LIGAND FREE ENERGY PREDICTED BY IDOCK:   -3.36 KCAL/MOL
REMARK 924 INTRA-LIGAND FREE ENERGY PREDICTED BY IDOCK:   -0.62 KCAL/MOL
REMARK 927      BINDING AFFINITY PREDICTED BY RF-SCORE:    0.00 PKD
ROOT
HETATM    1 NA   UNL     1     -11.905   6.644  66.976  1.00  0.00    -0.549 Na 
HETATM    2 NA   UNL     2     -11.170  11.578  63.467  1.00  0.00    -0.307 Na 
HETATM    3  O   UNL     3      -9.862   9.767  64.284  1.00  0.00    -0.410 OA 
HETATM    4  H   UNL     3     -10.400   9.023  64.038  1.00  0.00     0.000 HD 
HETATM    5  C   UNL     3      -9.959   9.965  65.735  1.00  0.00    -0.277 C  
HETATM    6  O   UNL     3     -10.440   7.861  66.710  1.00  0.00    -0.327 OA 
HETATM    7  C   UNL     3      -9.495   8.681  66.453  1.00  0.00    -0.230 C  
HETATM    8  O   UNL     3      -8.263   8.532  66.646  1.00  0.00    -0.105 OA 
ENDROOT
BRANCH   5   9
HETATM    9  C   UNL     3      -9.091  11.164  66.130  1.00  0.00    -0.201 C  
HETATM   10  C   UNL     3      -9.947  12.453  65.987  1.00  0.00    -0.255 C  
HETATM   11  O   UNL     3      -7.949  11.175  65.240  1.00  0.00    -0.363 OA 
HETATM   12  H   UNL     3      -7.411  11.918  65.486  1.00  0.00     0.000 HD 
HETATM   13  O   UNL     3      -9.367  13.535  65.723  1.00  0.00    -0.033 OA 
HETATM   14  O   UNL     3     -11.216  12.280  65.968  1.00  0.00    -0.302 OA 
ENDBRANCH   5   9
TORSDOF 1
ENDMDL
MODEL      113
REMARK 921   NORMALIZED FREE ENERGY PREDICTED BY IDOCK:   -3.18 KCAL/MOL
REMARK 922        TOTAL FREE ENERGY PREDICTED BY IDOCK:   -3.97 KCAL/MOL
REMARK 923 INTER-LIGAND FREE ENERGY PREDICTED BY IDOCK:   -3.33 KCAL/MOL
REMARK 924 INTRA-LIGAND FREE ENERGY PREDICTED BY IDOCK:   -0.63 KCAL/MOL
REMARK 927      BINDING AFFINITY PREDICTED BY RF-SCORE:    0.00 PKD
ROOT
HETATM    1 NA   UNL     1     -12.510  16.126  63.627  1.00  0.00    -0.771 Na 
HETATM    2 NA   UNL     2     -12.346  16.589  69.706  1.00  0.00    -0.214 Na 
HETATM    3  O   UNL     3     -11.235  17.522  67.821  1.00  0.00    -0.112 OA 
HETATM    4  H   UNL     3     -11.972  17.806  67.293  1.00  0.00     0.000 HD 
HETATM    5  C   UNL     3     -10.642  16.329  67.208  1.00  0.00    -0.298 C  
HETATM    6  O   UNL     3     -11.086  16.427  64.884  1.00  0.00    -0.510 OA 
HETATM    7  C   UNL     3     -10.198  16.666  65.770  1.00  0.00    -0.307 C  
HETATM    8  O   UNL     3      -9.070  17.196  65.616  1.00  0.00    -0.500 OA 
ENDROOT
BRANCH   5   9
HETATM    9  C   UNL     3      -9.454  15.872  68.060  1.00  0.00    -0.206 C  
HETATM   10  C   UNL     3     -10.008  15.124  69.305  1.00  0.00    -0.242 C  
HETATM   11  O   UNL     3      -8.715  17.061  68.432  1.00  0.00    -0.230 OA 
HETATM   12  H   UNL     3      -7.978  16.777  68.960  1.00  0.00     0.000 HD 
HETATM   13  O   UNL     3      -9.335  15.138  70.366  1.00  0.00     0.314 OA 
HETATM   14  O   UNL     3     -11.211  14.695  69.209  1.00  0.00    -0.257 OA 
ENDBRANCH   5   9
TORSDOF 1
ENDMDL
MODEL      114
REMARK 921   NORMALIZED FREE ENERGY PREDICTED BY IDOCK:   -3.17 KCAL/MOL
REMARK 922        TOTAL FREE ENERGY PREDICTED BY IDOCK:   -3.96 KCAL/MOL
REMARK 923 INTER-LIGAND FREE ENERGY PREDICTED BY IDOCK:   -3.75 KCAL/MOL
REMARK 924 INTRA-LIGAND FREE ENERGY PREDICTED BY IDOCK:   -0.21 KCAL/MOL
REMARK 927      BINDING AFFINITY PREDICTED BY RF-SCORE:    0.00 PKD
ROOT
HETATM    1 NA   UNL     1     -10.818  20.276  69.511  1.00  0.00    -0.600 Na 
HETATM    2 NA   UNL     2      -8.951  15.801  65.811  1.00  0.00    -0.245 Na 
HETATM    3  O   UNL     3      -8.310  16.780  67.882  1.00  0.00    -0.189 OA 
HETATM    4  H   UNL     3      -9.130  16.758  68.360  1.00  0.00     0.000 HD 
HETATM    5  C   UNL     3      -8.031  18.163  67.481  1.00  0.00    -0.227 C  
HETATM    6  O   UNL     3      -9.082  19.587  69.054  1.00  0.00    -0.355 OA 
HETATM    7  C   UNL     3      -7.965  19.053  68.739  1.00  0.00    -0.333 C  
HETATM    8  O   UNL     3      -6.875  19.108  69.359  1.00  0.00    -0.308 OA 
ENDROOT
BRANCH   5   9
HETATM    9  C   UNL     3      -6.708  18.199  66.709  1.00  0.00    -0.191 C  
HETATM   10  C   UNL     3      -6.900  19.097  65.454  1.00  0.00    -0.204 C  
HETATM   11  O   UNL     3      -6.389  16.833  66.349  1.00  0.00    -0.257 OA 
HETATM   12  H   UNL     3      -5.568  16.855  65.871  1.00  0.00     0.000 HD 
HETATM   13  O   UNL     3      -6.207  18.862  64.434  1.00  0.00    -0.475 OA 
HETATM   14  O   UNL     3      -7.893  19.905  65.493  1.00  0.00    -0.362 OA 
ENDBRANCH   5   9
TORSDOF 1
ENDMDL
MODEL      115
REMARK 921   NORMALIZED FREE ENERGY PREDICTED BY IDOCK:   -3.17 KCAL/MOL
REMARK 922        TOTAL FREE ENERGY PREDICTED BY IDOCK:   -3.96 KCAL/MOL
REMARK 923 INTER-LIGAND FREE ENERGY PREDICTED BY IDOCK:   -3.69 KCAL/MOL
REMARK 924 INTRA-LIGAND FREE ENERGY PREDICTED BY IDOCK:   -0.27 KCAL/MOL
REMARK 927      BINDING AFFINITY PREDICTED BY RF-SCORE:    0.00 PKD
ROOT
HETATM    1 NA   UNL     1     -14.214  14.551  65.426  1.00  0.00    -0.739 Na 
HETATM    2 NA   UNL     2      -9.494  14.508  69.290  1.00  0.00    -0.183 Na 
HETATM    3  O   UNL     3      -9.869  14.557  66.941  1.00  0.00    -0.249 OA 
HETATM    4  H   UNL     3     -10.479  15.282  66.865  1.00  0.00     0.000 HD 
HETATM    5  C   UNL     3     -10.597  13.300  66.732  1.00  0.00    -0.276 C  
HETATM    6  O   UNL     3     -12.456  13.775  65.345  1.00  0.00    -0.443 OA 
HETATM    7  C   UNL     3     -11.261  13.324  65.340  1.00  0.00    -0.287 C  
HETATM    8  O   UNL     3     -10.565  12.980  64.355  1.00  0.00    -0.367 OA 
ENDROOT
BRANCH   5   9
HETATM    9  C   UNL     3      -9.613  12.132  66.855  1.00  0.00    -0.206 C  
HETATM   10  C   UNL     3      -9.858  11.431  68.221  1.00  0.00    -0.200 C  
HETATM   11  O   UNL     3      -8.279  12.688  66.768  1.00  0.00    -0.378 OA 
HETATM   12  H   UNL     3      -7.669  11.964  66.843  1.00  0.00     0.000 HD 
HETATM   13  O   UNL     3      -8.897  10.847  68.779  1.00  0.00    -0.158 OA 
HETATM   14  O   UNL     3     -10.993  11.660  68.770  1.00  0.00    -0.202 OA 
ENDBRANCH   5   9
TORSDOF 1
ENDMDL
MODEL      116
REMARK 921   NORMALIZED FREE ENERGY PREDICTED BY IDOCK:   -3.16 KCAL/MOL
REMARK 922        TOTAL FREE ENERGY PREDICTED BY IDOCK:   -3.95 KCAL/MOL
REMARK 923 INTER-LIGAND FREE ENERGY PREDICTED BY IDOCK:   -3.76 KCAL/MOL
REMARK 924 INTRA-LIGAND FREE ENERGY PREDICTED BY IDOCK:   -0.20 KCAL/MOL
REMARK 927      BINDING AFFINITY PREDICTED BY RF-SCORE:    0.00 PKD
ROOT
HETATM    1 NA   UNL     1      -7.657   8.200  68.889  1.00  0.00    -0.078 Na 
HETATM    2 NA   UNL     2     -13.337  10.355  69.437  1.00  0.00    -0.560 Na 
HETATM    3  O   UNL     3     -11.304  10.364  70.673  1.00  0.00    -0.319 OA 
HETATM    4  H   UNL     3     -10.688  10.668  70.017  1.00  0.00     0.000 HD 
HETATM    5  C   UNL     3     -11.090   8.930  70.898  1.00  0.00    -0.271 C  
HETATM    6  O   UNL     3      -8.824   8.461  70.395  1.00  0.00    -0.138 OA 
HETATM    7  C   UNL     3      -9.634   8.700  71.353  1.00  0.00    -0.243 C  
HETATM    8  O   UNL     3      -9.375   8.839  72.573  1.00  0.00    -0.326 OA 
ENDROOT
BRANCH   5   9
HETATM    9  C   UNL     3     -12.083   8.440  71.956  1.00  0.00    -0.356 C  
HETATM   10  C   UNL     3     -12.756   7.142  71.428  1.00  0.00    -0.391 C  
HETATM   11  O   UNL     3     -13.047   9.502  72.159  1.00  0.00    -0.404 OA 
HETATM   12  H   UNL     3     -13.663   9.198  72.816  1.00  0.00     0.000 HD 
HETATM   13  O   UNL     3     -13.920   6.868  71.812  1.00  0.00    -0.302 OA 
HETATM   14  O   UNL     3     -12.135   6.534  70.488  1.00  0.00    -0.367 OA 
ENDBRANCH   5   9
TORSDOF 1
ENDMDL
MODEL      117
REMARK 921   NORMALIZED FREE ENERGY PREDICTED BY IDOCK:   -3.15 KCAL/MOL
REMARK 922        TOTAL FREE ENERGY PREDICTED BY IDOCK:   -3.94 KCAL/MOL
REMARK 923 INTER-LIGAND FREE ENERGY PREDICTED BY IDOCK:   -3.72 KCAL/MOL
REMARK 924 INTRA-LIGAND FREE ENERGY PREDICTED BY IDOCK:   -0.22 KCAL/MOL
REMARK 927      BINDING AFFINITY PREDICTED BY RF-SCORE:    0.00 PKD
ROOT
HETATM    1 NA   UNL     1     -11.503  10.217  67.376  1.00  0.00    -0.295 Na 
HETATM    2 NA   UNL     2     -14.175   8.609  72.618  1.00  0.00    -0.370 Na 
HETATM    3  O   UNL     3     -12.243   9.796  71.898  1.00  0.00    -0.375 OA 
HETATM    4  H   UNL     3     -12.622  10.413  71.283  1.00  0.00     0.000 HD 
HETATM    5  C   UNL     3     -11.524   8.760  71.149  1.00  0.00    -0.286 C  
HETATM    6  O   UNL     3     -10.817   9.721  69.103  1.00  0.00    -0.219 OA 
HETATM    7  C   UNL     3     -10.433   9.425  70.284  1.00  0.00    -0.251 C  
HETATM    8  O   UNL     3      -9.328   9.673  70.827  1.00  0.00    -0.207 OA 
ENDROOT
BRANCH   5   9
HETATM    9  C   UNL     3     -10.913   7.765  72.140  1.00  0.00    -0.266 C  
HETATM   10  C   UNL     3     -11.098   6.331  71.568  1.00  0.00    -0.281 C  
HETATM   11  O   UNL     3     -11.610   7.936  73.399  1.00  0.00    -0.566 OA 
HETATM   12  H   UNL     3     -11.230   7.319  74.014  1.00  0.00     0.000 HD 
HETATM   13  O   UNL     3     -11.189   5.370  72.371  1.00  0.00    -0.251 OA 
HETATM   14  O   UNL     3     -11.327   6.258  70.310  1.00  0.00    -0.357 OA 
ENDBRANCH   5   9
TORSDOF 1
ENDMDL
MODEL      118
REMARK 921   NORMALIZED FREE ENERGY PREDICTED BY IDOCK:   -3.15 KCAL/MOL
REMARK 922        TOTAL FREE ENERGY PREDICTED BY IDOCK:   -3.93 KCAL/MOL
REMARK 923 INTER-LIGAND FREE ENERGY PREDICTED BY IDOCK:   -3.27 KCAL/MOL
REMARK 924 INTRA-LIGAND FREE ENERGY PREDICTED BY IDOCK:   -0.66 KCAL/MOL
REMARK 927      BINDING AFFINITY PREDICTED BY RF-SCORE:    0.00 PKD
ROOT
HETATM    1 NA   UNL     1      -7.269   5.244  69.926  1.00  0.00    -0.048 Na 
HETATM    2 NA   UNL     2     -12.891   7.167  71.302  1.00  0.00    -0.296 Na 
HETATM    3  O   UNL     3     -11.435   7.131  69.421  1.00  0.00    -0.495 OA 
HETATM    4  H   UNL     3     -11.185   6.215  69.397  1.00  0.00     0.000 HD 
HETATM    5  C   UNL     3     -10.300   7.921  69.912  1.00  0.00    -0.224 C  
HETATM    6  O   UNL     3      -8.320   6.749  69.352  1.00  0.00    -0.129 OA 
HETATM    7  C   UNL     3      -9.089   7.700  68.983  1.00  0.00    -0.144 C  
HETATM    8  O   UNL     3      -9.013   8.402  67.946  1.00  0.00    -0.136 OA 
ENDROOT
BRANCH   5   9
HETATM    9  C   UNL     3     -10.704   9.398  69.951  1.00  0.00    -0.234 C  
HETATM   10  C   UNL     3     -11.485   9.655  71.270  1.00  0.00    -0.392 C  
HETATM   11  O   UNL     3     -11.525   9.646  68.783  1.00  0.00    -0.470 OA 
HETATM   12  H   UNL     3     -11.775  10.562  68.807  1.00  0.00     0.000 HD 
HETATM   13  O   UNL     3     -12.348  10.567  71.292  1.00  0.00    -0.355 OA 
HETATM   14  O   UNL     3     -11.316   8.787  72.197  1.00  0.00    -0.351 OA 
ENDBRANCH   5   9
TORSDOF 1
ENDMDL
MODEL      119
REMARK 921   NORMALIZED FREE ENERGY PREDICTED BY IDOCK:   -3.14 KCAL/MOL
REMARK 922        TOTAL FREE ENERGY PREDICTED BY IDOCK:   -3.93 KCAL/MOL
REMARK 923 INTER-LIGAND FREE ENERGY PREDICTED BY IDOCK:   -3.27 KCAL/MOL
REMARK 924 INTRA-LIGAND FREE ENERGY PREDICTED BY IDOCK:   -0.66 KCAL/MOL
REMARK 927      BINDING AFFINITY PREDICTED BY RF-SCORE:    0.00 PKD
ROOT
HETATM    1 NA   UNL     1      -7.821   9.022  72.251  1.00  0.00    -0.124 Na 
HETATM    2 NA   UNL     2     -13.127  10.163  69.469  1.00  0.00    -0.566 Na 
HETATM    3  O   UNL     3     -11.174   8.854  69.105  1.00  0.00    -0.437 OA 
HETATM    4  H   UNL     3     -11.104   8.392  69.932  1.00  0.00     0.000 HD 
HETATM    5  C   UNL     3     -10.134   9.887  69.048  1.00  0.00    -0.189 C  
HETATM    6  O   UNL     3      -8.332   9.159  70.402  1.00  0.00    -0.145 OA 
HETATM    7  C   UNL     3      -8.750   9.221  69.197  1.00  0.00    -0.139 C  
HETATM    8  O   UNL     3      -8.214   8.752  68.164  1.00  0.00    -0.113 OA 
ENDROOT
BRANCH   5   9
HETATM    9  C   UNL     3     -10.248  10.633  67.715  1.00  0.00    -0.180 C  
HETATM   10  C   UNL     3     -11.336  11.733  67.864  1.00  0.00    -0.292 C  
HETATM   11  O   UNL     3     -10.606   9.655  66.709  1.00  0.00    -0.209 OA 
HETATM   12  H   UNL     3     -10.676  10.117  65.883  1.00  0.00     0.000 HD 
HETATM   13  O   UNL     3     -11.978  12.087  66.845  1.00  0.00    -0.612 OA 
HETATM   14  O   UNL     3     -11.626  12.072  69.065  1.00  0.00    -0.264 OA 
ENDBRANCH   5   9
TORSDOF 1
ENDMDL
MODEL      120
REMARK 921   NORMALIZED FREE ENERGY PREDICTED BY IDOCK:   -3.14 KCAL/MOL
REMARK 922        TOTAL FREE ENERGY PREDICTED BY IDOCK:   -3.93 KCAL/MOL
REMARK 923 INTER-LIGAND FREE ENERGY PREDICTED BY IDOCK:   -3.74 KCAL/MOL
REMARK 924 INTRA-LIGAND FREE ENERGY PREDICTED BY IDOCK:   -0.19 KCAL/MOL
REMARK 927      BINDING AFFINITY PREDICTED BY RF-SCORE:    0.00 PKD
ROOT
HETATM    1 NA   UNL     1     -11.110  14.793  73.897  1.00  0.00    -0.246 Na 
HETATM    2 NA   UNL     2      -8.740  16.573  68.566  1.00  0.00    -0.173 Na 
HETATM    3  O   UNL     3     -10.720  16.923  69.838  1.00  0.00    -0.314 OA 
HETATM    4  H   UNL     3     -10.358  17.169  70.681  1.00  0.00     0.000 HD 
HETATM    5  C   UNL     3     -11.257  15.561  69.929  1.00  0.00    -0.316 C  
HETATM    6  O   UNL     3     -11.884  15.193  72.183  1.00  0.00    -0.377 OA 
HETATM    7  C   UNL     3     -12.335  15.514  71.032  1.00  0.00    -0.416 C  
HETATM    8  O   UNL     3     -13.502  15.857  70.722  1.00  0.00    -0.410 OA 
ENDROOT
BRANCH   5   9
HETATM    9  C   UNL     3     -11.840  15.165  68.569  1.00  0.00    -0.281 C  
HETATM   10  C   UNL     3     -11.599  13.644  68.360  1.00  0.00    -0.342 C  
HETATM   11  O   UNL     3     -11.160  15.960  67.567  1.00  0.00    -0.312 OA 
HETATM   12  H   UNL     3     -11.522  15.715  66.724  1.00  0.00     0.000 HD 
HETATM   13  O   UNL     3     -11.479  13.208  67.189  1.00  0.00    -0.300 OA 
HETATM   14  O   UNL     3     -11.356  12.967  69.420  1.00  0.00    -0.250 OA 
ENDBRANCH   5   9
TORSDOF 1
ENDMDL
MODEL      121
REMARK 921   NORMALIZED FREE ENERGY PREDICTED BY IDOCK:   -3.12 KCAL/MOL
REMARK 922        TOTAL FREE ENERGY PREDICTED BY IDOCK:   -3.91 KCAL/MOL
REMARK 923 INTER-LIGAND FREE ENERGY PREDICTED BY IDOCK:   -3.25 KCAL/MOL
REMARK 924 INTRA-LIGAND FREE ENERGY PREDICTED BY IDOCK:   -0.66 KCAL/MOL
REMARK 927      BINDING AFFINITY PREDICTED BY RF-SCORE:    0.00 PKD
ROOT
HETATM    1 NA   UNL     1      -9.517  12.275  69.267  1.00  0.00    -0.369 Na 
HETATM    2 NA   UNL     2      -9.571   6.320  67.947  1.00  0.00    -0.122 Na 
HETATM    3  O   UNL     3     -11.131   8.043  68.460  1.00  0.00    -0.413 OA 
HETATM    4  H   UNL     3     -10.876   8.715  67.840  1.00  0.00     0.000 HD 
HETATM    5  C   UNL     3     -10.695   8.444  69.803  1.00  0.00    -0.211 C  
HETATM    6  O   UNL     3     -10.619  10.810  69.849  1.00  0.00    -0.205 OA 
HETATM    7  C   UNL     3     -11.337   9.800  70.159  1.00  0.00    -0.251 C  
HETATM    8  O   UNL     3     -12.497   9.790  70.637  1.00  0.00    -0.242 OA 
ENDROOT
BRANCH   5   9
HETATM    9  C   UNL     3     -11.106   7.358  70.802  1.00  0.00    -0.265 C  
HETATM   10  C   UNL     3     -10.041   6.227  70.759  1.00  0.00    -0.189 C  
HETATM   11  O   UNL     3     -12.413   6.881  70.399  1.00  0.00    -0.611 OA 
HETATM   12  H   UNL     3     -12.668   6.209  71.019  1.00  0.00     0.000 HD 
HETATM   13  O   UNL     3     -10.395   5.055  71.038  1.00  0.00    -0.223 OA 
HETATM   14  O   UNL     3      -8.906   6.549  70.260  1.00  0.00    -0.148 OA 
ENDBRANCH   5   9
TORSDOF 1
ENDMDL
MODEL      122
REMARK 921   NORMALIZED FREE ENERGY PREDICTED BY IDOCK:   -3.12 KCAL/MOL
REMARK 922        TOTAL FREE ENERGY PREDICTED BY IDOCK:   -3.90 KCAL/MOL
REMARK 923 INTER-LIGAND FREE ENERGY PREDICTED BY IDOCK:   -4.79 KCAL/MOL
REMARK 924 INTRA-LIGAND FREE ENERGY PREDICTED BY IDOCK:    0.89 KCAL/MOL
REMARK 927      BINDING AFFINITY PREDICTED BY RF-SCORE:    0.00 PKD
ROOT
HETATM    1 NA   UNL     1     -12.195  10.113  68.771  1.00  0.00    -0.485 Na 
HETATM    2 NA   UNL     2     -11.311  11.004  62.802  1.00  0.00    -0.682 Na 
HETATM    3  O   UNL     3     -10.779  12.076  64.859  1.00  0.00    -0.279 OA 
HETATM    4  H   UNL     3     -10.388  11.361  65.346  1.00  0.00     0.000 HD 
HETATM    5  C   UNL     3     -12.114  12.349  65.403  1.00  0.00    -0.365 C  
HETATM    6  O   UNL     3     -12.103  11.693  67.678  1.00  0.00    -0.615 OA 
HETATM    7  C   UNL     3     -11.989  12.699  66.900  1.00  0.00    -0.275 C  
HETATM    8  O   UNL     3     -11.721  13.888  67.202  1.00  0.00    -0.345 OA 
ENDROOT
BRANCH   5   9
HETATM    9  C   UNL     3     -12.743  13.504  64.616  1.00  0.00    -0.170 C  
HETATM   10  C   UNL     3     -11.618  14.510  64.245  1.00  0.00    -0.238 C  
HETATM   11  O   UNL     3     -13.743  14.107  65.474  1.00  0.00    -0.560 OA 
HETATM   12  H   UNL     3     -14.133  14.822  64.986  1.00  0.00     0.000 HD 
HETATM   13  O   UNL     3     -11.917  15.722  64.104  1.00  0.00    -0.527 OA 
HETATM   14  O   UNL     3     -10.423  14.052  64.287  1.00  0.00    -0.252 OA 
ENDBRANCH   5   9
TORSDOF 1
ENDMDL
MODEL      123
REMARK 921   NORMALIZED FREE ENERGY PREDICTED BY IDOCK:   -3.09 KCAL/MOL
REMARK 922        TOTAL FREE ENERGY PREDICTED BY IDOCK:   -3.87 KCAL/MOL
REMARK 923 INTER-LIGAND FREE ENERGY PREDICTED BY IDOCK:   -4.76 KCAL/MOL
REMARK 924 INTRA-LIGAND FREE ENERGY PREDICTED BY IDOCK:    0.89 KCAL/MOL
REMARK 927      BINDING AFFINITY PREDICTED BY RF-SCORE:    0.00 PKD
ROOT
HETATM    1 NA   UNL     1     -11.656   8.798  67.461  1.00  0.00    -0.502 Na 
HETATM    2 NA   UNL     2     -12.911  12.788  63.022  1.00  0.00    -0.558 Na 
HETATM    3  O   UNL     3     -11.189  12.380  64.612  1.00  0.00    -0.292 OA 
HETATM    4  H   UNL     3     -11.005  11.462  64.455  1.00  0.00     0.000 HD 
HETATM    5  C   UNL     3     -11.920  12.510  65.877  1.00  0.00    -0.409 C  
HETATM    6  O   UNL     3     -11.306  10.677  67.245  1.00  0.00    -0.380 OA 
HETATM    7  C   UNL     3     -11.070  11.911  67.017  1.00  0.00    -0.302 C  
HETATM    8  O   UNL     3     -10.202  12.647  67.547  1.00  0.00    -0.211 OA 
ENDROOT
BRANCH   5   9
HETATM    9  C   UNL     3     -12.216  13.992  66.129  1.00  0.00    -0.465 C  
HETATM   10  C   UNL     3     -11.013  14.825  65.607  1.00  0.00    -0.344 C  
HETATM   11  O   UNL     3     -12.402  14.152  67.557  1.00  0.00    -0.571 OA 
HETATM   12  H   UNL     3     -12.587  15.070  67.713  1.00  0.00     0.000 HD 
HETATM   13  O   UNL     3     -10.761  15.928  66.153  1.00  0.00    -0.314 OA 
HETATM   14  O   UNL     3     -10.247  14.234  64.768  1.00  0.00    -0.412 OA 
ENDBRANCH   5   9
TORSDOF 1
ENDMDL
MODEL      124
REMARK 921   NORMALIZED FREE ENERGY PREDICTED BY IDOCK:   -3.08 KCAL/MOL
REMARK 922        TOTAL FREE ENERGY PREDICTED BY IDOCK:   -3.86 KCAL/MOL
REMARK 923 INTER-LIGAND FREE ENERGY PREDICTED BY IDOCK:   -3.20 KCAL/MOL
REMARK 924 INTRA-LIGAND FREE ENERGY PREDICTED BY IDOCK:   -0.66 KCAL/MOL
REMARK 927      BINDING AFFINITY PREDICTED BY RF-SCORE:    0.00 PKD
ROOT
HETATM    1 NA   UNL     1      -5.316  18.594  68.246  1.00  0.00    -0.157 Na 
HETATM    2 NA   UNL     2      -8.739  13.565  67.809  1.00  0.00    -0.137 Na 
HETATM    3  O   UNL     3      -8.174  15.453  66.476  1.00  0.00    -0.334 OA 
HETATM    4  H   UNL     3      -7.225  15.439  66.527  1.00  0.00     0.000 HD 
HETATM    5  C   UNL     3      -8.679  16.557  67.299  1.00  0.00    -0.188 C  
HETATM    6  O   UNL     3      -6.990  18.216  67.379  1.00  0.00    -0.193 OA 
HETATM    7  C   UNL     3      -8.075  17.883  66.793  1.00  0.00    -0.238 C  
HETATM    8  O   UNL     3      -8.648  18.456  65.834  1.00  0.00    -0.503 OA 
ENDROOT
BRANCH   5   9
HETATM    9  C   UNL     3     -10.208  16.578  67.217  1.00  0.00    -0.287 C  
HETATM   10  C   UNL     3     -10.764  15.510  68.200  1.00  0.00    -0.282 C  
HETATM   11  O   UNL     3     -10.564  16.282  65.844  1.00  0.00    -0.327 OA 
HETATM   12  H   UNL     3     -11.513  16.296  65.793  1.00  0.00     0.000 HD 
HETATM   13  O   UNL     3     -11.867  14.968  67.941  1.00  0.00    -0.334 OA 
HETATM   14  O   UNL     3      -9.959  15.126  69.120  1.00  0.00    -0.220 OA 
ENDBRANCH   5   9
TORSDOF 1
ENDMDL
MODEL      125
REMARK 921   NORMALIZED FREE ENERGY PREDICTED BY IDOCK:   -3.04 KCAL/MOL
REMARK 922        TOTAL FREE ENERGY PREDICTED BY IDOCK:   -3.83 KCAL/MOL
REMARK 923 INTER-LIGAND FREE ENERGY PREDICTED BY IDOCK:   -3.17 KCAL/MOL
REMARK 924 INTRA-LIGAND FREE ENERGY PREDICTED BY IDOCK:   -0.66 KCAL/MOL
REMARK 927      BINDING AFFINITY PREDICTED BY RF-SCORE:    0.00 PKD
ROOT
HETATM    1 NA   UNL     1      -8.282   6.909  65.929  1.00  0.00    -0.091 Na 
HETATM    2 NA   UNL     2     -11.262   5.330  71.011  1.00  0.00    -0.230 Na 
HETATM    3  O   UNL     3     -11.604   6.713  69.106  1.00  0.00    -0.617 OA 
HETATM    4  H   UNL     3     -11.413   6.107  68.399  1.00  0.00     0.000 HD 
HETATM    5  C   UNL     3     -10.494   7.664  69.229  1.00  0.00    -0.218 C  
HETATM    6  O   UNL     3      -9.481   7.856  67.097  1.00  0.00    -0.144 OA 
HETATM    7  C   UNL     3     -10.314   8.410  67.890  1.00  0.00    -0.221 C  
HETATM    8  O   UNL     3     -11.035   9.416  67.681  1.00  0.00    -0.223 OA 
ENDROOT
BRANCH   5   9
HETATM    9  C   UNL     3     -10.802   8.641  70.368  1.00  0.00    -0.227 C  
HETATM   10  C   UNL     3     -10.457   7.944  71.714  1.00  0.00    -0.221 C  
HETATM   11  O   UNL     3     -12.209   8.970  70.278  1.00  0.00    -0.450 OA 
HETATM   12  H   UNL     3     -12.400   9.576  70.984  1.00  0.00     0.000 HD 
HETATM   13  O   UNL     3     -11.091   8.278  72.745  1.00  0.00    -0.367 OA 
HETATM   14  O   UNL     3      -9.667   6.938  71.635  1.00  0.00    -0.163 OA 
ENDBRANCH   5   9
TORSDOF 1
ENDMDL
MODEL      126
REMARK 921   NORMALIZED FREE ENERGY PREDICTED BY IDOCK:   -3.03 KCAL/MOL
REMARK 922        TOTAL FREE ENERGY PREDICTED BY IDOCK:   -3.81 KCAL/MOL
REMARK 923 INTER-LIGAND FREE ENERGY PREDICTED BY IDOCK:   -3.59 KCAL/MOL
REMARK 924 INTRA-LIGAND FREE ENERGY PREDICTED BY IDOCK:   -0.22 KCAL/MOL
REMARK 927      BINDING AFFINITY PREDICTED BY RF-SCORE:    0.00 PKD
ROOT
HETATM    1 NA   UNL     1     -11.618  20.025  66.739  1.00  0.00    -0.390 Na 
HETATM    2 NA   UNL     2      -7.661  15.554  67.987  1.00  0.00    -0.108 Na 
HETATM    3  O   UNL     3      -8.653  16.570  66.078  1.00  0.00    -0.398 OA 
HETATM    4  H   UNL     3      -8.476  17.488  66.243  1.00  0.00     0.000 HD 
HETATM    5  C   UNL     3     -10.077  16.310  66.313  1.00  0.00    -0.324 C  
HETATM    6  O   UNL     3     -11.245  18.330  65.910  1.00  0.00     0.350 OA 
HETATM    7  C   UNL     3     -10.917  17.213  65.385  1.00  0.00     0.035 C  
HETATM    8  O   UNL     3     -11.129  16.812  64.215  1.00  0.00    -1.106 OA 
ENDROOT
BRANCH   5   9
HETATM    9  C   UNL     3     -10.362  14.828  66.047  1.00  0.00    -0.305 C  
HETATM   10  C   UNL     3     -11.318  14.309  67.157  1.00  0.00    -0.337 C  
HETATM   11  O   UNL     3      -9.088  14.140  66.069  1.00  0.00    -0.499 OA 
HETATM   12  H   UNL     3      -9.264  13.221  65.903  1.00  0.00     0.000 HD 
HETATM   13  O   UNL     3     -11.265  13.096  67.479  1.00  0.00    -0.261 OA 
HETATM   14  O   UNL     3     -11.970  15.207  67.797  1.00  0.00    -0.250 OA 
ENDBRANCH   5   9
TORSDOF 1
ENDMDL
MODEL      127
REMARK 921   NORMALIZED FREE ENERGY PREDICTED BY IDOCK:   -3.03 KCAL/MOL
REMARK 922        TOTAL FREE ENERGY PREDICTED BY IDOCK:   -3.81 KCAL/MOL
REMARK 923 INTER-LIGAND FREE ENERGY PREDICTED BY IDOCK:   -3.68 KCAL/MOL
REMARK 924 INTRA-LIGAND FREE ENERGY PREDICTED BY IDOCK:   -0.13 KCAL/MOL
REMARK 927      BINDING AFFINITY PREDICTED BY RF-SCORE:    0.00 PKD
ROOT
HETATM    1 NA   UNL     1     -11.490  11.310  68.168  1.00  0.00    -0.189 Na 
HETATM    2 NA   UNL     2     -11.604  16.861  70.694  1.00  0.00    -0.490 Na 
HETATM    3  O   UNL     3     -12.450  15.772  68.755  1.00  0.00    -0.475 OA 
HETATM    4  H   UNL     3     -12.872  15.012  69.138  1.00  0.00     0.000 HD 
HETATM    5  C   UNL     3     -11.212  15.344  68.094  1.00  0.00    -0.325 C  
HETATM    6  O   UNL     3     -11.499  13.088  67.435  1.00  0.00    -0.294 OA 
HETATM    7  C   UNL     3     -11.550  14.294  67.016  1.00  0.00    -0.386 C  
HETATM    8  O   UNL     3     -11.903  14.710  65.886  1.00  0.00    -0.347 OA 
ENDROOT
BRANCH   5   9
HETATM    9  C   UNL     3     -10.530  16.570  67.477  1.00  0.00    -0.310 C  
HETATM   10  C   UNL     3      -8.998  16.310  67.445  1.00  0.00    -0.187 C  
HETATM   11  O   UNL     3     -10.865  17.707  68.310  1.00  0.00    -0.324 OA 
HETATM   12  H   UNL     3     -10.443  18.467  67.927  1.00  0.00     0.000 HD 
HETATM   13  O   UNL     3      -8.219  17.293  67.508  1.00  0.00    -0.191 OA 
HETATM   14  O   UNL     3      -8.638  15.084  67.539  1.00  0.00    -0.162 OA 
ENDBRANCH   5   9
TORSDOF 1
ENDMDL
MODEL      128
REMARK 921   NORMALIZED FREE ENERGY PREDICTED BY IDOCK:   -3.02 KCAL/MOL
REMARK 922        TOTAL FREE ENERGY PREDICTED BY IDOCK:   -3.80 KCAL/MOL
REMARK 923 INTER-LIGAND FREE ENERGY PREDICTED BY IDOCK:   -3.59 KCAL/MOL
REMARK 924 INTRA-LIGAND FREE ENERGY PREDICTED BY IDOCK:   -0.22 KCAL/MOL
REMARK 927      BINDING AFFINITY PREDICTED BY RF-SCORE:    0.00 PKD
ROOT
HETATM    1 NA   UNL     1     -14.222  14.424  65.465  1.00  0.00    -0.722 Na 
HETATM    2 NA   UNL     2      -9.839  17.783  68.057  1.00  0.00    -0.252 Na 
HETATM    3  O   UNL     3     -10.300  16.781  65.949  1.00  0.00    -0.347 OA 
HETATM    4  H   UNL     3     -11.177  17.104  65.777  1.00  0.00     0.000 HD 
HETATM    5  C   UNL     3     -10.379  15.361  66.309  1.00  0.00    -0.294 C  
HETATM    6  O   UNL     3     -12.310  14.469  65.267  1.00  0.00    -0.370 OA 
HETATM    7  C   UNL     3     -11.043  14.582  65.154  1.00  0.00    -0.370 C  
HETATM    8  O   UNL     3     -10.311  14.208  64.206  1.00  0.00    -0.196 OA 
ENDROOT
BRANCH   5   9
HETATM    9  C   UNL     3      -8.966  14.840  66.587  1.00  0.00    -0.255 C  
HETATM   10  C   UNL     3      -9.023  13.922  67.840  1.00  0.00    -0.191 C  
HETATM   11  O   UNL     3      -8.121  15.996  66.805  1.00  0.00    -0.216 OA 
HETATM   12  H   UNL     3      -7.245  15.673  66.976  1.00  0.00     0.000 HD 
HETATM   13  O   UNL     3      -8.000  13.826  68.563  1.00  0.00    -0.138 OA 
HETATM   14  O   UNL     3     -10.180  13.469  68.147  1.00  0.00    -0.235 OA 
ENDBRANCH   5   9
TORSDOF 1
ENDMDL
MODEL      129
REMARK 921   NORMALIZED FREE ENERGY PREDICTED BY IDOCK:   -3.01 KCAL/MOL
REMARK 922        TOTAL FREE ENERGY PREDICTED BY IDOCK:   -3.79 KCAL/MOL
REMARK 923 INTER-LIGAND FREE ENERGY PREDICTED BY IDOCK:   -3.13 KCAL/MOL
REMARK 924 INTRA-LIGAND FREE ENERGY PREDICTED BY IDOCK:   -0.66 KCAL/MOL
REMARK 927      BINDING AFFINITY PREDICTED BY RF-SCORE:    0.00 PKD
ROOT
HETATM    1 NA   UNL     1     -13.242  14.473  67.004  1.00  0.00    -0.603 Na 
HETATM    2 NA   UNL     2      -7.768  17.130  67.427  1.00  0.00    -0.151 Na 
HETATM    3  O   UNL     3      -8.782  15.322  66.259  1.00  0.00    -0.415 OA 
HETATM    4  H   UNL     3      -9.544  15.747  65.884  1.00  0.00     0.000 HD 
HETATM    5  C   UNL     3      -9.214  14.461  67.366  1.00  0.00    -0.198 C  
HETATM    6  O   UNL     3     -11.443  13.797  66.923  1.00  0.00    -0.319 OA 
HETATM    7  C   UNL     3     -10.225  13.424  66.836  1.00  0.00    -0.252 C  
HETATM    8  O   UNL     3      -9.769  12.375  66.319  1.00  0.00    -0.238 OA 
ENDROOT
BRANCH   5   9
HETATM    9  C   UNL     3      -7.985  13.776  67.971  1.00  0.00    -0.156 C  
HETATM   10  C   UNL     3      -7.286  14.785  68.926  1.00  0.00    -0.130 C  
HETATM   11  O   UNL     3      -7.125  13.395  66.870  1.00  0.00    -0.359 OA 
HETATM   12  H   UNL     3      -6.363  12.970  67.245  1.00  0.00     0.000 HD 
HETATM   13  O   UNL     3      -6.046  14.688  69.102  1.00  0.00    -0.097 OA 
HETATM   14  O   UNL     3      -8.007  15.764  69.327  1.00  0.00    -0.219 OA 
ENDBRANCH   5   9
TORSDOF 1
ENDMDL
MODEL      130
REMARK 921   NORMALIZED FREE ENERGY PREDICTED BY IDOCK:   -3.00 KCAL/MOL
REMARK 922        TOTAL FREE ENERGY PREDICTED BY IDOCK:   -3.78 KCAL/MOL
REMARK 923 INTER-LIGAND FREE ENERGY PREDICTED BY IDOCK:   -3.16 KCAL/MOL
REMARK 924 INTRA-LIGAND FREE ENERGY PREDICTED BY IDOCK:   -0.62 KCAL/MOL
REMARK 927      BINDING AFFINITY PREDICTED BY RF-SCORE:    0.00 PKD
ROOT
HETATM    1 NA   UNL     1      -8.798   6.050  68.624  1.00  0.00    -0.108 Na 
HETATM    2 NA   UNL     2     -10.553  11.374  71.029  1.00  0.00    -0.100 Na 
HETATM    3  O   UNL     3     -10.118   9.150  71.757  1.00  0.00    -0.329 OA 
HETATM    4  H   UNL     3      -9.256   9.000  71.389  1.00  0.00     0.000 HD 
HETATM    5  C   UNL     3     -11.105   8.389  70.983  1.00  0.00    -0.258 C  
HETATM    6  O   UNL     3      -9.992   6.514  70.059  1.00  0.00    -0.167 OA 
HETATM    7  C   UNL     3     -10.736   6.892  71.025  1.00  0.00    -0.231 C  
HETATM    8  O   UNL     3     -11.127   6.222  72.012  1.00  0.00    -0.242 OA 
ENDROOT
BRANCH   5   9
HETATM    9  C   UNL     3     -12.496   8.633  71.576  1.00  0.00    -0.323 C  
HETATM   10  C   UNL     3     -12.983  10.035  71.115  1.00  0.00    -0.387 C  
HETATM   11  O   UNL     3     -12.363   8.556  73.017  1.00  0.00    -0.553 OA 
HETATM   12  H   UNL     3     -13.226   8.707  73.384  1.00  0.00     0.000 HD 
HETATM   13  O   UNL     3     -13.777  10.670  71.853  1.00  0.00    -0.165 OA 
HETATM   14  O   UNL     3     -12.390  10.522  70.090  1.00  0.00    -0.300 OA 
ENDBRANCH   5   9
TORSDOF 1
ENDMDL
MODEL      131
REMARK 921   NORMALIZED FREE ENERGY PREDICTED BY IDOCK:   -3.00 KCAL/MOL
REMARK 922        TOTAL FREE ENERGY PREDICTED BY IDOCK:   -3.78 KCAL/MOL
REMARK 923 INTER-LIGAND FREE ENERGY PREDICTED BY IDOCK:   -3.13 KCAL/MOL
REMARK 924 INTRA-LIGAND FREE ENERGY PREDICTED BY IDOCK:   -0.65 KCAL/MOL
REMARK 927      BINDING AFFINITY PREDICTED BY RF-SCORE:    0.00 PKD
ROOT
HETATM    1 NA   UNL     1      -8.434  18.137  65.738  1.00  0.00    -0.234 Na 
HETATM    2 NA   UNL     2     -10.286  12.336  65.377  1.00  0.00    -0.232 Na 
HETATM    3  O   UNL     3     -11.191  14.460  65.953  1.00  0.00    -0.313 OA 
HETATM    4  H   UNL     3     -10.942  14.979  65.197  1.00  0.00     0.000 HD 
HETATM    5  C   UNL     3     -10.348  14.841  67.091  1.00  0.00    -0.255 C  
HETATM    6  O   UNL     3      -9.681  17.089  66.761  1.00  0.00    -0.248 OA 
HETATM    7  C   UNL     3     -10.524  16.348  67.370  1.00  0.00    -0.309 C  
HETATM    8  O   UNL     3     -11.493  16.700  68.086  1.00  0.00    -0.208 OA 
ENDROOT
BRANCH   5   9
HETATM    9  C   UNL     3     -10.749  14.003  68.309  1.00  0.00    -0.254 C  
HETATM   10  C   UNL     3     -10.100  12.598  68.168  1.00  0.00    -0.231 C  
HETATM   11  O   UNL     3     -12.196  13.928  68.315  1.00  0.00    -0.477 OA 
HETATM   12  H   UNL     3     -12.445  13.409  69.071  1.00  0.00     0.000 HD 
HETATM   13  O   UNL     3     -10.675  11.613  68.694  1.00  0.00    -0.196 OA 
HETATM   14  O   UNL     3      -9.107  12.520  67.362  1.00  0.00    -0.171 OA 
ENDBRANCH   5   9
TORSDOF 1
ENDMDL
MODEL      132
REMARK 921   NORMALIZED FREE ENERGY PREDICTED BY IDOCK:   -2.99 KCAL/MOL
REMARK 922        TOTAL FREE ENERGY PREDICTED BY IDOCK:   -3.77 KCAL/MOL
REMARK 923 INTER-LIGAND FREE ENERGY PREDICTED BY IDOCK:   -4.65 KCAL/MOL
REMARK 924 INTRA-LIGAND FREE ENERGY PREDICTED BY IDOCK:    0.89 KCAL/MOL
REMARK 927      BINDING AFFINITY PREDICTED BY RF-SCORE:    0.00 PKD
ROOT
HETATM    1 NA   UNL     1     -12.117  16.082  63.215  1.00  0.00    -0.918 Na 
HETATM    2 NA   UNL     2     -10.801  20.663  67.022  1.00  0.00    -0.334 Na 
HETATM    3  O   UNL     3      -9.680  18.849  65.967  1.00  0.00    -0.466 OA 
HETATM    4  H   UNL     3      -9.932  18.976  65.060  1.00  0.00     0.000 HD 
HETATM    5  C   UNL     3     -10.410  17.697  66.507  1.00  0.00    -0.337 C  
HETATM    6  O   UNL     3     -10.901  16.252  64.696  1.00  0.00    -0.687 OA 
HETATM    7  C   UNL     3     -10.087  16.449  65.659  1.00  0.00    -0.286 C  
HETATM    8  O   UNL     3      -9.046  15.806  65.941  1.00  0.00    -0.337 OA 
ENDROOT
BRANCH   5   9
HETATM    9  C   UNL     3     -10.004  17.492  67.970  1.00  0.00    -0.310 C  
HETATM   10  C   UNL     3      -8.481  17.780  68.097  1.00  0.00    -0.262 C  
HETATM   11  O   UNL     3     -10.322  16.121  68.312  1.00  0.00    -0.249 OA 
HETATM   12  H   UNL     3     -10.071  15.995  69.219  1.00  0.00     0.000 HD 
HETATM   13  O   UNL     3      -7.829  17.189  68.993  1.00  0.00    -0.234 OA 
HETATM   14  O   UNL     3      -7.963  18.470  67.150  1.00  0.00    -0.235 OA 
ENDBRANCH   5   9
TORSDOF 1
ENDMDL
MODEL      133
REMARK 921   NORMALIZED FREE ENERGY PREDICTED BY IDOCK:   -2.96 KCAL/MOL
REMARK 922        TOTAL FREE ENERGY PREDICTED BY IDOCK:   -3.74 KCAL/MOL
REMARK 923 INTER-LIGAND FREE ENERGY PREDICTED BY IDOCK:   -3.57 KCAL/MOL
REMARK 924 INTRA-LIGAND FREE ENERGY PREDICTED BY IDOCK:   -0.17 KCAL/MOL
REMARK 927      BINDING AFFINITY PREDICTED BY RF-SCORE:    0.00 PKD
ROOT
HETATM    1 NA   UNL     1     -13.191   6.773  70.745  1.00  0.00    -0.365 Na 
HETATM    2 NA   UNL     2     -11.819   5.261  64.997  1.00  0.00    -0.706 Na 
HETATM    3  O   UNL     3     -10.900   4.992  67.174  1.00  0.00    -0.187 OA 
HETATM    4  H   UNL     3     -11.643   4.636  67.647  1.00  0.00     0.000 HD 
HETATM    5  C   UNL     3     -10.698   6.386  67.584  1.00  0.00    -0.311 C  
HETATM    6  O   UNL     3     -11.529   6.608  69.790  1.00  0.00    -0.351 OA 
HETATM    7  C   UNL     3     -10.464   6.438  69.108  1.00  0.00    -0.229 C  
HETATM    8  O   UNL     3      -9.297   6.241  69.526  1.00  0.00    -0.141 OA 
ENDROOT
BRANCH   5   9
HETATM    9  C   UNL     3      -9.500   6.959  66.820  1.00  0.00    -0.165 C  
HETATM   10  C   UNL     3      -9.752   8.475  66.585  1.00  0.00    -0.249 C  
HETATM   11  O   UNL     3      -9.403   6.230  65.572  1.00  0.00    -0.376 OA 
HETATM   12  H   UNL     3      -8.659   6.585  65.099  1.00  0.00     0.000 HD 
HETATM   13  O   UNL     3      -9.239   9.021  65.577  1.00  0.00    -0.215 OA 
HETATM   14  O   UNL     3     -10.623   9.020  67.348  1.00  0.00    -0.275 OA 
ENDBRANCH   5   9
TORSDOF 1
ENDMDL
MODEL      134
REMARK 921   NORMALIZED FREE ENERGY PREDICTED BY IDOCK:   -2.95 KCAL/MOL
REMARK 922        TOTAL FREE ENERGY PREDICTED BY IDOCK:   -3.73 KCAL/MOL
REMARK 923 INTER-LIGAND FREE ENERGY PREDICTED BY IDOCK:   -4.60 KCAL/MOL
REMARK 924 INTRA-LIGAND FREE ENERGY PREDICTED BY IDOCK:    0.88 KCAL/MOL
REMARK 927      BINDING AFFINITY PREDICTED BY RF-SCORE:    0.00 PKD
ROOT
HETATM    1 NA   UNL     1     -12.110  15.003  67.571  1.00  0.00    -0.336 Na 
HETATM    2 NA   UNL     2     -10.872  20.254  70.417  1.00  0.00    -0.789 Na 
HETATM    3  O   UNL     3     -10.907  19.400  68.197  1.00  0.00    -0.381 OA 
HETATM    4  H   UNL     3     -11.775  19.015  68.159  1.00  0.00     0.000 HD 
HETATM    5  C   UNL     3      -9.913  18.324  68.279  1.00  0.00    -0.364 C  
HETATM    6  O   UNL     3     -10.845  16.413  67.237  1.00  0.00    -0.291 OA 
HETATM    7  C   UNL     3     -10.061  17.403  67.051  1.00  0.00    -0.313 C  
HETATM    8  O   UNL     3      -9.474  17.742  65.994  1.00  0.00    -0.502 OA 
ENDROOT
BRANCH   5   9
HETATM    9  C   UNL     3      -8.514  18.945  68.340  1.00  0.00    -0.350 C  
HETATM   10  C   UNL     3      -8.491  20.187  67.405  1.00  0.00    -0.339 C  
HETATM   11  O   UNL     3      -7.578  17.928  67.906  1.00  0.00    -0.212 OA 
HETATM   12  H   UNL     3      -6.711  18.313  67.945  1.00  0.00     0.000 HD 
HETATM   13  O   UNL     3      -7.404  20.521  66.873  1.00  0.00    -0.288 OA 
HETATM   14  O   UNL     3      -9.635  20.676  67.100  1.00  0.00    -0.438 OA 
ENDBRANCH   5   9
TORSDOF 1
ENDMDL
MODEL      135
REMARK 921   NORMALIZED FREE ENERGY PREDICTED BY IDOCK:   -2.92 KCAL/MOL
REMARK 922        TOTAL FREE ENERGY PREDICTED BY IDOCK:   -3.69 KCAL/MOL
REMARK 923 INTER-LIGAND FREE ENERGY PREDICTED BY IDOCK:   -4.57 KCAL/MOL
REMARK 924 INTRA-LIGAND FREE ENERGY PREDICTED BY IDOCK:    0.88 KCAL/MOL
REMARK 927      BINDING AFFINITY PREDICTED BY RF-SCORE:    0.00 PKD
ROOT
HETATM    1 NA   UNL     1     -10.695  18.604  65.327  1.00  0.00    -0.417 Na 
HETATM    2 NA   UNL     2     -13.159  14.248  68.814  1.00  0.00    -0.555 Na 
HETATM    3  O   UNL     3     -11.242  14.553  67.438  1.00  0.00    -0.302 OA 
HETATM    4  H   UNL     3     -10.893  15.366  67.783  1.00  0.00     0.000 HD 
HETATM    5  C   UNL     3     -11.856  14.814  66.131  1.00  0.00    -0.199 C  
HETATM    6  O   UNL     3     -10.754  16.686  65.189  1.00  0.00    -0.621 OA 
HETATM    7  C   UNL     3     -10.795  15.410  65.183  1.00  0.00    -0.431 C  
HETATM    8  O   UNL     3     -10.045  14.611  64.570  1.00  0.00    -0.154 OA 
ENDROOT
BRANCH   5   9
HETATM    9  C   UNL     3     -12.419  13.502  65.576  1.00  0.00    -0.491 C  
HETATM   10  C   UNL     3     -11.439  12.355  65.950  1.00  0.00    -0.374 C  
HETATM   11  O   UNL     3     -12.535  13.663  64.141  1.00  0.00    -0.635 OA 
HETATM   12  H   UNL     3     -12.885  12.849  63.797  1.00  0.00     0.000 HD 
HETATM   13  O   UNL     3     -11.372  11.351  65.199  1.00  0.00    -0.154 OA 
HETATM   14  O   UNL     3     -10.631  12.603  66.913  1.00  0.00    -0.238 OA 
ENDBRANCH   5   9
TORSDOF 1
ENDMDL
MODEL      136
REMARK 921   NORMALIZED FREE ENERGY PREDICTED BY IDOCK:   -2.90 KCAL/MOL
REMARK 922        TOTAL FREE ENERGY PREDICTED BY IDOCK:   -3.67 KCAL/MOL
REMARK 923 INTER-LIGAND FREE ENERGY PREDICTED BY IDOCK:   -3.04 KCAL/MOL
REMARK 924 INTRA-LIGAND FREE ENERGY PREDICTED BY IDOCK:   -0.63 KCAL/MOL
REMARK 927      BINDING AFFINITY PREDICTED BY RF-SCORE:    0.00 PKD
ROOT
HETATM    1 NA   UNL     1      -9.555   3.887  69.142  1.00  0.00    -0.110 Na 
HETATM    2 NA   UNL     2     -10.723   9.345  71.603  1.00  0.00    -0.235 Na 
HETATM    3  O   UNL     3     -11.566   7.963  69.859  1.00  0.00    -0.465 OA 
HETATM    4  H   UNL     3     -11.695   7.142  70.318  1.00  0.00     0.000 HD 
HETATM    5  C   UNL     3     -10.392   7.840  68.987  1.00  0.00    -0.211 C  
HETATM    6  O   UNL     3     -10.170   5.555  68.408  1.00  0.00    -0.167 OA 
HETATM    7  C   UNL     3     -10.615   6.679  67.997  1.00  0.00    -0.245 C  
HETATM    8  O   UNL     3     -11.258   6.922  66.946  1.00  0.00    -0.353 OA 
ENDROOT
BRANCH   5   9
HETATM    9  C   UNL     3     -10.184   9.165  68.247  1.00  0.00    -0.206 C  
HETATM   10  C   UNL     3      -9.521  10.172  69.228  1.00  0.00    -0.218 C  
HETATM   11  O   UNL     3     -11.489   9.619  67.810  1.00  0.00    -0.458 OA 
HETATM   12  H   UNL     3     -11.359  10.440  67.351  1.00  0.00     0.000 HD 
HETATM   13  O   UNL     3      -9.739  11.399  69.070  1.00  0.00    -0.138 OA 
HETATM   14  O   UNL     3      -8.940   9.658  70.247  1.00  0.00    -0.231 OA 
ENDBRANCH   5   9
TORSDOF 1
ENDMDL
MODEL      137
REMARK 921   NORMALIZED FREE ENERGY PREDICTED BY IDOCK:   -2.90 KCAL/MOL
REMARK 922        TOTAL FREE ENERGY PREDICTED BY IDOCK:   -3.67 KCAL/MOL
REMARK 923 INTER-LIGAND FREE ENERGY PREDICTED BY IDOCK:   -3.15 KCAL/MOL
REMARK 924 INTRA-LIGAND FREE ENERGY PREDICTED BY IDOCK:   -0.52 KCAL/MOL
REMARK 927      BINDING AFFINITY PREDICTED BY RF-SCORE:    0.00 PKD
ROOT
HETATM    1 NA   UNL     1      -7.586  11.390  67.100  1.00  0.00    -0.098 Na 
HETATM    2 NA   UNL     2     -13.283  11.537  69.275  1.00  0.00     0.071 Na 
HETATM    3  O   UNL     3     -11.980  12.649  67.624  1.00  0.00    -0.354 OA 
HETATM    4  H   UNL     3     -11.621  11.913  67.143  1.00  0.00     0.000 HD 
HETATM    5  C   UNL     3     -10.919  13.249  68.440  1.00  0.00    -0.264 C  
HETATM    6  O   UNL     3      -8.857  12.810  67.360  1.00  0.00    -0.172 OA 
HETATM    7  C   UNL     3      -9.764  13.695  67.520  1.00  0.00    -0.227 C  
HETATM    8  O   UNL     3      -9.855  14.821  66.973  1.00  0.00    -0.232 OA 
ENDROOT
BRANCH   5   9
HETATM    9  C   UNL     3     -11.499  14.436  69.214  1.00  0.00    -0.285 C  
HETATM   10  C   UNL     3     -12.375  13.881  70.372  1.00  0.00    -0.363 C  
HETATM   11  O   UNL     3     -12.280  15.215  68.276  1.00  0.00    -0.552 OA 
HETATM   12  H   UNL     3     -12.640  15.952  68.756  1.00  0.00     0.000 HD 
HETATM   13  O   UNL     3     -13.342  14.571  70.781  1.00  0.00    -0.341 OA 
HETATM   14  O   UNL     3     -12.152  12.665  70.706  1.00  0.00    -0.329 OA 
ENDBRANCH   5   9
TORSDOF 1
ENDMDL
MODEL      138
REMARK 921   NORMALIZED FREE ENERGY PREDICTED BY IDOCK:   -2.89 KCAL/MOL
REMARK 922        TOTAL FREE ENERGY PREDICTED BY IDOCK:   -3.67 KCAL/MOL
REMARK 923 INTER-LIGAND FREE ENERGY PREDICTED BY IDOCK:   -3.67 KCAL/MOL
REMARK 924 INTRA-LIGAND FREE ENERGY PREDICTED BY IDOCK:   -0.00 KCAL/MOL
REMARK 927      BINDING AFFINITY PREDICTED BY RF-SCORE:    0.00 PKD
ROOT
HETATM    1 NA   UNL     1     -11.607  16.529  63.155  1.00  0.00    -0.638 Na 
HETATM    2 NA   UNL     2      -8.513  14.147  67.841  1.00  0.00    -0.126 Na 
HETATM    3  O   UNL     3     -10.200  15.784  67.472  1.00  0.00    -0.255 OA 
HETATM    4  H   UNL     3     -10.825  15.293  66.952  1.00  0.00     0.000 HD 
HETATM    5  C   UNL     3      -9.501  16.736  66.601  1.00  0.00    -0.257 C  
HETATM    6  O   UNL     3     -10.956  17.263  64.809  1.00  0.00    -0.950 OA 
HETATM    7  C   UNL     3     -10.534  17.673  65.943  1.00  0.00    -0.246 C  
HETATM    8  O   UNL     3     -10.907  18.680  66.593  1.00  0.00    -0.312 OA 
ENDROOT
BRANCH   5   9
HETATM    9  C   UNL     3      -8.492  17.527  67.440  1.00  0.00    -0.216 C  
HETATM   10  C   UNL     3      -7.414  18.110  66.484  1.00  0.00    -0.236 C  
HETATM   11  O   UNL     3      -7.919  16.605  68.398  1.00  0.00    -0.187 OA 
HETATM   12  H   UNL     3      -7.294  17.096  68.919  1.00  0.00     0.000 HD 
HETATM   13  O   UNL     3      -6.256  18.306  66.929  1.00  0.00    -0.166 OA 
HETATM   14  O   UNL     3      -7.743  18.177  65.248  1.00  0.00    -0.077 OA 
ENDBRANCH   5   9
TORSDOF 1
ENDMDL
MODEL      139
REMARK 921   NORMALIZED FREE ENERGY PREDICTED BY IDOCK:   -2.89 KCAL/MOL
REMARK 922        TOTAL FREE ENERGY PREDICTED BY IDOCK:   -3.66 KCAL/MOL
REMARK 923 INTER-LIGAND FREE ENERGY PREDICTED BY IDOCK:   -3.46 KCAL/MOL
REMARK 924 INTRA-LIGAND FREE ENERGY PREDICTED BY IDOCK:   -0.21 KCAL/MOL
REMARK 927      BINDING AFFINITY PREDICTED BY RF-SCORE:    0.00 PKD
ROOT
HETATM    1 NA   UNL     1      -8.709  11.610  64.022  1.00  0.00    -0.370 Na 
HETATM    2 NA   UNL     2     -12.972  14.448  67.335  1.00  0.00    -0.602 Na 
HETATM    3  O   UNL     3     -10.600  14.286  67.251  1.00  0.00    -0.274 OA 
HETATM    4  H   UNL     3     -10.432  14.478  66.336  1.00  0.00     0.000 HD 
HETATM    5  C   UNL     3     -10.394  12.852  67.482  1.00  0.00    -0.223 C  
HETATM    6  O   UNL     3      -8.824  12.092  65.880  1.00  0.00    -0.052 OA 
HETATM    7  C   UNL     3      -8.949  12.479  67.091  1.00  0.00    -0.200 C  
HETATM    8  O   UNL     3      -8.048  12.654  67.947  1.00  0.00    -0.140 OA 
ENDROOT
BRANCH   5   9
HETATM    9  C   UNL     3     -10.664  12.543  68.958  1.00  0.00    -0.097 C  
HETATM   10  C   UNL     3     -11.852  11.544  69.036  1.00  0.00    -0.343 C  
HETATM   11  O   UNL     3     -10.975  13.801  69.605  1.00  0.00    -0.446 OA 
HETATM   12  H   UNL     3     -11.143  13.609  70.521  1.00  0.00     0.000 HD 
HETATM   13  O   UNL     3     -12.587  11.561  70.055  1.00  0.00    -0.148 OA 
HETATM   14  O   UNL     3     -12.105  10.893  67.963  1.00  0.00    -0.563 OA 
ENDBRANCH   5   9
TORSDOF 1
ENDMDL
MODEL      140
REMARK 921   NORMALIZED FREE ENERGY PREDICTED BY IDOCK:   -2.88 KCAL/MOL
REMARK 922        TOTAL FREE ENERGY PREDICTED BY IDOCK:   -3.66 KCAL/MOL
REMARK 923 INTER-LIGAND FREE ENERGY PREDICTED BY IDOCK:   -3.05 KCAL/MOL
REMARK 924 INTRA-LIGAND FREE ENERGY PREDICTED BY IDOCK:   -0.61 KCAL/MOL
REMARK 927      BINDING AFFINITY PREDICTED BY RF-SCORE:    0.00 PKD
ROOT
HETATM    1 NA   UNL     1     -12.032  19.921  67.410  1.00  0.00    -0.256 Na 
HETATM    2 NA   UNL     2      -9.830  14.294  68.239  1.00  0.00    -0.190 Na 
HETATM    3  O   UNL     3      -9.701  16.427  69.286  1.00  0.00    -0.256 OA 
HETATM    4  H   UNL     3     -10.621  16.648  69.371  1.00  0.00     0.000 HD 
HETATM    5  C   UNL     3      -9.112  17.243  68.220  1.00  0.00    -0.262 C  
HETATM    6  O   UNL     3     -10.362  19.250  68.087  1.00  0.00    -0.396 OA 
HETATM    7  C   UNL     3      -9.295  18.736  68.565  1.00  0.00    -0.350 C  
HETATM    8  O   UNL     3      -8.446  19.269  69.319  1.00  0.00    -0.206 OA 
ENDROOT
BRANCH   5   9
HETATM    9  C   UNL     3      -7.629  16.886  68.083  1.00  0.00    -0.188 C  
HETATM   10  C   UNL     3      -7.522  15.526  67.337  1.00  0.00    -0.204 C  
HETATM   11  O   UNL     3      -7.084  16.809  69.423  1.00  0.00    -0.230 OA 
HETATM   12  H   UNL     3      -6.165  16.588  69.338  1.00  0.00     0.000 HD 
HETATM   13  O   UNL     3      -6.535  14.786  67.572  1.00  0.00    -0.248 OA 
HETATM   14  O   UNL     3      -8.555  15.176  66.666  1.00  0.00    -0.263 OA 
ENDBRANCH   5   9
TORSDOF 1
ENDMDL
MODEL      141
REMARK 921   NORMALIZED FREE ENERGY PREDICTED BY IDOCK:   -2.87 KCAL/MOL
REMARK 922        TOTAL FREE ENERGY PREDICTED BY IDOCK:   -3.64 KCAL/MOL
REMARK 923 INTER-LIGAND FREE ENERGY PREDICTED BY IDOCK:   -4.69 KCAL/MOL
REMARK 924 INTRA-LIGAND FREE ENERGY PREDICTED BY IDOCK:    1.05 KCAL/MOL
REMARK 927      BINDING AFFINITY PREDICTED BY RF-SCORE:    0.00 PKD
ROOT
HETATM    1 NA   UNL     1     -13.054  14.161  62.716  1.00  0.00    -0.814 Na 
HETATM    2 NA   UNL     2     -12.762  15.974  68.532  1.00  0.00    -0.528 Na 
HETATM    3  O   UNL     3     -11.308  15.089  66.870  1.00  0.00    -0.341 OA 
HETATM    4  H   UNL     3     -11.474  15.679  66.144  1.00  0.00     0.000 HD 
HETATM    5  C   UNL     3     -11.938  13.796  66.586  1.00  0.00    -0.431 C  
HETATM    6  O   UNL     3     -12.038  13.554  64.232  1.00  0.00    -0.412 OA 
HETATM    7  C   UNL     3     -11.365  13.232  65.269  1.00  0.00    -0.295 C  
HETATM    8  O   UNL     3     -10.287  12.592  65.327  1.00  0.00    -0.281 OA 
ENDROOT
BRANCH   5   9
HETATM    9  C   UNL     3     -11.669  12.845  67.757  1.00  0.00    -0.362 C  
HETATM   10  C   UNL     3     -10.169  12.966  68.148  1.00  0.00    -0.239 C  
HETATM   11  O   UNL     3     -12.000  11.509  67.305  1.00  0.00    -0.605 OA 
HETATM   12  H   UNL     3     -11.834  10.920  68.031  1.00  0.00     0.000 HD 
HETATM   13  O   UNL     3      -9.597  11.971  68.658  1.00  0.00    -0.175 OA 
HETATM   14  O   UNL     3      -9.573  14.028  67.750  1.00  0.00    -0.206 OA 
ENDBRANCH   5   9
TORSDOF 1
ENDMDL
MODEL      142
REMARK 921   NORMALIZED FREE ENERGY PREDICTED BY IDOCK:   -2.87 KCAL/MOL
REMARK 922        TOTAL FREE ENERGY PREDICTED BY IDOCK:   -3.64 KCAL/MOL
REMARK 923 INTER-LIGAND FREE ENERGY PREDICTED BY IDOCK:   -3.42 KCAL/MOL
REMARK 924 INTRA-LIGAND FREE ENERGY PREDICTED BY IDOCK:   -0.22 KCAL/MOL
REMARK 927      BINDING AFFINITY PREDICTED BY RF-SCORE:    0.00 PKD
ROOT
HETATM    1 NA   UNL     1     -11.548  19.840  67.026  1.00  0.00    -0.435 Na 
HETATM    2 NA   UNL     2      -5.483  19.686  66.391  1.00  0.00    -0.157 Na 
HETATM    3  O   UNL     3      -7.401  18.671  65.413  1.00  0.00    -0.502 OA 
HETATM    4  H   UNL     3      -7.930  19.432  65.209  1.00  0.00     0.000 HD 
HETATM    5  C   UNL     3      -7.987  17.978  66.565  1.00  0.00    -0.263 C  
HETATM    6  O   UNL     3     -10.310  18.442  66.568  1.00  0.00    -0.368 OA 
HETATM    7  C   UNL     3      -9.437  17.573  66.229  1.00  0.00    -0.219 C  
HETATM    8  O   UNL     3      -9.613  16.497  65.607  1.00  0.00    -0.511 OA 
ENDROOT
BRANCH   5   9
HETATM    9  C   UNL     3      -7.132  16.751  66.895  1.00  0.00    -0.223 C  
HETATM   10  C   UNL     3      -7.030  16.628  68.441  1.00  0.00    -0.160 C  
HETATM   11  O   UNL     3      -5.835  16.960  66.285  1.00  0.00    -0.308 OA 
HETATM   12  H   UNL     3      -5.305  16.199  66.489  1.00  0.00     0.000 HD 
HETATM   13  O   UNL     3      -6.010  16.090  68.937  1.00  0.00    -0.110 OA 
HETATM   14  O   UNL     3      -7.924  17.257  69.110  1.00  0.00    -0.166 OA 
ENDBRANCH   5   9
TORSDOF 1
ENDMDL
MODEL      143
REMARK 921   NORMALIZED FREE ENERGY PREDICTED BY IDOCK:   -2.87 KCAL/MOL
REMARK 922        TOTAL FREE ENERGY PREDICTED BY IDOCK:   -3.64 KCAL/MOL
REMARK 923 INTER-LIGAND FREE ENERGY PREDICTED BY IDOCK:   -3.45 KCAL/MOL
REMARK 924 INTRA-LIGAND FREE ENERGY PREDICTED BY IDOCK:   -0.19 KCAL/MOL
REMARK 927      BINDING AFFINITY PREDICTED BY RF-SCORE:    0.00 PKD
ROOT
HETATM    1 NA   UNL     1     -12.305  11.957  63.243  1.00  0.00    -0.393 Na 
HETATM    2 NA   UNL     2     -10.910  14.700  68.510  1.00  0.00    -0.215 Na 
HETATM    3  O   UNL     3      -9.785  13.604  66.723  1.00  0.00    -0.258 OA 
HETATM    4  H   UNL     3     -10.141  14.063  65.970  1.00  0.00     0.000 HD 
HETATM    5  C   UNL     3     -10.373  12.262  66.783  1.00  0.00    -0.217 C  
HETATM    6  O   UNL     3     -10.953  11.638  64.573  1.00  0.00    -0.308 OA 
HETATM    7  C   UNL     3     -10.056  11.510  65.473  1.00  0.00    -0.243 C  
HETATM    8  O   UNL     3      -8.950  10.924  65.390  1.00  0.00    -0.193 OA 
ENDROOT
BRANCH   5   9
HETATM    9  C   UNL     3      -9.800  11.523  67.997  1.00  0.00    -0.188 C  
HETATM   10  C   UNL     3     -10.985  10.959  68.828  1.00  0.00    -0.237 C  
HETATM   11  O   UNL     3      -9.023  12.485  68.751  1.00  0.00    -0.387 OA 
HETATM   12  H   UNL     3      -8.667  12.026  69.504  1.00  0.00     0.000 HD 
HETATM   13  O   UNL     3     -10.837  10.812  70.067  1.00  0.00    -0.252 OA 
HETATM   14  O   UNL     3     -12.101  10.855  68.209  1.00  0.00    -0.562 OA 
ENDBRANCH   5   9
TORSDOF 1
ENDMDL
MODEL      144
REMARK 921   NORMALIZED FREE ENERGY PREDICTED BY IDOCK:   -2.86 KCAL/MOL
REMARK 922        TOTAL FREE ENERGY PREDICTED BY IDOCK:   -3.63 KCAL/MOL
REMARK 923 INTER-LIGAND FREE ENERGY PREDICTED BY IDOCK:   -2.98 KCAL/MOL
REMARK 924 INTRA-LIGAND FREE ENERGY PREDICTED BY IDOCK:   -0.65 KCAL/MOL
REMARK 927      BINDING AFFINITY PREDICTED BY RF-SCORE:    0.00 PKD
ROOT
HETATM    1 NA   UNL     1     -13.449  11.067  71.689  1.00  0.00    -0.341 Na 
HETATM    2 NA   UNL     2      -8.186   7.991  71.486  1.00  0.00    -0.086 Na 
HETATM    3  O   UNL     3     -10.463   7.662  70.880  1.00  0.00    -0.205 OA 
HETATM    4  H   UNL     3     -10.634   8.443  70.368  1.00  0.00     0.000 HD 
HETATM    5  C   UNL     3     -11.134   7.787  72.178  1.00  0.00    -0.279 C  
HETATM    6  O   UNL     3     -13.007   9.205  71.877  1.00  0.00    -0.345 OA 
HETATM    7  C   UNL     3     -12.648   7.982  71.949  1.00  0.00    -0.328 C  
HETATM    8  O   UNL     3     -13.350   6.954  71.786  1.00  0.00    -0.335 OA 
ENDROOT
BRANCH   5   9
HETATM    9  C   UNL     3     -10.858   6.526  73.003  1.00  0.00    -0.261 C  
HETATM   10  C   UNL     3      -9.488   6.702  73.717  1.00  0.00    -0.176 C  
HETATM   11  O   UNL     3     -10.845   5.409  72.082  1.00  0.00    -0.226 OA 
HETATM   12  H   UNL     3     -10.674   4.627  72.594  1.00  0.00     0.000 HD 
HETATM   13  O   UNL     3      -8.811   5.678  73.982  1.00  0.00    -0.120 OA 
HETATM   14  O   UNL     3      -9.064   7.906  73.821  1.00  0.00    -0.275 OA 
ENDBRANCH   5   9
TORSDOF 1
ENDMDL
MODEL      145
REMARK 921   NORMALIZED FREE ENERGY PREDICTED BY IDOCK:   -2.85 KCAL/MOL
REMARK 922        TOTAL FREE ENERGY PREDICTED BY IDOCK:   -3.62 KCAL/MOL
REMARK 923 INTER-LIGAND FREE ENERGY PREDICTED BY IDOCK:   -4.50 KCAL/MOL
REMARK 924 INTRA-LIGAND FREE ENERGY PREDICTED BY IDOCK:    0.88 KCAL/MOL
REMARK 927      BINDING AFFINITY PREDICTED BY RF-SCORE:    0.00 PKD
ROOT
HETATM    1 NA   UNL     1     -12.549  14.301  62.331  1.00  0.00    -0.867 Na 
HETATM    2 NA   UNL     2      -7.986  16.105  65.954  1.00  0.00    -0.249 Na 
HETATM    3  O   UNL     3      -9.365  14.189  65.649  1.00  0.00    -0.517 OA 
HETATM    4  H   UNL     3      -9.265  14.035  64.717  1.00  0.00     0.000 HD 
HETATM    5  C   UNL     3     -10.699  14.744  65.899  1.00  0.00    -0.316 C  
HETATM    6  O   UNL     3     -12.127  13.968  64.177  1.00  0.00    -0.463 OA 
HETATM    7  C   UNL     3     -11.764  13.755  65.383  1.00  0.00    -0.335 C  
HETATM    8  O   UNL     3     -12.109  12.818  66.144  1.00  0.00    -0.455 OA 
ENDROOT
BRANCH   5   9
HETATM    9  C   UNL     3     -10.859  14.993  67.402  1.00  0.00    -0.305 C  
HETATM   10  C   UNL     3     -10.137  13.848  68.165  1.00  0.00    -0.250 C  
HETATM   11  O   UNL     3     -12.281  15.013  67.681  1.00  0.00    -0.464 OA 
HETATM   12  H   UNL     3     -12.380  15.168  68.613  1.00  0.00     0.000 HD 
HETATM   13  O   UNL     3     -10.558  13.523  69.303  1.00  0.00    -0.095 OA 
HETATM   14  O   UNL     3      -9.268  13.190  67.492  1.00  0.00    -0.189 OA 
ENDBRANCH   5   9
TORSDOF 1
ENDMDL
MODEL      146
REMARK 921   NORMALIZED FREE ENERGY PREDICTED BY IDOCK:   -2.84 KCAL/MOL
REMARK 922        TOTAL FREE ENERGY PREDICTED BY IDOCK:   -3.61 KCAL/MOL
REMARK 923 INTER-LIGAND FREE ENERGY PREDICTED BY IDOCK:   -3.39 KCAL/MOL
REMARK 924 INTRA-LIGAND FREE ENERGY PREDICTED BY IDOCK:   -0.22 KCAL/MOL
REMARK 927      BINDING AFFINITY PREDICTED BY RF-SCORE:    0.00 PKD
ROOT
HETATM    1 NA   UNL     1      -7.203  16.823  67.327  1.00  0.00    -0.121 Na 
HETATM    2 NA   UNL     2     -12.892  16.117  69.410  1.00  0.00    -0.458 Na 
HETATM    3  O   UNL     3     -10.850  14.895  69.363  1.00  0.00    -0.249 OA 
HETATM    4  H   UNL     3     -10.241  15.537  69.708  1.00  0.00     0.000 HD 
HETATM    5  C   UNL     3     -10.626  14.753  67.921  1.00  0.00    -0.248 C  
HETATM    6  O   UNL     3      -8.360  15.296  67.496  1.00  0.00    -0.154 OA 
HETATM    7  C   UNL     3      -9.165  14.321  67.676  1.00  0.00    -0.194 C  
HETATM    8  O   UNL     3      -8.898  13.097  67.747  1.00  0.00    -0.169 OA 
ENDROOT
BRANCH   5   9
HETATM    9  C   UNL     3     -11.609  13.717  67.365  1.00  0.00    -0.356 C  
HETATM   10  C   UNL     3     -12.158  14.245  66.011  1.00  0.00    -0.408 C  
HETATM   11  O   UNL     3     -12.661  13.559  68.348  1.00  0.00    -0.092 OA 
HETATM   12  H   UNL     3     -13.270  12.917  68.004  1.00  0.00     0.000 HD 
HETATM   13  O   UNL     3     -13.308  13.892  65.648  1.00  0.00    -0.620 OA 
HETATM   14  O   UNL     3     -11.461  15.157  65.443  1.00  0.00    -0.324 OA 
ENDBRANCH   5   9
TORSDOF 1
ENDMDL
MODEL      147
REMARK 921   NORMALIZED FREE ENERGY PREDICTED BY IDOCK:   -2.84 KCAL/MOL
REMARK 922        TOTAL FREE ENERGY PREDICTED BY IDOCK:   -3.61 KCAL/MOL
REMARK 923 INTER-LIGAND FREE ENERGY PREDICTED BY IDOCK:   -2.97 KCAL/MOL
REMARK 924 INTRA-LIGAND FREE ENERGY PREDICTED BY IDOCK:   -0.64 KCAL/MOL
REMARK 927      BINDING AFFINITY PREDICTED BY RF-SCORE:    0.00 PKD
ROOT
HETATM    1 NA   UNL     1      -7.017  10.303  64.931  1.00  0.00    -0.103 Na 
HETATM    2 NA   UNL     2     -10.810  13.420  68.552  1.00  0.00    -0.210 Na 
HETATM    3  O   UNL     3      -8.936  11.969  68.767  1.00  0.00    -0.369 OA 
HETATM    4  H   UNL     3      -8.313  12.382  68.180  1.00  0.00     0.000 HD 
HETATM    5  C   UNL     3      -9.440  10.743  68.140  1.00  0.00    -0.158 C  
HETATM    6  O   UNL     3      -7.759   9.952  66.671  1.00  0.00    -0.104 OA 
HETATM    7  C   UNL     3      -8.253   9.804  67.839  1.00  0.00    -0.113 C  
HETATM    8  O   UNL     3      -7.850   9.058  68.764  1.00  0.00    -0.094 OA 
ENDROOT
BRANCH   5   9
HETATM    9  C   UNL     3     -10.444  10.078  69.086  1.00  0.00    -0.219 C  
HETATM   10  C   UNL     3     -11.793  10.843  68.980  1.00  0.00    -0.299 C  
HETATM   11  O   UNL     3      -9.886  10.154  70.421  1.00  0.00    -0.393 OA 
HETATM   12  H   UNL     3     -10.509   9.742  71.007  1.00  0.00     0.000 HD 
HETATM   13  O   UNL     3     -12.554  10.863  69.979  1.00  0.00    -0.295 OA 
HETATM   14  O   UNL     3     -11.948  11.557  67.928  1.00  0.00    -0.618 OA 
ENDBRANCH   5   9
TORSDOF 1
ENDMDL
MODEL      148
REMARK 921   NORMALIZED FREE ENERGY PREDICTED BY IDOCK:   -2.83 KCAL/MOL
REMARK 922        TOTAL FREE ENERGY PREDICTED BY IDOCK:   -3.60 KCAL/MOL
REMARK 923 INTER-LIGAND FREE ENERGY PREDICTED BY IDOCK:   -2.95 KCAL/MOL
REMARK 924 INTRA-LIGAND FREE ENERGY PREDICTED BY IDOCK:   -0.65 KCAL/MOL
REMARK 927      BINDING AFFINITY PREDICTED BY RF-SCORE:    0.00 PKD
ROOT
HETATM    1 NA   UNL     1     -12.557  12.061  65.810  1.00  0.00    -0.371 Na 
HETATM    2 NA   UNL     2     -12.103   7.138  69.383  1.00  0.00    -0.491 Na 
HETATM    3  O   UNL     3     -11.590   9.459  69.479  1.00  0.00    -0.437 OA 
HETATM    4  H   UNL     3     -12.418   9.844  69.219  1.00  0.00     0.000 HD 
HETATM    5  C   UNL     3     -10.634   9.596  68.375  1.00  0.00    -0.225 C  
HETATM    6  O   UNL     3     -11.264  11.503  67.119  1.00  0.00    -0.280 OA 
HETATM    7  C   UNL     3     -10.469  11.091  68.030  1.00  0.00    -0.189 C  
HETATM    8  O   UNL     3      -9.648  11.758  68.704  1.00  0.00    -0.186 OA 
ENDROOT
BRANCH   5   9
HETATM    9  C   UNL     3      -9.298   8.975  68.796  1.00  0.00    -0.140 C  
HETATM   10  C   UNL     3      -9.359   7.448  68.511  1.00  0.00    -0.141 C  
HETATM   11  O   UNL     3      -9.125   9.253  70.207  1.00  0.00    -0.197 OA 
HETATM   12  H   UNL     3      -8.297   8.868  70.467  1.00  0.00     0.000 HD 
HETATM   13  O   UNL     3      -8.673   6.675  69.224  1.00  0.00    -0.130 OA 
HETATM   14  O   UNL     3     -10.256   7.072  67.678  1.00  0.00    -0.164 OA 
ENDBRANCH   5   9
TORSDOF 1
ENDMDL
MODEL      149
REMARK 921   NORMALIZED FREE ENERGY PREDICTED BY IDOCK:   -2.80 KCAL/MOL
REMARK 922        TOTAL FREE ENERGY PREDICTED BY IDOCK:   -3.57 KCAL/MOL
REMARK 923 INTER-LIGAND FREE ENERGY PREDICTED BY IDOCK:   -2.90 KCAL/MOL
REMARK 924 INTRA-LIGAND FREE ENERGY PREDICTED BY IDOCK:   -0.66 KCAL/MOL
REMARK 927      BINDING AFFINITY PREDICTED BY RF-SCORE:    0.00 PKD
ROOT
HETATM    1 NA   UNL     1      -6.888   8.790  72.891  1.00  0.00    -0.101 Na 
HETATM    2 NA   UNL     2      -7.988  10.812  67.242  1.00  0.00    -0.103 Na 
HETATM    3  O   UNL     3      -9.042  10.832  69.375  1.00  0.00    -0.374 OA 
HETATM    4  H   UNL     3      -8.343  11.166  69.925  1.00  0.00     0.000 HD 
HETATM    5  C   UNL     3      -9.209   9.398  69.635  1.00  0.00    -0.185 C  
HETATM    6  O   UNL     3      -8.497   8.989  71.856  1.00  0.00    -0.363 OA 
HETATM    7  C   UNL     3      -9.528   9.187  71.129  1.00  0.00    -0.261 C  
HETATM    8  O   UNL     3     -10.725   9.300  71.492  1.00  0.00    -0.334 OA 
ENDROOT
BRANCH   5   9
HETATM    9  C   UNL     3     -10.336   8.860  68.747  1.00  0.00    -0.211 C  
HETATM   10  C   UNL     3      -9.750   8.571  67.337  1.00  0.00    -0.170 C  
HETATM   11  O   UNL     3     -11.365   9.879  68.703  1.00  0.00    -0.475 OA 
HETATM   12  H   UNL     3     -12.064   9.546  68.153  1.00  0.00     0.000 HD 
HETATM   13  O   UNL     3     -10.510   8.653  66.340  1.00  0.00    -0.205 OA 
HETATM   14  O   UNL     3      -8.477   8.445  67.277  1.00  0.00    -0.121 OA 
ENDBRANCH   5   9
TORSDOF 1
ENDMDL
MODEL      150
REMARK 921   NORMALIZED FREE ENERGY PREDICTED BY IDOCK:   -2.80 KCAL/MOL
REMARK 922        TOTAL FREE ENERGY PREDICTED BY IDOCK:   -3.56 KCAL/MOL
REMARK 923 INTER-LIGAND FREE ENERGY PREDICTED BY IDOCK:   -2.90 KCAL/MOL
REMARK 924 INTRA-LIGAND FREE ENERGY PREDICTED BY IDOCK:   -0.66 KCAL/MOL
REMARK 927      BINDING AFFINITY PREDICTED BY RF-SCORE:    0.00 PKD
ROOT
HETATM    1 NA   UNL     1     -12.352   2.817  73.725  1.00  0.00    -0.211 Na 
HETATM    2 NA   UNL     2     -12.913   7.711  70.127  1.00  0.00    -0.482 Na 
HETATM    3  O   UNL     3     -11.430   5.871  70.410  1.00  0.00    -0.255 OA 
HETATM    4  H   UNL     3     -12.037   5.140  70.400  1.00  0.00     0.000 HD 
HETATM    5  C   UNL     3     -10.960   6.080  71.783  1.00  0.00    -0.269 C  
HETATM    6  O   UNL     3     -11.075   3.995  72.900  1.00  0.00    -0.116 OA 
HETATM    7  C   UNL     3     -10.283   4.789  72.289  1.00  0.00    -0.191 C  
HETATM    8  O   UNL     3      -9.075   4.611  71.998  1.00  0.00    -0.124 OA 
ENDROOT
BRANCH   5   9
HETATM    9  C   UNL     3      -9.982   7.259  71.799  1.00  0.00    -0.171 C  
HETATM   10  C   UNL     3     -10.807   8.576  71.822  1.00  0.00    -0.304 C  
HETATM   11  O   UNL     3      -9.170   7.154  70.604  1.00  0.00    -0.157 OA 
HETATM   12  H   UNL     3      -8.563   7.885  70.614  1.00  0.00     0.000 HD 
HETATM   13  O   UNL     3     -10.309   9.608  71.309  1.00  0.00    -0.275 OA 
HETATM   14  O   UNL     3     -12.024   8.465  72.206  1.00  0.00    -0.349 OA 
ENDBRANCH   5   9
TORSDOF 1
ENDMDL
MODEL      151
REMARK 921   NORMALIZED FREE ENERGY PREDICTED BY IDOCK:   -2.79 KCAL/MOL
REMARK 922        TOTAL FREE ENERGY PREDICTED BY IDOCK:   -3.56 KCAL/MOL
REMARK 923 INTER-LIGAND FREE ENERGY PREDICTED BY IDOCK:   -3.06 KCAL/MOL
REMARK 924 INTRA-LIGAND FREE ENERGY PREDICTED BY IDOCK:   -0.50 KCAL/MOL
REMARK 927      BINDING AFFINITY PREDICTED BY RF-SCORE:    0.00 PKD
ROOT
HETATM    1 NA   UNL     1     -13.313  13.192  71.787  1.00  0.00    -0.316 Na 
HETATM    2 NA   UNL     2     -10.530  10.468  67.092  1.00  0.00    -0.175 Na 
HETATM    3  O   UNL     3     -12.028   9.893  68.849  1.00  0.00    -0.338 OA 
HETATM    4  H   UNL     3     -12.698  10.558  68.747  1.00  0.00     0.000 HD 
HETATM    5  C   UNL     3     -11.224  10.205  70.036  1.00  0.00    -0.299 C  
HETATM    6  O   UNL     3     -12.600  11.425  71.527  1.00  0.00    -0.348 OA 
HETATM    7  C   UNL     3     -12.146  10.259  71.272  1.00  0.00    -0.382 C  
HETATM    8  O   UNL     3     -12.414   9.177  71.848  1.00  0.00    -0.339 OA 
ENDROOT
BRANCH   5   9
HETATM    9  C   UNL     3     -10.143   9.131  70.199  1.00  0.00    -0.202 C  
HETATM   10  C   UNL     3      -9.052   9.371  69.118  1.00  0.00    -0.148 C  
HETATM   11  O   UNL     3     -10.792   7.846  70.033  1.00  0.00    -0.247 OA 
HETATM   12  H   UNL     3     -10.121   7.181  70.135  1.00  0.00     0.000 HD 
HETATM   13  O   UNL     3      -8.396   8.386  68.696  1.00  0.00    -0.118 OA 
HETATM   14  O   UNL     3      -9.027  10.542  68.601  1.00  0.00    -0.145 OA 
ENDBRANCH   5   9
TORSDOF 1
ENDMDL
MODEL      152
REMARK 921   NORMALIZED FREE ENERGY PREDICTED BY IDOCK:   -2.76 KCAL/MOL
REMARK 922        TOTAL FREE ENERGY PREDICTED BY IDOCK:   -3.53 KCAL/MOL
REMARK 923 INTER-LIGAND FREE ENERGY PREDICTED BY IDOCK:   -2.91 KCAL/MOL
REMARK 924 INTRA-LIGAND FREE ENERGY PREDICTED BY IDOCK:   -0.62 KCAL/MOL
REMARK 927      BINDING AFFINITY PREDICTED BY RF-SCORE:    0.00 PKD
ROOT
HETATM    1 NA   UNL     1     -11.992   4.238  65.446  1.00  0.00    -0.675 Na 
HETATM    2 NA   UNL     2     -10.438  10.136  65.480  1.00  0.00    -0.243 Na 
HETATM    3  O   UNL     3      -9.363   8.013  65.506  1.00  0.00    -0.411 OA 
HETATM    4  H   UNL     3      -9.780   7.585  64.768  1.00  0.00     0.000 HD 
HETATM    5  C   UNL     3      -9.884   7.434  66.749  1.00  0.00    -0.220 C  
HETATM    6  O   UNL     3     -10.556   5.213  66.273  1.00  0.00    -0.292 OA 
HETATM    7  C   UNL     3      -9.606   5.917  66.757  1.00  0.00    -0.148 C  
HETATM    8  O   UNL     3      -8.480   5.532  67.155  1.00  0.00    -0.111 OA 
ENDROOT
BRANCH   5   9
HETATM    9  C   UNL     3      -9.212   8.126  67.939  1.00  0.00    -0.131 C  
HETATM   10  C   UNL     3      -9.874   9.519  68.130  1.00  0.00    -0.155 C  
HETATM   11  O   UNL     3      -7.802   8.239  67.624  1.00  0.00    -0.104 OA 
HETATM   12  H   UNL     3      -7.385   8.667  68.362  1.00  0.00     0.000 HD 
HETATM   13  O   UNL     3      -9.191  10.447  68.631  1.00  0.00    -0.148 OA 
HETATM   14  O   UNL     3     -11.025   9.668  67.590  1.00  0.00    -0.268 OA 
ENDBRANCH   5   9
TORSDOF 1
ENDMDL
MODEL      153
REMARK 921   NORMALIZED FREE ENERGY PREDICTED BY IDOCK:   -2.76 KCAL/MOL
REMARK 922        TOTAL FREE ENERGY PREDICTED BY IDOCK:   -3.52 KCAL/MOL
REMARK 923 INTER-LIGAND FREE ENERGY PREDICTED BY IDOCK:   -2.88 KCAL/MOL
REMARK 924 INTRA-LIGAND FREE ENERGY PREDICTED BY IDOCK:   -0.64 KCAL/MOL
REMARK 927      BINDING AFFINITY PREDICTED BY RF-SCORE:    0.00 PKD
ROOT
HETATM    1 NA   UNL     1      -9.857  12.862  63.377  1.00  0.00    -0.371 Na 
HETATM    2 NA   UNL     2      -8.113  12.650  69.218  1.00  0.00    -0.289 Na 
HETATM    3  O   UNL     3      -9.963  13.429  67.941  1.00  0.00    -0.223 OA 
HETATM    4  H   UNL     3     -10.173  12.658  67.428  1.00  0.00     0.000 HD 
HETATM    5  C   UNL     3      -9.323  14.421  67.070  1.00  0.00    -0.242 C  
HETATM    6  O   UNL     3     -10.112  14.049  64.868  1.00  0.00    -0.380 OA 
HETATM    7  C   UNL     3     -10.279  14.768  65.910  1.00  0.00    -0.313 C  
HETATM    8  O   UNL     3     -11.153  15.646  66.116  1.00  0.00    -0.257 OA 
ENDROOT
BRANCH   5   9
HETATM    9  C   UNL     3      -8.985  15.664  67.898  1.00  0.00    -0.180 C  
HETATM   10  C   UNL     3      -7.603  15.438  68.573  1.00  0.00    -0.122 C  
HETATM   11  O   UNL     3     -10.041  15.824  68.876  1.00  0.00    -0.204 OA 
HETATM   12  H   UNL     3      -9.831  16.596  69.390  1.00  0.00     0.000 HD 
HETATM   13  O   UNL     3      -7.365  16.010  69.665  1.00  0.00    -0.189 OA 
HETATM   14  O   UNL     3      -6.867  14.531  68.048  1.00  0.00    -0.113 OA 
ENDBRANCH   5   9
TORSDOF 1
ENDMDL
MODEL      154
REMARK 921   NORMALIZED FREE ENERGY PREDICTED BY IDOCK:   -2.75 KCAL/MOL
REMARK 922        TOTAL FREE ENERGY PREDICTED BY IDOCK:   -3.52 KCAL/MOL
REMARK 923 INTER-LIGAND FREE ENERGY PREDICTED BY IDOCK:   -2.86 KCAL/MOL
REMARK 924 INTRA-LIGAND FREE ENERGY PREDICTED BY IDOCK:   -0.66 KCAL/MOL
REMARK 927      BINDING AFFINITY PREDICTED BY RF-SCORE:    0.00 PKD
ROOT
HETATM    1 NA   UNL     1      -7.643   5.817  66.219  1.00  0.00    -0.077 Na 
HETATM    2 NA   UNL     2     -11.764   7.274  70.473  1.00  0.00    -0.261 Na 
HETATM    3  O   UNL     3     -11.455   7.544  68.129  1.00  0.00    -0.092 OA 
HETATM    4  H   UNL     3     -11.270   6.651  67.862  1.00  0.00     0.000 HD 
HETATM    5  C   UNL     3     -10.213   8.322  68.084  1.00  0.00    -0.210 C  
HETATM    6  O   UNL     3      -8.809   7.327  66.456  1.00  0.00    -0.129 OA 
HETATM    7  C   UNL     3      -9.640   8.277  66.652  1.00  0.00    -0.233 C  
HETATM    8  O   UNL     3     -10.083   9.106  65.820  1.00  0.00    -0.229 OA 
ENDROOT
BRANCH   5   9
HETATM    9  C   UNL     3     -10.512   9.761  68.515  1.00  0.00    -0.210 C  
HETATM   10  C   UNL     3     -10.569   9.802  70.068  1.00  0.00    -0.276 C  
HETATM   11  O   UNL     3     -11.781  10.128  67.920  1.00  0.00    -0.646 OA 
HETATM   12  H   UNL     3     -11.966  11.020  68.187  1.00  0.00     0.000 HD 
HETATM   13  O   UNL     3     -11.295  10.664  70.621  1.00  0.00    -0.316 OA 
HETATM   14  O   UNL     3     -10.004   8.825  70.673  1.00  0.00    -0.180 OA 
ENDBRANCH   5   9
TORSDOF 1
ENDMDL
MODEL      155
REMARK 921   NORMALIZED FREE ENERGY PREDICTED BY IDOCK:   -2.73 KCAL/MOL
REMARK 922        TOTAL FREE ENERGY PREDICTED BY IDOCK:   -3.50 KCAL/MOL
REMARK 923 INTER-LIGAND FREE ENERGY PREDICTED BY IDOCK:   -3.29 KCAL/MOL
REMARK 924 INTRA-LIGAND FREE ENERGY PREDICTED BY IDOCK:   -0.21 KCAL/MOL
REMARK 927      BINDING AFFINITY PREDICTED BY RF-SCORE:    0.00 PKD
ROOT
HETATM    1 NA   UNL     1     -10.278   9.171  64.615  1.00  0.00    -0.390 Na 
HETATM    2 NA   UNL     2      -9.253  11.053  70.326  1.00  0.00    -0.329 Na 
HETATM    3  O   UNL     3     -11.001  11.133  68.713  1.00  0.00    -0.187 OA 
HETATM    4  H   UNL     3     -11.068  10.218  68.467  1.00  0.00     0.000 HD 
HETATM    5  C   UNL     3     -10.361  11.875  67.622  1.00  0.00    -0.200 C  
HETATM    6  O   UNL     3     -10.832  10.723  65.607  1.00  0.00    -0.132 OA 
HETATM    7  C   UNL     3     -11.197  11.706  66.336  1.00  0.00    -0.287 C  
HETATM    8  O   UNL     3     -12.172  12.478  66.168  1.00  0.00    -0.609 OA 
ENDROOT
BRANCH   5   9
HETATM    9  C   UNL     3     -10.252  13.350  68.021  1.00  0.00    -0.243 C  
HETATM   10  C   UNL     3      -8.746  13.732  68.066  1.00  0.00    -0.181 C  
HETATM   11  O   UNL     3     -10.881  13.487  69.318  1.00  0.00    -0.401 OA 
HETATM   12  H   UNL     3     -10.814  14.402  69.565  1.00  0.00     0.000 HD 
HETATM   13  O   UNL     3      -8.380  14.644  68.848  1.00  0.00    -0.162 OA 
HETATM   14  O   UNL     3      -7.954  12.956  67.426  1.00  0.00    -0.167 OA 
ENDBRANCH   5   9
TORSDOF 1
ENDMDL
MODEL      156
REMARK 921   NORMALIZED FREE ENERGY PREDICTED BY IDOCK:   -2.71 KCAL/MOL
REMARK 922        TOTAL FREE ENERGY PREDICTED BY IDOCK:   -3.47 KCAL/MOL
REMARK 923 INTER-LIGAND FREE ENERGY PREDICTED BY IDOCK:   -4.38 KCAL/MOL
REMARK 924 INTRA-LIGAND FREE ENERGY PREDICTED BY IDOCK:    0.91 KCAL/MOL
REMARK 927      BINDING AFFINITY PREDICTED BY RF-SCORE:    0.00 PKD
ROOT
HETATM    1 NA   UNL     1     -10.465  13.886  70.160  1.00  0.00    -0.425 Na 
HETATM    2 NA   UNL     2     -10.946   9.922  65.549  1.00  0.00    -0.129 Na 
HETATM    3  O   UNL     3     -10.394  12.213  65.874  1.00  0.00    -0.241 OA 
HETATM    4  H   UNL     3      -9.732  12.150  66.553  1.00  0.00     0.000 HD 
HETATM    5  C   UNL     3     -11.632  12.734  66.463  1.00  0.00    -0.376 C  
HETATM    6  O   UNL     3     -11.030  14.061  68.330  1.00  0.00    -0.242 OA 
HETATM    7  C   UNL     3     -11.352  14.113  67.095  1.00  0.00    -0.332 C  
HETATM    8  O   UNL     3     -11.392  15.118  66.344  1.00  0.00    -0.320 OA 
ENDROOT
BRANCH   5   9
HETATM    9  C   UNL     3     -12.698  12.834  65.367  1.00  0.00    -0.163 C  
HETATM   10  C   UNL     3     -11.992  13.207  64.034  1.00  0.00    -0.460 C  
HETATM   11  O   UNL     3     -13.639  13.855  65.781  1.00  0.00    -0.515 OA 
HETATM   12  H   UNL     3     -14.300  13.917  65.102  1.00  0.00     0.000 HD 
HETATM   13  O   UNL     3     -12.637  13.854  63.171  1.00  0.00    -0.775 OA 
HETATM   14  O   UNL     3     -10.733  12.980  63.987  1.00  0.00    -0.400 OA 
ENDBRANCH   5   9
TORSDOF 1
ENDMDL
MODEL      157
REMARK 921   NORMALIZED FREE ENERGY PREDICTED BY IDOCK:   -2.70 KCAL/MOL
REMARK 922        TOTAL FREE ENERGY PREDICTED BY IDOCK:   -3.46 KCAL/MOL
REMARK 923 INTER-LIGAND FREE ENERGY PREDICTED BY IDOCK:   -4.39 KCAL/MOL
REMARK 924 INTRA-LIGAND FREE ENERGY PREDICTED BY IDOCK:    0.93 KCAL/MOL
REMARK 927      BINDING AFFINITY PREDICTED BY RF-SCORE:    0.00 PKD
ROOT
HETATM    1 NA   UNL     1     -12.012   9.695  68.108  1.00  0.00    -0.523 Na 
HETATM    2 NA   UNL     2      -8.255  14.329  69.379  1.00  0.00    -0.177 Na 
HETATM    3  O   UNL     3     -10.419  13.998  68.448  1.00  0.00    -0.239 OA 
HETATM    4  H   UNL     3     -10.827  13.455  69.112  1.00  0.00     0.000 HD 
HETATM    5  C   UNL     3     -10.113  13.167  67.278  1.00  0.00    -0.233 C  
HETATM    6  O   UNL     3     -11.665  11.379  67.248  1.00  0.00    -0.577 OA 
HETATM    7  C   UNL     3     -11.416  12.530  66.753  1.00  0.00    -0.362 C  
HETATM    8  O   UNL     3     -12.126  13.210  65.973  1.00  0.00    -0.410 OA 
ENDROOT
BRANCH   5   9
HETATM    9  C   UNL     3      -9.456  14.043  66.206  1.00  0.00    -0.227 C  
HETATM   10  C   UNL     3     -10.196  15.409  66.173  1.00  0.00    -0.308 C  
HETATM   11  O   UNL     3      -9.574  13.336  64.948  1.00  0.00    -0.520 OA 
HETATM   12  H   UNL     3      -9.166  13.879  64.283  1.00  0.00     0.000 HD 
HETATM   13  O   UNL     3     -10.228  16.051  65.093  1.00  0.00    -0.511 OA 
HETATM   14  O   UNL     3     -10.881  15.698  67.215  1.00  0.00    -0.305 OA 
ENDBRANCH   5   9
TORSDOF 1
ENDMDL
MODEL      158
REMARK 921   NORMALIZED FREE ENERGY PREDICTED BY IDOCK:   -2.69 KCAL/MOL
REMARK 922        TOTAL FREE ENERGY PREDICTED BY IDOCK:   -3.45 KCAL/MOL
REMARK 923 INTER-LIGAND FREE ENERGY PREDICTED BY IDOCK:   -3.28 KCAL/MOL
REMARK 924 INTRA-LIGAND FREE ENERGY PREDICTED BY IDOCK:   -0.16 KCAL/MOL
REMARK 927      BINDING AFFINITY PREDICTED BY RF-SCORE:    0.00 PKD
ROOT
HETATM    1 NA   UNL     1     -10.355   8.190  65.655  1.00  0.00    -0.459 Na 
HETATM    2 NA   UNL     2     -12.924  10.855  70.503  1.00  0.00    -0.288 Na 
HETATM    3  O   UNL     3     -10.746  10.295  69.727  1.00  0.00    -0.249 OA 
HETATM    4  H   UNL     3     -10.757  10.671  68.854  1.00  0.00     0.000 HD 
HETATM    5  C   UNL     3     -10.837   8.835  69.618  1.00  0.00    -0.169 C  
HETATM    6  O   UNL     3      -9.914   8.218  67.527  1.00  0.00    -0.164 OA 
HETATM    7  C   UNL     3      -9.656   8.315  68.773  1.00  0.00    -0.150 C  
HETATM    8  O   UNL     3      -8.564   8.113  69.359  1.00  0.00    -0.132 OA 
ENDROOT
BRANCH   5   9
HETATM    9  C   UNL     3     -10.819   8.231  71.025  1.00  0.00    -0.233 C  
HETATM   10  C   UNL     3     -11.669   6.929  71.007  1.00  0.00    -0.345 C  
HETATM   11  O   UNL     3     -11.375   9.224  71.922  1.00  0.00    -0.374 OA 
HETATM   12  H   UNL     3     -11.363   8.849  72.795  1.00  0.00     0.000 HD 
HETATM   13  O   UNL     3     -12.242   6.569  72.065  1.00  0.00    -0.338 OA 
HETATM   14  O   UNL     3     -11.873   6.412  69.853  1.00  0.00    -0.384 OA 
ENDBRANCH   5   9
TORSDOF 1
ENDMDL
MODEL      159
REMARK 921   NORMALIZED FREE ENERGY PREDICTED BY IDOCK:   -2.68 KCAL/MOL
REMARK 922        TOTAL FREE ENERGY PREDICTED BY IDOCK:   -3.44 KCAL/MOL
REMARK 923 INTER-LIGAND FREE ENERGY PREDICTED BY IDOCK:   -3.34 KCAL/MOL
REMARK 924 INTRA-LIGAND FREE ENERGY PREDICTED BY IDOCK:   -0.10 KCAL/MOL
REMARK 927      BINDING AFFINITY PREDICTED BY RF-SCORE:    0.00 PKD
ROOT
HETATM    1 NA   UNL     1     -11.010  18.501  67.515  1.00  0.00    -0.364 Na 
HETATM    2 NA   UNL     2      -9.838  13.563  64.132  1.00  0.00    -0.466 Na 
HETATM    3  O   UNL     3     -10.828  14.087  66.231  1.00  0.00    -0.288 OA 
HETATM    4  H   UNL     3     -11.451  14.759  65.980  1.00  0.00     0.000 HD 
HETATM    5  C   UNL     3      -9.707  14.716  66.937  1.00  0.00    -0.242 C  
HETATM    6  O   UNL     3     -10.525  16.692  67.954  1.00  0.00    -0.298 OA 
HETATM    7  C   UNL     3     -10.244  15.466  68.174  1.00  0.00    -0.230 C  
HETATM    8  O   UNL     3     -10.419  14.806  69.227  1.00  0.00    -0.235 OA 
ENDROOT
BRANCH   5   9
HETATM    9  C   UNL     3      -8.703  13.632  67.341  1.00  0.00    -0.213 C  
HETATM   10  C   UNL     3      -7.297  14.286  67.450  1.00  0.00    -0.128 C  
HETATM   11  O   UNL     3      -8.744  12.611  66.314  1.00  0.00    -0.418 OA 
HETATM   12  H   UNL     3      -8.122  11.939  66.565  1.00  0.00     0.000 HD 
HETATM   13  O   UNL     3      -6.284  13.577  67.229  1.00  0.00    -0.313 OA 
HETATM   14  O   UNL     3      -7.283  15.560  67.581  1.00  0.00    -0.144 OA 
ENDBRANCH   5   9
TORSDOF 1
ENDMDL
MODEL      160
REMARK 921   NORMALIZED FREE ENERGY PREDICTED BY IDOCK:   -2.67 KCAL/MOL
REMARK 922        TOTAL FREE ENERGY PREDICTED BY IDOCK:   -3.43 KCAL/MOL
REMARK 923 INTER-LIGAND FREE ENERGY PREDICTED BY IDOCK:   -2.79 KCAL/MOL
REMARK 924 INTRA-LIGAND FREE ENERGY PREDICTED BY IDOCK:   -0.64 KCAL/MOL
REMARK 927      BINDING AFFINITY PREDICTED BY RF-SCORE:    0.00 PKD
ROOT
HETATM    1 NA   UNL     1     -12.361   6.346  67.891  1.00  0.00    -0.473 Na 
HETATM    2 NA   UNL     2      -7.237   8.822  70.088  1.00  0.00    -0.043 Na 
HETATM    3  O   UNL     3      -8.231   6.669  69.894  1.00  0.00    -0.123 OA 
HETATM    4  H   UNL     3      -8.449   6.647  68.970  1.00  0.00     0.000 HD 
HETATM    5  C   UNL     3      -9.464   6.843  70.669  1.00  0.00    -0.165 C  
HETATM    6  O   UNL     3     -11.240   5.929  69.398  1.00  0.00    -0.375 OA 
HETATM    7  C   UNL     3     -10.430   5.683  70.353  1.00  0.00    -0.285 C  
HETATM    8  O   UNL     3     -10.285   4.612  70.993  1.00  0.00    -0.202 OA 
ENDROOT
BRANCH   5   9
HETATM    9  C   UNL     3      -9.112   6.879  72.160  1.00  0.00    -0.132 C  
HETATM   10  C   UNL     3      -8.730   8.338  72.535  1.00  0.00    -0.217 C  
HETATM   11  O   UNL     3      -8.006   5.965  72.358  1.00  0.00    -0.102 OA 
HETATM   12  H   UNL     3      -7.788   5.987  73.282  1.00  0.00     0.000 HD 
HETATM   13  O   UNL     3      -7.922   8.526  73.478  1.00  0.00    -0.369 OA 
HETATM   14  O   UNL     3      -9.134   9.246  71.727  1.00  0.00    -0.303 OA 
ENDBRANCH   5   9
TORSDOF 1
ENDMDL
MODEL      161
REMARK 921   NORMALIZED FREE ENERGY PREDICTED BY IDOCK:   -2.66 KCAL/MOL
REMARK 922        TOTAL FREE ENERGY PREDICTED BY IDOCK:   -3.42 KCAL/MOL
REMARK 923 INTER-LIGAND FREE ENERGY PREDICTED BY IDOCK:   -3.22 KCAL/MOL
REMARK 924 INTRA-LIGAND FREE ENERGY PREDICTED BY IDOCK:   -0.20 KCAL/MOL
REMARK 927      BINDING AFFINITY PREDICTED BY RF-SCORE:    0.00 PKD
ROOT
HETATM    1 NA   UNL     1      -8.456   6.846  71.869  1.00  0.00    -0.108 Na 
HETATM    2 NA   UNL     2     -12.412  11.451  71.274  1.00  0.00    -0.282 Na 
HETATM    3  O   UNL     3     -12.100   9.252  70.419  1.00  0.00    -0.469 OA 
HETATM    4  H   UNL     3     -11.990   8.755  71.221  1.00  0.00     0.000 HD 
HETATM    5  C   UNL     3     -10.798   9.377  69.755  1.00  0.00    -0.232 C  
HETATM    6  O   UNL     3      -9.493   7.505  70.389  1.00  0.00    -0.161 OA 
HETATM    7  C   UNL     3     -10.241   7.968  69.463  1.00  0.00    -0.209 C  
HETATM    8  O   UNL     3     -10.621   7.396  68.413  1.00  0.00    -0.198 OA 
ENDROOT
BRANCH   5   9
HETATM    9  C   UNL     3     -10.974  10.179  68.462  1.00  0.00    -0.232 C  
HETATM   10  C   UNL     3      -9.870  11.272  68.412  1.00  0.00    -0.199 C  
HETATM   11  O   UNL     3     -12.302  10.758  68.499  1.00  0.00    -0.825 OA 
HETATM   12  H   UNL     3     -12.412  11.256  67.697  1.00  0.00     0.000 HD 
HETATM   13  O   UNL     3     -10.106  12.340  67.795  1.00  0.00    -0.194 OA 
HETATM   14  O   UNL     3      -8.854  11.073  69.166  1.00  0.00    -0.110 OA 
ENDBRANCH   5   9
TORSDOF 1
ENDMDL
MODEL      162
REMARK 921   NORMALIZED FREE ENERGY PREDICTED BY IDOCK:   -2.66 KCAL/MOL
REMARK 922        TOTAL FREE ENERGY PREDICTED BY IDOCK:   -3.42 KCAL/MOL
REMARK 923 INTER-LIGAND FREE ENERGY PREDICTED BY IDOCK:   -2.78 KCAL/MOL
REMARK 924 INTRA-LIGAND FREE ENERGY PREDICTED BY IDOCK:   -0.64 KCAL/MOL
REMARK 927      BINDING AFFINITY PREDICTED BY RF-SCORE:    0.00 PKD
ROOT
HETATM    1 NA   UNL     1     -13.009   9.495  70.156  1.00  0.00    -0.492 Na 
HETATM    2 NA   UNL     2      -7.182   8.071  71.260  1.00  0.00    -0.051 Na 
HETATM    3  O   UNL     3      -9.251   6.950  70.907  1.00  0.00    -0.156 OA 
HETATM    4  H   UNL     3      -9.548   7.358  70.102  1.00  0.00     0.000 HD 
HETATM    5  C   UNL     3     -10.055   7.459  72.023  1.00  0.00    -0.182 C  
HETATM    6  O   UNL     3     -12.168   8.081  71.152  1.00  0.00    -0.302 OA 
HETATM    7  C   UNL     3     -11.543   7.147  71.758  1.00  0.00    -0.280 C  
HETATM    8  O   UNL     3     -11.969   6.013  72.086  1.00  0.00    -0.309 OA 
ENDROOT
BRANCH   5   9
HETATM    9  C   UNL     3      -9.575   6.802  73.321  1.00  0.00    -0.162 C  
HETATM   10  C   UNL     3      -8.373   7.623  73.866  1.00  0.00    -0.210 C  
HETATM   11  O   UNL     3      -9.195   5.444  72.994  1.00  0.00    -0.134 OA 
HETATM   12  H   UNL     3      -8.897   5.036  73.799  1.00  0.00     0.000 HD 
HETATM   13  O   UNL     3      -7.503   7.033  74.553  1.00  0.00    -0.110 OA 
HETATM   14  O   UNL     3      -8.264   8.818  73.417  1.00  0.00    -0.389 OA 
ENDBRANCH   5   9
TORSDOF 1
ENDMDL
MODEL      163
REMARK 921   NORMALIZED FREE ENERGY PREDICTED BY IDOCK:   -2.64 KCAL/MOL
REMARK 922        TOTAL FREE ENERGY PREDICTED BY IDOCK:   -3.40 KCAL/MOL
REMARK 923 INTER-LIGAND FREE ENERGY PREDICTED BY IDOCK:   -3.19 KCAL/MOL
REMARK 924 INTRA-LIGAND FREE ENERGY PREDICTED BY IDOCK:   -0.22 KCAL/MOL
REMARK 927      BINDING AFFINITY PREDICTED BY RF-SCORE:    0.00 PKD
ROOT
HETATM    1 NA   UNL     1     -12.960  14.745  65.740  1.00  0.00    -0.330 Na 
HETATM    2 NA   UNL     2     -11.569   9.113  67.624  1.00  0.00    -0.518 Na 
HETATM    3  O   UNL     3     -10.656  11.307  67.748  1.00  0.00    -0.185 OA 
HETATM    4  H   UNL     3     -11.400  11.800  68.073  1.00  0.00     0.000 HD 
HETATM    5  C   UNL     3     -10.457  11.624  66.330  1.00  0.00    -0.246 C  
HETATM    6  O   UNL     3     -11.296  13.808  65.965  1.00  0.00    -0.307 OA 
HETATM    7  C   UNL     3     -10.228  13.142  66.177  1.00  0.00    -0.290 C  
HETATM    8  O   UNL     3      -9.062  13.576  66.345  1.00  0.00    -0.173 OA 
ENDROOT
BRANCH   5   9
HETATM    9  C   UNL     3      -9.257  10.828  65.807  1.00  0.00    -0.189 C  
HETATM   10  C   UNL     3      -9.609  10.292  64.390  1.00  0.00    -0.316 C  
HETATM   11  O   UNL     3      -9.019   9.751  66.746  1.00  0.00    -0.136 OA 
HETATM   12  H   UNL     3      -8.275   9.258  66.421  1.00  0.00     0.000 HD 
HETATM   13  O   UNL     3      -9.072   9.226  64.000  1.00  0.00    -0.154 OA 
HETATM   14  O   UNL     3     -10.570  10.890  63.791  1.00  0.00    -0.341 OA 
ENDBRANCH   5   9
TORSDOF 1
ENDMDL
MODEL      164
REMARK 921   NORMALIZED FREE ENERGY PREDICTED BY IDOCK:   -2.61 KCAL/MOL
REMARK 922        TOTAL FREE ENERGY PREDICTED BY IDOCK:   -3.37 KCAL/MOL
REMARK 923 INTER-LIGAND FREE ENERGY PREDICTED BY IDOCK:   -3.15 KCAL/MOL
REMARK 924 INTRA-LIGAND FREE ENERGY PREDICTED BY IDOCK:   -0.22 KCAL/MOL
REMARK 927      BINDING AFFINITY PREDICTED BY RF-SCORE:    0.00 PKD
ROOT
HETATM    1 NA   UNL     1      -7.124  18.511  66.839  1.00  0.00    -0.182 Na 
HETATM    2 NA   UNL     2     -10.695  15.489  70.754  1.00  0.00    -0.245 Na 
HETATM    3  O   UNL     3      -8.589  15.204  69.683  1.00  0.00    -0.404 OA 
HETATM    4  H   UNL     3      -8.162  16.027  69.890  1.00  0.00     0.000 HD 
HETATM    5  C   UNL     3      -8.975  15.211  68.268  1.00  0.00    -0.175 C  
HETATM    6  O   UNL     3      -7.471  16.641  67.127  1.00  0.00    -0.150 OA 
HETATM    7  C   UNL     3      -7.716  15.418  67.401  1.00  0.00    -0.196 C  
HETATM    8  O   UNL     3      -7.030  14.406  67.116  1.00  0.00    -0.173 OA 
ENDROOT
BRANCH   5   9
HETATM    9  C   UNL     3      -9.663  13.883  67.935  1.00  0.00    -0.231 C  
HETATM   10  C   UNL     3     -10.867  14.181  66.998  1.00  0.00    -0.295 C  
HETATM   11  O   UNL     3     -10.090  13.299  69.190  1.00  0.00    -0.424 OA 
HETATM   12  H   UNL     3     -10.516  12.476  68.983  1.00  0.00     0.000 HD 
HETATM   13  O   UNL     3     -11.857  13.409  67.026  1.00  0.00    -0.363 OA 
HETATM   14  O   UNL     3     -10.835  15.307  66.389  1.00  0.00    -0.315 OA 
ENDBRANCH   5   9
TORSDOF 1
ENDMDL
MODEL      165
REMARK 921   NORMALIZED FREE ENERGY PREDICTED BY IDOCK:   -2.61 KCAL/MOL
REMARK 922        TOTAL FREE ENERGY PREDICTED BY IDOCK:   -3.36 KCAL/MOL
REMARK 923 INTER-LIGAND FREE ENERGY PREDICTED BY IDOCK:   -3.15 KCAL/MOL
REMARK 924 INTRA-LIGAND FREE ENERGY PREDICTED BY IDOCK:   -0.21 KCAL/MOL
REMARK 927      BINDING AFFINITY PREDICTED BY RF-SCORE:    0.00 PKD
ROOT
HETATM    1 NA   UNL     1      -9.118   7.176  68.240  1.00  0.00    -0.130 Na 
HETATM    2 NA   UNL     2     -12.441  11.889  70.226  1.00  0.00    -0.262 Na 
HETATM    3  O   UNL     3     -12.129  10.654  68.217  1.00  0.00    -0.817 OA 
HETATM    4  H   UNL     3     -12.245   9.763  68.526  1.00  0.00     0.000 HD 
HETATM    5  C   UNL     3     -10.706  10.884  67.948  1.00  0.00    -0.231 C  
HETATM    6  O   UNL     3      -9.738   8.792  67.402  1.00  0.00    -0.157 OA 
HETATM    7  C   UNL     3     -10.217   9.863  66.899  1.00  0.00    -0.240 C  
HETATM    8  O   UNL     3     -10.398  10.139  65.688  1.00  0.00    -0.240 OA 
ENDROOT
BRANCH   5   9
HETATM    9  C   UNL     3     -10.520  12.321  67.449  1.00  0.00    -0.210 C  
HETATM   10  C   UNL     3      -9.195  12.875  68.044  1.00  0.00    -0.212 C  
HETATM   11  O   UNL     3     -11.670  13.078  67.899  1.00  0.00    -0.322 OA 
HETATM   12  H   UNL     3     -11.555  13.969  67.589  1.00  0.00     0.000 HD 
HETATM   13  O   UNL     3      -9.094  14.111  68.241  1.00  0.00    -0.180 OA 
HETATM   14  O   UNL     3      -8.362  11.997  68.463  1.00  0.00    -0.153 OA 
ENDBRANCH   5   9
TORSDOF 1
ENDMDL
MODEL      166
REMARK 921   NORMALIZED FREE ENERGY PREDICTED BY IDOCK:   -2.60 KCAL/MOL
REMARK 922        TOTAL FREE ENERGY PREDICTED BY IDOCK:   -3.36 KCAL/MOL
REMARK 923 INTER-LIGAND FREE ENERGY PREDICTED BY IDOCK:   -3.27 KCAL/MOL
REMARK 924 INTRA-LIGAND FREE ENERGY PREDICTED BY IDOCK:   -0.09 KCAL/MOL
REMARK 927      BINDING AFFINITY PREDICTED BY RF-SCORE:    0.00 PKD
ROOT
HETATM    1 NA   UNL     1      -9.698  12.439  64.323  1.00  0.00    -0.256 Na 
HETATM    2 NA   UNL     2     -11.134  18.306  65.172  1.00  0.00    -0.479 Na 
HETATM    3  O   UNL     3      -9.380  16.804  65.743  1.00  0.00    -0.515 OA 
HETATM    4  H   UNL     3      -9.169  16.433  64.895  1.00  0.00     0.000 HD 
HETATM    5  C   UNL     3     -10.098  15.800  66.536  1.00  0.00    -0.282 C  
HETATM    6  O   UNL     3      -9.409  13.666  65.776  1.00  0.00    -0.036 OA 
HETATM    7  C   UNL     3      -9.215  14.544  66.683  1.00  0.00    -0.266 C  
HETATM    8  O   UNL     3      -8.364  14.533  67.605  1.00  0.00    -0.155 OA 
ENDROOT
BRANCH   5   9
HETATM    9  C   UNL     3     -10.438  16.400  67.905  1.00  0.00    -0.307 C  
HETATM   10  C   UNL     3     -11.695  15.671  68.457  1.00  0.00    -0.327 C  
HETATM   11  O   UNL     3     -10.681  17.813  67.702  1.00  0.00    -0.386 OA 
HETATM   12  H   UNL     3     -10.891  18.185  68.550  1.00  0.00     0.000 HD 
HETATM   13  O   UNL     3     -12.459  16.294  69.234  1.00  0.00     0.085 OA 
HETATM   14  O   UNL     3     -11.957  14.534  67.929  1.00  0.00    -0.343 OA 
ENDBRANCH   5   9
TORSDOF 1
ENDMDL
MODEL      167
REMARK 921   NORMALIZED FREE ENERGY PREDICTED BY IDOCK:   -2.58 KCAL/MOL
REMARK 922        TOTAL FREE ENERGY PREDICTED BY IDOCK:   -3.34 KCAL/MOL
REMARK 923 INTER-LIGAND FREE ENERGY PREDICTED BY IDOCK:   -3.13 KCAL/MOL
REMARK 924 INTRA-LIGAND FREE ENERGY PREDICTED BY IDOCK:   -0.21 KCAL/MOL
REMARK 927      BINDING AFFINITY PREDICTED BY RF-SCORE:    0.00 PKD
ROOT
HETATM    1 NA   UNL     1     -13.142   6.857  70.300  1.00  0.00    -0.588 Na 
HETATM    2 NA   UNL     2      -9.674   8.956  65.743  1.00  0.00    -0.187 Na 
HETATM    3  O   UNL     3      -9.466   8.489  68.066  1.00  0.00    -0.139 OA 
HETATM    4  H   UNL     3      -9.796   7.599  68.108  1.00  0.00     0.000 HD 
HETATM    5  C   UNL     3     -10.467   9.395  68.640  1.00  0.00    -0.209 C  
HETATM    6  O   UNL     3     -11.727   8.157  70.217  1.00  0.00    -0.089 OA 
HETATM    7  C   UNL     3     -10.755   8.976  70.096  1.00  0.00    -0.233 C  
HETATM    8  O   UNL     3      -9.985   9.405  70.990  1.00  0.00    -0.285 OA 
ENDROOT
BRANCH   5   9
HETATM    9  C   UNL     3      -9.934  10.830  68.573  1.00  0.00    -0.178 C  
HETATM   10  C   UNL     3     -11.070  11.747  68.039  1.00  0.00    -0.242 C  
HETATM   11  O   UNL     3      -8.791  10.817  67.684  1.00  0.00    -0.131 OA 
HETATM   12  H   UNL     3      -8.460  11.707  67.642  1.00  0.00     0.000 HD 
HETATM   13  O   UNL     3     -10.759  12.784  67.403  1.00  0.00    -0.226 OA 
HETATM   14  O   UNL     3     -12.258  11.275  68.133  1.00  0.00    -0.622 OA 
ENDBRANCH   5   9
TORSDOF 1
ENDMDL
MODEL      168
REMARK 921   NORMALIZED FREE ENERGY PREDICTED BY IDOCK:   -2.58 KCAL/MOL
REMARK 922        TOTAL FREE ENERGY PREDICTED BY IDOCK:   -3.34 KCAL/MOL
REMARK 923 INTER-LIGAND FREE ENERGY PREDICTED BY IDOCK:   -2.69 KCAL/MOL
REMARK 924 INTRA-LIGAND FREE ENERGY PREDICTED BY IDOCK:   -0.65 KCAL/MOL
REMARK 927      BINDING AFFINITY PREDICTED BY RF-SCORE:    0.00 PKD
ROOT
HETATM    1 NA   UNL     1      -9.206  12.416  64.848  1.00  0.00    -0.399 Na 
HETATM    2 NA   UNL     2     -11.791  10.330  69.964  1.00  0.00    -0.219 Na 
HETATM    3  O   UNL     3      -9.863  11.568  69.322  1.00  0.00    -0.414 OA 
HETATM    4  H   UNL     3     -10.249  12.243  68.777  1.00  0.00     0.000 HD 
HETATM    5  C   UNL     3      -9.166  10.604  68.463  1.00  0.00    -0.170 C  
HETATM    6  O   UNL     3      -8.491  11.753  66.506  1.00  0.00    -0.179 OA 
HETATM    7  C   UNL     3      -8.087  11.342  67.645  1.00  0.00    -0.124 C  
HETATM    8  O   UNL     3      -6.970  11.530  68.187  1.00  0.00    -0.065 OA 
ENDROOT
BRANCH   5   9
HETATM    9  C   UNL     3      -8.545   9.514  69.343  1.00  0.00    -0.159 C  
HETATM   10  C   UNL     3      -9.664   8.511  69.740  1.00  0.00    -0.179 C  
HETATM   11  O   UNL     3      -7.978  10.174  70.501  1.00  0.00    -0.423 OA 
HETATM   12  H   UNL     3      -7.593   9.499  71.046  1.00  0.00     0.000 HD 
HETATM   13  O   UNL     3      -9.559   7.891  70.827  1.00  0.00    -0.164 OA 
HETATM   14  O   UNL     3     -10.713   8.526  69.005  1.00  0.00    -0.193 OA 
ENDBRANCH   5   9
TORSDOF 1
ENDMDL
MODEL      169
REMARK 921   NORMALIZED FREE ENERGY PREDICTED BY IDOCK:   -2.56 KCAL/MOL
REMARK 922        TOTAL FREE ENERGY PREDICTED BY IDOCK:   -3.31 KCAL/MOL
REMARK 923 INTER-LIGAND FREE ENERGY PREDICTED BY IDOCK:   -2.65 KCAL/MOL
REMARK 924 INTRA-LIGAND FREE ENERGY PREDICTED BY IDOCK:   -0.66 KCAL/MOL
REMARK 927      BINDING AFFINITY PREDICTED BY RF-SCORE:    0.00 PKD
ROOT
HETATM    1 NA   UNL     1      -7.521   3.434  66.554  1.00  0.00    -0.065 Na 
HETATM    2 NA   UNL     2     -12.408   6.596  68.376  1.00  0.00    -0.456 Na 
HETATM    3  O   UNL     3     -11.069   6.360  66.424  1.00  0.00    -0.613 OA 
HETATM    4  H   UNL     3     -11.065   5.417  66.313  1.00  0.00     0.000 HD 
HETATM    5  C   UNL     3      -9.754   6.786  66.916  1.00  0.00    -0.168 C  
HETATM    6  O   UNL     3      -8.164   5.203  66.159  1.00  0.00    -0.108 OA 
HETATM    7  C   UNL     3      -8.670   6.348  65.909  1.00  0.00    -0.145 C  
HETATM    8  O   UNL     3      -8.446   7.100  64.928  1.00  0.00    -0.059 OA 
ENDROOT
BRANCH   5   9
HETATM    9  C   UNL     3      -9.760   8.308  67.094  1.00  0.00    -0.195 C  
HETATM   10  C   UNL     3     -10.395   8.633  68.475  1.00  0.00    -0.196 C  
HETATM   11  O   UNL     3     -10.534   8.861  66.002  1.00  0.00    -0.220 OA 
HETATM   12  H   UNL     3     -10.537   9.805  66.113  1.00  0.00     0.000 HD 
HETATM   13  O   UNL     3     -10.992   9.729  68.620  1.00  0.00    -0.213 OA 
HETATM   14  O   UNL     3     -10.420   7.670  69.319  1.00  0.00    -0.215 OA 
ENDBRANCH   5   9
TORSDOF 1
ENDMDL
MODEL      170
REMARK 921   NORMALIZED FREE ENERGY PREDICTED BY IDOCK:   -2.50 KCAL/MOL
REMARK 922        TOTAL FREE ENERGY PREDICTED BY IDOCK:   -3.25 KCAL/MOL
REMARK 923 INTER-LIGAND FREE ENERGY PREDICTED BY IDOCK:   -4.18 KCAL/MOL
REMARK 924 INTRA-LIGAND FREE ENERGY PREDICTED BY IDOCK:    0.93 KCAL/MOL
REMARK 927      BINDING AFFINITY PREDICTED BY RF-SCORE:    0.00 PKD
ROOT
HETATM    1 NA   UNL     1      -7.417  16.847  65.548  1.00  0.00    -0.250 Na 
HETATM    2 NA   UNL     2     -11.089  13.058  62.488  1.00  0.00    -0.621 Na 
HETATM    3  O   UNL     3     -11.100  14.287  64.525  1.00  0.00    -0.504 OA 
HETATM    4  H   UNL     3     -10.871  15.157  64.220  1.00  0.00     0.000 HD 
HETATM    5  C   UNL     3      -9.947  13.709  65.224  1.00  0.00    -0.204 C  
HETATM    6  O   UNL     3      -8.675  15.503  66.103  1.00  0.00    -0.304 OA 
HETATM    7  C   UNL     3      -9.555  14.627  66.401  1.00  0.00    -0.301 C  
HETATM    8  O   UNL     3     -10.171  14.482  67.485  1.00  0.00    -0.232 OA 
ENDROOT
BRANCH   5   9
HETATM    9  C   UNL     3     -10.318  12.307  65.717  1.00  0.00    -0.258 C  
HETATM   10  C   UNL     3     -11.772  12.351  66.264  1.00  0.00    -0.395 C  
HETATM   11  O   UNL     3      -9.365  11.953  66.750  1.00  0.00    -0.189 OA 
HETATM   12  H   UNL     3      -9.595  11.084  67.055  1.00  0.00     0.000 HD 
HETATM   13  O   UNL     3     -12.099  11.546  67.171  1.00  0.00    -0.494 OA 
HETATM   14  O   UNL     3     -12.486  13.339  65.871  1.00  0.00    -0.426 OA 
ENDBRANCH   5   9
TORSDOF 1
ENDMDL
MODEL      171
REMARK 921   NORMALIZED FREE ENERGY PREDICTED BY IDOCK:   -2.50 KCAL/MOL
REMARK 922        TOTAL FREE ENERGY PREDICTED BY IDOCK:   -3.25 KCAL/MOL
REMARK 923 INTER-LIGAND FREE ENERGY PREDICTED BY IDOCK:   -3.17 KCAL/MOL
REMARK 924 INTRA-LIGAND FREE ENERGY PREDICTED BY IDOCK:   -0.07 KCAL/MOL
REMARK 927      BINDING AFFINITY PREDICTED BY RF-SCORE:    0.00 PKD
ROOT
HETATM    1 NA   UNL     1     -11.583   7.686  68.578  1.00  0.00    -0.430 Na 
HETATM    2 NA   UNL     2     -12.378  11.874  64.216  1.00  0.00    -0.347 Na 
HETATM    3  O   UNL     3     -10.579  10.790  65.334  1.00  0.00    -0.242 OA 
HETATM    4  H   UNL     3     -10.822   9.877  65.236  1.00  0.00     0.000 HD 
HETATM    5  C   UNL     3     -10.809  11.196  66.725  1.00  0.00    -0.268 C  
HETATM    6  O   UNL     3     -10.602   9.262  68.075  1.00  0.00    -0.228 OA 
HETATM    7  C   UNL     3      -9.977  10.295  67.660  1.00  0.00    -0.179 C  
HETATM    8  O   UNL     3      -8.779  10.611  67.861  1.00  0.00    -0.125 OA 
ENDROOT
BRANCH   5   9
HETATM    9  C   UNL     3     -10.418  12.669  66.883  1.00  0.00    -0.233 C  
HETATM   10  C   UNL     3     -11.212  13.257  68.083  1.00  0.00    -0.270 C  
HETATM   11  O   UNL     3     -10.750  13.333  65.640  1.00  0.00    -0.275 OA 
HETATM   12  H   UNL     3     -10.507  14.246  65.738  1.00  0.00     0.000 HD 
HETATM   13  O   UNL     3     -11.487  14.483  68.080  1.00  0.00    -0.290 OA 
HETATM   14  O   UNL     3     -11.691  12.403  68.908  1.00  0.00    -0.288 OA 
ENDBRANCH   5   9
TORSDOF 1
ENDMDL
MODEL      172
REMARK 921   NORMALIZED FREE ENERGY PREDICTED BY IDOCK:   -2.48 KCAL/MOL
REMARK 922        TOTAL FREE ENERGY PREDICTED BY IDOCK:   -3.23 KCAL/MOL
REMARK 923 INTER-LIGAND FREE ENERGY PREDICTED BY IDOCK:   -3.31 KCAL/MOL
REMARK 924 INTRA-LIGAND FREE ENERGY PREDICTED BY IDOCK:    0.08 KCAL/MOL
REMARK 927      BINDING AFFINITY PREDICTED BY RF-SCORE:    0.00 PKD
ROOT
HETATM    1 NA   UNL     1     -11.629  13.531  70.163  1.00  0.00    -0.249 Na 
HETATM    2 NA   UNL     2     -10.669  19.554  70.130  1.00  0.00    -0.588 Na 
HETATM    3  O   UNL     3     -11.019  17.800  68.561  1.00  0.00    -0.238 OA 
HETATM    4  H   UNL     3     -11.806  17.396  68.906  1.00  0.00     0.000 HD 
HETATM    5  C   UNL     3      -9.875  16.925  68.838  1.00  0.00    -0.267 C  
HETATM    6  O   UNL     3     -10.691  14.705  68.964  1.00  0.00    -0.237 OA 
HETATM    7  C   UNL     3     -10.123  15.547  68.190  1.00  0.00    -0.218 C  
HETATM    8  O   UNL     3      -9.821  15.408  66.979  1.00  0.00    -0.227 OA 
ENDROOT
BRANCH   5   9
HETATM    9  C   UNL     3      -8.605  17.577  68.281  1.00  0.00    -0.266 C  
HETATM   10  C   UNL     3      -7.377  16.912  68.964  1.00  0.00    -0.231 C  
HETATM   11  O   UNL     3      -8.687  18.992  68.581  1.00  0.00    -0.346 OA 
HETATM   12  H   UNL     3      -7.900  19.396  68.236  1.00  0.00     0.000 HD 
HETATM   13  O   UNL     3      -6.326  17.587  69.102  1.00  0.00    -0.212 OA 
HETATM   14  O   UNL     3      -7.589  15.771  69.505  1.00  0.00    -0.227 OA 
ENDBRANCH   5   9
TORSDOF 1
ENDMDL
MODEL      173
REMARK 921   NORMALIZED FREE ENERGY PREDICTED BY IDOCK:   -2.48 KCAL/MOL
REMARK 922        TOTAL FREE ENERGY PREDICTED BY IDOCK:   -3.23 KCAL/MOL
REMARK 923 INTER-LIGAND FREE ENERGY PREDICTED BY IDOCK:   -2.57 KCAL/MOL
REMARK 924 INTRA-LIGAND FREE ENERGY PREDICTED BY IDOCK:   -0.66 KCAL/MOL
REMARK 927      BINDING AFFINITY PREDICTED BY RF-SCORE:    0.00 PKD
ROOT
HETATM    1 NA   UNL     1     -12.069   9.158  72.948  1.00  0.00    -0.295 Na 
HETATM    2 NA   UNL     2      -7.817  12.278  69.885  1.00  0.00    -0.310 Na 
HETATM    3  O   UNL     3      -9.666  10.856  69.412  1.00  0.00    -0.402 OA 
HETATM    4  H   UNL     3     -10.352  11.268  69.923  1.00  0.00     0.000 HD 
HETATM    5  C   UNL     3      -9.259   9.614  70.077  1.00  0.00    -0.241 C  
HETATM    6  O   UNL     3     -11.119   8.823  71.310  1.00  0.00    -0.242 OA 
HETATM    7  C   UNL     3     -10.484   8.686  70.211  1.00  0.00    -0.210 C  
HETATM    8  O   UNL     3     -10.777   7.960  69.230  1.00  0.00    -0.211 OA 
ENDROOT
BRANCH   5   9
HETATM    9  C   UNL     3      -8.151   8.950  69.252  1.00  0.00    -0.109 C  
HETATM   10  C   UNL     3      -6.798   9.618  69.627  1.00  0.00    -0.067 C  
HETATM   11  O   UNL     3      -8.481   9.151  67.856  1.00  0.00    -0.117 OA 
HETATM   12  H   UNL     3      -7.794   8.739  67.345  1.00  0.00     0.000 HD 
HETATM   13  O   UNL     3      -5.885   9.656  68.766  1.00  0.00    -0.039 OA 
HETATM   14  O   UNL     3      -6.778  10.249  70.742  1.00  0.00    -0.322 OA 
ENDBRANCH   5   9
TORSDOF 1
ENDMDL
MODEL      174
REMARK 921   NORMALIZED FREE ENERGY PREDICTED BY IDOCK:   -2.45 KCAL/MOL
REMARK 922        TOTAL FREE ENERGY PREDICTED BY IDOCK:   -3.20 KCAL/MOL
REMARK 923 INTER-LIGAND FREE ENERGY PREDICTED BY IDOCK:   -3.03 KCAL/MOL
REMARK 924 INTRA-LIGAND FREE ENERGY PREDICTED BY IDOCK:   -0.17 KCAL/MOL
REMARK 927      BINDING AFFINITY PREDICTED BY RF-SCORE:    0.00 PKD
ROOT
HETATM    1 NA   UNL     1     -11.951   3.945  65.289  1.00  0.00    -0.514 Na 
HETATM    2 NA   UNL     2     -12.535   7.858  69.932  1.00  0.00    -0.435 Na 
HETATM    3  O   UNL     3     -11.219   7.615  67.964  1.00  0.00    -0.414 OA 
HETATM    4  H   UNL     3     -11.890   7.477  67.307  1.00  0.00     0.000 HD 
HETATM    5  C   UNL     3     -10.536   6.343  68.222  1.00  0.00    -0.223 C  
HETATM    6  O   UNL     3     -10.695   5.038  66.252  1.00  0.00    -0.312 OA 
HETATM    7  C   UNL     3      -9.925   5.820  66.905  1.00  0.00    -0.171 C  
HETATM    8  O   UNL     3      -8.796   6.255  66.572  1.00  0.00    -0.128 OA 
ENDROOT
BRANCH   5   9
HETATM    9  C   UNL     3      -9.453   6.567  69.282  1.00  0.00    -0.140 C  
HETATM   10  C   UNL     3      -9.323   5.268  70.127  1.00  0.00    -0.153 C  
HETATM   11  O   UNL     3      -9.874   7.693  70.089  1.00  0.00    -0.183 OA 
HETATM   12  H   UNL     3      -9.203   7.832  70.746  1.00  0.00     0.000 HD 
HETATM   13  O   UNL     3      -8.945   5.362  71.321  1.00  0.00    -0.138 OA 
HETATM   14  O   UNL     3      -9.791   4.204  69.590  1.00  0.00    -0.217 OA 
ENDBRANCH   5   9
TORSDOF 1
ENDMDL
MODEL      175
REMARK 921   NORMALIZED FREE ENERGY PREDICTED BY IDOCK:   -2.44 KCAL/MOL
REMARK 922        TOTAL FREE ENERGY PREDICTED BY IDOCK:   -3.19 KCAL/MOL
REMARK 923 INTER-LIGAND FREE ENERGY PREDICTED BY IDOCK:   -2.53 KCAL/MOL
REMARK 924 INTRA-LIGAND FREE ENERGY PREDICTED BY IDOCK:   -0.66 KCAL/MOL
REMARK 927      BINDING AFFINITY PREDICTED BY RF-SCORE:    0.00 PKD
ROOT
HETATM    1 NA   UNL     1     -14.059   9.658  70.250  1.00  0.00    -0.633 Na 
HETATM    2 NA   UNL     2     -10.650   4.601  70.341  1.00  0.00    -0.221 Na 
HETATM    3  O   UNL     3     -10.566   6.818  71.199  1.00  0.00    -0.220 OA 
HETATM    4  H   UNL     3     -11.414   6.887  71.621  1.00  0.00     0.000 HD 
HETATM    5  C   UNL     3     -10.582   7.612  69.965  1.00  0.00    -0.238 C  
HETATM    6  O   UNL     3     -12.160   9.353  70.260  1.00  0.00    -0.058 OA 
HETATM    7  C   UNL     3     -10.914   9.079  70.311  1.00  0.00    -0.244 C  
HETATM    8  O   UNL     3      -9.969   9.822  70.670  1.00  0.00    -0.262 OA 
ENDROOT
BRANCH   5   9
HETATM    9  C   UNL     3      -9.214   7.501  69.285  1.00  0.00    -0.144 C  
HETATM   10  C   UNL     3      -9.165   6.156  68.507  1.00  0.00    -0.115 C  
HETATM   11  O   UNL     3      -8.213   7.554  70.331  1.00  0.00    -0.119 OA 
HETATM   12  H   UNL     3      -7.365   7.485  69.910  1.00  0.00     0.000 HD 
HETATM   13  O   UNL     3      -8.053   5.596  68.341  1.00  0.00    -0.101 OA 
HETATM   14  O   UNL     3     -10.299   5.621  68.247  1.00  0.00    -0.178 OA 
ENDBRANCH   5   9
TORSDOF 1
ENDMDL
MODEL      176
REMARK 921   NORMALIZED FREE ENERGY PREDICTED BY IDOCK:   -2.42 KCAL/MOL
REMARK 922        TOTAL FREE ENERGY PREDICTED BY IDOCK:   -3.16 KCAL/MOL
REMARK 923 INTER-LIGAND FREE ENERGY PREDICTED BY IDOCK:   -4.05 KCAL/MOL
REMARK 924 INTRA-LIGAND FREE ENERGY PREDICTED BY IDOCK:    0.89 KCAL/MOL
REMARK 927      BINDING AFFINITY PREDICTED BY RF-SCORE:    0.00 PKD
ROOT
HETATM    1 NA   UNL     1     -11.102  10.675  62.550  1.00  0.00    -0.730 Na 
HETATM    2 NA   UNL     2      -7.991  11.735  67.689  1.00  0.00    -0.107 Na 
HETATM    3  O   UNL     3     -10.254  11.473  67.001  1.00  0.00    -0.206 OA 
HETATM    4  H   UNL     3     -10.208  10.656  66.519  1.00  0.00     0.000 HD 
HETATM    5  C   UNL     3     -10.402  12.579  66.049  1.00  0.00    -0.256 C  
HETATM    6  O   UNL     3     -11.476  11.719  64.121  1.00  0.00    -0.350 OA 
HETATM    7  C   UNL     3     -11.677  12.357  65.209  1.00  0.00    -0.390 C  
HETATM    8  O   UNL     3     -12.769  12.745  65.692  1.00  0.00    -0.549 OA 
ENDROOT
BRANCH   5   9
HETATM    9  C   UNL     3     -10.475  13.897  66.827  1.00  0.00    -0.270 C  
HETATM   10  C   UNL     3     -11.303  13.654  68.120  1.00  0.00    -0.288 C  
HETATM   11  O   UNL     3     -11.107  14.869  65.958  1.00  0.00    -0.329 OA 
HETATM   12  H   UNL     3     -11.152  15.686  66.440  1.00  0.00     0.000 HD 
HETATM   13  O   UNL     3     -11.944  14.615  68.614  1.00  0.00    -0.315 OA 
HETATM   14  O   UNL     3     -11.416  12.433  68.488  1.00  0.00    -0.257 OA 
ENDBRANCH   5   9
TORSDOF 1
ENDMDL
MODEL      177
REMARK 921   NORMALIZED FREE ENERGY PREDICTED BY IDOCK:   -2.39 KCAL/MOL
REMARK 922        TOTAL FREE ENERGY PREDICTED BY IDOCK:   -3.13 KCAL/MOL
REMARK 923 INTER-LIGAND FREE ENERGY PREDICTED BY IDOCK:   -2.47 KCAL/MOL
REMARK 924 INTRA-LIGAND FREE ENERGY PREDICTED BY IDOCK:   -0.66 KCAL/MOL
REMARK 927      BINDING AFFINITY PREDICTED BY RF-SCORE:    0.00 PKD
ROOT
HETATM    1 NA   UNL     1      -8.436   5.951  67.460  1.00  0.00    -0.103 Na 
HETATM    2 NA   UNL     2      -8.959  11.943  68.474  1.00  0.00    -0.147 Na 
HETATM    3  O   UNL     3      -8.944   9.921  69.728  1.00  0.00    -0.207 OA 
HETATM    4  H   UNL     3      -8.149   9.511  69.409  1.00  0.00     0.000 HD 
HETATM    5  C   UNL     3     -10.102   9.217  69.167  1.00  0.00    -0.199 C  
HETATM    6  O   UNL     3      -9.437   6.986  68.735  1.00  0.00    -0.138 OA 
HETATM    7  C   UNL     3     -10.040   7.732  69.578  1.00  0.00    -0.194 C  
HETATM    8  O   UNL     3     -10.506   7.417  70.700  1.00  0.00    -0.211 OA 
ENDROOT
BRANCH   5   9
HETATM    9  C   UNL     3     -11.383   9.881  69.681  1.00  0.00    -0.165 C  
HETATM   10  C   UNL     3     -11.647  11.155  68.831  1.00  0.00    -0.317 C  
HETATM   11  O   UNL     3     -11.166  10.201  71.077  1.00  0.00    -0.339 OA 
HETATM   12  H   UNL     3     -11.960  10.611  71.396  1.00  0.00     0.000 HD 
HETATM   13  O   UNL     3     -12.263  12.114  69.358  1.00  0.00    -0.207 OA 
HETATM   14  O   UNL     3     -11.050  11.203  67.699  1.00  0.00    -0.247 OA 
ENDBRANCH   5   9
TORSDOF 1
ENDMDL
MODEL      178
REMARK 921   NORMALIZED FREE ENERGY PREDICTED BY IDOCK:   -2.38 KCAL/MOL
REMARK 922        TOTAL FREE ENERGY PREDICTED BY IDOCK:   -3.12 KCAL/MOL
REMARK 923 INTER-LIGAND FREE ENERGY PREDICTED BY IDOCK:   -2.90 KCAL/MOL
REMARK 924 INTRA-LIGAND FREE ENERGY PREDICTED BY IDOCK:   -0.22 KCAL/MOL
REMARK 927      BINDING AFFINITY PREDICTED BY RF-SCORE:    0.00 PKD
ROOT
HETATM    1 NA   UNL     1      -9.128   7.627  64.210  1.00  0.00    -0.371 Na 
HETATM    2 NA   UNL     2     -12.430   9.882  68.816  1.00  0.00    -0.458 Na 
HETATM    3  O   UNL     3     -10.968  10.681  67.118  1.00  0.00    -0.285 OA 
HETATM    4  H   UNL     3     -11.349  10.286  66.343  1.00  0.00     0.000 HD 
HETATM    5  C   UNL     3      -9.723   9.978  67.447  1.00  0.00    -0.161 C  
HETATM    6  O   UNL     3      -8.855   9.088  65.431  1.00  0.00    -0.178 OA 
HETATM    7  C   UNL     3      -8.759  10.066  66.246  1.00  0.00    -0.136 C  
HETATM    8  O   UNL     3      -8.046  11.094  66.144  1.00  0.00    -0.165 OA 
ENDROOT
BRANCH   5   9
HETATM    9  C   UNL     3      -9.108  10.615  68.697  1.00  0.00    -0.170 C  
HETATM   10  C   UNL     3      -8.557   9.477  69.602  1.00  0.00    -0.183 C  
HETATM   11  O   UNL     3     -10.160  11.362  69.355  1.00  0.00    -0.428 OA 
HETATM   12  H   UNL     3      -9.779  11.758  70.130  1.00  0.00     0.000 HD 
HETATM   13  O   UNL     3      -8.513   9.663  70.843  1.00  0.00    -0.253 OA 
HETATM   14  O   UNL     3      -8.353   8.353  69.023  1.00  0.00    -0.117 OA 
ENDBRANCH   5   9
TORSDOF 1
ENDMDL
MODEL      179
REMARK 921   NORMALIZED FREE ENERGY PREDICTED BY IDOCK:   -2.37 KCAL/MOL
REMARK 922        TOTAL FREE ENERGY PREDICTED BY IDOCK:   -3.12 KCAL/MOL
REMARK 923 INTER-LIGAND FREE ENERGY PREDICTED BY IDOCK:   -2.93 KCAL/MOL
REMARK 924 INTRA-LIGAND FREE ENERGY PREDICTED BY IDOCK:   -0.18 KCAL/MOL
REMARK 927      BINDING AFFINITY PREDICTED BY RF-SCORE:    0.00 PKD
ROOT
HETATM    1 NA   UNL     1     -10.466  14.590  71.973  1.00  0.00    -0.375 Na 
HETATM    2 NA   UNL     2      -6.393  14.881  67.441  1.00  0.00    -0.123 Na 
HETATM    3  O   UNL     3      -8.003  16.293  68.480  1.00  0.00    -0.165 OA 
HETATM    4  H   UNL     3      -7.764  16.205  69.395  1.00  0.00     0.000 HD 
HETATM    5  C   UNL     3      -9.245  15.551  68.239  1.00  0.00    -0.188 C  
HETATM    6  O   UNL     3     -10.449  15.498  70.277  1.00  0.00    -0.310 OA 
HETATM    7  C   UNL     3     -10.353  16.105  69.158  1.00  0.00    -0.259 C  
HETATM    8  O   UNL     3     -10.986  17.115  68.765  1.00  0.00    -0.258 OA 
ENDROOT
BRANCH   5   9
HETATM    9  C   UNL     3      -9.629  15.692  66.762  1.00  0.00    -0.240 C  
HETATM   10  C   UNL     3      -9.902  14.272  66.192  1.00  0.00    -0.316 C  
HETATM   11  O   UNL     3      -8.517  16.336  66.093  1.00  0.00    -0.325 OA 
HETATM   12  H   UNL     3      -8.756  16.424  65.178  1.00  0.00     0.000 HD 
HETATM   13  O   UNL     3      -9.699  14.064  64.970  1.00  0.00    -0.134 OA 
HETATM   14  O   UNL     3     -10.143  13.360  67.058  1.00  0.00    -0.241 OA 
ENDBRANCH   5   9
TORSDOF 1
ENDMDL
MODEL      180
REMARK 921   NORMALIZED FREE ENERGY PREDICTED BY IDOCK:   -2.36 KCAL/MOL
REMARK 922        TOTAL FREE ENERGY PREDICTED BY IDOCK:   -3.10 KCAL/MOL
REMARK 923 INTER-LIGAND FREE ENERGY PREDICTED BY IDOCK:   -2.89 KCAL/MOL
REMARK 924 INTRA-LIGAND FREE ENERGY PREDICTED BY IDOCK:   -0.22 KCAL/MOL
REMARK 927      BINDING AFFINITY PREDICTED BY RF-SCORE:    0.00 PKD
ROOT
HETATM    1 NA   UNL     1     -12.990  13.403  70.868  1.00  0.00    -0.298 Na 
HETATM    2 NA   UNL     2     -11.544  11.508  65.254  1.00  0.00    -0.303 Na 
HETATM    3  O   UNL     3     -11.901  10.570  67.411  1.00  0.00    -0.390 OA 
HETATM    4  H   UNL     3     -12.745  10.941  67.638  1.00  0.00     0.000 HD 
HETATM    5  C   UNL     3     -10.860  11.238  68.199  1.00  0.00    -0.217 C  
HETATM    6  O   UNL     3     -11.861  11.994  70.207  1.00  0.00    -0.333 OA 
HETATM    7  C   UNL     3     -11.163  11.053  69.700  1.00  0.00    -0.278 C  
HETATM    8  O   UNL     3     -10.772   9.994  70.248  1.00  0.00    -0.276 OA 
ENDROOT
BRANCH   5   9
HETATM    9  C   UNL     3      -9.498  10.638  67.831  1.00  0.00    -0.159 C  
HETATM   10  C   UNL     3      -8.457  11.791  67.777  1.00  0.00    -0.147 C  
HETATM   11  O   UNL     3      -9.652   9.990  66.545  1.00  0.00    -0.170 OA 
HETATM   12  H   UNL     3      -8.808   9.618  66.318  1.00  0.00     0.000 HD 
HETATM   13  O   UNL     3      -7.469  11.674  67.011  1.00  0.00    -0.141 OA 
HETATM   14  O   UNL     3      -8.784  12.867  68.390  1.00  0.00    -0.178 OA 
ENDBRANCH   5   9
TORSDOF 1
ENDMDL
MODEL      181
REMARK 921   NORMALIZED FREE ENERGY PREDICTED BY IDOCK:   -2.35 KCAL/MOL
REMARK 922        TOTAL FREE ENERGY PREDICTED BY IDOCK:   -3.09 KCAL/MOL
REMARK 923 INTER-LIGAND FREE ENERGY PREDICTED BY IDOCK:   -2.87 KCAL/MOL
REMARK 924 INTRA-LIGAND FREE ENERGY PREDICTED BY IDOCK:   -0.22 KCAL/MOL
REMARK 927      BINDING AFFINITY PREDICTED BY RF-SCORE:    0.00 PKD
ROOT
HETATM    1 NA   UNL     1      -9.072  15.748  67.448  1.00  0.00    -0.179 Na 
HETATM    2 NA   UNL     2      -7.481  10.085  65.833  1.00  0.00    -0.089 Na 
HETATM    3  O   UNL     3      -9.099  11.720  65.224  1.00  0.00    -0.413 OA 
HETATM    4  H   UNL     3      -8.549  12.481  65.079  1.00  0.00     0.000 HD 
HETATM    5  C   UNL     3      -9.830  11.894  66.483  1.00  0.00    -0.206 C  
HETATM    6  O   UNL     3     -10.076  14.221  66.848  1.00  0.00    -0.256 OA 
HETATM    7  C   UNL     3     -10.674  13.184  66.405  1.00  0.00    -0.284 C  
HETATM    8  O   UNL     3     -11.804  13.110  65.864  1.00  0.00    -0.364 OA 
ENDROOT
BRANCH   5   9
HETATM    9  C   UNL     3     -10.717  10.667  66.716  1.00  0.00    -0.210 C  
HETATM   10  C   UNL     3     -10.592  10.252  68.209  1.00  0.00    -0.221 C  
HETATM   11  O   UNL     3     -10.244   9.626  65.827  1.00  0.00    -0.261 OA 
HETATM   12  H   UNL     3     -10.794   8.865  65.971  1.00  0.00     0.000 HD 
HETATM   13  O   UNL     3     -10.754   9.044  68.514  1.00  0.00    -0.186 OA 
HETATM   14  O   UNL     3     -10.149  11.153  69.003  1.00  0.00    -0.204 OA 
ENDBRANCH   5   9
TORSDOF 1
ENDMDL
MODEL      182
REMARK 921   NORMALIZED FREE ENERGY PREDICTED BY IDOCK:   -2.34 KCAL/MOL
REMARK 922        TOTAL FREE ENERGY PREDICTED BY IDOCK:   -3.08 KCAL/MOL
REMARK 923 INTER-LIGAND FREE ENERGY PREDICTED BY IDOCK:   -3.97 KCAL/MOL
REMARK 924 INTRA-LIGAND FREE ENERGY PREDICTED BY IDOCK:    0.89 KCAL/MOL
REMARK 927      BINDING AFFINITY PREDICTED BY RF-SCORE:    0.00 PKD
ROOT
HETATM    1 NA   UNL     1     -11.404  20.449  65.452  1.00  0.00    -0.278 Na 
HETATM    2 NA   UNL     2     -11.442  17.246  70.643  1.00  0.00    -0.535 Na 
HETATM    3  O   UNL     3      -9.925  17.767  68.885  1.00  0.00    -0.351 OA 
HETATM    4  H   UNL     3      -9.997  18.713  68.852  1.00  0.00     0.000 HD 
HETATM    5  C   UNL     3     -10.615  17.197  67.723  1.00  0.00    -0.360 C  
HETATM    6  O   UNL     3     -10.550  18.813  65.993  1.00  0.00    -0.459 OA 
HETATM    7  C   UNL     3      -9.981  17.758  66.433  1.00  0.00    -0.344 C  
HETATM    8  O   UNL     3      -8.955  17.186  65.991  1.00  0.00    -0.481 OA 
ENDROOT
BRANCH   5   9
HETATM    9  C   UNL     3     -10.500  15.670  67.777  1.00  0.00    -0.273 C  
HETATM   10  C   UNL     3      -9.103  15.307  68.353  1.00  0.00    -0.189 C  
HETATM   11  O   UNL     3     -10.666  15.183  66.423  1.00  0.00    -0.305 OA 
HETATM   12  H   UNL     3     -10.595  14.236  66.456  1.00  0.00     0.000 HD 
HETATM   13  O   UNL     3      -8.571  14.224  68.006  1.00  0.00    -0.152 OA 
HETATM   14  O   UNL     3      -8.510  16.236  69.006  1.00  0.00    -0.239 OA 
ENDBRANCH   5   9
TORSDOF 1
ENDMDL
MODEL      183
REMARK 921   NORMALIZED FREE ENERGY PREDICTED BY IDOCK:   -2.32 KCAL/MOL
REMARK 922        TOTAL FREE ENERGY PREDICTED BY IDOCK:   -3.06 KCAL/MOL
REMARK 923 INTER-LIGAND FREE ENERGY PREDICTED BY IDOCK:   -2.41 KCAL/MOL
REMARK 924 INTRA-LIGAND FREE ENERGY PREDICTED BY IDOCK:   -0.65 KCAL/MOL
REMARK 927      BINDING AFFINITY PREDICTED BY RF-SCORE:    0.00 PKD
ROOT
HETATM    1 NA   UNL     1      -6.367   7.561  73.290  1.00  0.00    -0.056 Na 
HETATM    2 NA   UNL     2      -9.841   3.195  70.824  1.00  0.00    -0.130 Na 
HETATM    3  O   UNL     3     -10.069   5.446  71.561  1.00  0.00    -0.181 OA 
HETATM    4  H   UNL     3      -9.350   5.866  71.103  1.00  0.00     0.000 HD 
HETATM    5  C   UNL     3      -9.724   5.327  72.982  1.00  0.00    -0.146 C  
HETATM    6  O   UNL     3      -8.217   7.080  73.497  1.00  0.00    -0.109 OA 
HETATM    7  C   UNL     3      -9.445   6.732  73.554  1.00  0.00    -0.163 C  
HETATM    8  O   UNL     3     -10.427   7.410  73.942  1.00  0.00    -0.314 OA 
ENDROOT
BRANCH   5   9
HETATM    9  C   UNL     3     -10.884   4.650  73.719  1.00  0.00    -0.306 C  
HETATM   10  C   UNL     3     -10.796   3.120  73.464  1.00  0.00    -0.220 C  
HETATM   11  O   UNL     3     -12.110   5.214  73.191  1.00  0.00    -0.514 OA 
HETATM   12  H   UNL     3     -12.829   4.794  73.649  1.00  0.00     0.000 HD 
HETATM   13  O   UNL     3     -11.854   2.444  73.480  1.00  0.00    -0.181 OA 
HETATM   14  O   UNL     3      -9.657   2.684  73.073  1.00  0.00    -0.091 OA 
ENDBRANCH   5   9
TORSDOF 1
ENDMDL
MODEL      184
REMARK 921   NORMALIZED FREE ENERGY PREDICTED BY IDOCK:   -2.31 KCAL/MOL
REMARK 922        TOTAL FREE ENERGY PREDICTED BY IDOCK:   -3.05 KCAL/MOL
REMARK 923 INTER-LIGAND FREE ENERGY PREDICTED BY IDOCK:   -2.85 KCAL/MOL
REMARK 924 INTRA-LIGAND FREE ENERGY PREDICTED BY IDOCK:   -0.20 KCAL/MOL
REMARK 927      BINDING AFFINITY PREDICTED BY RF-SCORE:    0.00 PKD
ROOT
HETATM    1 NA   UNL     1      -7.662  16.876  66.543  1.00  0.00    -0.136 Na 
HETATM    2 NA   UNL     2      -8.694  11.640  69.496  1.00  0.00    -0.351 Na 
HETATM    3  O   UNL     3      -8.860  12.496  67.282  1.00  0.00    -0.178 OA 
HETATM    4  H   UNL     3      -7.994  12.868  67.162  1.00  0.00     0.000 HD 
HETATM    5  C   UNL     3      -9.827  13.585  67.459  1.00  0.00    -0.227 C  
HETATM    6  O   UNL     3      -8.973  15.484  66.332  1.00  0.00    -0.278 OA 
HETATM    7  C   UNL     3      -9.785  14.505  66.221  1.00  0.00    -0.309 C  
HETATM    8  O   UNL     3     -10.474  14.175  65.226  1.00  0.00    -0.337 OA 
ENDROOT
BRANCH   5   9
HETATM    9  C   UNL     3     -11.222  12.983  67.653  1.00  0.00    -0.280 C  
HETATM   10  C   UNL     3     -11.796  13.510  68.999  1.00  0.00    -0.343 C  
HETATM   11  O   UNL     3     -11.067  11.543  67.662  1.00  0.00    -0.230 OA 
HETATM   12  H   UNL     3     -11.932  11.170  67.782  1.00  0.00     0.000 HD 
HETATM   13  O   UNL     3     -12.616  12.794  69.625  1.00  0.00     0.075 OA 
HETATM   14  O   UNL     3     -11.245  14.568  69.464  1.00  0.00    -0.251 OA 
ENDBRANCH   5   9
TORSDOF 1
ENDMDL
MODEL      185
REMARK 921   NORMALIZED FREE ENERGY PREDICTED BY IDOCK:   -2.30 KCAL/MOL
REMARK 922        TOTAL FREE ENERGY PREDICTED BY IDOCK:   -3.03 KCAL/MOL
REMARK 923 INTER-LIGAND FREE ENERGY PREDICTED BY IDOCK:   -2.82 KCAL/MOL
REMARK 924 INTRA-LIGAND FREE ENERGY PREDICTED BY IDOCK:   -0.22 KCAL/MOL
REMARK 927      BINDING AFFINITY PREDICTED BY RF-SCORE:    0.00 PKD
ROOT
HETATM    1 NA   UNL     1     -10.679   3.215  72.712  1.00  0.00    -0.142 Na 
HETATM    2 NA   UNL     2     -12.867   8.451  70.475  1.00  0.00    -0.496 Na 
HETATM    3  O   UNL     3     -11.708   6.527  69.689  1.00  0.00    -0.621 OA 
HETATM    4  H   UNL     3     -12.259   5.829  70.024  1.00  0.00     0.000 HD 
HETATM    5  C   UNL     3     -10.475   6.582  70.481  1.00  0.00    -0.207 C  
HETATM    6  O   UNL     3     -10.076   4.407  71.329  1.00  0.00    -0.186 OA 
HETATM    7  C   UNL     3      -9.757   5.219  70.396  1.00  0.00    -0.195 C  
HETATM    8  O   UNL     3      -9.008   5.014  69.410  1.00  0.00    -0.090 OA 
ENDROOT
BRANCH   5   9
HETATM    9  C   UNL     3      -9.588   7.708  69.941  1.00  0.00    -0.160 C  
HETATM   10  C   UNL     3      -8.924   8.427  71.149  1.00  0.00    -0.167 C  
HETATM   11  O   UNL     3     -10.445   8.601  69.189  1.00  0.00    -0.220 OA 
HETATM   12  H   UNL     3      -9.895   9.299  68.853  1.00  0.00     0.000 HD 
HETATM   13  O   UNL     3      -8.621   9.641  71.035  1.00  0.00    -0.218 OA 
HETATM   14  O   UNL     3      -8.900   7.768  72.246  1.00  0.00    -0.117 OA 
ENDBRANCH   5   9
TORSDOF 1
ENDMDL
MODEL      186
REMARK 921   NORMALIZED FREE ENERGY PREDICTED BY IDOCK:   -2.28 KCAL/MOL
REMARK 922        TOTAL FREE ENERGY PREDICTED BY IDOCK:   -3.02 KCAL/MOL
REMARK 923 INTER-LIGAND FREE ENERGY PREDICTED BY IDOCK:   -2.36 KCAL/MOL
REMARK 924 INTRA-LIGAND FREE ENERGY PREDICTED BY IDOCK:   -0.66 KCAL/MOL
REMARK 927      BINDING AFFINITY PREDICTED BY RF-SCORE:    0.00 PKD
ROOT
HETATM    1 NA   UNL     1      -9.402   5.774  63.816  1.00  0.00    -0.353 Na 
HETATM    2 NA   UNL     2     -11.592  11.286  65.237  1.00  0.00    -0.260 Na 
HETATM    3  O   UNL     3      -9.589  10.337  64.372  1.00  0.00    -0.275 OA 
HETATM    4  H   UNL     3      -9.928   9.805  63.661  1.00  0.00     0.000 HD 
HETATM    5  C   UNL     3      -9.181   9.456  65.472  1.00  0.00    -0.232 C  
HETATM    6  O   UNL     3      -8.592   7.365  64.529  1.00  0.00     0.093 OA 
HETATM    7  C   UNL     3      -8.113   8.468  64.960  1.00  0.00    -0.148 C  
HETATM    8  O   UNL     3      -6.919   8.854  64.946  1.00  0.00    -0.073 OA 
ENDROOT
BRANCH   5   9
HETATM    9  C   UNL     3      -8.636  10.314  66.618  1.00  0.00    -0.127 C  
HETATM   10  C   UNL     3      -9.840  10.832  67.454  1.00  0.00    -0.177 C  
HETATM   11  O   UNL     3      -7.891  11.402  66.018  1.00  0.00    -0.360 OA 
HETATM   12  H   UNL     3      -7.553  11.933  66.729  1.00  0.00     0.000 HD 
HETATM   13  O   UNL     3      -9.726  11.925  68.061  1.00  0.00    -0.180 OA 
HETATM   14  O   UNL     3     -10.937  10.186  67.312  1.00  0.00    -0.266 OA 
ENDBRANCH   5   9
TORSDOF 1
ENDMDL
MODEL      187
REMARK 921   NORMALIZED FREE ENERGY PREDICTED BY IDOCK:   -2.28 KCAL/MOL
REMARK 922        TOTAL FREE ENERGY PREDICTED BY IDOCK:   -3.02 KCAL/MOL
REMARK 923 INTER-LIGAND FREE ENERGY PREDICTED BY IDOCK:   -2.83 KCAL/MOL
REMARK 924 INTRA-LIGAND FREE ENERGY PREDICTED BY IDOCK:   -0.19 KCAL/MOL
REMARK 927      BINDING AFFINITY PREDICTED BY RF-SCORE:    0.00 PKD
ROOT
HETATM    1 NA   UNL     1      -8.302   3.333  67.713  1.00  0.00    -0.077 Na 
HETATM    2 NA   UNL     2     -12.849   6.944  69.583  1.00  0.00    -0.604 Na 
HETATM    3  O   UNL     3     -11.200   6.903  67.868  1.00  0.00    -0.525 OA 
HETATM    4  H   UNL     3     -11.335   6.037  67.501  1.00  0.00     0.000 HD 
HETATM    5  C   UNL     3      -9.960   6.900  68.651  1.00  0.00    -0.149 C  
HETATM    6  O   UNL     3      -8.542   5.241  67.733  1.00  0.00    -0.105 OA 
HETATM    7  C   UNL     3      -8.785   6.495  67.738  1.00  0.00    -0.115 C  
HETATM    8  O   UNL     3      -8.243   7.394  67.050  1.00  0.00    -0.117 OA 
ENDROOT
BRANCH   5   9
HETATM    9  C   UNL     3      -9.744   8.297  69.242  1.00  0.00    -0.177 C  
HETATM   10  C   UNL     3      -9.073   8.138  70.635  1.00  0.00    -0.150 C  
HETATM   11  O   UNL     3     -11.046   8.923  69.341  1.00  0.00    -0.424 OA 
HETATM   12  H   UNL     3     -10.912   9.790  69.707  1.00  0.00     0.000 HD 
HETATM   13  O   UNL     3      -9.283   9.015  71.509  1.00  0.00    -0.251 OA 
HETATM   14  O   UNL     3      -8.494   7.015  70.851  1.00  0.00    -0.131 OA 
ENDBRANCH   5   9
TORSDOF 1
ENDMDL
MODEL      188
REMARK 921   NORMALIZED FREE ENERGY PREDICTED BY IDOCK:   -2.25 KCAL/MOL
REMARK 922        TOTAL FREE ENERGY PREDICTED BY IDOCK:   -2.98 KCAL/MOL
REMARK 923 INTER-LIGAND FREE ENERGY PREDICTED BY IDOCK:   -2.33 KCAL/MOL
REMARK 924 INTRA-LIGAND FREE ENERGY PREDICTED BY IDOCK:   -0.65 KCAL/MOL
REMARK 927      BINDING AFFINITY PREDICTED BY RF-SCORE:    0.00 PKD
ROOT
HETATM    1 NA   UNL     1      -9.591   3.334  72.658  1.00  0.00    -0.097 Na 
HETATM    2 NA   UNL     2      -7.744   8.056  69.268  1.00  0.00    -0.082 Na 
HETATM    3  O   UNL     3      -8.556   7.656  71.468  1.00  0.00    -0.113 OA 
HETATM    4  H   UNL     3      -7.978   6.958  71.755  1.00  0.00     0.000 HD 
HETATM    5  C   UNL     3      -9.882   7.093  71.195  1.00  0.00    -0.179 C  
HETATM    6  O   UNL     3     -10.137   5.175  72.561  1.00  0.00    -0.170 OA 
HETATM    7  C   UNL     3     -10.420   6.417  72.473  1.00  0.00    -0.202 C  
HETATM    8  O   UNL     3     -11.001   7.143  73.317  1.00  0.00    -0.322 OA 
ENDROOT
BRANCH   5   9
HETATM    9  C   UNL     3     -10.813   8.218  70.731  1.00  0.00    -0.227 C  
HETATM   10  C   UNL     3     -10.519   8.506  69.232  1.00  0.00    -0.215 C  
HETATM   11  O   UNL     3     -10.537   9.369  71.565  1.00  0.00    -0.341 OA 
HETATM   12  H   UNL     3     -11.114  10.067  71.278  1.00  0.00     0.000 HD 
HETATM   13  O   UNL     3     -10.722   9.665  68.791  1.00  0.00    -0.221 OA 
HETATM   14  O   UNL     3      -9.912   7.577  68.594  1.00  0.00    -0.162 OA 
ENDBRANCH   5   9
TORSDOF 1
ENDMDL
MODEL      189
REMARK 921   NORMALIZED FREE ENERGY PREDICTED BY IDOCK:   -2.21 KCAL/MOL
REMARK 922        TOTAL FREE ENERGY PREDICTED BY IDOCK:   -2.94 KCAL/MOL
REMARK 923 INTER-LIGAND FREE ENERGY PREDICTED BY IDOCK:   -2.72 KCAL/MOL
REMARK 924 INTRA-LIGAND FREE ENERGY PREDICTED BY IDOCK:   -0.22 KCAL/MOL
REMARK 927      BINDING AFFINITY PREDICTED BY RF-SCORE:    0.00 PKD
ROOT
HETATM    1 NA   UNL     1      -5.941  13.856  69.489  1.00  0.00    -0.080 Na 
HETATM    2 NA   UNL     2      -8.529   9.370  66.267  1.00  0.00    -0.111 Na 
HETATM    3  O   UNL     3      -8.072  11.693  66.032  1.00  0.00    -0.377 OA 
HETATM    4  H   UNL     3      -7.146  11.723  66.241  1.00  0.00     0.000 HD 
HETATM    5  C   UNL     3      -8.830  12.257  67.154  1.00  0.00    -0.194 C  
HETATM    6  O   UNL     3      -7.420  13.805  68.260  1.00  0.00    -0.099 OA 
HETATM    7  C   UNL     3      -8.362  13.706  67.405  1.00  0.00    -0.192 C  
HETATM    8  O   UNL     3      -8.883  14.615  66.713  1.00  0.00    -0.250 OA 
ENDROOT
BRANCH   5   9
HETATM    9  C   UNL     3     -10.324  12.209  66.817  1.00  0.00    -0.213 C  
HETATM   10  C   UNL     3     -11.098  11.781  68.096  1.00  0.00    -0.243 C  
HETATM   11  O   UNL     3     -10.487  11.251  65.743  1.00  0.00    -0.246 OA 
HETATM   12  H   UNL     3     -11.413  11.222  65.534  1.00  0.00     0.000 HD 
HETATM   13  O   UNL     3     -12.184  11.165  67.964  1.00  0.00    -0.584 OA 
HETATM   14  O   UNL     3     -10.472  11.931  69.203  1.00  0.00    -0.133 OA 
ENDBRANCH   5   9
TORSDOF 1
ENDMDL
MODEL      190
REMARK 921   NORMALIZED FREE ENERGY PREDICTED BY IDOCK:   -2.16 KCAL/MOL
REMARK 922        TOTAL FREE ENERGY PREDICTED BY IDOCK:   -2.89 KCAL/MOL
REMARK 923 INTER-LIGAND FREE ENERGY PREDICTED BY IDOCK:   -2.23 KCAL/MOL
REMARK 924 INTRA-LIGAND FREE ENERGY PREDICTED BY IDOCK:   -0.66 KCAL/MOL
REMARK 927      BINDING AFFINITY PREDICTED BY RF-SCORE:    0.00 PKD
ROOT
HETATM    1 NA   UNL     1     -12.358  12.399  67.513  1.00  0.00    -0.335 Na 
HETATM    2 NA   UNL     2      -6.410  11.589  68.595  1.00  0.00    -0.049 Na 
HETATM    3  O   UNL     3      -7.817  12.237  66.790  1.00  0.00    -0.352 OA 
HETATM    4  H   UNL     3      -8.336  12.922  67.194  1.00  0.00     0.000 HD 
HETATM    5  C   UNL     3      -8.653  11.043  66.624  1.00  0.00    -0.157 C  
HETATM    6  O   UNL     3     -10.899  11.767  66.431  1.00  0.00    -0.259 OA 
HETATM    7  C   UNL     3      -9.879  11.398  65.758  1.00  0.00    -0.232 C  
HETATM    8  O   UNL     3      -9.741  11.365  64.510  1.00  0.00    -0.237 OA 
ENDROOT
BRANCH   5   9
HETATM    9  C   UNL     3      -7.816   9.938  65.972  1.00  0.00    -0.111 C  
HETATM   10  C   UNL     3      -7.015   9.211  67.088  1.00  0.00    -0.081 C  
HETATM   11  O   UNL     3      -6.941  10.578  65.011  1.00  0.00    -0.286 OA 
HETATM   12  H   UNL     3      -6.423   9.893  64.606  1.00  0.00     0.000 HD 
HETATM   13  O   UNL     3      -5.914   8.683  66.792  1.00  0.00    -0.054 OA 
HETATM   14  O   UNL     3      -7.456   9.362  68.280  1.00  0.00    -0.078 OA 
ENDBRANCH   5   9
TORSDOF 1
ENDMDL
MODEL      191
REMARK 921   NORMALIZED FREE ENERGY PREDICTED BY IDOCK:   -2.11 KCAL/MOL
REMARK 922        TOTAL FREE ENERGY PREDICTED BY IDOCK:   -2.84 KCAL/MOL
REMARK 923 INTER-LIGAND FREE ENERGY PREDICTED BY IDOCK:   -2.67 KCAL/MOL
REMARK 924 INTRA-LIGAND FREE ENERGY PREDICTED BY IDOCK:   -0.17 KCAL/MOL
REMARK 927      BINDING AFFINITY PREDICTED BY RF-SCORE:    0.00 PKD
ROOT
HETATM    1 NA   UNL     1      -6.879  18.909  64.699  1.00  0.00    -0.235 Na 
HETATM    2 NA   UNL     2      -9.082  13.331  65.812  1.00  0.00    -0.369 Na 
HETATM    3  O   UNL     3      -9.704  15.596  66.187  1.00  0.00    -0.269 OA 
HETATM    4  H   UNL     3      -9.615  15.961  65.314  1.00  0.00     0.000 HD 
HETATM    5  C   UNL     3      -8.594  16.073  67.018  1.00  0.00    -0.210 C  
HETATM    6  O   UNL     3      -7.901  18.164  66.149  1.00  0.00    -0.373 OA 
HETATM    7  C   UNL     3      -8.614  17.615  67.054  1.00  0.00    -0.237 C  
HETATM    8  O   UNL     3      -9.363  18.169  67.896  1.00  0.00    -0.263 OA 
ENDROOT
BRANCH   5   9
HETATM    9  C   UNL     3      -8.738  15.485  68.425  1.00  0.00    -0.174 C  
HETATM   10  C   UNL     3      -7.315  15.262  69.008  1.00  0.00    -0.157 C  
HETATM   11  O   UNL     3      -9.467  14.240  68.293  1.00  0.00    -0.198 OA 
HETATM   12  H   UNL     3      -9.557  13.875  69.165  1.00  0.00     0.000 HD 
HETATM   13  O   UNL     3      -7.145  14.343  69.847  1.00  0.00    -0.080 OA 
HETATM   14  O   UNL     3      -6.372  15.923  68.447  1.00  0.00    -0.104 OA 
ENDBRANCH   5   9
TORSDOF 1
ENDMDL
MODEL      192
REMARK 921   NORMALIZED FREE ENERGY PREDICTED BY IDOCK:   -2.10 KCAL/MOL
REMARK 922        TOTAL FREE ENERGY PREDICTED BY IDOCK:   -2.83 KCAL/MOL
REMARK 923 INTER-LIGAND FREE ENERGY PREDICTED BY IDOCK:   -3.84 KCAL/MOL
REMARK 924 INTRA-LIGAND FREE ENERGY PREDICTED BY IDOCK:    1.01 KCAL/MOL
REMARK 927      BINDING AFFINITY PREDICTED BY RF-SCORE:    0.00 PKD
ROOT
HETATM    1 NA   UNL     1     -13.916  14.004  65.362  1.00  0.00    -0.768 Na 
HETATM    2 NA   UNL     2     -10.496  14.650  70.372  1.00  0.00    -0.354 Na 
HETATM    3  O   UNL     3     -10.718  15.657  68.227  1.00  0.00    -0.263 OA 
HETATM    4  H   UNL     3     -11.650  15.837  68.202  1.00  0.00     0.000 HD 
HETATM    5  C   UNL     3     -10.427  14.526  67.339  1.00  0.00    -0.264 C  
HETATM    6  O   UNL     3     -12.081  14.507  65.645  1.00  0.00    -0.357 OA 
HETATM    7  C   UNL     3     -10.887  14.874  65.909  1.00  0.00    -0.334 C  
HETATM    8  O   UNL     3     -10.098  15.528  65.185  1.00  0.00    -0.328 OA 
ENDROOT
BRANCH   5   9
HETATM    9  C   UNL     3      -8.923  14.236  67.381  1.00  0.00    -0.201 C  
HETATM   10  C   UNL     3      -8.164  15.590  67.305  1.00  0.00    -0.197 C  
HETATM   11  O   UNL     3      -8.622  13.385  66.248  1.00  0.00    -0.373 OA 
HETATM   12  H   UNL     3      -7.690  13.205  66.275  1.00  0.00     0.000 HD 
HETATM   13  O   UNL     3      -7.017  15.609  66.792  1.00  0.00    -0.203 OA 
HETATM   14  O   UNL     3      -8.846  16.630  67.609  1.00  0.00    -0.198 OA 
ENDBRANCH   5   9
TORSDOF 1
ENDMDL
MODEL      193
REMARK 921   NORMALIZED FREE ENERGY PREDICTED BY IDOCK:   -2.10 KCAL/MOL
REMARK 922        TOTAL FREE ENERGY PREDICTED BY IDOCK:   -2.83 KCAL/MOL
REMARK 923 INTER-LIGAND FREE ENERGY PREDICTED BY IDOCK:   -2.17 KCAL/MOL
REMARK 924 INTRA-LIGAND FREE ENERGY PREDICTED BY IDOCK:   -0.66 KCAL/MOL
REMARK 927      BINDING AFFINITY PREDICTED BY RF-SCORE:    0.00 PKD
ROOT
HETATM    1 NA   UNL     1      -9.819   6.164  70.076  1.00  0.00    -0.151 Na 
HETATM    2 NA   UNL     2     -10.087   5.344  64.038  1.00  0.00    -0.291 Na 
HETATM    3  O   UNL     3     -10.633   4.149  66.021  1.00  0.00    -0.417 OA 
HETATM    4  H   UNL     3     -11.156   4.791  66.487  1.00  0.00     0.000 HD 
HETATM    5  C   UNL     3      -9.323   4.040  66.670  1.00  0.00    -0.184 C  
HETATM    6  O   UNL     3      -9.606   4.621  68.949  1.00  0.00    -0.142 OA 
HETATM    7  C   UNL     3      -9.520   3.632  68.145  1.00  0.00    -0.156 C  
HETATM    8  O   UNL     3      -9.647   2.410  68.400  1.00  0.00    -0.196 OA 
ENDROOT
BRANCH   5   9
HETATM    9  C   UNL     3      -8.480   3.005  65.918  1.00  0.00    -0.110 C  
HETATM   10  C   UNL     3      -7.851   3.699  64.677  1.00  0.00    -0.085 C  
HETATM   11  O   UNL     3      -9.370   1.928  65.538  1.00  0.00    -0.288 OA 
HETATM   12  H   UNL     3      -8.848   1.286  65.072  1.00  0.00     0.000 HD 
HETATM   13  O   UNL     3      -7.597   3.003  63.663  1.00  0.00    -0.064 OA 
HETATM   14  O   UNL     3      -7.804   4.978  64.717  1.00  0.00    -0.085 OA 
ENDBRANCH   5   9
TORSDOF 1
ENDMDL
MODEL      194
REMARK 921   NORMALIZED FREE ENERGY PREDICTED BY IDOCK:   -2.07 KCAL/MOL
REMARK 922        TOTAL FREE ENERGY PREDICTED BY IDOCK:   -2.79 KCAL/MOL
REMARK 923 INTER-LIGAND FREE ENERGY PREDICTED BY IDOCK:   -2.44 KCAL/MOL
REMARK 924 INTRA-LIGAND FREE ENERGY PREDICTED BY IDOCK:   -0.35 KCAL/MOL
REMARK 927      BINDING AFFINITY PREDICTED BY RF-SCORE:    0.00 PKD
ROOT
HETATM    1 NA   UNL     1      -9.541   7.021  67.268  1.00  0.00    -0.125 Na 
HETATM    2 NA   UNL     2     -10.514   3.881  72.406  1.00  0.00    -0.152 Na 
HETATM    3  O   UNL     3     -11.388   5.798  71.300  1.00  0.00    -0.217 OA 
HETATM    4  H   UNL     3     -11.559   5.450  70.433  1.00  0.00     0.000 HD 
HETATM    5  C   UNL     3     -10.209   6.668  71.241  1.00  0.00    -0.200 C  
HETATM    6  O   UNL     3     -10.075   7.537  69.042  1.00  0.00    -0.181 OA 
HETATM    7  C   UNL     3     -10.466   7.802  70.228  1.00  0.00    -0.225 C  
HETATM    8  O   UNL     3     -11.083   8.818  70.633  1.00  0.00    -0.237 OA 
ENDROOT
BRANCH   5   9
HETATM    9  C   UNL     3      -9.934   7.227  72.640  1.00  0.00    -0.184 C  
HETATM   10  C   UNL     3      -8.811   6.374  73.294  1.00  0.00    -0.124 C  
HETATM   11  O   UNL     3     -11.175   7.144  73.383  1.00  0.00    -0.561 OA 
HETATM   12  H   UNL     3     -11.004   7.491  74.250  1.00  0.00     0.000 HD 
HETATM   13  O   UNL     3      -8.788   6.267  74.545  1.00  0.00    -0.132 OA 
HETATM   14  O   UNL     3      -8.091   5.688  72.488  1.00  0.00    -0.103 OA 
ENDBRANCH   5   9
TORSDOF 1
ENDMDL
MODEL      195
REMARK 921   NORMALIZED FREE ENERGY PREDICTED BY IDOCK:   -2.02 KCAL/MOL
REMARK 922        TOTAL FREE ENERGY PREDICTED BY IDOCK:   -2.74 KCAL/MOL
REMARK 923 INTER-LIGAND FREE ENERGY PREDICTED BY IDOCK:   -2.59 KCAL/MOL
REMARK 924 INTRA-LIGAND FREE ENERGY PREDICTED BY IDOCK:   -0.15 KCAL/MOL
REMARK 927      BINDING AFFINITY PREDICTED BY RF-SCORE:    0.00 PKD
ROOT
HETATM    1 NA   UNL     1      -9.926   6.811  65.541  1.00  0.00    -0.396 Na 
HETATM    2 NA   UNL     2      -6.470  11.746  66.493  1.00  0.00    -0.107 Na 
HETATM    3  O   UNL     3      -7.892  10.303  67.741  1.00  0.00    -0.100 OA 
HETATM    4  H   UNL     3      -7.539   9.451  67.513  1.00  0.00     0.000 HD 
HETATM    5  C   UNL     3      -9.174  10.486  67.053  1.00  0.00    -0.150 C  
HETATM    6  O   UNL     3     -10.105   8.337  66.697  1.00  0.00    -0.267 OA 
HETATM    7  C   UNL     3     -10.138   9.355  67.468  1.00  0.00    -0.215 C  
HETATM    8  O   UNL     3     -10.789   9.504  68.531  1.00  0.00    -0.203 OA 
ENDROOT
BRANCH   5   9
HETATM    9  C   UNL     3      -9.743  11.860  67.421  1.00  0.00    -0.184 C  
HETATM   10  C   UNL     3     -10.582  12.378  66.219  1.00  0.00    -0.249 C  
HETATM   11  O   UNL     3      -8.616  12.725  67.703  1.00  0.00    -0.158 OA 
HETATM   12  H   UNL     3      -8.969  13.577  67.932  1.00  0.00     0.000 HD 
HETATM   13  O   UNL     3     -10.683  13.618  66.045  1.00  0.00    -0.276 OA 
HETATM   14  O   UNL     3     -10.962  11.488  65.380  1.00  0.00    -0.282 OA 
ENDBRANCH   5   9
TORSDOF 1
ENDMDL
MODEL      196
REMARK 921   NORMALIZED FREE ENERGY PREDICTED BY IDOCK:   -2.02 KCAL/MOL
REMARK 922        TOTAL FREE ENERGY PREDICTED BY IDOCK:   -2.74 KCAL/MOL
REMARK 923 INTER-LIGAND FREE ENERGY PREDICTED BY IDOCK:   -2.08 KCAL/MOL
REMARK 924 INTRA-LIGAND FREE ENERGY PREDICTED BY IDOCK:   -0.66 KCAL/MOL
REMARK 927      BINDING AFFINITY PREDICTED BY RF-SCORE:    0.00 PKD
ROOT
HETATM    1 NA   UNL     1     -12.031   4.235  65.352  1.00  0.00    -0.675 Na 
HETATM    2 NA   UNL     2      -8.702   9.266  64.451  1.00  0.00    -0.138 Na 
HETATM    3  O   UNL     3      -8.452   6.908  64.253  1.00  0.00    -0.339 OA 
HETATM    4  H   UNL     3      -9.214   6.683  63.733  1.00  0.00     0.000 HD 
HETATM    5  C   UNL     3      -8.673   6.471  65.636  1.00  0.00    -0.091 C  
HETATM    6  O   UNL     3     -10.162   4.630  65.570  1.00  0.00    -0.219 OA 
HETATM    7  C   UNL     3      -8.928   4.950  65.651  1.00  0.00    -0.146 C  
HETATM    8  O   UNL     3      -7.928   4.191  65.667  1.00  0.00    -0.096 OA 
ENDROOT
BRANCH   5   9
HETATM    9  C   UNL     3      -7.444   6.835  66.474  1.00  0.00    -0.078 C  
HETATM   10  C   UNL     3      -7.544   8.338  66.859  1.00  0.00    -0.092 C  
HETATM   11  O   UNL     3      -6.278   6.565  65.659  1.00  0.00    -0.032 OA 
HETATM   12  H   UNL     3      -5.516   6.790  66.179  1.00  0.00     0.000 HD 
HETATM   13  O   UNL     3      -6.483   8.983  67.047  1.00  0.00    -0.059 OA 
HETATM   14  O   UNL     3      -8.712   8.858  66.777  1.00  0.00    -0.116 OA 
ENDBRANCH   5   9
TORSDOF 1
ENDMDL
MODEL      197
REMARK 921   NORMALIZED FREE ENERGY PREDICTED BY IDOCK:   -2.01 KCAL/MOL
REMARK 922        TOTAL FREE ENERGY PREDICTED BY IDOCK:   -2.73 KCAL/MOL
REMARK 923 INTER-LIGAND FREE ENERGY PREDICTED BY IDOCK:   -2.07 KCAL/MOL
REMARK 924 INTRA-LIGAND FREE ENERGY PREDICTED BY IDOCK:   -0.66 KCAL/MOL
REMARK 927      BINDING AFFINITY PREDICTED BY RF-SCORE:    0.00 PKD
ROOT
HETATM    1 NA   UNL     1     -12.856  12.487  69.236  1.00  0.00    -0.088 Na 
HETATM    2 NA   UNL     2      -8.680   8.908  71.876  1.00  0.00    -0.134 Na 
HETATM    3  O   UNL     3      -8.838  10.387  70.018  1.00  0.00    -0.369 OA 
HETATM    4  H   UNL     3      -9.198  11.164  70.429  1.00  0.00     0.000 HD 
HETATM    5  C   UNL     3      -9.885   9.743  69.217  1.00  0.00    -0.199 C  
HETATM    6  O   UNL     3     -11.405  11.430  68.546  1.00  0.00    -0.221 OA 
HETATM    7  C   UNL     3     -10.400  10.742  68.161  1.00  0.00    -0.171 C  
HETATM    8  O   UNL     3      -9.761  10.836  67.085  1.00  0.00    -0.167 OA 
ENDROOT
BRANCH   5   9
HETATM    9  C   UNL     3      -9.303   8.490  68.556  1.00  0.00    -0.138 C  
HETATM   10  C   UNL     3      -9.364   7.324  69.582  1.00  0.00    -0.153 C  
HETATM   11  O   UNL     3      -7.941   8.802  68.176  1.00  0.00    -0.104 OA 
HETATM   12  H   UNL     3      -7.580   8.025  67.766  1.00  0.00     0.000 HD 
HETATM   13  O   UNL     3      -8.508   6.408  69.505  1.00  0.00    -0.130 OA 
HETATM   14  O   UNL     3     -10.182   7.480  70.555  1.00  0.00    -0.199 OA 
ENDBRANCH   5   9
TORSDOF 1
ENDMDL
MODEL      198
REMARK 921   NORMALIZED FREE ENERGY PREDICTED BY IDOCK:   -2.00 KCAL/MOL
REMARK 922        TOTAL FREE ENERGY PREDICTED BY IDOCK:   -2.72 KCAL/MOL
REMARK 923 INTER-LIGAND FREE ENERGY PREDICTED BY IDOCK:   -3.70 KCAL/MOL
REMARK 924 INTRA-LIGAND FREE ENERGY PREDICTED BY IDOCK:    0.98 KCAL/MOL
REMARK 927      BINDING AFFINITY PREDICTED BY RF-SCORE:    0.00 PKD
ROOT
HETATM    1 NA   UNL     1     -11.904   6.936  66.891  1.00  0.00    -0.525 Na 
HETATM    2 NA   UNL     2     -11.459  10.894  71.510  1.00  0.00    -0.263 Na 
HETATM    3  O   UNL     3     -10.398   8.897  70.770  1.00  0.00    -0.199 OA 
HETATM    4  H   UNL     3     -10.194   9.118  69.869  1.00  0.00     0.000 HD 
HETATM    5  C   UNL     3     -11.515   7.947  70.787  1.00  0.00    -0.263 C  
HETATM    6  O   UNL     3     -11.454   6.740  68.750  1.00  0.00    -0.090 OA 
HETATM    7  C   UNL     3     -11.123   6.690  69.982  1.00  0.00    -0.339 C  
HETATM    8  O   UNL     3     -10.471   5.797  70.576  1.00  0.00    -0.227 OA 
ENDROOT
BRANCH   5   9
HETATM    9  C   UNL     3     -11.843   7.592  72.241  1.00  0.00    -0.308 C  
HETATM   10  C   UNL     3     -10.535   7.694  73.074  1.00  0.00    -0.356 C  
HETATM   11  O   UNL     3     -12.376   6.246  72.240  1.00  0.00    -0.512 OA 
HETATM   12  H   UNL     3     -12.580   6.026  73.142  1.00  0.00     0.000 HD 
HETATM   13  O   UNL     3     -10.411   6.969  74.092  1.00  0.00    -0.346 OA 
HETATM   14  O   UNL     3      -9.593   8.387  72.551  1.00  0.00    -0.271 OA 
ENDBRANCH   5   9
TORSDOF 1
ENDMDL
MODEL      199
REMARK 921   NORMALIZED FREE ENERGY PREDICTED BY IDOCK:   -2.00 KCAL/MOL
REMARK 922        TOTAL FREE ENERGY PREDICTED BY IDOCK:   -2.72 KCAL/MOL
REMARK 923 INTER-LIGAND FREE ENERGY PREDICTED BY IDOCK:   -2.06 KCAL/MOL
REMARK 924 INTRA-LIGAND FREE ENERGY PREDICTED BY IDOCK:   -0.66 KCAL/MOL
REMARK 927      BINDING AFFINITY PREDICTED BY RF-SCORE:    0.00 PKD
ROOT
HETATM    1 NA   UNL     1     -11.830   8.871  69.334  1.00  0.00    -0.446 Na 
HETATM    2 NA   UNL     2      -8.399  12.191  65.539  1.00  0.00    -0.379 Na 
HETATM    3  O   UNL     3      -9.370  10.021  65.620  1.00  0.00    -0.173 OA 
HETATM    4  H   UNL     3     -10.273  10.229  65.829  1.00  0.00     0.000 HD 
HETATM    5  C   UNL     3      -8.725   9.454  66.810  1.00  0.00    -0.127 C  
HETATM    6  O   UNL     3     -10.413   8.425  68.113  1.00  0.00    -0.212 OA 
HETATM    7  C   UNL     3      -9.497   8.195  67.253  1.00  0.00    -0.155 C  
HETATM    8  O   UNL     3      -9.214   7.108  66.693  1.00  0.00    -0.148 OA 
ENDROOT
BRANCH   5   9
HETATM    9  C   UNL     3      -7.269   9.119  66.473  1.00  0.00    -0.085 C  
HETATM   10  C   UNL     3      -6.438  10.431  66.546  1.00  0.00    -0.089 C  
HETATM   11  O   UNL     3      -7.260   8.551  65.140  1.00  0.00    -0.077 OA 
HETATM   12  H   UNL     3      -6.357   8.343  64.931  1.00  0.00     0.000 HD 
HETATM   13  O   UNL     3      -5.415  10.537  65.824  1.00  0.00    -0.072 OA 
HETATM   14  O   UNL     3      -6.966  11.389  67.211  1.00  0.00    -0.097 OA 
ENDBRANCH   5   9
TORSDOF 1
ENDMDL
MODEL      200
REMARK 921   NORMALIZED FREE ENERGY PREDICTED BY IDOCK:   -1.99 KCAL/MOL
REMARK 922        TOTAL FREE ENERGY PREDICTED BY IDOCK:   -2.71 KCAL/MOL
REMARK 923 INTER-LIGAND FREE ENERGY PREDICTED BY IDOCK:   -3.97 KCAL/MOL
REMARK 924 INTRA-LIGAND FREE ENERGY PREDICTED BY IDOCK:    1.26 KCAL/MOL
REMARK 927      BINDING AFFINITY PREDICTED BY RF-SCORE:    0.00 PKD
ROOT
HETATM    1 NA   UNL     1     -11.349  12.820  68.215  1.00  0.00    -0.208 Na 
HETATM    2 NA   UNL     2     -10.537  18.582  70.044  1.00  0.00    -0.505 Na 
HETATM    3  O   UNL     3     -11.278  17.419  68.105  1.00  0.00    -0.156 OA 
HETATM    4  H   UNL     3     -11.933  16.838  68.475  1.00  0.00     0.000 HD 
HETATM    5  C   UNL     3     -10.088  16.635  67.759  1.00  0.00    -0.275 C  
HETATM    6  O   UNL     3     -10.799  14.422  67.305  1.00  0.00    -0.282 OA 
HETATM    7  C   UNL     3     -10.482  15.531  66.756  1.00  0.00    -0.295 C  
HETATM    8  O   UNL     3     -10.525  15.836  65.539  1.00  0.00    -0.353 OA 
ENDROOT
BRANCH   5   9
HETATM    9  C   UNL     3      -9.033  17.573  67.162  1.00  0.00    -0.238 C  
HETATM   10  C   UNL     3      -9.746  18.873  66.696  1.00  0.00    -0.347 C  
HETATM   11  O   UNL     3      -8.417  16.870  66.056  1.00  0.00    -0.460 OA 
HETATM   12  H   UNL     3      -7.763  17.451  65.686  1.00  0.00     0.000 HD 
HETATM   13  O   UNL     3      -9.253  19.519  65.738  1.00  0.00    -0.377 OA 
HETATM   14  O   UNL     3     -10.897  19.094  67.211  1.00  0.00    -0.476 OA 
ENDBRANCH   5   9
TORSDOF 1
ENDMDL
MODEL      201
REMARK 921   NORMALIZED FREE ENERGY PREDICTED BY IDOCK:   -1.99 KCAL/MOL
REMARK 922        TOTAL FREE ENERGY PREDICTED BY IDOCK:   -2.71 KCAL/MOL
REMARK 923 INTER-LIGAND FREE ENERGY PREDICTED BY IDOCK:   -3.61 KCAL/MOL
REMARK 924 INTRA-LIGAND FREE ENERGY PREDICTED BY IDOCK:    0.90 KCAL/MOL
REMARK 927      BINDING AFFINITY PREDICTED BY RF-SCORE:    0.00 PKD
ROOT
HETATM    1 NA   UNL     1     -11.344   7.972  67.821  1.00  0.00    -0.446 Na 
HETATM    2 NA   UNL     2     -13.461  13.283  65.697  1.00  0.00    -0.399 Na 
HETATM    3  O   UNL     3     -11.401  12.364  66.452  1.00  0.00    -0.304 OA 
HETATM    4  H   UNL     3     -11.346  11.573  65.928  1.00  0.00     0.000 HD 
HETATM    5  C   UNL     3     -11.730  11.997  67.834  1.00  0.00    -0.323 C  
HETATM    6  O   UNL     3     -10.912   9.806  68.204  1.00  0.00    -0.239 OA 
HETATM    7  C   UNL     3     -10.647  11.043  68.377  1.00  0.00    -0.193 C  
HETATM    8  O   UNL     3      -9.606  11.555  68.857  1.00  0.00    -0.146 OA 
ENDROOT
BRANCH   5   9
HETATM    9  C   UNL     3     -11.818  13.273  68.678  1.00  0.00    -0.345 C  
HETATM   10  C   UNL     3     -10.763  14.282  68.146  1.00  0.00    -0.244 C  
HETATM   11  O   UNL     3     -11.555  12.893  70.051  1.00  0.00    -0.489 OA 
HETATM   12  H   UNL     3     -11.610  13.683  70.574  1.00  0.00     0.000 HD 
HETATM   13  O   UNL     3     -10.271  15.117  68.945  1.00  0.00    -0.219 OA 
HETATM   14  O   UNL     3     -10.333  14.067  66.959  1.00  0.00    -0.264 OA 
ENDBRANCH   5   9
TORSDOF 1
ENDMDL
MODEL      202
REMARK 921   NORMALIZED FREE ENERGY PREDICTED BY IDOCK:   -1.97 KCAL/MOL
REMARK 922        TOTAL FREE ENERGY PREDICTED BY IDOCK:   -2.69 KCAL/MOL
REMARK 923 INTER-LIGAND FREE ENERGY PREDICTED BY IDOCK:   -2.47 KCAL/MOL
REMARK 924 INTRA-LIGAND FREE ENERGY PREDICTED BY IDOCK:   -0.21 KCAL/MOL
REMARK 927      BINDING AFFINITY PREDICTED BY RF-SCORE:    0.00 PKD
ROOT
HETATM    1 NA   UNL     1     -14.051   7.136  70.577  1.00  0.00    -0.607 Na 
HETATM    2 NA   UNL     2      -9.360   6.055  66.832  1.00  0.00    -0.121 Na 
HETATM    3  O   UNL     3      -9.932   5.703  69.115  1.00  0.00    -0.155 OA 
HETATM    4  H   UNL     3     -10.778   5.279  69.031  1.00  0.00     0.000 HD 
HETATM    5  C   UNL     3     -10.132   7.078  69.584  1.00  0.00    -0.186 C  
HETATM    6  O   UNL     3     -12.145   7.120  70.830  1.00  0.00    -0.331 OA 
HETATM    7  C   UNL     3     -10.874   7.049  70.936  1.00  0.00    -0.241 C  
HETATM    8  O   UNL     3     -10.189   6.890  71.975  1.00  0.00    -0.187 OA 
ENDROOT
BRANCH   5   9
HETATM    9  C   UNL     3      -8.766   7.760  69.718  1.00  0.00    -0.139 C  
HETATM   10  C   UNL     3      -8.871   9.184  69.104  1.00  0.00    -0.146 C  
HETATM   11  O   UNL     3      -7.809   6.938  69.007  1.00  0.00    -0.107 OA 
HETATM   12  H   UNL     3      -6.962   7.360  69.091  1.00  0.00     0.000 HD 
HETATM   13  O   UNL     3      -7.841   9.705  68.611  1.00  0.00    -0.080 OA 
HETATM   14  O   UNL     3     -10.057   9.654  68.983  1.00  0.00    -0.172 OA 
ENDBRANCH   5   9
TORSDOF 1
ENDMDL
MODEL      203
REMARK 921   NORMALIZED FREE ENERGY PREDICTED BY IDOCK:   -1.94 KCAL/MOL
REMARK 922        TOTAL FREE ENERGY PREDICTED BY IDOCK:   -2.66 KCAL/MOL
REMARK 923 INTER-LIGAND FREE ENERGY PREDICTED BY IDOCK:   -3.62 KCAL/MOL
REMARK 924 INTRA-LIGAND FREE ENERGY PREDICTED BY IDOCK:    0.96 KCAL/MOL
REMARK 927      BINDING AFFINITY PREDICTED BY RF-SCORE:    0.00 PKD
ROOT
HETATM    1 NA   UNL     1     -11.982  13.425  71.374  1.00  0.00    -0.324 Na 
HETATM    2 NA   UNL     2      -8.221  17.638  69.068  1.00  0.00    -0.248 Na 
HETATM    3  O   UNL     3     -10.423  16.819  68.688  1.00  0.00    -0.289 OA 
HETATM    4  H   UNL     3     -10.793  16.868  69.561  1.00  0.00     0.000 HD 
HETATM    5  C   UNL     3     -10.162  15.414  68.359  1.00  0.00    -0.221 C  
HETATM    6  O   UNL     3     -11.694  14.097  69.595  1.00  0.00    -0.278 OA 
HETATM    7  C   UNL     3     -11.481  14.619  68.449  1.00  0.00    -0.311 C  
HETATM    8  O   UNL     3     -12.233  14.620  67.444  1.00  0.00    -0.289 OA 
ENDROOT
BRANCH   5   9
HETATM    9  C   UNL     3      -9.564  15.336  66.951  1.00  0.00    -0.233 C  
HETATM   10  C   UNL     3     -10.131  16.518  66.116  1.00  0.00    -0.348 C  
HETATM   11  O   UNL     3      -9.947  14.054  66.397  1.00  0.00    -0.276 OA 
HETATM   12  H   UNL     3      -9.577  14.005  65.523  1.00  0.00     0.000 HD 
HETATM   13  O   UNL     3     -10.240  16.379  64.872  1.00  0.00    -0.509 OA 
HETATM   14  O   UNL     3     -10.619  17.493  66.788  1.00  0.00    -0.294 OA 
ENDBRANCH   5   9
TORSDOF 1
ENDMDL
MODEL      204
REMARK 921   NORMALIZED FREE ENERGY PREDICTED BY IDOCK:   -1.93 KCAL/MOL
REMARK 922        TOTAL FREE ENERGY PREDICTED BY IDOCK:   -2.65 KCAL/MOL
REMARK 923 INTER-LIGAND FREE ENERGY PREDICTED BY IDOCK:   -2.24 KCAL/MOL
REMARK 924 INTRA-LIGAND FREE ENERGY PREDICTED BY IDOCK:   -0.40 KCAL/MOL
REMARK 927      BINDING AFFINITY PREDICTED BY RF-SCORE:    0.00 PKD
ROOT
HETATM    1 NA   UNL     1     -11.566  11.490  66.434  1.00  0.00    -0.291 Na 
HETATM    2 NA   UNL     2      -5.903   9.235  66.218  1.00  0.00    -0.047 Na 
HETATM    3  O   UNL     3      -7.363  10.509  64.839  1.00  0.00    -0.299 OA 
HETATM    4  H   UNL     3      -7.632  11.196  65.437  1.00  0.00     0.000 HD 
HETATM    5  C   UNL     3      -8.480   9.577  64.652  1.00  0.00    -0.166 C  
HETATM    6  O   UNL     3     -10.485  10.787  65.007  1.00  0.00    -0.293 OA 
HETATM    7  C   UNL     3      -9.698  10.349  64.102  1.00  0.00    -0.324 C  
HETATM    8  O   UNL     3      -9.761  10.532  62.862  1.00  0.00    -0.317 OA 
ENDROOT
BRANCH   5   9
HETATM    9  C   UNL     3      -8.046   8.469  63.687  1.00  0.00    -0.154 C  
HETATM   10  C   UNL     3      -7.536   7.264  64.527  1.00  0.00    -0.107 C  
HETATM   11  O   UNL     3      -7.002   9.021  62.849  1.00  0.00    -0.094 OA 
HETATM   12  H   UNL     3      -6.733   8.334  62.250  1.00  0.00     0.000 HD 
HETATM   13  O   UNL     3      -6.667   6.508  64.028  1.00  0.00    -0.042 OA 
HETATM   14  O   UNL     3      -7.914   7.238  65.751  1.00  0.00    -0.108 OA 
ENDBRANCH   5   9
TORSDOF 1
ENDMDL
MODEL      205
REMARK 921   NORMALIZED FREE ENERGY PREDICTED BY IDOCK:   -1.92 KCAL/MOL
REMARK 922        TOTAL FREE ENERGY PREDICTED BY IDOCK:   -2.64 KCAL/MOL
REMARK 923 INTER-LIGAND FREE ENERGY PREDICTED BY IDOCK:   -2.50 KCAL/MOL
REMARK 924 INTRA-LIGAND FREE ENERGY PREDICTED BY IDOCK:   -0.14 KCAL/MOL
REMARK 927      BINDING AFFINITY PREDICTED BY RF-SCORE:    0.00 PKD
ROOT
HETATM    1 NA   UNL     1     -13.439   8.514  73.333  1.00  0.00    -0.625 Na 
HETATM    2 NA   UNL     2     -10.596   3.509  71.315  1.00  0.00    -0.120 Na 
HETATM    3  O   UNL     3     -10.385   5.082  73.087  1.00  0.00    -0.166 OA 
HETATM    4  H   UNL     3     -11.264   5.077  73.446  1.00  0.00     0.000 HD 
HETATM    5  C   UNL     3     -10.179   6.332  72.349  1.00  0.00    -0.187 C  
HETATM    6  O   UNL     3     -11.595   7.969  73.311  1.00  0.00    -0.224 OA 
HETATM    7  C   UNL     3     -10.397   7.525  73.302  1.00  0.00    -0.357 C  
HETATM    8  O   UNL     3      -9.429   7.890  74.011  1.00  0.00    -0.132 OA 
ENDROOT
BRANCH   5   9
HETATM    9  C   UNL     3      -8.761   6.339  71.770  1.00  0.00    -0.133 C  
HETATM   10  C   UNL     3      -8.773   7.177  70.461  1.00  0.00    -0.149 C  
HETATM   11  O   UNL     3      -8.396   4.959  71.522  1.00  0.00    -0.109 OA 
HETATM   12  H   UNL     3      -7.516   4.964  71.164  1.00  0.00     0.000 HD 
HETATM   13  O   UNL     3      -7.943   6.899  69.560  1.00  0.00    -0.119 OA 
HETATM   14  O   UNL     3      -9.760   7.981  70.322  1.00  0.00    -0.175 OA 
ENDBRANCH   5   9
TORSDOF 1
ENDMDL
MODEL      206
REMARK 921   NORMALIZED FREE ENERGY PREDICTED BY IDOCK:   -1.90 KCAL/MOL
REMARK 922        TOTAL FREE ENERGY PREDICTED BY IDOCK:   -2.61 KCAL/MOL
REMARK 923 INTER-LIGAND FREE ENERGY PREDICTED BY IDOCK:   -2.40 KCAL/MOL
REMARK 924 INTRA-LIGAND FREE ENERGY PREDICTED BY IDOCK:   -0.21 KCAL/MOL
REMARK 927      BINDING AFFINITY PREDICTED BY RF-SCORE:    0.00 PKD
ROOT
HETATM    1 NA   UNL     1     -10.739  10.111  71.507  1.00  0.00    -0.302 Na 
HETATM    2 NA   UNL     2      -9.022  14.331  67.451  1.00  0.00    -0.154 Na 
HETATM    3  O   UNL     3     -10.492  12.464  67.560  1.00  0.00    -0.212 OA 
HETATM    4  H   UNL     3     -10.987  12.662  68.347  1.00  0.00     0.000 HD 
HETATM    5  C   UNL     3      -9.559  11.370  67.849  1.00  0.00    -0.177 C  
HETATM    6  O   UNL     3     -10.494  10.078  69.599  1.00  0.00    -0.214 OA 
HETATM    7  C   UNL     3     -10.353  10.139  68.332  1.00  0.00    -0.183 C  
HETATM    8  O   UNL     3     -10.836   9.377  67.459  1.00  0.00    -0.269 OA 
ENDROOT
BRANCH   5   9
HETATM    9  C   UNL     3      -8.761  11.051  66.581  1.00  0.00    -0.160 C  
HETATM   10  C   UNL     3      -7.296  10.735  66.993  1.00  0.00    -0.110 C  
HETATM   11  O   UNL     3      -8.840  12.216  65.724  1.00  0.00    -0.412 OA 
HETATM   12  H   UNL     3      -8.346  12.018  64.937  1.00  0.00     0.000 HD 
HETATM   13  O   UNL     3      -6.375  10.976  66.174  1.00  0.00    -0.132 OA 
HETATM   14  O   UNL     3      -7.118  10.419  68.221  1.00  0.00    -0.076 OA 
ENDBRANCH   5   9
TORSDOF 1
ENDMDL
MODEL      207
REMARK 921   NORMALIZED FREE ENERGY PREDICTED BY IDOCK:   -1.90 KCAL/MOL
REMARK 922        TOTAL FREE ENERGY PREDICTED BY IDOCK:   -2.61 KCAL/MOL
REMARK 923 INTER-LIGAND FREE ENERGY PREDICTED BY IDOCK:   -2.41 KCAL/MOL
REMARK 924 INTRA-LIGAND FREE ENERGY PREDICTED BY IDOCK:   -0.20 KCAL/MOL
REMARK 927      BINDING AFFINITY PREDICTED BY RF-SCORE:    0.00 PKD
ROOT
HETATM    1 NA   UNL     1      -9.371   6.609  65.865  1.00  0.00    -0.164 Na 
HETATM    2 NA   UNL     2      -7.549   9.256  71.049  1.00  0.00    -0.071 Na 
HETATM    3  O   UNL     3      -8.587   7.230  70.355  1.00  0.00    -0.141 OA 
HETATM    4  H   UNL     3      -7.989   6.938  69.677  1.00  0.00     0.000 HD 
HETATM    5  C   UNL     3      -9.814   7.729  69.725  1.00  0.00    -0.178 C  
HETATM    6  O   UNL     3     -10.063   6.599  67.659  1.00  0.00    -0.136 OA 
HETATM    7  C   UNL     3     -10.442   6.603  68.879  1.00  0.00    -0.212 C  
HETATM    8  O   UNL     3     -11.185   5.777  69.464  1.00  0.00    -0.343 OA 
ENDROOT
BRANCH   5   9
HETATM    9  C   UNL     3     -10.777   8.200  70.820  1.00  0.00    -0.222 C  
HETATM   10  C   UNL     3     -11.302   9.611  70.431  1.00  0.00    -0.277 C  
HETATM   11  O   UNL     3     -10.031   8.227  72.061  1.00  0.00    -0.208 OA 
HETATM   12  H   UNL     3     -10.628   8.519  72.739  1.00  0.00     0.000 HD 
HETATM   13  O   UNL     3     -11.635  10.403  71.348  1.00  0.00    -0.266 OA 
HETATM   14  O   UNL     3     -11.183   9.930  69.197  1.00  0.00    -0.197 OA 
ENDBRANCH   5   9
TORSDOF 1
ENDMDL
MODEL      208
REMARK 921   NORMALIZED FREE ENERGY PREDICTED BY IDOCK:   -1.89 KCAL/MOL
REMARK 922        TOTAL FREE ENERGY PREDICTED BY IDOCK:   -2.60 KCAL/MOL
REMARK 923 INTER-LIGAND FREE ENERGY PREDICTED BY IDOCK:   -3.54 KCAL/MOL
REMARK 924 INTRA-LIGAND FREE ENERGY PREDICTED BY IDOCK:    0.93 KCAL/MOL
REMARK 927      BINDING AFFINITY PREDICTED BY RF-SCORE:    0.00 PKD
ROOT
HETATM    1 NA   UNL     1     -11.629  13.535  70.157  1.00  0.00    -0.249 Na 
HETATM    2 NA   UNL     2     -10.687  19.556  69.921  1.00  0.00    -0.564 Na 
HETATM    3  O   UNL     3     -11.082  17.758  68.415  1.00  0.00    -0.189 OA 
HETATM    4  H   UNL     3     -11.857  17.362  68.796  1.00  0.00     0.000 HD 
HETATM    5  C   UNL     3      -9.928  16.893  68.679  1.00  0.00    -0.279 C  
HETATM    6  O   UNL     3     -10.732  14.676  68.895  1.00  0.00    -0.234 OA 
HETATM    7  C   UNL     3     -10.192  15.497  68.079  1.00  0.00    -0.229 C  
HETATM    8  O   UNL     3      -9.929  15.324  66.864  1.00  0.00    -0.234 OA 
ENDROOT
BRANCH   5   9
HETATM    9  C   UNL     3      -8.678  17.531  68.064  1.00  0.00    -0.254 C  
HETATM   10  C   UNL     3      -9.063  18.114  66.675  1.00  0.00    -0.282 C  
HETATM   11  O   UNL     3      -7.679  16.489  67.951  1.00  0.00    -0.148 OA 
HETATM   12  H   UNL     3      -6.905  16.885  67.570  1.00  0.00     0.000 HD 
HETATM   13  O   UNL     3      -8.179  18.185  65.786  1.00  0.00    -0.509 OA 
HETATM   14  O   UNL     3     -10.313  18.314  66.481  1.00  0.00    -0.366 OA 
ENDBRANCH   5   9
TORSDOF 1
ENDMDL
MODEL      209
REMARK 921   NORMALIZED FREE ENERGY PREDICTED BY IDOCK:   -1.88 KCAL/MOL
REMARK 922        TOTAL FREE ENERGY PREDICTED BY IDOCK:   -2.60 KCAL/MOL
REMARK 923 INTER-LIGAND FREE ENERGY PREDICTED BY IDOCK:   -3.48 KCAL/MOL
REMARK 924 INTRA-LIGAND FREE ENERGY PREDICTED BY IDOCK:    0.89 KCAL/MOL
REMARK 927      BINDING AFFINITY PREDICTED BY RF-SCORE:    0.00 PKD
ROOT
HETATM    1 NA   UNL     1      -8.975   6.985  67.746  1.00  0.00    -0.120 Na 
HETATM    2 NA   UNL     2     -11.603  12.116  69.738  1.00  0.00    -0.224 Na 
HETATM    3  O   UNL     3     -11.609  10.757  67.785  1.00  0.00    -0.546 OA 
HETATM    4  H   UNL     3     -11.784   9.900  68.155  1.00  0.00     0.000 HD 
HETATM    5  C   UNL     3     -10.201  10.821  67.377  1.00  0.00    -0.204 C  
HETATM    6  O   UNL     3      -9.505   8.615  66.873  1.00  0.00    -0.157 OA 
HETATM    7  C   UNL     3      -9.920   9.704  66.351  1.00  0.00    -0.255 C  
HETATM    8  O   UNL     3     -10.186   9.937  65.147  1.00  0.00    -0.249 OA 
ENDROOT
BRANCH   5   9
HETATM    9  C   UNL     3      -9.920  12.204  66.780  1.00  0.00    -0.203 C  
HETATM   10  C   UNL     3     -11.158  12.634  65.944  1.00  0.00    -0.289 C  
HETATM   11  O   UNL     3      -8.734  12.079  65.959  1.00  0.00    -0.397 OA 
HETATM   12  H   UNL     3      -8.559  12.936  65.589  1.00  0.00     0.000 HD 
HETATM   13  O   UNL     3     -10.987  13.404  64.967  1.00  0.00    -0.293 OA 
HETATM   14  O   UNL     3     -12.250  12.019  66.207  1.00  0.00    -0.548 OA 
ENDBRANCH   5   9
TORSDOF 1
ENDMDL
MODEL      210
REMARK 921   NORMALIZED FREE ENERGY PREDICTED BY IDOCK:   -1.87 KCAL/MOL
REMARK 922        TOTAL FREE ENERGY PREDICTED BY IDOCK:   -2.59 KCAL/MOL
REMARK 923 INTER-LIGAND FREE ENERGY PREDICTED BY IDOCK:   -2.37 KCAL/MOL
REMARK 924 INTRA-LIGAND FREE ENERGY PREDICTED BY IDOCK:   -0.22 KCAL/MOL
REMARK 927      BINDING AFFINITY PREDICTED BY RF-SCORE:    0.00 PKD
ROOT
HETATM    1 NA   UNL     1      -6.298  16.612  66.135  1.00  0.00    -0.177 Na 
HETATM    2 NA   UNL     2     -11.727  13.979  65.241  1.00  0.00    -0.310 Na 
HETATM    3  O   UNL     3     -10.510  14.987  67.020  1.00  0.00    -0.269 OA 
HETATM    4  H   UNL     3     -10.257  15.814  66.627  1.00  0.00     0.000 HD 
HETATM    5  C   UNL     3      -9.331  14.117  67.100  1.00  0.00    -0.237 C  
HETATM    6  O   UNL     3      -7.425  15.515  67.242  1.00  0.00    -0.191 OA 
HETATM    7  C   UNL     3      -8.240  14.819  67.935  1.00  0.00    -0.150 C  
HETATM    8  O   UNL     3      -8.298  14.705  69.184  1.00  0.00    -0.139 OA 
ENDROOT
BRANCH   5   9
HETATM    9  C   UNL     3      -9.740  12.784  67.733  1.00  0.00    -0.207 C  
HETATM   10  C   UNL     3      -9.696  11.688  66.632  1.00  0.00    -0.202 C  
HETATM   11  O   UNL     3     -11.076  12.958  68.266  1.00  0.00    -0.237 OA 
HETATM   12  H   UNL     3     -11.329  12.131  68.658  1.00  0.00     0.000 HD 
HETATM   13  O   UNL     3     -10.465  10.700  66.734  1.00  0.00    -0.235 OA 
HETATM   14  O   UNL     3      -8.999  11.967  65.594  1.00  0.00    -0.015 OA 
ENDBRANCH   5   9
TORSDOF 1
ENDMDL
MODEL      211
REMARK 921   NORMALIZED FREE ENERGY PREDICTED BY IDOCK:   -1.87 KCAL/MOL
REMARK 922        TOTAL FREE ENERGY PREDICTED BY IDOCK:   -2.58 KCAL/MOL
REMARK 923 INTER-LIGAND FREE ENERGY PREDICTED BY IDOCK:   -1.95 KCAL/MOL
REMARK 924 INTRA-LIGAND FREE ENERGY PREDICTED BY IDOCK:   -0.63 KCAL/MOL
REMARK 927      BINDING AFFINITY PREDICTED BY RF-SCORE:    0.00 PKD
ROOT
HETATM    1 NA   UNL     1     -12.075   3.551  73.409  1.00  0.00    -0.228 Na 
HETATM    2 NA   UNL     2      -9.869   8.631  70.855  1.00  0.00    -0.157 Na 
HETATM    3  O   UNL     3      -9.429   6.293  70.831  1.00  0.00    -0.170 OA 
HETATM    4  H   UNL     3     -10.292   5.943  70.643  1.00  0.00     0.000 HD 
HETATM    5  C   UNL     3      -9.109   6.039  72.240  1.00  0.00    -0.141 C  
HETATM    6  O   UNL     3     -10.304   4.106  72.904  1.00  0.00    -0.161 OA 
HETATM    7  C   UNL     3      -9.164   4.521  72.507  1.00  0.00    -0.127 C  
HETATM    8  O   UNL     3      -8.139   3.845  72.246  1.00  0.00    -0.081 OA 
ENDROOT
BRANCH   5   9
HETATM    9  C   UNL     3      -7.718   6.604  72.543  1.00  0.00    -0.098 C  
HETATM   10  C   UNL     3      -7.840   8.146  72.694  1.00  0.00    -0.141 C  
HETATM   11  O   UNL     3      -6.860   6.238  71.434  1.00  0.00    -0.063 OA 
HETATM   12  H   UNL     3      -5.997   6.588  71.622  1.00  0.00     0.000 HD 
HETATM   13  O   UNL     3      -6.848   8.860  72.407  1.00  0.00    -0.287 OA 
HETATM   14  O   UNL     3      -9.017   8.591  72.932  1.00  0.00    -0.300 OA 
ENDBRANCH   5   9
TORSDOF 1
ENDMDL
MODEL      212
REMARK 921   NORMALIZED FREE ENERGY PREDICTED BY IDOCK:   -1.84 KCAL/MOL
REMARK 922        TOTAL FREE ENERGY PREDICTED BY IDOCK:   -2.56 KCAL/MOL
REMARK 923 INTER-LIGAND FREE ENERGY PREDICTED BY IDOCK:   -3.52 KCAL/MOL
REMARK 924 INTRA-LIGAND FREE ENERGY PREDICTED BY IDOCK:    0.96 KCAL/MOL
REMARK 927      BINDING AFFINITY PREDICTED BY RF-SCORE:    0.00 PKD
ROOT
HETATM    1 NA   UNL     1      -9.173   5.769  67.946  1.00  0.00    -0.114 Na 
HETATM    2 NA   UNL     2     -13.237   6.094  72.482  1.00  0.00    -0.476 Na 
HETATM    3  O   UNL     3     -12.695   7.279  70.492  1.00  0.00    -0.593 OA 
HETATM    4  H   UNL     3     -12.674   6.574  69.856  1.00  0.00     0.000 HD 
HETATM    5  C   UNL     3     -11.320   7.709  70.771  1.00  0.00    -0.281 C  
HETATM    6  O   UNL     3     -10.024   7.241  68.845  1.00  0.00    -0.159 OA 
HETATM    7  C   UNL     3     -10.656   8.167  69.455  1.00  0.00    -0.213 C  
HETATM    8  O   UNL     3     -10.855   9.349  69.082  1.00  0.00    -0.220 OA 
ENDROOT
BRANCH   5   9
HETATM    9  C   UNL     3     -11.354   8.846  71.797  1.00  0.00    -0.361 C  
HETATM   10  C   UNL     3     -12.678   9.637  71.604  1.00  0.00    -0.407 C  
HETATM   11  O   UNL     3     -10.192   9.675  71.553  1.00  0.00    -0.161 OA 
HETATM   12  H   UNL     3     -10.213  10.379  72.190  1.00  0.00     0.000 HD 
HETATM   13  O   UNL     3     -12.701  10.856  71.907  1.00  0.00    -0.374 OA 
HETATM   14  O   UNL     3     -13.608   9.023  70.973  1.00  0.00    -0.158 OA 
ENDBRANCH   5   9
TORSDOF 1
ENDMDL
MODEL      213
REMARK 921   NORMALIZED FREE ENERGY PREDICTED BY IDOCK:   -1.81 KCAL/MOL
REMARK 922        TOTAL FREE ENERGY PREDICTED BY IDOCK:   -2.52 KCAL/MOL
REMARK 923 INTER-LIGAND FREE ENERGY PREDICTED BY IDOCK:   -3.40 KCAL/MOL
REMARK 924 INTRA-LIGAND FREE ENERGY PREDICTED BY IDOCK:    0.88 KCAL/MOL
REMARK 927      BINDING AFFINITY PREDICTED BY RF-SCORE:    0.00 PKD
ROOT
HETATM    1 NA   UNL     1      -5.995  17.168  70.333  1.00  0.00    -0.201 Na 
HETATM    2 NA   UNL     2     -11.189  19.093  67.778  1.00  0.00    -0.400 Na 
HETATM    3  O   UNL     3     -10.387  17.191  68.961  1.00  0.00    -0.314 OA 
HETATM    4  H   UNL     3      -9.995  17.598  69.725  1.00  0.00     0.000 HD 
HETATM    5  C   UNL     3      -9.318  16.720  68.073  1.00  0.00    -0.229 C  
HETATM    6  O   UNL     3      -7.423  16.263  69.417  1.00  0.00    -0.233 OA 
HETATM    7  C   UNL     3      -8.425  15.722  68.838  1.00  0.00    -0.218 C  
HETATM    8  O   UNL     3      -8.794  14.523  68.882  1.00  0.00    -0.170 OA 
ENDROOT
BRANCH   5   9
HETATM    9  C   UNL     3      -9.951  16.064  66.841  1.00  0.00    -0.251 C  
HETATM   10  C   UNL     3     -11.210  15.277  67.301  1.00  0.00    -0.306 C  
HETATM   11  O   UNL     3      -8.950  15.189  66.265  1.00  0.00    -0.358 OA 
HETATM   12  H   UNL     3      -9.342  14.783  65.501  1.00  0.00     0.000 HD 
HETATM   13  O   UNL     3     -11.563  14.267  66.643  1.00  0.00    -0.352 OA 
HETATM   14  O   UNL     3     -11.694  15.615  68.437  1.00  0.00    -0.367 OA 
ENDBRANCH   5   9
TORSDOF 1
ENDMDL
MODEL      214
REMARK 921   NORMALIZED FREE ENERGY PREDICTED BY IDOCK:   -1.80 KCAL/MOL
REMARK 922        TOTAL FREE ENERGY PREDICTED BY IDOCK:   -2.51 KCAL/MOL
REMARK 923 INTER-LIGAND FREE ENERGY PREDICTED BY IDOCK:   -2.30 KCAL/MOL
REMARK 924 INTRA-LIGAND FREE ENERGY PREDICTED BY IDOCK:   -0.21 KCAL/MOL
REMARK 927      BINDING AFFINITY PREDICTED BY RF-SCORE:    0.00 PKD
ROOT
HETATM    1 NA   UNL     1      -5.171   9.766  69.560  1.00  0.00    -0.033 Na 
HETATM    2 NA   UNL     2     -10.960   9.822  67.640  1.00  0.00    -0.206 Na 
HETATM    3  O   UNL     3      -9.736  10.331  69.616  1.00  0.00    -0.280 OA 
HETATM    4  H   UNL     3      -9.065  10.910  69.275  1.00  0.00     0.000 HD 
HETATM    5  C   UNL     3      -9.131   9.032  69.930  1.00  0.00    -0.168 C  
HETATM    6  O   UNL     3      -6.848   9.414  70.432  1.00  0.00    -0.065 OA 
HETATM    7  C   UNL     3      -7.998   9.236  70.957  1.00  0.00    -0.069 C  
HETATM    8  O   UNL     3      -8.314   9.281  72.172  1.00  0.00    -0.175 OA 
ENDROOT
BRANCH   5   9
HETATM    9  C   UNL     3     -10.214   8.099  70.479  1.00  0.00    -0.198 C  
HETATM   10  C   UNL     3      -9.941   6.666  69.941  1.00  0.00    -0.171 C  
HETATM   11  O   UNL     3     -11.489   8.611  70.021  1.00  0.00    -0.455 OA 
HETATM   12  H   UNL     3     -12.161   8.033  70.362  1.00  0.00     0.000 HD 
HETATM   13  O   UNL     3     -10.912   5.885  69.787  1.00  0.00    -0.349 OA 
HETATM   14  O   UNL     3      -8.752   6.446  69.519  1.00  0.00    -0.131 OA 
ENDBRANCH   5   9
TORSDOF 1
ENDMDL
MODEL      215
REMARK 921   NORMALIZED FREE ENERGY PREDICTED BY IDOCK:   -1.79 KCAL/MOL
REMARK 922        TOTAL FREE ENERGY PREDICTED BY IDOCK:   -2.50 KCAL/MOL
REMARK 923 INTER-LIGAND FREE ENERGY PREDICTED BY IDOCK:   -1.86 KCAL/MOL
REMARK 924 INTRA-LIGAND FREE ENERGY PREDICTED BY IDOCK:   -0.64 KCAL/MOL
REMARK 927      BINDING AFFINITY PREDICTED BY RF-SCORE:    0.00 PKD
ROOT
HETATM    1 NA   UNL     1      -9.195   5.780  66.712  1.00  0.00    -0.121 Na 
HETATM    2 NA   UNL     2      -8.711   7.608  72.511  1.00  0.00    -0.106 Na 
HETATM    3  O   UNL     3      -8.118   5.724  71.185  1.00  0.00    -0.113 OA 
HETATM    4  H   UNL     3      -7.661   6.140  70.464  1.00  0.00     0.000 HD 
HETATM    5  C   UNL     3      -9.432   5.268  70.717  1.00  0.00    -0.168 C  
HETATM    6  O   UNL     3      -9.253   4.848  68.393  1.00  0.00    -0.113 OA 
HETATM    7  C   UNL     3      -9.239   4.289  69.541  1.00  0.00    -0.140 C  
HETATM    8  O   UNL     3      -9.019   3.084  69.815  1.00  0.00    -0.083 OA 
ENDROOT
BRANCH   5   9
HETATM    9  C   UNL     3     -10.168   4.597  71.880  1.00  0.00    -0.184 C  
HETATM   10  C   UNL     3     -10.744   5.711  72.799  1.00  0.00    -0.242 C  
HETATM   11  O   UNL     3      -9.201   3.773  72.576  1.00  0.00    -0.103 OA 
HETATM   12  H   UNL     3      -9.658   3.356  73.298  1.00  0.00     0.000 HD 
HETATM   13  O   UNL     3     -10.893   5.466  74.022  1.00  0.00    -0.264 OA 
HETATM   14  O   UNL     3     -10.857   6.870  72.267  1.00  0.00    -0.218 OA 
ENDBRANCH   5   9
TORSDOF 1
ENDMDL
MODEL      216
REMARK 921   NORMALIZED FREE ENERGY PREDICTED BY IDOCK:   -1.79 KCAL/MOL
REMARK 922        TOTAL FREE ENERGY PREDICTED BY IDOCK:   -2.50 KCAL/MOL
REMARK 923 INTER-LIGAND FREE ENERGY PREDICTED BY IDOCK:   -3.58 KCAL/MOL
REMARK 924 INTRA-LIGAND FREE ENERGY PREDICTED BY IDOCK:    1.09 KCAL/MOL
REMARK 927      BINDING AFFINITY PREDICTED BY RF-SCORE:    0.00 PKD
ROOT
HETATM    1 NA   UNL     1      -6.203  14.564  68.756  1.00  0.00    -0.080 Na 
HETATM    2 NA   UNL     2     -10.989  11.499  66.541  1.00  0.00    -0.221 Na 
HETATM    3  O   UNL     3      -9.455  13.168  65.817  1.00  0.00    -0.463 OA 
HETATM    4  H   UNL     3      -8.623  12.760  66.028  1.00  0.00     0.000 HD 
HETATM    5  C   UNL     3      -9.716  14.245  66.778  1.00  0.00    -0.275 C  
HETATM    6  O   UNL     3      -7.620  15.037  67.545  1.00  0.00    -0.159 OA 
HETATM    7  C   UNL     3      -8.563  15.269  66.716  1.00  0.00    -0.265 C  
HETATM    8  O   UNL     3      -8.623  16.162  65.836  1.00  0.00    -0.307 OA 
ENDROOT
BRANCH   5   9
HETATM    9  C   UNL     3     -11.057  14.901  66.436  1.00  0.00    -0.342 C  
HETATM   10  C   UNL     3     -11.337  14.678  64.923  1.00  0.00    -0.403 C  
HETATM   11  O   UNL     3     -10.937  16.308  66.759  1.00  0.00    -0.194 OA 
HETATM   12  H   UNL     3     -11.769  16.714  66.548  1.00  0.00     0.000 HD 
HETATM   13  O   UNL     3     -12.031  15.524  64.308  1.00  0.00    -0.465 OA 
HETATM   14  O   UNL     3     -10.680  13.729  64.369  1.00  0.00    -0.407 OA 
ENDBRANCH   5   9
TORSDOF 1
ENDMDL
MODEL      217
REMARK 921   NORMALIZED FREE ENERGY PREDICTED BY IDOCK:   -1.79 KCAL/MOL
REMARK 922        TOTAL FREE ENERGY PREDICTED BY IDOCK:   -2.49 KCAL/MOL
REMARK 923 INTER-LIGAND FREE ENERGY PREDICTED BY IDOCK:   -3.40 KCAL/MOL
REMARK 924 INTRA-LIGAND FREE ENERGY PREDICTED BY IDOCK:    0.90 KCAL/MOL
REMARK 927      BINDING AFFINITY PREDICTED BY RF-SCORE:    0.00 PKD
ROOT
HETATM    1 NA   UNL     1     -13.853   9.083  73.097  1.00  0.00    -0.443 Na 
HETATM    2 NA   UNL     2     -11.991   6.861  67.731  1.00  0.00    -0.530 Na 
HETATM    3  O   UNL     3     -11.187   7.024  69.964  1.00  0.00    -0.276 OA 
HETATM    4  H   UNL     3     -11.920   6.670  70.452  1.00  0.00     0.000 HD 
HETATM    5  C   UNL     3     -11.144   8.478  70.156  1.00  0.00    -0.188 C  
HETATM    6  O   UNL     3     -12.128   8.947  72.259  1.00  0.00    -0.358 OA 
HETATM    7  C   UNL     3     -11.011   8.786  71.662  1.00  0.00    -0.321 C  
HETATM    8  O   UNL     3      -9.858   8.777  72.159  1.00  0.00    -0.314 OA 
ENDROOT
BRANCH   5   9
HETATM    9  C   UNL     3      -9.961   9.048  69.368  1.00  0.00    -0.191 C  
HETATM   10  C   UNL     3      -8.764   8.067  69.507  1.00  0.00    -0.136 C  
HETATM   11  O   UNL     3      -9.660  10.347  69.934  1.00  0.00    -0.409 OA 
HETATM   12  H   UNL     3      -8.927  10.701  69.445  1.00  0.00     0.000 HD 
HETATM   13  O   UNL     3      -7.597   8.526  69.439  1.00  0.00    -0.086 OA 
HETATM   14  O   UNL     3      -9.060   6.874  69.867  1.00  0.00    -0.144 OA 
ENDBRANCH   5   9
TORSDOF 1
ENDMDL
MODEL      218
REMARK 921   NORMALIZED FREE ENERGY PREDICTED BY IDOCK:   -1.78 KCAL/MOL
REMARK 922        TOTAL FREE ENERGY PREDICTED BY IDOCK:   -2.49 KCAL/MOL
REMARK 923 INTER-LIGAND FREE ENERGY PREDICTED BY IDOCK:   -1.83 KCAL/MOL
REMARK 924 INTRA-LIGAND FREE ENERGY PREDICTED BY IDOCK:   -0.66 KCAL/MOL
REMARK 927      BINDING AFFINITY PREDICTED BY RF-SCORE:    0.00 PKD
ROOT
HETATM    1 NA   UNL     1      -9.903   6.942  64.983  1.00  0.00    -0.138 Na 
HETATM    2 NA   UNL     2      -8.850   8.291  70.837  1.00  0.00    -0.118 Na 
HETATM    3  O   UNL     3      -8.151   6.683  69.229  1.00  0.00    -0.113 OA 
HETATM    4  H   UNL     3      -7.892   7.242  68.507  1.00  0.00     0.000 HD 
HETATM    5  C   UNL     3      -9.421   6.031  68.893  1.00  0.00    -0.126 C  
HETATM    6  O   UNL     3      -9.535   5.866  66.534  1.00  0.00    -0.148 OA 
HETATM    7  C   UNL     3      -9.245   5.217  67.595  1.00  0.00    -0.117 C  
HETATM    8  O   UNL     3      -8.779   4.056  67.692  1.00  0.00    -0.098 OA 
ENDROOT
BRANCH   5   9
HETATM    9  C   UNL     3      -9.839   5.128  70.059  1.00  0.00    -0.225 C  
HETATM   10  C   UNL     3     -10.498   6.017  71.151  1.00  0.00    -0.230 C  
HETATM   11  O   UNL     3      -8.639   4.479  70.546  1.00  0.00    -0.083 OA 
HETATM   12  H   UNL     3      -8.899   3.919  71.268  1.00  0.00     0.000 HD 
HETATM   13  O   UNL     3     -10.425   5.652  72.350  1.00  0.00    -0.196 OA 
HETATM   14  O   UNL     3     -10.916   7.163  70.760  1.00  0.00    -0.239 OA 
ENDBRANCH   5   9
TORSDOF 1
ENDMDL
MODEL      219
REMARK 921   NORMALIZED FREE ENERGY PREDICTED BY IDOCK:   -1.77 KCAL/MOL
REMARK 922        TOTAL FREE ENERGY PREDICTED BY IDOCK:   -2.48 KCAL/MOL
REMARK 923 INTER-LIGAND FREE ENERGY PREDICTED BY IDOCK:   -2.26 KCAL/MOL
REMARK 924 INTRA-LIGAND FREE ENERGY PREDICTED BY IDOCK:   -0.21 KCAL/MOL
REMARK 927      BINDING AFFINITY PREDICTED BY RF-SCORE:    0.00 PKD
ROOT
HETATM    1 NA   UNL     1     -11.116  14.588  71.844  1.00  0.00    -0.454 Na 
HETATM    2 NA   UNL     2      -7.080  11.320  68.644  1.00  0.00    -0.062 Na 
HETATM    3  O   UNL     3      -8.753  12.964  68.246  1.00  0.00    -0.183 OA 
HETATM    4  H   UNL     3      -8.507  13.635  68.871  1.00  0.00     0.000 HD 
HETATM    5  C   UNL     3      -9.958  12.282  68.730  1.00  0.00    -0.034 C  
HETATM    6  O   UNL     3     -11.150  13.817  70.082  1.00  0.00     0.048 OA 
HETATM    7  C   UNL     3     -11.088  13.316  68.909  1.00  0.00    -0.261 C  
HETATM    8  O   UNL     3     -11.772  13.615  67.900  1.00  0.00    -0.319 OA 
ENDROOT
BRANCH   5   9
HETATM    9  C   UNL     3     -10.355  11.199  67.721  1.00  0.00    -0.187 C  
HETATM   10  C   UNL     3     -10.843   9.953  68.512  1.00  0.00    -0.217 C  
HETATM   11  O   UNL     3      -9.179  10.906  66.927  1.00  0.00    -0.158 OA 
HETATM   12  H   UNL     3      -9.425  10.235  66.302  1.00  0.00     0.000 HD 
HETATM   13  O   UNL     3     -10.703   8.818  67.993  1.00  0.00    -0.190 OA 
HETATM   14  O   UNL     3     -11.191  10.163  69.726  1.00  0.00    -0.246 OA 
ENDBRANCH   5   9
TORSDOF 1
ENDMDL
MODEL      220
REMARK 921   NORMALIZED FREE ENERGY PREDICTED BY IDOCK:   -1.75 KCAL/MOL
REMARK 922        TOTAL FREE ENERGY PREDICTED BY IDOCK:   -2.46 KCAL/MOL
REMARK 923 INTER-LIGAND FREE ENERGY PREDICTED BY IDOCK:   -2.24 KCAL/MOL
REMARK 924 INTRA-LIGAND FREE ENERGY PREDICTED BY IDOCK:   -0.22 KCAL/MOL
REMARK 927      BINDING AFFINITY PREDICTED BY RF-SCORE:    0.00 PKD
ROOT
HETATM    1 NA   UNL     1      -9.727   9.446  63.810  1.00  0.00    -0.375 Na 
HETATM    2 NA   UNL     2     -10.925   6.201  68.834  1.00  0.00    -0.170 Na 
HETATM    3  O   UNL     3     -11.078   8.457  68.096  1.00  0.00    -0.443 OA 
HETATM    4  H   UNL     3     -11.552   8.354  67.279  1.00  0.00     0.000 HD 
HETATM    5  C   UNL     3      -9.676   8.765  67.796  1.00  0.00    -0.158 C  
HETATM    6  O   UNL     3      -9.617   9.844  65.689  1.00  0.00    -0.215 OA 
HETATM    7  C   UNL     3      -9.609  10.052  66.949  1.00  0.00    -0.175 C  
HETATM    8  O   UNL     3      -9.627  11.152  67.554  1.00  0.00    -0.167 OA 
ENDROOT
BRANCH   5   9
HETATM    9  C   UNL     3      -8.912   8.931  69.114  1.00  0.00    -0.140 C  
HETATM   10  C   UNL     3      -7.541   8.211  68.976  1.00  0.00    -0.097 C  
HETATM   11  O   UNL     3      -9.727   8.341  70.155  1.00  0.00    -0.174 OA 
HETATM   12  H   UNL     3      -9.254   8.444  70.972  1.00  0.00     0.000 HD 
HETATM   13  O   UNL     3      -6.999   7.744  70.009  1.00  0.00    -0.049 OA 
HETATM   14  O   UNL     3      -7.147   7.986  67.778  1.00  0.00    -0.082 OA 
ENDBRANCH   5   9
TORSDOF 1
ENDMDL
MODEL      221
REMARK 921   NORMALIZED FREE ENERGY PREDICTED BY IDOCK:   -1.75 KCAL/MOL
REMARK 922        TOTAL FREE ENERGY PREDICTED BY IDOCK:   -2.45 KCAL/MOL
REMARK 923 INTER-LIGAND FREE ENERGY PREDICTED BY IDOCK:   -2.28 KCAL/MOL
REMARK 924 INTRA-LIGAND FREE ENERGY PREDICTED BY IDOCK:   -0.17 KCAL/MOL
REMARK 927      BINDING AFFINITY PREDICTED BY RF-SCORE:    0.00 PKD
ROOT
HETATM    1 NA   UNL     1      -8.638  18.814  67.810  1.00  0.00    -0.253 Na 
HETATM    2 NA   UNL     2     -12.199  14.152  66.139  1.00  0.00    -0.329 Na 
HETATM    3  O   UNL     3     -11.387  15.139  68.145  1.00  0.00    -0.308 OA 
HETATM    4  H   UNL     3     -11.618  16.051  68.011  1.00  0.00     0.000 HD 
HETATM    5  C   UNL     3      -9.937  14.988  67.983  1.00  0.00    -0.219 C  
HETATM    6  O   UNL     3      -8.937  17.060  68.541  1.00  0.00    -0.247 OA 
HETATM    7  C   UNL     3      -9.215  15.900  68.996  1.00  0.00    -0.242 C  
HETATM    8  O   UNL     3      -9.041  15.458  70.158  1.00  0.00     0.044 OA 
ENDROOT
BRANCH   5   9
HETATM    9  C   UNL     3      -9.565  13.517  68.199  1.00  0.00    -0.215 C  
HETATM   10  C   UNL     3      -8.346  13.185  67.293  1.00  0.00    -0.179 C  
HETATM   11  O   UNL     3     -10.727  12.728  67.849  1.00  0.00    -0.211 OA 
HETATM   12  H   UNL     3     -10.497  11.817  67.984  1.00  0.00     0.000 HD 
HETATM   13  O   UNL     3      -8.204  12.006  66.883  1.00  0.00    -0.171 OA 
HETATM   14  O   UNL     3      -7.669  14.190  66.878  1.00  0.00     0.049 OA 
ENDBRANCH   5   9
TORSDOF 1
ENDMDL
MODEL      222
REMARK 921   NORMALIZED FREE ENERGY PREDICTED BY IDOCK:   -1.74 KCAL/MOL
REMARK 922        TOTAL FREE ENERGY PREDICTED BY IDOCK:   -2.44 KCAL/MOL
REMARK 923 INTER-LIGAND FREE ENERGY PREDICTED BY IDOCK:   -3.34 KCAL/MOL
REMARK 924 INTRA-LIGAND FREE ENERGY PREDICTED BY IDOCK:    0.90 KCAL/MOL
REMARK 927      BINDING AFFINITY PREDICTED BY RF-SCORE:    0.00 PKD
ROOT
HETATM    1 NA   UNL     1     -12.165   6.744  67.013  1.00  0.00    -0.691 Na 
HETATM    2 NA   UNL     2     -12.521  12.821  66.618  1.00  0.00    -0.372 Na 
HETATM    3  O   UNL     3     -10.909  11.107  66.265  1.00  0.00    -0.263 OA 
HETATM    4  H   UNL     3     -11.388  10.515  65.697  1.00  0.00     0.000 HD 
HETATM    5  C   UNL     3     -10.815  10.511  67.602  1.00  0.00    -0.300 C  
HETATM    6  O   UNL     3     -10.904   8.159  67.341  1.00  0.00    -0.226 OA 
HETATM    7  C   UNL     3     -10.107   9.144  67.499  1.00  0.00    -0.228 C  
HETATM    8  O   UNL     3      -8.852   9.135  67.506  1.00  0.00    -0.119 OA 
ENDROOT
BRANCH   5   9
HETATM    9  C   UNL     3     -10.044  11.466  68.519  1.00  0.00    -0.206 C  
HETATM   10  C   UNL     3      -8.946  12.171  67.673  1.00  0.00    -0.178 C  
HETATM   11  O   UNL     3      -9.472  10.666  69.582  1.00  0.00    -0.414 OA 
HETATM   12  H   UNL     3      -8.994  11.258  70.151  1.00  0.00     0.000 HD 
HETATM   13  O   UNL     3      -7.894  12.548  68.246  1.00  0.00    -0.130 OA 
HETATM   14  O   UNL     3      -9.122  12.153  66.405  1.00  0.00    -0.212 OA 
ENDBRANCH   5   9
TORSDOF 1
ENDMDL
MODEL      223
REMARK 921   NORMALIZED FREE ENERGY PREDICTED BY IDOCK:   -1.68 KCAL/MOL
REMARK 922        TOTAL FREE ENERGY PREDICTED BY IDOCK:   -2.38 KCAL/MOL
REMARK 923 INTER-LIGAND FREE ENERGY PREDICTED BY IDOCK:   -1.72 KCAL/MOL
REMARK 924 INTRA-LIGAND FREE ENERGY PREDICTED BY IDOCK:   -0.66 KCAL/MOL
REMARK 927      BINDING AFFINITY PREDICTED BY RF-SCORE:    0.00 PKD
ROOT
HETATM    1 NA   UNL     1     -12.769   6.492  69.272  1.00  0.00    -0.524 Na 
HETATM    2 NA   UNL     2      -7.366   6.098  66.469  1.00  0.00    -0.066 Na 
HETATM    3  O   UNL     3      -8.387   5.337  68.479  1.00  0.00    -0.090 OA 
HETATM    4  H   UNL     3      -9.182   4.939  68.145  1.00  0.00     0.000 HD 
HETATM    5  C   UNL     3      -8.729   6.605  69.134  1.00  0.00    -0.130 C  
HETATM    6  O   UNL     3     -10.958   6.424  69.914  1.00  0.00    -0.278 OA 
HETATM    7  C   UNL     3      -9.735   6.332  70.271  1.00  0.00    -0.164 C  
HETATM    8  O   UNL     3      -9.276   5.984  71.386  1.00  0.00    -0.143 OA 
ENDROOT
BRANCH   5   9
HETATM    9  C   UNL     3      -7.447   7.247  69.672  1.00  0.00    -0.094 C  
HETATM   10  C   UNL     3      -6.757   8.009  68.506  1.00  0.00    -0.066 C  
HETATM   11  O   UNL     3      -6.615   6.176  70.180  1.00  0.00    -0.041 OA 
HETATM   12  H   UNL     3      -5.821   6.574  70.515  1.00  0.00     0.000 HD 
HETATM   13  O   UNL     3      -5.508   8.140  68.527  1.00  0.00    -0.031 OA 
HETATM   14  O   UNL     3      -7.505   8.294  67.506  1.00  0.00    -0.091 OA 
ENDBRANCH   5   9
TORSDOF 1
ENDMDL
MODEL      224
REMARK 921   NORMALIZED FREE ENERGY PREDICTED BY IDOCK:   -1.65 KCAL/MOL
REMARK 922        TOTAL FREE ENERGY PREDICTED BY IDOCK:   -2.35 KCAL/MOL
REMARK 923 INTER-LIGAND FREE ENERGY PREDICTED BY IDOCK:   -2.13 KCAL/MOL
REMARK 924 INTRA-LIGAND FREE ENERGY PREDICTED BY IDOCK:   -0.22 KCAL/MOL
REMARK 927      BINDING AFFINITY PREDICTED BY RF-SCORE:    0.00 PKD
ROOT
HETATM    1 NA   UNL     1      -7.988   8.549  71.496  1.00  0.00    -0.070 Na 
HETATM    2 NA   UNL     2      -9.579  14.131  69.622  1.00  0.00    -0.374 Na 
HETATM    3  O   UNL     3      -9.744  11.884  68.858  1.00  0.00    -0.396 OA 
HETATM    4  H   UNL     3     -10.124  11.457  69.617  1.00  0.00     0.000 HD 
HETATM    5  C   UNL     3      -8.331  11.503  68.756  1.00  0.00    -0.069 C  
HETATM    6  O   UNL     3      -8.094   9.372  69.762  1.00  0.00    -0.104 OA 
HETATM    7  C   UNL     3      -8.227   9.968  68.640  1.00  0.00    -0.111 C  
HETATM    8  O   UNL     3      -8.354   9.459  67.500  1.00  0.00    -0.120 OA 
ENDROOT
BRANCH   5   9
HETATM    9  C   UNL     3      -7.719  12.192  67.533  1.00  0.00    -0.159 C  
HETATM   10  C   UNL     3      -6.323  12.747  67.934  1.00  0.00    -0.118 C  
HETATM   11  O   UNL     3      -8.627  13.251  67.142  1.00  0.00    -0.201 OA 
HETATM   12  H   UNL     3      -8.247  13.678  66.383  1.00  0.00     0.000 HD 
HETATM   13  O   UNL     3      -5.885  13.762  67.339  1.00  0.00    -0.353 OA 
HETATM   14  O   UNL     3      -5.797  12.229  68.980  1.00  0.00    -0.060 OA 
ENDBRANCH   5   9
TORSDOF 1
ENDMDL
MODEL      225
REMARK 921   NORMALIZED FREE ENERGY PREDICTED BY IDOCK:   -1.63 KCAL/MOL
REMARK 922        TOTAL FREE ENERGY PREDICTED BY IDOCK:   -2.33 KCAL/MOL
REMARK 923 INTER-LIGAND FREE ENERGY PREDICTED BY IDOCK:   -3.21 KCAL/MOL
REMARK 924 INTRA-LIGAND FREE ENERGY PREDICTED BY IDOCK:    0.88 KCAL/MOL
REMARK 927      BINDING AFFINITY PREDICTED BY RF-SCORE:    0.00 PKD
ROOT
HETATM    1 NA   UNL     1      -6.124   9.891  70.523  1.00  0.00    -0.041 Na 
HETATM    2 NA   UNL     2     -11.693  10.809  68.213  1.00  0.00    -0.231 Na 
HETATM    3  O   UNL     3     -10.665  10.607  70.349  1.00  0.00    -0.445 OA 
HETATM    4  H   UNL     3      -9.956  11.234  70.274  1.00  0.00     0.000 HD 
HETATM    5  C   UNL     3     -10.109   9.251  70.281  1.00  0.00    -0.219 C  
HETATM    6  O   UNL     3      -7.883   9.353  71.082  1.00  0.00    -0.325 OA 
HETATM    7  C   UNL     3      -9.082   9.067  71.417  1.00  0.00    -0.201 C  
HETATM    8  O   UNL     3      -9.515   8.736  72.548  1.00  0.00    -0.290 OA 
ENDROOT
BRANCH   5   9
HETATM    9  C   UNL     3     -11.254   8.239  70.402  1.00  0.00    -0.219 C  
HETATM   10  C   UNL     3     -12.298   8.803  71.405  1.00  0.00    -0.306 C  
HETATM   11  O   UNL     3     -10.675   6.996  70.869  1.00  0.00    -0.229 OA 
HETATM   12  H   UNL     3     -11.384   6.369  70.943  1.00  0.00     0.000 HD 
HETATM   13  O   UNL     3     -12.997   7.994  72.065  1.00  0.00    -0.317 OA 
HETATM   14  O   UNL     3     -12.242  10.064  71.619  1.00  0.00    -0.385 OA 
ENDBRANCH   5   9
TORSDOF 1
ENDMDL
MODEL      226
REMARK 921   NORMALIZED FREE ENERGY PREDICTED BY IDOCK:   -1.62 KCAL/MOL
REMARK 922        TOTAL FREE ENERGY PREDICTED BY IDOCK:   -2.32 KCAL/MOL
REMARK 923 INTER-LIGAND FREE ENERGY PREDICTED BY IDOCK:   -3.28 KCAL/MOL
REMARK 924 INTRA-LIGAND FREE ENERGY PREDICTED BY IDOCK:    0.97 KCAL/MOL
REMARK 927      BINDING AFFINITY PREDICTED BY RF-SCORE:    0.00 PKD
ROOT
HETATM    1 NA   UNL     1      -7.221  18.753  67.326  1.00  0.00    -0.196 Na 
HETATM    2 NA   UNL     2      -7.850  13.265  69.911  1.00  0.00    -0.302 Na 
HETATM    3  O   UNL     3      -9.038  14.665  68.398  1.00  0.00    -0.179 OA 
HETATM    4  H   UNL     3      -8.360  14.872  67.766  1.00  0.00     0.000 HD 
HETATM    5  C   UNL     3      -9.292  15.847  69.228  1.00  0.00    -0.259 C  
HETATM    6  O   UNL     3      -8.747  17.755  67.936  1.00  0.00    -0.241 OA 
HETATM    7  C   UNL     3      -9.718  17.021  68.322  1.00  0.00    -0.275 C  
HETATM    8  O   UNL     3     -10.928  17.099  67.998  1.00  0.00    -0.362 OA 
ENDROOT
BRANCH   5   9
HETATM    9  C   UNL     3     -10.385  15.512  70.248  1.00  0.00    -0.197 C  
HETATM   10  C   UNL     3     -11.331  14.451  69.617  1.00  0.00    -0.263 C  
HETATM   11  O   UNL     3     -11.083  16.746  70.545  1.00  0.00    -0.423 OA 
HETATM   12  H   UNL     3     -11.760  16.538  71.178  1.00  0.00     0.000 HD 
HETATM   13  O   UNL     3     -12.531  14.421  69.984  1.00  0.00    -0.335 OA 
HETATM   14  O   UNL     3     -10.853  13.797  68.625  1.00  0.00    -0.249 OA 
ENDBRANCH   5   9
TORSDOF 1
ENDMDL
MODEL      227
REMARK 921   NORMALIZED FREE ENERGY PREDICTED BY IDOCK:   -1.56 KCAL/MOL
REMARK 922        TOTAL FREE ENERGY PREDICTED BY IDOCK:   -2.26 KCAL/MOL
REMARK 923 INTER-LIGAND FREE ENERGY PREDICTED BY IDOCK:   -1.60 KCAL/MOL
REMARK 924 INTRA-LIGAND FREE ENERGY PREDICTED BY IDOCK:   -0.66 KCAL/MOL
REMARK 927      BINDING AFFINITY PREDICTED BY RF-SCORE:    0.00 PKD
ROOT
HETATM    1 NA   UNL     1      -5.489   9.385  69.410  1.00  0.00    -0.033 Na 
HETATM    2 NA   UNL     2      -9.650  10.641  65.131  1.00  0.00    -0.175 Na 
HETATM    3  O   UNL     3      -9.049   8.828  66.549  1.00  0.00    -0.143 OA 
HETATM    4  H   UNL     3      -9.022   9.255  67.397  1.00  0.00     0.000 HD 
HETATM    5  C   UNL     3      -7.676   8.554  66.111  1.00  0.00    -0.093 C  
HETATM    6  O   UNL     3      -6.342   8.321  68.054  1.00  0.00    -0.053 OA 
HETATM    7  C   UNL     3      -6.977   7.666  67.161  1.00  0.00    -0.080 C  
HETATM    8  O   UNL     3      -7.152   6.425  67.085  1.00  0.00    -0.069 OA 
ENDROOT
BRANCH   5   9
HETATM    9  C   UNL     3      -7.719   7.865  64.744  1.00  0.00    -0.118 C  
HETATM   10  C   UNL     3      -7.912   8.956  63.654  1.00  0.00    -0.154 C  
HETATM   11  O   UNL     3      -8.826   6.932  64.773  1.00  0.00    -0.333 OA 
HETATM   12  H   UNL     3      -8.853   6.504  63.925  1.00  0.00     0.000 HD 
HETATM   13  O   UNL     3      -8.499   8.646  62.588  1.00  0.00    -0.201 OA 
HETATM   14  O   UNL     3      -7.614  10.152  64.003  1.00  0.00    -0.145 OA 
ENDBRANCH   5   9
TORSDOF 1
ENDMDL
MODEL      228
REMARK 921   NORMALIZED FREE ENERGY PREDICTED BY IDOCK:   -1.54 KCAL/MOL
REMARK 922        TOTAL FREE ENERGY PREDICTED BY IDOCK:   -2.24 KCAL/MOL
REMARK 923 INTER-LIGAND FREE ENERGY PREDICTED BY IDOCK:   -3.19 KCAL/MOL
REMARK 924 INTRA-LIGAND FREE ENERGY PREDICTED BY IDOCK:    0.96 KCAL/MOL
REMARK 927      BINDING AFFINITY PREDICTED BY RF-SCORE:    0.00 PKD
ROOT
HETATM    1 NA   UNL     1     -10.913  10.701  62.968  1.00  0.00    -0.530 Na 
HETATM    2 NA   UNL     2     -10.062  14.335  67.792  1.00  0.00    -0.210 Na 
HETATM    3  O   UNL     3      -9.240  12.264  66.959  1.00  0.00    -0.192 OA 
HETATM    4  H   UNL     3      -8.997  12.503  66.072  1.00  0.00     0.000 HD 
HETATM    5  C   UNL     3     -10.464  11.457  66.915  1.00  0.00    -0.240 C  
HETATM    6  O   UNL     3     -10.519  10.357  64.819  1.00  0.00    -0.261 OA 
HETATM    7  C   UNL     3     -10.216  10.205  66.050  1.00  0.00    -0.218 C  
HETATM    8  O   UNL     3      -9.687   9.209  66.602  1.00  0.00    -0.184 OA 
ENDROOT
BRANCH   5   9
HETATM    9  C   UNL     3     -10.856  11.072  68.345  1.00  0.00    -0.220 C  
HETATM   10  C   UNL     3      -9.565  10.670  69.112  1.00  0.00    -0.177 C  
HETATM   11  O   UNL     3     -11.789   9.968  68.248  1.00  0.00    -0.590 OA 
HETATM   12  H   UNL     3     -12.032   9.730  69.135  1.00  0.00     0.000 HD 
HETATM   13  O   UNL     3      -9.655   9.840  70.050  1.00  0.00    -0.224 OA 
HETATM   14  O   UNL     3      -8.463  11.084  68.606  1.00  0.00    -0.145 OA 
ENDBRANCH   5   9
TORSDOF 1
ENDMDL
MODEL      229
REMARK 921   NORMALIZED FREE ENERGY PREDICTED BY IDOCK:   -1.54 KCAL/MOL
REMARK 922        TOTAL FREE ENERGY PREDICTED BY IDOCK:   -2.24 KCAL/MOL
REMARK 923 INTER-LIGAND FREE ENERGY PREDICTED BY IDOCK:   -2.02 KCAL/MOL
REMARK 924 INTRA-LIGAND FREE ENERGY PREDICTED BY IDOCK:   -0.21 KCAL/MOL
REMARK 927      BINDING AFFINITY PREDICTED BY RF-SCORE:    0.00 PKD
ROOT
HETATM    1 NA   UNL     1     -10.793  13.393  65.385  1.00  0.00    -0.275 Na 
HETATM    2 NA   UNL     2     -11.609   7.416  66.283  1.00  0.00    -0.155 Na 
HETATM    3  O   UNL     3     -10.195   9.157  67.077  1.00  0.00    -0.226 OA 
HETATM    4  H   UNL     3     -10.833   9.817  67.324  1.00  0.00     0.000 HD 
HETATM    5  C   UNL     3      -9.526   9.580  65.842  1.00  0.00    -0.244 C  
HETATM    6  O   UNL     3      -9.587  11.946  65.774  1.00  0.00    -0.236 OA 
HETATM    7  C   UNL     3      -8.851  10.947  66.075  1.00  0.00    -0.188 C  
HETATM    8  O   UNL     3      -7.706  10.953  66.590  1.00  0.00    -0.133 OA 
ENDROOT
BRANCH   5   9
HETATM    9  C   UNL     3      -8.498   8.516  65.446  1.00  0.00    -0.173 C  
HETATM   10  C   UNL     3      -8.524   8.367  63.899  1.00  0.00     0.021 C  
HETATM   11  O   UNL     3      -8.879   7.287  66.111  1.00  0.00    -0.156 OA 
HETATM   12  H   UNL     3      -8.241   6.628  65.865  1.00  0.00     0.000 HD 
HETATM   13  O   UNL     3      -8.215   7.258  63.395  1.00  0.00    -0.055 OA 
HETATM   14  O   UNL     3      -9.040   9.345  63.252  1.00  0.00    -0.204 OA 
ENDBRANCH   5   9
TORSDOF 1
ENDMDL
MODEL      230
REMARK 921   NORMALIZED FREE ENERGY PREDICTED BY IDOCK:   -1.53 KCAL/MOL
REMARK 922        TOTAL FREE ENERGY PREDICTED BY IDOCK:   -2.22 KCAL/MOL
REMARK 923 INTER-LIGAND FREE ENERGY PREDICTED BY IDOCK:   -1.89 KCAL/MOL
REMARK 924 INTRA-LIGAND FREE ENERGY PREDICTED BY IDOCK:   -0.33 KCAL/MOL
REMARK 927      BINDING AFFINITY PREDICTED BY RF-SCORE:    0.00 PKD
ROOT
HETATM    1 NA   UNL     1     -11.173  14.346  71.652  1.00  0.00    -0.437 Na 
HETATM    2 NA   UNL     2      -7.432  17.964  68.473  1.00  0.00    -0.200 Na 
HETATM    3  O   UNL     3      -9.302  16.549  68.073  1.00  0.00    -0.213 OA 
HETATM    4  H   UNL     3      -9.920  16.871  68.719  1.00  0.00     0.000 HD 
HETATM    5  C   UNL     3      -8.787  15.249  68.514  1.00  0.00    -0.185 C  
HETATM    6  O   UNL     3     -10.449  14.249  69.873  1.00  0.00     0.109 OA 
HETATM    7  C   UNL     3      -9.967  14.270  68.691  1.00  0.00    -0.234 C  
HETATM    8  O   UNL     3     -10.378  13.661  67.673  1.00  0.00    -0.235 OA 
ENDROOT
BRANCH   5   9
HETATM    9  C   UNL     3      -7.791  14.730  67.473  1.00  0.00    -0.188 C  
HETATM   10  C   UNL     3      -6.505  15.600  67.554  1.00  0.00    -0.170 C  
HETATM   11  O   UNL     3      -8.433  14.839  66.179  1.00  0.00    -0.333 OA 
HETATM   12  H   UNL     3      -7.815  14.517  65.533  1.00  0.00     0.000 HD 
HETATM   13  O   UNL     3      -5.809  15.745  66.518  1.00  0.00     0.312 OA 
HETATM   14  O   UNL     3      -6.346  16.261  68.640  1.00  0.00    -0.118 OA 
ENDBRANCH   5   9
TORSDOF 1
ENDMDL
MODEL      231
REMARK 921   NORMALIZED FREE ENERGY PREDICTED BY IDOCK:   -1.51 KCAL/MOL
REMARK 922        TOTAL FREE ENERGY PREDICTED BY IDOCK:   -2.20 KCAL/MOL
REMARK 923 INTER-LIGAND FREE ENERGY PREDICTED BY IDOCK:   -3.08 KCAL/MOL
REMARK 924 INTRA-LIGAND FREE ENERGY PREDICTED BY IDOCK:    0.88 KCAL/MOL
REMARK 927      BINDING AFFINITY PREDICTED BY RF-SCORE:    0.00 PKD
ROOT
HETATM    1 NA   UNL     1     -12.237   9.710  67.458  1.00  0.00    -0.099 Na 
HETATM    2 NA   UNL     2     -11.527  15.396  65.368  1.00  0.00    -0.325 Na 
HETATM    3  O   UNL     3     -10.678  14.025  67.118  1.00  0.00    -0.280 OA 
HETATM    4  H   UNL     3     -10.412  13.251  66.635  1.00  0.00     0.000 HD 
HETATM    5  C   UNL     3     -11.900  13.718  67.870  1.00  0.00    -0.378 C  
HETATM    6  O   UNL     3     -11.894  11.393  68.321  1.00  0.00    -0.501 OA 
HETATM    7  C   UNL     3     -11.625  12.536  68.823  1.00  0.00    -0.322 C  
HETATM    8  O   UNL     3     -11.110  12.793  69.938  1.00  0.00     0.059 OA 
ENDROOT
BRANCH   5   9
HETATM    9  C   UNL     3     -12.330  14.966  68.648  1.00  0.00     0.058 C  
HETATM   10  C   UNL     3     -11.050  15.692  69.150  1.00  0.00    -0.284 C  
HETATM   11  O   UNL     3     -13.160  14.518  69.747  1.00  0.00    -0.451 OA 
HETATM   12  H   UNL     3     -13.427  15.291  70.229  1.00  0.00     0.000 HD 
HETATM   13  O   UNL     3     -11.118  16.372  70.204  1.00  0.00    -0.355 OA 
HETATM   14  O   UNL     3      -9.964  15.392  68.542  1.00  0.00    -0.206 OA 
ENDBRANCH   5   9
TORSDOF 1
ENDMDL
MODEL      232
REMARK 921   NORMALIZED FREE ENERGY PREDICTED BY IDOCK:   -1.51 KCAL/MOL
REMARK 922        TOTAL FREE ENERGY PREDICTED BY IDOCK:   -2.20 KCAL/MOL
REMARK 923 INTER-LIGAND FREE ENERGY PREDICTED BY IDOCK:   -1.86 KCAL/MOL
REMARK 924 INTRA-LIGAND FREE ENERGY PREDICTED BY IDOCK:   -0.34 KCAL/MOL
REMARK 927      BINDING AFFINITY PREDICTED BY RF-SCORE:    0.00 PKD
ROOT
HETATM    1 NA   UNL     1      -9.503   3.650  69.704  1.00  0.00    -0.090 Na 
HETATM    2 NA   UNL     2      -6.865   2.993  64.243  1.00  0.00    -0.029 Na 
HETATM    3  O   UNL     3      -8.124   4.630  65.425  1.00  0.00    -0.104 OA 
HETATM    4  H   UNL     3      -7.638   4.686  66.239  1.00  0.00     0.000 HD 
HETATM    5  C   UNL     3      -9.381   3.915  65.670  1.00  0.00    -0.161 C  
HETATM    6  O   UNL     3      -9.966   4.258  67.939  1.00  0.00    -0.105 OA 
HETATM    7  C   UNL     3     -10.189   4.665  66.749  1.00  0.00    -0.185 C  
HETATM    8  O   UNL     3     -10.911   5.622  66.378  1.00  0.00    -0.253 OA 
ENDROOT
BRANCH   5   9
HETATM    9  C   UNL     3     -10.165   3.824  64.357  1.00  0.00    -0.222 C  
HETATM   10  C   UNL     3      -9.945   2.407  63.756  1.00  0.00    -0.142 C  
HETATM   11  O   UNL     3      -9.656   4.863  63.485  1.00  0.00    -0.350 OA 
HETATM   12  H   UNL     3     -10.142   4.807  62.671  1.00  0.00     0.000 HD 
HETATM   13  O   UNL     3     -10.005   2.266  62.509  1.00  0.00    -0.088 OA 
HETATM   14  O   UNL     3      -9.535   1.512  64.574  1.00  0.00    -0.134 OA 
ENDBRANCH   5   9
TORSDOF 1
ENDMDL
MODEL      233
REMARK 921   NORMALIZED FREE ENERGY PREDICTED BY IDOCK:   -1.44 KCAL/MOL
REMARK 922        TOTAL FREE ENERGY PREDICTED BY IDOCK:   -2.13 KCAL/MOL
REMARK 923 INTER-LIGAND FREE ENERGY PREDICTED BY IDOCK:   -3.01 KCAL/MOL
REMARK 924 INTRA-LIGAND FREE ENERGY PREDICTED BY IDOCK:    0.88 KCAL/MOL
REMARK 927      BINDING AFFINITY PREDICTED BY RF-SCORE:    0.00 PKD
ROOT
HETATM    1 NA   UNL     1      -9.001   2.899  71.083  1.00  0.00    -0.067 Na 
HETATM    2 NA   UNL     2      -8.292   8.733  69.450  1.00  0.00    -0.098 Na 
HETATM    3  O   UNL     3      -9.093   7.493  71.316  1.00  0.00    -0.141 OA 
HETATM    4  H   UNL     3      -8.368   6.899  71.470  1.00  0.00     0.000 HD 
HETATM    5  C   UNL     3     -10.203   6.743  70.717  1.00  0.00    -0.195 C  
HETATM    6  O   UNL     3     -10.013   4.495  71.437  1.00  0.00    -0.184 OA 
HETATM    7  C   UNL     3     -10.612   5.599  71.667  1.00  0.00    -0.241 C  
HETATM    8  O   UNL     3     -11.414   5.869  72.594  1.00  0.00    -0.291 OA 
ENDROOT
BRANCH   5   9
HETATM    9  C   UNL     3     -11.372   7.701  70.468  1.00  0.00    -0.250 C  
HETATM   10  C   UNL     3     -11.438   8.706  71.652  1.00  0.00    -0.305 C  
HETATM   11  O   UNL     3     -12.572   6.894  70.381  1.00  0.00    -0.593 OA 
HETATM   12  H   UNL     3     -13.297   7.488  70.227  1.00  0.00     0.000 HD 
HETATM   13  O   UNL     3     -12.550   9.200  71.962  1.00  0.00    -0.350 OA 
HETATM   14  O   UNL     3     -10.368   8.820  72.347  1.00  0.00    -0.300 OA 
ENDBRANCH   5   9
TORSDOF 1
ENDMDL
MODEL      234
REMARK 921   NORMALIZED FREE ENERGY PREDICTED BY IDOCK:   -1.44 KCAL/MOL
REMARK 922        TOTAL FREE ENERGY PREDICTED BY IDOCK:   -2.13 KCAL/MOL
REMARK 923 INTER-LIGAND FREE ENERGY PREDICTED BY IDOCK:   -3.01 KCAL/MOL
REMARK 924 INTRA-LIGAND FREE ENERGY PREDICTED BY IDOCK:    0.88 KCAL/MOL
REMARK 927      BINDING AFFINITY PREDICTED BY RF-SCORE:    0.00 PKD
ROOT
HETATM    1 NA   UNL     1      -6.177  16.750  66.279  1.00  0.00    -0.161 Na 
HETATM    2 NA   UNL     2     -11.570  14.275  64.867  1.00  0.00    -0.311 Na 
HETATM    3  O   UNL     3     -10.599  15.531  66.639  1.00  0.00    -0.299 OA 
HETATM    4  H   UNL     3     -10.214  16.258  66.163  1.00  0.00     0.000 HD 
HETATM    5  C   UNL     3      -9.528  14.633  67.084  1.00  0.00    -0.229 C  
HETATM    6  O   UNL     3      -7.565  15.934  67.332  1.00  0.00    -0.145 OA 
HETATM    7  C   UNL     3      -8.543  15.421  67.972  1.00  0.00    -0.151 C  
HETATM    8  O   UNL     3      -8.824  15.542  69.190  1.00  0.00    -0.217 OA 
ENDROOT
BRANCH   5   9
HETATM    9  C   UNL     3     -10.149  13.462  67.851  1.00  0.00    -0.238 C  
HETATM   10  C   UNL     3     -11.340  14.005  68.689  1.00  0.00    -0.276 C  
HETATM   11  O   UNL     3      -9.110  12.905  68.692  1.00  0.00    -0.376 OA 
HETATM   12  H   UNL     3      -9.495  12.178  69.167  1.00  0.00     0.000 HD 
HETATM   13  O   UNL     3     -11.644  13.417  69.756  1.00  0.00    -0.278 OA 
HETATM   14  O   UNL     3     -11.815  15.135  68.316  1.00  0.00    -0.331 OA 
ENDBRANCH   5   9
TORSDOF 1
ENDMDL
MODEL      235
REMARK 921   NORMALIZED FREE ENERGY PREDICTED BY IDOCK:   -1.44 KCAL/MOL
REMARK 922        TOTAL FREE ENERGY PREDICTED BY IDOCK:   -2.12 KCAL/MOL
REMARK 923 INTER-LIGAND FREE ENERGY PREDICTED BY IDOCK:   -1.91 KCAL/MOL
REMARK 924 INTRA-LIGAND FREE ENERGY PREDICTED BY IDOCK:   -0.21 KCAL/MOL
REMARK 927      BINDING AFFINITY PREDICTED BY RF-SCORE:    0.00 PKD
ROOT
HETATM    1 NA   UNL     1     -12.245   5.174  64.885  1.00  0.00    -0.720 Na 
HETATM    2 NA   UNL     2      -6.913   6.645  67.457  1.00  0.00    -0.058 Na 
HETATM    3  O   UNL     3      -7.707   5.358  65.619  1.00  0.00    -0.088 OA 
HETATM    4  H   UNL     3      -8.269   5.986  65.182  1.00  0.00     0.000 HD 
HETATM    5  C   UNL     3      -8.543   4.362  66.297  1.00  0.00    -0.112 C  
HETATM    6  O   UNL     3     -10.588   4.224  65.110  1.00  0.00    -0.253 OA 
HETATM    7  C   UNL     3      -9.447   3.668  65.257  1.00  0.00    -0.162 C  
HETATM    8  O   UNL     3      -8.967   2.700  64.619  1.00  0.00    -0.113 OA 
ENDROOT
BRANCH   5   9
HETATM    9  C   UNL     3      -7.635   3.349  67.002  1.00  0.00    -0.079 C  
HETATM   10  C   UNL     3      -8.276   2.994  68.373  1.00  0.00    -0.064 C  
HETATM   11  O   UNL     3      -6.340   3.978  67.160  1.00  0.00    -0.038 OA 
HETATM   12  H   UNL     3      -5.777   3.350  67.597  1.00  0.00     0.000 HD 
HETATM   13  O   UNL     3      -7.523   2.652  69.319  1.00  0.00    -0.044 OA 
HETATM   14  O   UNL     3      -9.524   3.255  68.490  1.00  0.00    -0.178 OA 
ENDBRANCH   5   9
TORSDOF 1
ENDMDL
MODEL      236
REMARK 921   NORMALIZED FREE ENERGY PREDICTED BY IDOCK:   -1.34 KCAL/MOL
REMARK 922        TOTAL FREE ENERGY PREDICTED BY IDOCK:   -2.03 KCAL/MOL
REMARK 923 INTER-LIGAND FREE ENERGY PREDICTED BY IDOCK:   -1.37 KCAL/MOL
REMARK 924 INTRA-LIGAND FREE ENERGY PREDICTED BY IDOCK:   -0.66 KCAL/MOL
REMARK 927      BINDING AFFINITY PREDICTED BY RF-SCORE:    0.00 PKD
ROOT
HETATM    1 NA   UNL     1     -11.848   6.345  69.994  1.00  0.00    -0.305 Na 
HETATM    2 NA   UNL     2      -8.775   9.460  65.745  1.00  0.00    -0.121 Na 
HETATM    3  O   UNL     3      -8.931   7.225  66.547  1.00  0.00    -0.140 OA 
HETATM    4  H   UNL     3      -9.869   7.082  66.516  1.00  0.00     0.000 HD 
HETATM    5  C   UNL     3      -8.520   7.385  67.946  1.00  0.00    -0.122 C  
HETATM    6  O   UNL     3     -10.067   6.192  69.284  1.00  0.00    -0.156 OA 
HETATM    7  C   UNL     3      -8.915   6.122  68.738  1.00  0.00    -0.123 C  
HETATM    8  O   UNL     3      -8.126   5.146  68.711  1.00  0.00    -0.085 OA 
ENDROOT
BRANCH   5   9
HETATM    9  C   UNL     3      -7.006   7.617  67.995  1.00  0.00    -0.079 C  
HETATM   10  C   UNL     3      -6.731   9.110  67.662  1.00  0.00    -0.069 C  
HETATM   11  O   UNL     3      -6.408   6.729  67.019  1.00  0.00    -0.038 OA 
HETATM   12  H   UNL     3      -5.470   6.873  67.050  1.00  0.00     0.000 HD 
HETATM   13  O   UNL     3      -5.639   9.416  67.121  1.00  0.00    -0.040 OA 
HETATM   14  O   UNL     3      -7.726   9.905  67.800  1.00  0.00    -0.090 OA 
ENDBRANCH   5   9
TORSDOF 1
ENDMDL
MODEL      237
REMARK 921   NORMALIZED FREE ENERGY PREDICTED BY IDOCK:   -1.33 KCAL/MOL
REMARK 922        TOTAL FREE ENERGY PREDICTED BY IDOCK:   -2.01 KCAL/MOL
REMARK 923 INTER-LIGAND FREE ENERGY PREDICTED BY IDOCK:   -2.91 KCAL/MOL
REMARK 924 INTRA-LIGAND FREE ENERGY PREDICTED BY IDOCK:    0.89 KCAL/MOL
REMARK 927      BINDING AFFINITY PREDICTED BY RF-SCORE:    0.00 PKD
ROOT
HETATM    1 NA   UNL     1     -11.856  11.792  69.324  1.00  0.00    -0.206 Na 
HETATM    2 NA   UNL     2     -11.149  17.738  70.485  1.00  0.00    -0.519 Na 
HETATM    3  O   UNL     3     -10.815  16.226  68.678  1.00  0.00    -0.284 OA 
HETATM    4  H   UNL     3     -11.661  15.797  68.636  1.00  0.00     0.000 HD 
HETATM    5  C   UNL     3      -9.836  15.295  69.251  1.00  0.00    -0.255 C  
HETATM    6  O   UNL     3     -10.567  13.099  68.749  1.00  0.00    -0.248 OA 
HETATM    7  C   UNL     3      -9.773  14.026  68.375  1.00  0.00    -0.223 C  
HETATM    8  O   UNL     3      -9.026  14.049  67.367  1.00  0.00    -0.186 OA 
ENDROOT
BRANCH   5   9
HETATM    9  C   UNL     3      -8.472  15.988  69.319  1.00  0.00    -0.224 C  
HETATM   10  C   UNL     3      -8.338  16.923  68.084  1.00  0.00    -0.212 C  
HETATM   11  O   UNL     3      -7.465  14.947  69.317  1.00  0.00    -0.156 OA 
HETATM   12  H   UNL     3      -6.619  15.377  69.360  1.00  0.00     0.000 HD 
HETATM   13  O   UNL     3      -7.192  17.159  67.629  1.00  0.00    -0.151 OA 
HETATM   14  O   UNL     3      -9.435  17.242  67.505  1.00  0.00    -0.241 OA 
ENDBRANCH   5   9
TORSDOF 1
ENDMDL
MODEL      238
REMARK 921   NORMALIZED FREE ENERGY PREDICTED BY IDOCK:   -1.29 KCAL/MOL
REMARK 922        TOTAL FREE ENERGY PREDICTED BY IDOCK:   -1.97 KCAL/MOL
REMARK 923 INTER-LIGAND FREE ENERGY PREDICTED BY IDOCK:   -1.38 KCAL/MOL
REMARK 924 INTRA-LIGAND FREE ENERGY PREDICTED BY IDOCK:   -0.59 KCAL/MOL
REMARK 927      BINDING AFFINITY PREDICTED BY RF-SCORE:    0.00 PKD
ROOT
HETATM    1 NA   UNL     1     -10.468   3.556  70.950  1.00  0.00    -0.143 Na 
HETATM    2 NA   UNL     2      -6.487   6.245  67.192  1.00  0.00    -0.036 Na 
HETATM    3  O   UNL     3      -8.168   6.879  68.751  1.00  0.00    -0.119 OA 
HETATM    4  H   UNL     3      -7.911   6.378  69.516  1.00  0.00     0.000 HD 
HETATM    5  C   UNL     3      -9.364   6.268  68.161  1.00  0.00    -0.115 C  
HETATM    6  O   UNL     3     -10.533   5.166  69.900  1.00  0.00    -0.295 OA 
HETATM    7  C   UNL     3     -10.492   6.241  69.213  1.00  0.00    -0.244 C  
HETATM    8  O   UNL     3     -11.194   7.273  69.342  1.00  0.00    -0.125 OA 
ENDROOT
BRANCH   5   9
HETATM    9  C   UNL     3      -9.777   7.077  66.927  1.00  0.00    -0.175 C  
HETATM   10  C   UNL     3      -9.022   6.506  65.694  1.00  0.00     0.015 C  
HETATM   11  O   UNL     3      -9.420   8.457  67.185  1.00  0.00    -0.148 OA 
HETATM   12  H   UNL     3      -9.677   8.959  66.420  1.00  0.00     0.000 HD 
HETATM   13  O   UNL     3      -8.763   7.276  64.737  1.00  0.00     0.137 OA 
HETATM   14  O   UNL     3      -8.556   5.320  65.826  1.00  0.00    -0.128 OA 
ENDBRANCH   5   9
TORSDOF 1
ENDMDL
MODEL      239
REMARK 921   NORMALIZED FREE ENERGY PREDICTED BY IDOCK:   -1.17 KCAL/MOL
REMARK 922        TOTAL FREE ENERGY PREDICTED BY IDOCK:   -1.85 KCAL/MOL
REMARK 923 INTER-LIGAND FREE ENERGY PREDICTED BY IDOCK:   -2.76 KCAL/MOL
REMARK 924 INTRA-LIGAND FREE ENERGY PREDICTED BY IDOCK:    0.91 KCAL/MOL
REMARK 927      BINDING AFFINITY PREDICTED BY RF-SCORE:    0.00 PKD
ROOT
HETATM    1 NA   UNL     1     -13.843   9.889  69.775  1.00  0.00    -0.621 Na 
HETATM    2 NA   UNL     2     -11.656  11.257  64.248  1.00  0.00    -0.331 Na 
HETATM    3  O   UNL     3     -10.893  10.248  66.263  1.00  0.00    -0.068 OA 
HETATM    4  H   UNL     3     -11.569   9.599  66.414  1.00  0.00     0.000 HD 
HETATM    5  C   UNL     3     -11.062  11.343  67.224  1.00  0.00    -0.303 C  
HETATM    6  O   UNL     3     -12.112  10.447  69.148  1.00  0.00    -0.147 OA 
HETATM    7  C   UNL     3     -10.981  10.778  68.657  1.00  0.00    -0.239 C  
HETATM    8  O   UNL     3      -9.842  10.631  69.163  1.00  0.00    -0.207 OA 
ENDROOT
BRANCH   5   9
HETATM    9  C   UNL     3      -9.971  12.391  66.980  1.00  0.00    -0.212 C  
HETATM   10  C   UNL     3      -8.687  11.655  66.505  1.00  0.00    -0.182 C  
HETATM   11  O   UNL     3      -9.761  13.085  68.234  1.00  0.00    -0.222 OA 
HETATM   12  H   UNL     3      -9.085  13.735  68.082  1.00  0.00     0.000 HD 
HETATM   13  O   UNL     3      -7.570  12.169  66.758  1.00  0.00    -0.076 OA 
HETATM   14  O   UNL     3      -8.860  10.472  66.045  1.00  0.00    -0.155 OA 
ENDBRANCH   5   9
TORSDOF 1
ENDMDL
MODEL      240
REMARK 921   NORMALIZED FREE ENERGY PREDICTED BY IDOCK:   -1.15 KCAL/MOL
REMARK 922        TOTAL FREE ENERGY PREDICTED BY IDOCK:   -1.82 KCAL/MOL
REMARK 923 INTER-LIGAND FREE ENERGY PREDICTED BY IDOCK:   -1.62 KCAL/MOL
REMARK 924 INTRA-LIGAND FREE ENERGY PREDICTED BY IDOCK:   -0.19 KCAL/MOL
REMARK 927      BINDING AFFINITY PREDICTED BY RF-SCORE:    0.00 PKD
ROOT
HETATM    1 NA   UNL     1      -8.154   4.823  70.379  1.00  0.00    -0.068 Na 
HETATM    2 NA   UNL     2     -10.748  10.208  71.591  1.00  0.00    -0.289 Na 
HETATM    3  O   UNL     3     -10.687   8.623  69.818  1.00  0.00    -0.228 OA 
HETATM    4  H   UNL     3     -10.903   7.820  70.279  1.00  0.00     0.000 HD 
HETATM    5  C   UNL     3      -9.258   8.609  69.485  1.00  0.00    -0.150 C  
HETATM    6  O   UNL     3      -8.594   6.344  69.288  1.00  0.00    -0.124 OA 
HETATM    7  C   UNL     3      -8.952   7.370  68.618  1.00  0.00    -0.131 C  
HETATM    8  O   UNL     3      -9.148   7.461  67.381  1.00  0.00    -0.121 OA 
ENDROOT
BRANCH   5   9
HETATM    9  C   UNL     3      -8.910   9.903  68.742  1.00  0.00    -0.136 C  
HETATM   10  C   UNL     3      -7.642  10.516  69.401  1.00  0.00    -0.145 C  
HETATM   11  O   UNL     3     -10.055  10.782  68.859  1.00  0.00    -0.189 OA 
HETATM   12  H   UNL     3      -9.839  11.584  68.399  1.00  0.00     0.000 HD 
HETATM   13  O   UNL     3      -7.484  11.761  69.360  1.00  0.00     0.032 OA 
HETATM   14  O   UNL     3      -6.934   9.712  70.103  1.00  0.00    -0.074 OA 
ENDBRANCH   5   9
TORSDOF 1
ENDMDL
MODEL      241
REMARK 921   NORMALIZED FREE ENERGY PREDICTED BY IDOCK:   -1.05 KCAL/MOL
REMARK 922        TOTAL FREE ENERGY PREDICTED BY IDOCK:   -1.72 KCAL/MOL
REMARK 923 INTER-LIGAND FREE ENERGY PREDICTED BY IDOCK:   -1.51 KCAL/MOL
REMARK 924 INTRA-LIGAND FREE ENERGY PREDICTED BY IDOCK:   -0.21 KCAL/MOL
REMARK 927      BINDING AFFINITY PREDICTED BY RF-SCORE:    0.00 PKD
ROOT
HETATM    1 NA   UNL     1      -9.368   5.717  68.793  1.00  0.00    -0.115 Na 
HETATM    2 NA   UNL     2      -9.462   6.404  62.733  1.00  0.00    -0.255 Na 
HETATM    3  O   UNL     3     -10.023   4.745  64.344  1.00  0.00    -0.369 OA 
HETATM    4  H   UNL     3     -10.575   5.240  64.937  1.00  0.00     0.000 HD 
HETATM    5  C   UNL     3      -8.726   4.509  64.987  1.00  0.00    -0.138 C  
HETATM    6  O   UNL     3      -9.083   4.504  67.328  1.00  0.00    -0.117 OA 
HETATM    7  C   UNL     3      -8.947   3.746  66.309  1.00  0.00    -0.136 C  
HETATM    8  O   UNL     3      -9.045   2.496  66.252  1.00  0.00    -0.144 OA 
ENDROOT
BRANCH   5   9
HETATM    9  C   UNL     3      -7.835   3.710  64.030  1.00  0.00    -0.084 C  
HETATM   10  C   UNL     3      -6.377   4.229  64.174  1.00  0.00    -0.034 C  
HETATM   11  O   UNL     3      -8.352   3.920  62.693  1.00  0.00    -0.078 OA 
HETATM   12  H   UNL     3      -7.800   3.424  62.100  1.00  0.00     0.000 HD 
HETATM   13  O   UNL     3      -5.608   4.148  63.184  1.00  0.00    -0.012 OA 
HETATM   14  O   UNL     3      -6.119   4.875  65.249  1.00  0.00    -0.028 OA 
ENDBRANCH   5   9
TORSDOF 1
ENDMDL
MODEL      242
REMARK 921   NORMALIZED FREE ENERGY PREDICTED BY IDOCK:   -1.04 KCAL/MOL
REMARK 922        TOTAL FREE ENERGY PREDICTED BY IDOCK:   -1.71 KCAL/MOL
REMARK 923 INTER-LIGAND FREE ENERGY PREDICTED BY IDOCK:   -2.67 KCAL/MOL
REMARK 924 INTRA-LIGAND FREE ENERGY PREDICTED BY IDOCK:    0.97 KCAL/MOL
REMARK 927      BINDING AFFINITY PREDICTED BY RF-SCORE:    0.00 PKD
ROOT
HETATM    1 NA   UNL     1     -10.900  16.893  71.499  1.00  0.00    -0.087 Na 
HETATM    2 NA   UNL     2      -7.863  13.766  67.232  1.00  0.00    -0.117 Na 
HETATM    3  O   UNL     3      -8.952  15.870  67.458  1.00  0.00    -0.190 OA 
HETATM    4  H   UNL     3      -8.549  16.204  68.251  1.00  0.00     0.000 HD 
HETATM    5  C   UNL     3     -10.327  15.459  67.761  1.00  0.00    -0.253 C  
HETATM    6  O   UNL     3     -11.076  16.767  69.588  1.00  0.00    -0.237 OA 
HETATM    7  C   UNL     3     -11.107  16.669  68.315  1.00  0.00    -0.295 C  
HETATM    8  O   UNL     3     -11.622  17.460  67.487  1.00  0.00     0.459 OA 
ENDROOT
BRANCH   5   9
HETATM    9  C   UNL     3     -10.977  14.920  66.483  1.00  0.00    -0.327 C  
HETATM   10  C   UNL     3     -10.587  15.858  65.306  1.00  0.00    -0.419 C  
HETATM   11  O   UNL     3     -12.408  14.904  66.707  1.00  0.00    -0.271 OA 
HETATM   12  H   UNL     3     -12.810  14.570  65.914  1.00  0.00     0.000 HD 
HETATM   13  O   UNL     3     -11.376  15.965  64.334  1.00  0.00    -0.435 OA 
HETATM   14  O   UNL     3      -9.562  16.601  65.500  1.00  0.00    -0.502 OA 
ENDBRANCH   5   9
TORSDOF 1
ENDMDL
MODEL      243
REMARK 921   NORMALIZED FREE ENERGY PREDICTED BY IDOCK:   -1.02 KCAL/MOL
REMARK 922        TOTAL FREE ENERGY PREDICTED BY IDOCK:   -1.68 KCAL/MOL
REMARK 923 INTER-LIGAND FREE ENERGY PREDICTED BY IDOCK:   -2.56 KCAL/MOL
REMARK 924 INTRA-LIGAND FREE ENERGY PREDICTED BY IDOCK:    0.88 KCAL/MOL
REMARK 927      BINDING AFFINITY PREDICTED BY RF-SCORE:    0.00 PKD
ROOT
HETATM    1 NA   UNL     1      -9.104   4.354  71.038  1.00  0.00    -0.100 Na 
HETATM    2 NA   UNL     2      -6.971   9.530  68.615  1.00  0.00    -0.057 Na 
HETATM    3  O   UNL     3      -8.778   8.823  69.992  1.00  0.00    -0.132 OA 
HETATM    4  H   UNL     3      -8.319   8.328  70.662  1.00  0.00     0.000 HD 
HETATM    5  C   UNL     3      -9.476   7.887  69.105  1.00  0.00    -0.155 C  
HETATM    6  O   UNL     3      -9.959   5.938  70.362  1.00  0.00    -0.178 OA 
HETATM    7  C   UNL     3     -10.457   7.035  69.938  1.00  0.00    -0.217 C  
HETATM    8  O   UNL     3     -11.592   7.516  70.175  1.00  0.00    -0.166 OA 
ENDROOT
BRANCH   5   9
HETATM    9  C   UNL     3     -10.216   8.684  68.026  1.00  0.00    -0.210 C  
HETATM   10  C   UNL     3     -10.766   9.986  68.673  1.00  0.00    -0.226 C  
HETATM   11  O   UNL     3     -11.282   7.839  67.528  1.00  0.00    -0.470 OA 
HETATM   12  H   UNL     3     -11.740   8.333  66.859  1.00  0.00     0.000 HD 
HETATM   13  O   UNL     3     -11.806  10.503  68.196  1.00  0.00    -0.417 OA 
HETATM   14  O   UNL     3     -10.213  10.338  69.773  1.00  0.00    -0.236 OA 
ENDBRANCH   5   9
TORSDOF 1
ENDMDL
MODEL      244
REMARK 921   NORMALIZED FREE ENERGY PREDICTED BY IDOCK:   -1.01 KCAL/MOL
REMARK 922        TOTAL FREE ENERGY PREDICTED BY IDOCK:   -1.67 KCAL/MOL
REMARK 923 INTER-LIGAND FREE ENERGY PREDICTED BY IDOCK:   -2.57 KCAL/MOL
REMARK 924 INTRA-LIGAND FREE ENERGY PREDICTED BY IDOCK:    0.90 KCAL/MOL
REMARK 927      BINDING AFFINITY PREDICTED BY RF-SCORE:    0.00 PKD
ROOT
HETATM    1 NA   UNL     1     -11.319   9.656  67.769  1.00  0.00    -0.303 Na 
HETATM    2 NA   UNL     2     -12.896   6.479  72.730  1.00  0.00    -0.485 Na 
HETATM    3  O   UNL     3     -10.957   7.519  71.827  1.00  0.00    -0.229 OA 
HETATM    4  H   UNL     3     -11.285   8.390  71.635  1.00  0.00     0.000 HD 
HETATM    5  C   UNL     3     -10.789   6.786  70.568  1.00  0.00    -0.258 C  
HETATM    6  O   UNL     3     -10.386   8.380  68.864  1.00  0.00    -0.214 OA 
HETATM    7  C   UNL     3      -9.813   7.560  69.657  1.00  0.00    -0.180 C  
HETATM    8  O   UNL     3      -8.583   7.372  69.826  1.00  0.00    -0.138 OA 
ENDROOT
BRANCH   5   9
HETATM    9  C   UNL     3     -10.259   5.382  70.878  1.00  0.00    -0.234 C  
HETATM   10  C   UNL     3      -9.220   5.497  72.028  1.00  0.00    -0.140 C  
HETATM   11  O   UNL     3      -9.661   4.875  69.660  1.00  0.00    -0.139 OA 
HETATM   12  H   UNL     3      -9.333   4.004  69.853  1.00  0.00     0.000 HD 
HETATM   13  O   UNL     3      -8.294   4.651  72.089  1.00  0.00    -0.113 OA 
HETATM   14  O   UNL     3      -9.282   6.565  72.731  1.00  0.00    -0.138 OA 
ENDBRANCH   5   9
TORSDOF 1
ENDMDL
MODEL      245
REMARK 921   NORMALIZED FREE ENERGY PREDICTED BY IDOCK:   -0.88 KCAL/MOL
REMARK 922        TOTAL FREE ENERGY PREDICTED BY IDOCK:   -1.54 KCAL/MOL
REMARK 923 INTER-LIGAND FREE ENERGY PREDICTED BY IDOCK:   -1.35 KCAL/MOL
REMARK 924 INTRA-LIGAND FREE ENERGY PREDICTED BY IDOCK:   -0.19 KCAL/MOL
REMARK 927      BINDING AFFINITY PREDICTED BY RF-SCORE:    0.00 PKD
ROOT
HETATM    1 NA   UNL     1     -11.618   5.415  69.957  1.00  0.00    -0.289 Na 
HETATM    2 NA   UNL     2      -9.100   5.433  64.401  1.00  0.00    -0.156 Na 
HETATM    3  O   UNL     3      -9.510   3.888  66.163  1.00  0.00    -0.165 OA 
HETATM    4  H   UNL     3     -10.436   4.026  66.320  1.00  0.00     0.000 HD 
HETATM    5  C   UNL     3      -8.747   4.487  67.264  1.00  0.00    -0.104 C  
HETATM    6  O   UNL     3     -10.133   4.468  69.184  1.00  0.00    -0.154 OA 
HETATM    7  C   UNL     3      -9.188   3.843  68.595  1.00  0.00    -0.151 C  
HETATM    8  O   UNL     3      -8.646   2.761  68.928  1.00  0.00    -0.064 OA 
ENDROOT
BRANCH   5   9
HETATM    9  C   UNL     3      -7.252   4.264  67.011  1.00  0.00    -0.068 C  
HETATM   10  C   UNL     3      -6.479   5.505  67.538  1.00  0.00    -0.051 C  
HETATM   11  O   UNL     3      -7.084   4.093  65.583  1.00  0.00    -0.061 OA 
HETATM   12  H   UNL     3      -6.157   3.954  65.426  1.00  0.00     0.000 HD 
HETATM   13  O   UNL     3      -5.390   5.813  66.993  1.00  0.00    -0.005 OA 
HETATM   14  O   UNL     3      -7.107   6.237  68.381  1.00  0.00    -0.077 OA 
ENDBRANCH   5   9
TORSDOF 1
ENDMDL
MODEL      246
REMARK 921   NORMALIZED FREE ENERGY PREDICTED BY IDOCK:   -0.88 KCAL/MOL
REMARK 922        TOTAL FREE ENERGY PREDICTED BY IDOCK:   -1.54 KCAL/MOL
REMARK 923 INTER-LIGAND FREE ENERGY PREDICTED BY IDOCK:   -2.42 KCAL/MOL
REMARK 924 INTRA-LIGAND FREE ENERGY PREDICTED BY IDOCK:    0.88 KCAL/MOL
REMARK 927      BINDING AFFINITY PREDICTED BY RF-SCORE:    0.00 PKD
ROOT
HETATM    1 NA   UNL     1      -7.380   9.655  65.213  1.00  0.00    -0.090 Na 
HETATM    2 NA   UNL     2      -7.420   7.442  70.897  1.00  0.00    -0.064 Na 
HETATM    3  O   UNL     3      -8.924   7.676  69.069  1.00  0.00    -0.138 OA 
HETATM    4  H   UNL     3      -8.418   7.296  68.361  1.00  0.00     0.000 HD 
HETATM    5  C   UNL     3      -8.958   9.133  68.900  1.00  0.00    -0.139 C  
HETATM    6  O   UNL     3      -8.724   9.587  66.588  1.00  0.00    -0.132 OA 
HETATM    7  C   UNL     3      -9.579   9.470  67.529  1.00  0.00    -0.144 C  
HETATM    8  O   UNL     3     -10.831   9.522  67.452  1.00  0.00    -0.269 OA 
ENDROOT
BRANCH   5   9
HETATM    9  C   UNL     3      -9.775   9.746  70.042  1.00  0.00    -0.250 C  
HETATM   10  C   UNL     3     -10.976   8.806  70.341  1.00  0.00    -0.235 C  
HETATM   11  O   UNL     3     -10.212  11.054  69.598  1.00  0.00    -0.435 OA 
HETATM   12  H   UNL     3     -10.718  11.434  70.306  1.00  0.00     0.000 HD 
HETATM   13  O   UNL     3     -12.031   9.306  70.804  1.00  0.00    -0.276 OA 
HETATM   14  O   UNL     3     -10.861   7.603  69.918  1.00  0.00    -0.249 OA 
ENDBRANCH   5   9
TORSDOF 1
ENDMDL
MODEL      247
REMARK 921   NORMALIZED FREE ENERGY PREDICTED BY IDOCK:   -0.84 KCAL/MOL
REMARK 922        TOTAL FREE ENERGY PREDICTED BY IDOCK:   -1.50 KCAL/MOL
REMARK 923 INTER-LIGAND FREE ENERGY PREDICTED BY IDOCK:   -2.38 KCAL/MOL
REMARK 924 INTRA-LIGAND FREE ENERGY PREDICTED BY IDOCK:    0.88 KCAL/MOL
REMARK 927      BINDING AFFINITY PREDICTED BY RF-SCORE:    0.00 PKD
ROOT
HETATM    1 NA   UNL     1     -11.182  14.344  65.064  1.00  0.00    -0.298 Na 
HETATM    2 NA   UNL     2     -11.654   8.687  67.296  1.00  0.00    -0.449 Na 
HETATM    3  O   UNL     3     -10.501  10.707  67.798  1.00  0.00    -0.194 OA 
HETATM    4  H   UNL     3     -11.215  11.333  67.800  1.00  0.00     0.000 HD 
HETATM    5  C   UNL     3      -9.703  10.900  66.582  1.00  0.00    -0.189 C  
HETATM    6  O   UNL     3      -9.935  13.165  65.931  1.00  0.00    -0.280 OA 
HETATM    7  C   UNL     3      -9.172  12.349  66.549  1.00  0.00    -0.215 C  
HETATM    8  O   UNL     3      -8.113  12.597  67.176  1.00  0.00    -0.177 OA 
ENDROOT
BRANCH   5   9
HETATM    9  C   UNL     3      -8.551   9.890  66.578  1.00  0.00    -0.124 C  
HETATM   10  C   UNL     3      -8.042   9.726  68.038  1.00  0.00    -0.105 C  
HETATM   11  O   UNL     3      -7.523  10.420  65.706  1.00  0.00    -0.138 OA 
HETATM   12  H   UNL     3      -6.809   9.793  65.704  1.00  0.00     0.000 HD 
HETATM   13  O   UNL     3      -6.840   9.417  68.226  1.00  0.00    -0.062 OA 
HETATM   14  O   UNL     3      -8.852  10.101  68.957  1.00  0.00    -0.145 OA 
ENDBRANCH   5   9
TORSDOF 1
ENDMDL
MODEL      248
REMARK 921   NORMALIZED FREE ENERGY PREDICTED BY IDOCK:   -0.83 KCAL/MOL
REMARK 922        TOTAL FREE ENERGY PREDICTED BY IDOCK:   -1.48 KCAL/MOL
REMARK 923 INTER-LIGAND FREE ENERGY PREDICTED BY IDOCK:   -2.42 KCAL/MOL
REMARK 924 INTRA-LIGAND FREE ENERGY PREDICTED BY IDOCK:    0.93 KCAL/MOL
REMARK 927      BINDING AFFINITY PREDICTED BY RF-SCORE:    0.00 PKD
ROOT
HETATM    1 NA   UNL     1     -10.854   6.068  65.777  1.00  0.00    -0.436 Na 
HETATM    2 NA   UNL     2      -9.691  11.443  68.416  1.00  0.00    -0.154 Na 
HETATM    3  O   UNL     3      -8.868   9.211  68.487  1.00  0.00    -0.129 OA 
HETATM    4  H   UNL     3      -8.723   9.037  67.565  1.00  0.00     0.000 HD 
HETATM    5  C   UNL     3     -10.057   8.473  68.929  1.00  0.00    -0.203 C  
HETATM    6  O   UNL     3     -10.268   6.567  67.540  1.00  0.00    -0.143 OA 
HETATM    7  C   UNL     3      -9.841   6.967  68.675  1.00  0.00    -0.145 C  
HETATM    8  O   UNL     3      -9.220   6.311  69.546  1.00  0.00    -0.139 OA 
ENDROOT
BRANCH   5   9
HETATM    9  C   UNL     3     -10.291   8.754  70.417  1.00  0.00    -0.199 C  
HETATM   10  C   UNL     3      -8.910   8.972  71.095  1.00  0.00    -0.215 C  
HETATM   11  O   UNL     3     -10.983   7.605  70.963  1.00  0.00    -0.240 OA 
HETATM   12  H   UNL     3     -11.129   7.780  71.885  1.00  0.00     0.000 HD 
HETATM   13  O   UNL     3      -8.783   8.682  72.310  1.00  0.00    -0.306 OA 
HETATM   14  O   UNL     3      -7.942   9.264  70.308  1.00  0.00    -0.109 OA 
ENDBRANCH   5   9
TORSDOF 1
ENDMDL
MODEL      249
REMARK 921   NORMALIZED FREE ENERGY PREDICTED BY IDOCK:   -0.82 KCAL/MOL
REMARK 922        TOTAL FREE ENERGY PREDICTED BY IDOCK:   -1.47 KCAL/MOL
REMARK 923 INTER-LIGAND FREE ENERGY PREDICTED BY IDOCK:   -1.26 KCAL/MOL
REMARK 924 INTRA-LIGAND FREE ENERGY PREDICTED BY IDOCK:   -0.21 KCAL/MOL
REMARK 927      BINDING AFFINITY PREDICTED BY RF-SCORE:    0.00 PKD
ROOT
HETATM    1 NA   UNL     1     -11.415   9.714  67.533  1.00  0.00    -0.383 Na 
HETATM    2 NA   UNL     2     -12.523   5.210  71.495  1.00  0.00     0.477 Na 
HETATM    3  O   UNL     3     -10.894   6.908  71.142  1.00  0.00    -0.233 OA 
HETATM    4  H   UNL     3     -11.443   7.678  71.056  1.00  0.00     0.000 HD 
HETATM    5  C   UNL     3     -10.372   6.546  69.820  1.00  0.00    -0.195 C  
HETATM    6  O   UNL     3     -10.273   8.526  68.525  1.00  0.00    -0.190 OA 
HETATM    7  C   UNL     3      -9.576   7.736  69.246  1.00  0.00    -0.159 C  
HETATM    8  O   UNL     3      -8.374   7.853  69.588  1.00  0.00    -0.127 OA 
ENDROOT
BRANCH   5   9
HETATM    9  C   UNL     3      -9.486   5.304  69.960  1.00  0.00    -0.160 C  
HETATM   10  C   UNL     3      -9.867   4.304  68.832  1.00  0.00    -0.061 C  
HETATM   11  O   UNL     3      -9.734   4.750  71.275  1.00  0.00    -0.158 OA 
HETATM   12  H   UNL     3      -9.184   3.980  71.362  1.00  0.00     0.000 HD 
HETATM   13  O   UNL     3      -9.706   3.076  69.036  1.00  0.00    -0.070 OA 
HETATM   14  O   UNL     3     -10.493   4.803  67.832  1.00  0.00     0.001 OA 
ENDBRANCH   5   9
TORSDOF 1
ENDMDL
MODEL      250
REMARK 921   NORMALIZED FREE ENERGY PREDICTED BY IDOCK:   -0.68 KCAL/MOL
REMARK 922        TOTAL FREE ENERGY PREDICTED BY IDOCK:   -1.33 KCAL/MOL
REMARK 923 INTER-LIGAND FREE ENERGY PREDICTED BY IDOCK:   -2.35 KCAL/MOL
REMARK 924 INTRA-LIGAND FREE ENERGY PREDICTED BY IDOCK:    1.02 KCAL/MOL
REMARK 927      BINDING AFFINITY PREDICTED BY RF-SCORE:    0.00 PKD
ROOT
HETATM    1 NA   UNL     1      -9.810   2.777  70.486  1.00  0.00    -0.133 Na 
HETATM    2 NA   UNL     2      -6.883   5.790  66.063  1.00  0.00    -0.045 Na 
HETATM    3  O   UNL     3      -7.838   6.245  68.194  1.00  0.00    -0.102 OA 
HETATM    4  H   UNL     3      -7.432   5.572  68.728  1.00  0.00     0.000 HD 
HETATM    5  C   UNL     3      -9.243   5.891  67.969  1.00  0.00    -0.112 C  
HETATM    6  O   UNL     3      -9.948   4.570  69.803  1.00  0.00    -0.223 OA 
HETATM    7  C   UNL     3      -9.956   5.756  69.330  1.00  0.00    -0.187 C  
HETATM    8  O   UNL     3     -10.399   6.802  69.864  1.00  0.00    -0.193 OA 
ENDROOT
BRANCH   5   9
HETATM    9  C   UNL     3      -9.897   6.978  67.109  1.00  0.00    -0.173 C  
HETATM   10  C   UNL     3      -9.458   8.364  67.658  1.00  0.00    -0.149 C  
HETATM   11  O   UNL     3     -11.330   6.791  67.203  1.00  0.00    -0.708 OA 
HETATM   12  H   UNL     3     -11.735   7.464  66.670  1.00  0.00     0.000 HD 
HETATM   13  O   UNL     3     -10.230   9.343  67.509  1.00  0.00    -0.200 OA 
HETATM   14  O   UNL     3      -8.408   8.366  68.392  1.00  0.00    -0.128 OA 
ENDBRANCH   5   9
TORSDOF 1
ENDMDL
MODEL      251
REMARK 921   NORMALIZED FREE ENERGY PREDICTED BY IDOCK:   -0.68 KCAL/MOL
REMARK 922        TOTAL FREE ENERGY PREDICTED BY IDOCK:   -1.33 KCAL/MOL
REMARK 923 INTER-LIGAND FREE ENERGY PREDICTED BY IDOCK:   -2.23 KCAL/MOL
REMARK 924 INTRA-LIGAND FREE ENERGY PREDICTED BY IDOCK:    0.90 KCAL/MOL
REMARK 927      BINDING AFFINITY PREDICTED BY RF-SCORE:    0.00 PKD
ROOT
HETATM    1 NA   UNL     1     -12.014   7.221  66.977  1.00  0.00    -0.503 Na 
HETATM    2 NA   UNL     2      -7.620   8.980  70.824  1.00  0.00    -0.050 Na 
HETATM    3  O   UNL     3      -8.240   7.035  69.602  1.00  0.00    -0.127 OA 
HETATM    4  H   UNL     3      -8.345   7.391  68.728  1.00  0.00     0.000 HD 
HETATM    5  C   UNL     3      -9.566   6.747  70.161  1.00  0.00    -0.161 C  
HETATM    6  O   UNL     3     -11.022   6.305  68.346  1.00  0.00    -0.295 OA 
HETATM    7  C   UNL     3     -10.298   5.749  69.239  1.00  0.00    -0.257 C  
HETATM    8  O   UNL     3     -10.063   4.527  69.399  1.00  0.00    -0.193 OA 
ENDROOT
BRANCH   5   9
HETATM    9  C   UNL     3      -9.396   6.174  71.571  1.00  0.00    -0.148 C  
HETATM   10  C   UNL     3      -8.097   5.320  71.597  1.00  0.00    -0.116 C  
HETATM   11  O   UNL     3     -10.571   5.374  71.850  1.00  0.00    -0.221 OA 
HETATM   12  H   UNL     3     -10.466   5.020  72.725  1.00  0.00     0.000 HD 
HETATM   13  O   UNL     3      -8.025   4.357  72.400  1.00  0.00    -0.089 OA 
HETATM   14  O   UNL     3      -7.257   5.553  70.658  1.00  0.00    -0.068 OA 
ENDBRANCH   5   9
TORSDOF 1
ENDMDL
MODEL      252
REMARK 921   NORMALIZED FREE ENERGY PREDICTED BY IDOCK:   -0.12 KCAL/MOL
REMARK 922        TOTAL FREE ENERGY PREDICTED BY IDOCK:   -0.73 KCAL/MOL
REMARK 923 INTER-LIGAND FREE ENERGY PREDICTED BY IDOCK:   -1.62 KCAL/MOL
REMARK 924 INTRA-LIGAND FREE ENERGY PREDICTED BY IDOCK:    0.89 KCAL/MOL
REMARK 927      BINDING AFFINITY PREDICTED BY RF-SCORE:    0.00 PKD
ROOT
HETATM    1 NA   UNL     1      -9.154   4.492  63.072  1.00  0.00    -0.105 Na 
HETATM    2 NA   UNL     2     -10.823  10.340  63.547  1.00  0.00    -0.473 Na 
HETATM    3  O   UNL     3      -8.844   9.082  63.143  1.00  0.00    -0.399 OA 
HETATM    4  H   UNL     3      -9.128   8.511  62.438  1.00  0.00     0.000 HD 
HETATM    5  C   UNL     3      -8.737   8.297  64.377  1.00  0.00     0.201 C  
HETATM    6  O   UNL     3      -8.274   6.058  63.760  1.00  0.00    -0.107 OA 
HETATM    7  C   UNL     3      -7.735   7.145  64.159  1.00  0.00    -0.120 C  
HETATM    8  O   UNL     3      -6.515   7.394  64.318  1.00  0.00    -0.043 OA 
ENDROOT
BRANCH   5   9
HETATM    9  C   UNL     3      -8.280   9.219  65.513  1.00  0.00    -0.124 C  
HETATM   10  C   UNL     3      -7.231  10.213  64.941  1.00  0.00    -0.131 C  
HETATM   11  O   UNL     3      -7.715   8.374  66.545  1.00  0.00    -0.087 OA 
HETATM   12  H   UNL     3      -7.432   8.945  67.249  1.00  0.00     0.000 HD 
HETATM   13  O   UNL     3      -6.350  10.668  65.712  1.00  0.00    -0.122 OA 
HETATM   14  O   UNL     3      -7.234  10.356  63.669  1.00  0.00    -0.106 OA 
ENDBRANCH   5   9
TORSDOF 1
ENDMDL
MODEL      253
REMARK 921   NORMALIZED FREE ENERGY PREDICTED BY IDOCK:    0.04 KCAL/MOL
REMARK 922        TOTAL FREE ENERGY PREDICTED BY IDOCK:   -0.56 KCAL/MOL
REMARK 923 INTER-LIGAND FREE ENERGY PREDICTED BY IDOCK:   -0.35 KCAL/MOL
REMARK 924 INTRA-LIGAND FREE ENERGY PREDICTED BY IDOCK:   -0.21 KCAL/MOL
REMARK 927      BINDING AFFINITY PREDICTED BY RF-SCORE:    0.00 PKD
ROOT
HETATM    1 NA   UNL     1      -6.417  13.597  71.913  1.00  0.00    -0.322 Na 
HETATM    2 NA   UNL     2      -5.291   8.873  68.222  1.00  0.00    -0.030 Na 
HETATM    3  O   UNL     3      -5.921  11.160  68.042  1.00  0.00    -0.049 OA 
HETATM    4  H   UNL     3      -5.257  11.579  68.576  1.00  0.00     0.000 HD 
HETATM    5  C   UNL     3      -7.195  11.173  68.770  1.00  0.00    -0.098 C  
HETATM    6  O   UNL     3      -7.161  13.037  70.230  1.00  0.00     0.736 OA 
HETATM    7  C   UNL     3      -7.578  12.632  69.093  1.00  0.00     0.255 C  
HETATM    8  O   UNL     3      -8.181  13.286  68.208  1.00  0.00    -0.148 OA 
ENDROOT
BRANCH   5   9
HETATM    9  C   UNL     3      -8.266  10.497  67.909  1.00  0.00    -0.107 C  
HETATM   10  C   UNL     3      -9.200   9.680  68.845  1.00  0.00    -0.147 C  
HETATM   11  O   UNL     3      -7.576   9.647  66.961  1.00  0.00    -0.094 OA 
HETATM   12  H   UNL     3      -8.241   9.228  66.427  1.00  0.00     0.000 HD 
HETATM   13  O   UNL     3      -9.771   8.660  68.385  1.00  0.00    -0.156 OA 
HETATM   14  O   UNL     3      -9.175  10.008  70.083  1.00  0.00    -0.189 OA 
ENDBRANCH   5   9
TORSDOF 1
ENDMDL
MODEL      254
REMARK 921   NORMALIZED FREE ENERGY PREDICTED BY IDOCK:    0.65 KCAL/MOL
REMARK 922        TOTAL FREE ENERGY PREDICTED BY IDOCK:    0.09 KCAL/MOL
REMARK 923 INTER-LIGAND FREE ENERGY PREDICTED BY IDOCK:   -2.38 KCAL/MOL
REMARK 924 INTRA-LIGAND FREE ENERGY PREDICTED BY IDOCK:    2.47 KCAL/MOL
REMARK 927      BINDING AFFINITY PREDICTED BY RF-SCORE:    0.00 PKD
ROOT
HETATM    1 NA   UNL     1      -7.132  18.333  69.879  1.00  0.00    -0.191 Na 
HETATM    2 NA   UNL     2      -7.354  12.299  69.010  1.00  0.00    -0.091 Na 
HETATM    3  O   UNL     3      -7.001  14.270  67.724  1.00  0.00    -0.146 OA 
HETATM    4  H   UNL     3      -6.323  14.702  68.229  1.00  0.00     0.000 HD 
HETATM    5  C   UNL     3      -8.269  14.981  67.922  1.00  0.00    -0.141 C  
HETATM    6  O   UNL     3      -7.748  17.236  68.424  1.00  0.00    -0.226 OA 
HETATM    7  C   UNL     3      -8.099  16.450  67.481  1.00  0.00    -0.148 C  
HETATM    8  O   UNL     3      -8.244  16.714  66.262  1.00  0.00    -0.297 OA 
ENDROOT
BRANCH   5   9
HETATM    9  C   UNL     3      -9.362  14.283  67.107  1.00  0.00    -0.228 C  
HETATM   10  C   UNL     3      -8.945  12.799  66.904  1.00  0.00    -0.213 C  
HETATM   11  O   UNL     3      -9.470  14.988  65.847  1.00  0.00    -0.346 OA 
HETATM   12  H   UNL     3     -10.148  14.555  65.342  1.00  0.00     0.000 HD 
HETATM   13  O   UNL     3      -9.348  12.195  65.879  1.00  0.00    -0.217 OA 
HETATM   14  O   UNL     3      -8.062  12.352  67.717  1.00  0.00    -0.138 OA 
ENDBRANCH   5   9
TORSDOF 1
ENDMDL
MODEL      255
REMARK 921   NORMALIZED FREE ENERGY PREDICTED BY IDOCK:    0.73 KCAL/MOL
REMARK 922        TOTAL FREE ENERGY PREDICTED BY IDOCK:    0.16 KCAL/MOL
REMARK 923 INTER-LIGAND FREE ENERGY PREDICTED BY IDOCK:   -0.75 KCAL/MOL
REMARK 924 INTRA-LIGAND FREE ENERGY PREDICTED BY IDOCK:    0.92 KCAL/MOL
REMARK 927      BINDING AFFINITY PREDICTED BY RF-SCORE:    0.00 PKD
ROOT
HETATM    1 NA   UNL     1      -5.635  17.226  72.621  1.00  0.00    -0.063 Na 
HETATM    2 NA   UNL     2      -5.171  20.156  67.292  1.00  0.00    -0.153 Na 
HETATM    3  O   UNL     3      -6.839  19.037  68.567  1.00  0.00    -0.249 OA 
HETATM    4  H   UNL     3      -6.746  19.464  69.410  1.00  0.00     0.000 HD 
HETATM    5  C   UNL     3      -6.283  17.683  68.655  1.00  0.00    -0.187 C  
HETATM    6  O   UNL     3      -6.476  16.980  70.909  1.00  0.00     1.160 OA 
HETATM    7  C   UNL     3      -7.026  16.902  69.759  1.00  0.00     0.231 C  
HETATM    8  O   UNL     3      -8.106  16.341  69.451  1.00  0.00    -0.208 OA 
ENDROOT
BRANCH   5   9
HETATM    9  C   UNL     3      -6.433  16.995  67.295  1.00  0.00    -0.163 C  
HETATM   10  C   UNL     3      -7.742  17.508  66.631  1.00  0.00    -0.254 C  
HETATM   11  O   UNL     3      -6.479  15.569  67.542  1.00  0.00    -0.156 OA 
HETATM   12  H   UNL     3      -6.572  15.142  66.699  1.00  0.00     0.000 HD 
HETATM   13  O   UNL     3      -8.349  16.752  65.833  1.00  0.00    -0.463 OA 
HETATM   14  O   UNL     3      -8.206  18.609  67.092  1.00  0.00    -0.245 OA 
ENDBRANCH   5   9
TORSDOF 1
ENDMDL
MODEL      256
REMARK 921   NORMALIZED FREE ENERGY PREDICTED BY IDOCK:    1.16 KCAL/MOL
REMARK 922        TOTAL FREE ENERGY PREDICTED BY IDOCK:    0.62 KCAL/MOL
REMARK 923 INTER-LIGAND FREE ENERGY PREDICTED BY IDOCK:    0.92 KCAL/MOL
REMARK 924 INTRA-LIGAND FREE ENERGY PREDICTED BY IDOCK:   -0.30 KCAL/MOL
REMARK 927      BINDING AFFINITY PREDICTED BY RF-SCORE:    0.00 PKD
ROOT
HETATM    1 NA   UNL     1     -11.449   9.358  73.120  1.00  0.00     0.203 Na 
HETATM    2 NA   UNL     2      -8.413  12.024  68.550  1.00  0.00    -0.126 Na 
HETATM    3  O   UNL     3     -10.647  11.394  69.073  1.00  0.00    -0.209 OA 
HETATM    4  H   UNL     3     -10.755  11.788  69.931  1.00  0.00     0.000 HD 
HETATM    5  C   UNL     3     -10.515   9.942  69.229  1.00  0.00    -0.221 C  
HETATM    6  O   UNL     3     -11.661   9.331  71.209  1.00  0.00    -0.295 OA 
HETATM    7  C   UNL     3     -11.770   9.392  69.938  1.00  0.00     0.151 C  
HETATM    8  O   UNL     3     -12.774   9.134  69.231  1.00  0.00     2.241 OA 
ENDROOT
BRANCH   5   9
HETATM    9  C   UNL     3     -10.340   9.308  67.845  1.00  0.00    -0.227 C  
HETATM   10  C   UNL     3      -8.842   8.934  67.666  1.00  0.00    -0.134 C  
HETATM   11  O   UNL     3     -10.769  10.290  66.870  1.00  0.00    -0.239 OA 
HETATM   12  H   UNL     3     -10.661   9.897  66.012  1.00  0.00     0.000 HD 
HETATM   13  O   UNL     3      -8.358   8.921  66.507  1.00  0.00    -0.112 OA 
HETATM   14  O   UNL     3      -8.158   8.842  68.745  1.00  0.00    -0.110 OA 
ENDBRANCH   5   9
TORSDOF 1
ENDMDL
MODEL      257
REMARK 921   NORMALIZED FREE ENERGY PREDICTED BY IDOCK:    1.28 KCAL/MOL
REMARK 922        TOTAL FREE ENERGY PREDICTED BY IDOCK:    0.75 KCAL/MOL
REMARK 923 INTER-LIGAND FREE ENERGY PREDICTED BY IDOCK:   -0.72 KCAL/MOL
REMARK 924 INTRA-LIGAND FREE ENERGY PREDICTED BY IDOCK:    1.46 KCAL/MOL
REMARK 927      BINDING AFFINITY PREDICTED BY RF-SCORE:    0.00 PKD
ROOT
HETATM    1 NA   UNL     1      -6.557  18.175  65.410  1.00  0.00    -0.188 Na 
HETATM    2 NA   UNL     2      -6.686  12.114  66.086  1.00  0.00    -0.347 Na 
HETATM    3  O   UNL     3      -8.205  13.884  65.618  1.00  0.00     1.490 OA 
HETATM    4  H   UNL     3      -7.764  14.323  64.900  1.00  0.00     0.000 HD 
HETATM    5  C   UNL     3      -8.081  14.707  66.826  1.00  0.00     0.123 C  
HETATM    6  O   UNL     3      -7.861  16.961  66.134  1.00  0.00    -0.309 OA 
HETATM    7  C   UNL     3      -8.698  16.095  66.560  1.00  0.00    -0.302 C  
HETATM    8  O   UNL     3      -9.938  16.222  66.710  1.00  0.00    -0.244 OA 
ENDROOT
BRANCH   5   9
HETATM    9  C   UNL     3      -8.792  13.998  67.984  1.00  0.00    -0.181 C  
HETATM   10  C   UNL     3      -9.381  12.663  67.449  1.00  0.00    -0.189 C  
HETATM   11  O   UNL     3      -9.829  14.892  68.456  1.00  0.00    -0.205 OA 
HETATM   12  H   UNL     3     -10.269  14.454  69.174  1.00  0.00     0.000 HD 
HETATM   13  O   UNL     3     -10.410  12.196  67.997  1.00  0.00    -0.193 OA 
HETATM   14  O   UNL     3      -8.871  12.225  66.359  1.00  0.00    -0.172 OA 
ENDBRANCH   5   9
TORSDOF 1
ENDMDL
MODEL      258
REMARK 921   NORMALIZED FREE ENERGY PREDICTED BY IDOCK:    9.46 KCAL/MOL
REMARK 922        TOTAL FREE ENERGY PREDICTED BY IDOCK:    9.41 KCAL/MOL
REMARK 923 INTER-LIGAND FREE ENERGY PREDICTED BY IDOCK:    4.03 KCAL/MOL
REMARK 924 INTRA-LIGAND FREE ENERGY PREDICTED BY IDOCK:    5.38 KCAL/MOL
REMARK 927      BINDING AFFINITY PREDICTED BY RF-SCORE:    0.00 PKD
ROOT
HETATM    1 NA   UNL     1      -9.404  14.114  73.112  1.00  0.00     1.953 Na 
HETATM    2 NA   UNL     2      -7.698  11.199  68.033  1.00  0.00    -0.088 Na 
HETATM    3  O   UNL     3      -7.463  13.355  69.010  1.00  0.00    -0.262 OA 
HETATM    4  H   UNL     3      -7.141  13.133  69.876  1.00  0.00     0.000 HD 
HETATM    5  C   UNL     3      -8.861  13.784  69.118  1.00  0.00     0.436 C  
HETATM    6  O   UNL     3      -9.167  14.679  71.289  1.00  0.00     2.655 OA 
HETATM    7  C   UNL     3      -8.949  14.994  70.071  1.00  0.00     0.429 C  
HETATM    8  O   UNL     3      -8.730  16.133  69.590  1.00  0.00    -0.079 OA 
ENDROOT
BRANCH   5   9
HETATM    9  C   UNL     3      -9.379  14.142  67.721  1.00  0.00    -0.200 C  
HETATM   10  C   UNL     3      -9.035  15.632  67.441  1.00  0.00    -0.194 C  
HETATM   11  O   UNL     3     -10.810  13.913  67.726  1.00  0.00    -0.246 OA 
HETATM   12  H   UNL     3     -11.131  14.134  66.860  1.00  0.00     0.000 HD 
HETATM   13  O   UNL     3      -9.778  16.287  66.670  1.00  0.00    -0.229 OA 
HETATM   14  O   UNL     3      -8.109  16.136  68.169  1.00  0.00    -0.145 OA 
ENDBRANCH   5   9
TORSDOF 1
ENDMDL
