MODEL        1
REMARK 921   NORMALIZED FREE ENERGY PREDICTED BY IDOCK:   -4.44 KCAL/MOL
REMARK 922        TOTAL FREE ENERGY PREDICTED BY IDOCK:  -21.78 KCAL/MOL
REMARK 923 INTER-LIGAND FREE ENERGY PREDICTED BY IDOCK:  -14.83 KCAL/MOL
REMARK 924 INTRA-LIGAND FREE ENERGY PREDICTED BY IDOCK:   -6.95 KCAL/MOL
REMARK 927      BINDING AFFINITY PREDICTED BY RF-SCORE:    0.00 PKD
ROOT
HETATM    1 NA   UNL     1     -11.218  10.799  70.348  1.00  0.00    -0.226 Na 
HETATM    2  C   UNL     2      -8.154  10.168  67.985  1.00  0.00    -0.112 C  
ENDROOT
BRANCH   2   3
HETATM    3  C   UNL     2      -8.663  10.019  69.412  1.00  0.00    -0.186 C  
BRANCH   3   4
HETATM    4  O   UNL     2      -8.136   8.926  70.139  1.00  0.00    -0.101 OA 
BRANCH   4   5
HETATM    5  P   UNL     2      -9.236   7.982  71.084  1.00  0.00    -0.162 P  
HETATM    6  O   UNL     2      -9.945   7.485  69.775  1.00  0.00    -0.182 OA 
HETATM    7  O   UNL     2      -9.755   9.305  71.659  1.00  0.00    -0.257 OA 
BRANCH   5   8
HETATM    8  O   UNL     2     -10.336   7.038  72.029  1.00  0.00    -0.197 OA 
BRANCH   8   9
HETATM    9  C   UNL     2     -11.482   7.696  72.577  1.00  0.00    -0.352 C  
BRANCH   9  10
HETATM   10  C   UNL     2     -12.700   7.822  71.623  1.00  0.00    -0.335 C  
HETATM   11  H   UNL     2     -14.366   6.794  71.166  1.00  0.00     0.000 HD 
HETATM   12  O   UNL     2     -13.620   6.717  71.750  1.00  0.00    -0.264 OA 
BRANCH  10  13
HETATM   13  C   UNL     2     -13.447   9.134  71.918  1.00  0.00    -0.430 C  
HETATM   14  O   UNL     2     -14.271   9.031  73.084  1.00  0.00    -1.142 OA 
HETATM   15  H   UNL     2     -14.732   9.841  73.265  1.00  0.00     0.000 HD 
ENDBRANCH  10  13
ENDBRANCH   9  10
ENDBRANCH   8   9
ENDBRANCH   5   8
ENDBRANCH   4   5
ENDBRANCH   3   4
ENDBRANCH   2   3
BRANCH   2  16
HETATM   16  C   UNL     2      -6.719  10.663  67.900  1.00  0.00    -0.064 C  
BRANCH  16  17
HETATM   17  O   UNL     2      -6.606  12.044  67.564  1.00  0.00    -0.094 OA 
BRANCH  17  18
HETATM   18  C   UNL     2      -6.754  12.956  68.565  1.00  0.00    -0.091 C  
HETATM   19  O   UNL     2      -6.101  12.992  69.600  1.00  0.00    -0.108 OA 
BRANCH  18  20
HETATM   20  C   UNL     2      -7.899  13.852  68.224  1.00  0.00    -0.146 C  
BRANCH  20  21
HETATM   21  C   UNL     2      -8.102  14.815  69.361  1.00  0.00    -0.039 C  
BRANCH  21  22
HETATM   22  C   UNL     2      -8.067  16.248  68.861  1.00  0.00    -0.231 C  
BRANCH  22  23
HETATM   23  C   UNL     2      -6.910  16.425  67.892  1.00  0.00    -0.152 C  
BRANCH  23  24
HETATM   24  C   UNL     2      -5.932  17.453  68.430  1.00  0.00    -0.159 C  
BRANCH  24  25
HETATM   25  C   UNL     2      -6.688  18.601  69.075  1.00  0.00    -0.296 C  
BRANCH  25  26
HETATM   26  C   UNL     2      -6.612  19.837  68.195  1.00  0.00    -0.296 C  
BRANCH  26  27
HETATM   27  C   UNL     2      -8.002  20.415  67.981  1.00  0.00    -0.106 C  
BRANCH  27  28
HETATM   28  C   UNL     2      -8.990  19.774  68.942  1.00  0.00    -0.173 C  
BRANCH  28  29
HETATM   29  C   UNL     2     -10.251  19.348  68.205  1.00  0.00    -0.537 C  
BRANCH  29  30
HETATM   30  C   UNL     2     -10.359  20.079  66.874  1.00  0.00    -0.567 C  
BRANCH  30  31
HETATM   31  C   UNL     2     -10.565  19.091  65.731  1.00  0.00    -0.388 C  
BRANCH  31  32
HETATM   32  C   UNL     2      -9.711  17.844  65.939  1.00  0.00    -0.016 C  
BRANCH  32  33
HETATM   33  C   UNL     2     -10.546  16.577  65.780  1.00  0.00    -0.307 C  
HETATM   34  C   UNL     2      -9.667  15.382  65.457  1.00  0.00    -0.318 C  
ENDBRANCH  32  33
ENDBRANCH  31  32
ENDBRANCH  30  31
ENDBRANCH  29  30
ENDBRANCH  28  29
ENDBRANCH  27  28
ENDBRANCH  26  27
ENDBRANCH  25  26
ENDBRANCH  24  25
ENDBRANCH  23  24
ENDBRANCH  22  23
ENDBRANCH  21  22
ENDBRANCH  20  21
ENDBRANCH  18  20
ENDBRANCH  17  18
ENDBRANCH  16  17
ENDBRANCH   2  16
BRANCH   2  35
HETATM   35  O   UNL     2      -8.226   8.902  67.305  1.00  0.00    -0.104 OA 
BRANCH  35  36
HETATM   36  C   UNL     2      -8.455   8.977  65.963  1.00  0.00    -0.130 C  
HETATM   37  O   UNL     2      -7.777   8.436  65.086  1.00  0.00    -0.087 OA 
BRANCH  36  38
HETATM   38  C   UNL     2      -9.717   9.724  65.730  1.00  0.00    -0.340 C  
BRANCH  38  39
HETATM   39  C   UNL     2      -9.709  10.338  64.355  1.00  0.00    -0.381 C  
BRANCH  39  40
HETATM   40  C   UNL     2      -9.860  11.845  64.446  1.00  0.00    -0.203 C  
BRANCH  40  41
HETATM   41  C   UNL     2     -10.804  12.325  63.354  1.00  0.00    -0.457 C  
BRANCH  41  42
HETATM   42  C   UNL     2     -11.823  13.304  63.912  1.00  0.00    -0.522 C  
BRANCH  42  43
HETATM   43  C   UNL     2     -12.531  12.688  65.109  1.00  0.00    -0.531 C  
BRANCH  43  44
HETATM   44  C   UNL     2     -12.314  13.548  66.344  1.00  0.00    -0.413 C  
BRANCH  44  45
HETATM   45  C   UNL     2     -11.712  12.722  67.471  1.00  0.00    -0.422 C  
BRANCH  45  46
HETATM   46  C   UNL     2     -11.672  13.536  68.757  1.00  0.00    -0.373 C  
BRANCH  46  47
HETATM   47  C   UNL     2     -11.682  15.027  68.448  1.00  0.00    -0.341 C  
BRANCH  47  48
HETATM   48  C   UNL     2     -11.609  15.838  69.736  1.00  0.00    -0.359 C  
BRANCH  48  49
HETATM   49  C   UNL     2     -11.663  14.924  70.955  1.00  0.00    -0.374 C  
BRANCH  49  50
HETATM   50  C   UNL     2     -12.826  15.306  71.866  1.00  0.00    -0.447 C  
BRANCH  50  51
HETATM   51  C   UNL     2     -12.742  14.572  73.200  1.00  0.00    -0.497 C  
HETATM   52  C   UNL     2     -12.364  15.521  74.324  1.00  0.00    -0.815 C  
ENDBRANCH  50  51
ENDBRANCH  49  50
ENDBRANCH  48  49
ENDBRANCH  47  48
ENDBRANCH  46  47
ENDBRANCH  45  46
ENDBRANCH  44  45
ENDBRANCH  43  44
ENDBRANCH  42  43
ENDBRANCH  41  42
ENDBRANCH  40  41
ENDBRANCH  39  40
ENDBRANCH  38  39
ENDBRANCH  36  38
ENDBRANCH  35  36
ENDBRANCH   2  35
TORSDOF 40
ENDMDL
MODEL        2
REMARK 921   NORMALIZED FREE ENERGY PREDICTED BY IDOCK:   -4.26 KCAL/MOL
REMARK 922        TOTAL FREE ENERGY PREDICTED BY IDOCK:  -21.17 KCAL/MOL
REMARK 923 INTER-LIGAND FREE ENERGY PREDICTED BY IDOCK:  -14.67 KCAL/MOL
REMARK 924 INTRA-LIGAND FREE ENERGY PREDICTED BY IDOCK:   -6.49 KCAL/MOL
REMARK 927      BINDING AFFINITY PREDICTED BY RF-SCORE:    0.00 PKD
ROOT
HETATM    1 NA   UNL     1      -8.363  16.220  65.519  1.00  0.00    -0.282 Na 
HETATM    2  C   UNL     2      -8.276  12.577  66.967  1.00  0.00    -0.125 C  
ENDROOT
BRANCH   2   3
HETATM    3  C   UNL     2      -8.300  14.053  67.340  1.00  0.00    -0.196 C  
BRANCH   3   4
HETATM    4  O   UNL     2      -7.208  14.506  68.117  1.00  0.00    -0.106 OA 
BRANCH   4   5
HETATM    5  P   UNL     2      -7.139  16.191  68.503  1.00  0.00    -0.157 P  
HETATM    6  O   UNL     2      -6.412  16.481  67.142  1.00  0.00    -0.164 OA 
HETATM    7  O   UNL     2      -6.227  15.806  69.673  1.00  0.00    -0.150 OA 
BRANCH   5   8
HETATM    8  O   UNL     2      -7.069  17.877  68.888  1.00  0.00    -0.261 OA 
BRANCH   8   9
HETATM    9  C   UNL     2      -7.754  18.789  68.025  1.00  0.00    -0.263 C  
BRANCH   9  10
HETATM   10  C   UNL     2      -9.258  18.486  67.790  1.00  0.00    -0.281 C  
HETATM   11  H   UNL     2     -11.033  18.956  68.606  1.00  0.00     0.000 HD 
HETATM   12  O   UNL     2     -10.112  19.142  68.750  1.00  0.00    -0.400 OA 
BRANCH  10  13
HETATM   13  C   UNL     2      -9.656  18.937  66.374  1.00  0.00    -0.351 C  
HETATM   14  O   UNL     2     -10.291  17.887  65.637  1.00  0.00    -0.605 OA 
HETATM   15  H   UNL     2     -10.536  18.165  64.762  1.00  0.00     0.000 HD 
ENDBRANCH  10  13
ENDBRANCH   9  10
ENDBRANCH   8   9
ENDBRANCH   5   8
ENDBRANCH   4   5
ENDBRANCH   3   4
ENDBRANCH   2   3
BRANCH   2  16
HETATM   16  C   UNL     2      -7.305  11.756  67.800  1.00  0.00    -0.106 C  
BRANCH  16  17
HETATM   17  O   UNL     2      -7.879  11.219  68.991  1.00  0.00    -0.135 OA 
BRANCH  17  18
HETATM   18  C   UNL     2      -7.945   9.864  69.109  1.00  0.00    -0.112 C  
HETATM   19  O   UNL     2      -7.381   9.056  68.383  1.00  0.00    -0.077 OA 
BRANCH  18  20
HETATM   20  C   UNL     2      -8.885   9.531  70.221  1.00  0.00    -0.281 C  
BRANCH  20  21
HETATM   21  C   UNL     2      -8.148   8.690  71.228  1.00  0.00    -0.182 C  
BRANCH  21  22
HETATM   22  C   UNL     2      -9.050   8.346  72.399  1.00  0.00    -0.326 C  
BRANCH  22  23
HETATM   23  C   UNL     2     -10.492   8.670  72.049  1.00  0.00    -0.422 C  
BRANCH  23  24
HETATM   24  C   UNL     2     -11.435   7.828  72.888  1.00  0.00    -0.359 C  
BRANCH  24  25
HETATM   25  C   UNL     2     -10.712   6.594  73.399  1.00  0.00    -0.315 C  
BRANCH  25  26
HETATM   26  C   UNL     2     -11.063   5.390  72.541  1.00  0.00    -0.310 C  
BRANCH  26  27
HETATM   27  C   UNL     2      -9.796   4.698  72.066  1.00  0.00    -0.239 C  
BRANCH  27  28
HETATM   28  C   UNL     2      -9.785   4.606  70.550  1.00  0.00    -0.284 C  
BRANCH  28  29
HETATM   29  C   UNL     2     -10.764   5.604  69.948  1.00  0.00    -0.399 C  
BRANCH  29  30
HETATM   30  C   UNL     2     -10.053   6.510  68.953  1.00  0.00    -0.183 C  
BRANCH  30  31
HETATM   31  C   UNL     2     -10.911   6.726  67.711  1.00  0.00    -0.339 C  
BRANCH  31  32
HETATM   32  C   UNL     2     -10.178   6.246  66.462  1.00  0.00    -0.163 C  
BRANCH  32  33
HETATM   33  C   UNL     2     -10.494   4.782  66.172  1.00  0.00    -0.332 C  
HETATM   34  C   UNL     2      -9.471   4.180  65.225  1.00  0.00    -0.173 C  
ENDBRANCH  32  33
ENDBRANCH  31  32
ENDBRANCH  30  31
ENDBRANCH  29  30
ENDBRANCH  28  29
ENDBRANCH  27  28
ENDBRANCH  26  27
ENDBRANCH  25  26
ENDBRANCH  24  25
ENDBRANCH  23  24
ENDBRANCH  22  23
ENDBRANCH  21  22
ENDBRANCH  20  21
ENDBRANCH  18  20
ENDBRANCH  17  18
ENDBRANCH  16  17
ENDBRANCH   2  16
BRANCH   2  35
HETATM   35  O   UNL     2      -9.588  12.010  67.128  1.00  0.00    -0.187 OA 
BRANCH  35  36
HETATM   36  C   UNL     2      -9.926  11.060  66.210  1.00  0.00    -0.224 C  
HETATM   37  O   UNL     2     -10.348   9.930  66.466  1.00  0.00    -0.228 OA 
BRANCH  36  38
HETATM   38  C   UNL     2      -9.809  11.643  64.849  1.00  0.00    -0.267 C  
BRANCH  38  39
HETATM   39  C   UNL     2     -10.650  12.888  64.744  1.00  0.00    -0.362 C  
BRANCH  39  40
HETATM   40  C   UNL     2     -12.087  12.591  65.134  1.00  0.00    -0.503 C  
BRANCH  40  41
HETATM   41  C   UNL     2     -12.685  13.809  65.821  1.00  0.00    -0.494 C  
BRANCH  41  42
HETATM   42  C   UNL     2     -12.235  13.886  67.270  1.00  0.00    -0.324 C  
BRANCH  42  43
HETATM   43  C   UNL     2     -11.522  15.206  67.522  1.00  0.00    -0.306 C  
BRANCH  43  44
HETATM   44  C   UNL     2     -11.979  15.804  68.842  1.00  0.00    -0.268 C  
BRANCH  44  45
HETATM   45  C   UNL     2     -10.905  15.636  69.906  1.00  0.00    -0.324 C  
BRANCH  45  46
HETATM   46  C   UNL     2     -11.542  15.530  71.285  1.00  0.00    -0.462 C  
BRANCH  46  47
HETATM   47  C   UNL     2     -13.058  15.451  71.171  1.00  0.00    -0.565 C  
BRANCH  47  48
HETATM   48  C   UNL     2     -13.563  14.114  71.701  1.00  0.00    -0.446 C  
BRANCH  48  49
HETATM   49  C   UNL     2     -12.674  12.972  71.220  1.00  0.00    -0.385 C  
BRANCH  49  50
HETATM   50  C   UNL     2     -13.150  11.640  71.793  1.00  0.00    -0.487 C  
BRANCH  50  51
HETATM   51  C   UNL     2     -12.993  10.518  70.771  1.00  0.00    -0.413 C  
HETATM   52  C   UNL     2     -12.255  11.001  69.535  1.00  0.00    -0.352 C  
ENDBRANCH  50  51
ENDBRANCH  49  50
ENDBRANCH  48  49
ENDBRANCH  47  48
ENDBRANCH  46  47
ENDBRANCH  45  46
ENDBRANCH  44  45
ENDBRANCH  43  44
ENDBRANCH  42  43
ENDBRANCH  41  42
ENDBRANCH  40  41
ENDBRANCH  39  40
ENDBRANCH  38  39
ENDBRANCH  36  38
ENDBRANCH  35  36
ENDBRANCH   2  35
TORSDOF 40
ENDMDL
MODEL        3
REMARK 921   NORMALIZED FREE ENERGY PREDICTED BY IDOCK:   -4.19 KCAL/MOL
REMARK 922        TOTAL FREE ENERGY PREDICTED BY IDOCK:  -20.95 KCAL/MOL
REMARK 923 INTER-LIGAND FREE ENERGY PREDICTED BY IDOCK:  -14.95 KCAL/MOL
REMARK 924 INTRA-LIGAND FREE ENERGY PREDICTED BY IDOCK:   -5.99 KCAL/MOL
REMARK 927      BINDING AFFINITY PREDICTED BY RF-SCORE:    0.00 PKD
ROOT
HETATM    1 NA   UNL     1      -7.976  13.629  68.418  1.00  0.00    -0.104 Na 
HETATM    2  C   UNL     2     -10.235  10.429  68.587  1.00  0.00    -0.181 C  
ENDROOT
BRANCH   2   3
HETATM    3  C   UNL     2     -10.252  11.946  68.455  1.00  0.00    -0.204 C  
BRANCH   3   4
HETATM    4  O   UNL     2     -11.533  12.541  68.394  1.00  0.00    -0.264 OA 
BRANCH   4   5
HETATM    5  P   UNL     2     -11.863  13.854  69.471  1.00  0.00    -0.348 P  
HETATM    6  O   UNL     2     -10.445  14.460  69.179  1.00  0.00    -0.238 OA 
HETATM    7  O   UNL     2     -11.921  12.814  70.596  1.00  0.00    -0.300 OA 
BRANCH   5   8
HETATM    8  O   UNL     2     -12.192  15.167  70.549  1.00  0.00    -0.293 OA 
BRANCH   8   9
HETATM    9  C   UNL     2     -13.546  15.365  70.968  1.00  0.00    -0.395 C  
BRANCH   9  10
HETATM   10  C   UNL     2     -13.844  15.015  72.450  1.00  0.00    -0.493 C  
HETATM   11  H   UNL     2     -14.538  13.462  73.520  1.00  0.00     0.000 HD 
HETATM   12  O   UNL     2     -14.355  13.676  72.612  1.00  0.00    -0.703 OA 
BRANCH  10  13
HETATM   13  C   UNL     2     -12.558  15.166  73.280  1.00  0.00    -0.499 C  
HETATM   14  O   UNL     2     -12.700  16.144  74.315  1.00  0.00    -0.770 OA 
HETATM   15  H   UNL     2     -11.906  16.237  74.828  1.00  0.00     0.000 HD 
ENDBRANCH  10  13
ENDBRANCH   9  10
ENDBRANCH   8   9
ENDBRANCH   5   8
ENDBRANCH   4   5
ENDBRANCH   3   4
ENDBRANCH   2   3
BRANCH   2  16
HETATM   16  C   UNL     2     -11.297   9.890  69.531  1.00  0.00    -0.124 C  
BRANCH  16  17
HETATM   17  O   UNL     2     -10.865   9.791  70.887  1.00  0.00    -0.310 OA 
BRANCH  17  18
HETATM   18  C   UNL     2      -9.890   8.886  71.178  1.00  0.00    -0.275 C  
HETATM   19  O   UNL     2      -8.737   9.154  71.488  1.00  0.00    -0.334 OA 
BRANCH  18  20
HETATM   20  C   UNL     2     -10.443   7.513  70.976  1.00  0.00    -0.222 C  
BRANCH  20  21
HETATM   21  C   UNL     2      -9.334   6.623  70.485  1.00  0.00    -0.167 C  
BRANCH  21  22
HETATM   22  C   UNL     2      -9.429   6.430  68.983  1.00  0.00    -0.131 C  
BRANCH  22  23
HETATM   23  C   UNL     2     -10.889   6.396  68.561  1.00  0.00    -0.382 C  
BRANCH  23  24
HETATM   24  C   UNL     2     -10.993   6.304  67.050  1.00  0.00    -0.442 C  
BRANCH  24  25
HETATM   25  C   UNL     2      -9.705   5.743  66.474  1.00  0.00    -0.185 C  
BRANCH  25  26
HETATM   26  C   UNL     2      -9.974   4.413  65.790  1.00  0.00    -0.251 C  
BRANCH  26  27
HETATM   27  C   UNL     2      -8.698   3.590  65.725  1.00  0.00    -0.121 C  
BRANCH  27  28
HETATM   28  C   UNL     2      -8.042   3.529  67.094  1.00  0.00    -0.087 C  
BRANCH  28  29
HETATM   29  C   UNL     2      -8.516   2.301  67.858  1.00  0.00    -0.094 C  
BRANCH  29  30
HETATM   30  C   UNL     2      -8.888   2.675  69.286  1.00  0.00    -0.151 C  
BRANCH  30  31
HETATM   31  C   UNL     2      -7.640   2.988  70.104  1.00  0.00    -0.043 C  
BRANCH  31  32
HETATM   32  C   UNL     2      -7.995   3.179  71.575  1.00  0.00    -0.056 C  
BRANCH  32  33
HETATM   33  C   UNL     2      -9.506   3.280  71.763  1.00  0.00    -0.215 C  
HETATM   34  C   UNL     2      -9.861   3.475  73.226  1.00  0.00    -0.172 C  
ENDBRANCH  32  33
ENDBRANCH  31  32
ENDBRANCH  30  31
ENDBRANCH  29  30
ENDBRANCH  28  29
ENDBRANCH  27  28
ENDBRANCH  26  27
ENDBRANCH  25  26
ENDBRANCH  24  25
ENDBRANCH  23  24
ENDBRANCH  22  23
ENDBRANCH  21  22
ENDBRANCH  20  21
ENDBRANCH  18  20
ENDBRANCH  17  18
ENDBRANCH  16  17
ENDBRANCH   2  16
BRANCH   2  35
HETATM   35  O   UNL     2     -10.441   9.823  67.298  1.00  0.00    -0.238 OA 
BRANCH  35  36
HETATM   36  C   UNL     2      -9.310   9.625  66.563  1.00  0.00    -0.165 C  
HETATM   37  O   UNL     2      -8.232   9.213  66.998  1.00  0.00    -0.114 OA 
BRANCH  36  38
HETATM   38  C   UNL     2      -9.614   9.880  65.132  1.00  0.00    -0.367 C  
BRANCH  38  39
HETATM   39  C   UNL     2     -10.299  11.213  64.977  1.00  0.00    -0.362 C  
BRANCH  39  40
HETATM   40  C   UNL     2     -10.963  11.312  63.616  1.00  0.00    -0.369 C  
BRANCH  40  41
HETATM   41  C   UNL     2     -12.075  12.350  63.672  1.00  0.00    -0.648 C  
BRANCH  41  42
HETATM   42  C   UNL     2     -12.371  12.746  65.108  1.00  0.00    -0.555 C  
BRANCH  42  43
HETATM   43  C   UNL     2     -12.579  14.250  65.198  1.00  0.00    -0.384 C  
BRANCH  43  44
HETATM   44  C   UNL     2     -11.331  14.980  64.728  1.00  0.00    -0.409 C  
BRANCH  44  45
HETATM   45  C   UNL     2     -10.257  14.949  65.805  1.00  0.00    -0.358 C  
BRANCH  45  46
HETATM   46  C   UNL     2      -9.489  16.264  65.819  1.00  0.00    -0.229 C  
BRANCH  46  47
HETATM   47  C   UNL     2      -8.203  16.126  66.622  1.00  0.00    -0.321 C  
BRANCH  47  48
HETATM   48  C   UNL     2      -7.574  17.493  66.860  1.00  0.00    -0.245 C  
BRANCH  48  49
HETATM   49  C   UNL     2      -8.533  18.405  67.617  1.00  0.00    -0.264 C  
BRANCH  49  50
HETATM   50  C   UNL     2      -8.619  19.773  66.947  1.00  0.00    -0.380 C  
BRANCH  50  51
HETATM   51  C   UNL     2     -10.067  20.242  66.843  1.00  0.00    -0.565 C  
HETATM   52  C   UNL     2     -11.015  19.239  67.478  1.00  0.00    -0.426 C  
ENDBRANCH  50  51
ENDBRANCH  49  50
ENDBRANCH  48  49
ENDBRANCH  47  48
ENDBRANCH  46  47
ENDBRANCH  45  46
ENDBRANCH  44  45
ENDBRANCH  43  44
ENDBRANCH  42  43
ENDBRANCH  41  42
ENDBRANCH  40  41
ENDBRANCH  39  40
ENDBRANCH  38  39
ENDBRANCH  36  38
ENDBRANCH  35  36
ENDBRANCH   2  35
TORSDOF 40
ENDMDL
MODEL        4
REMARK 921   NORMALIZED FREE ENERGY PREDICTED BY IDOCK:   -4.15 KCAL/MOL
REMARK 922        TOTAL FREE ENERGY PREDICTED BY IDOCK:  -20.79 KCAL/MOL
REMARK 923 INTER-LIGAND FREE ENERGY PREDICTED BY IDOCK:  -14.36 KCAL/MOL
REMARK 924 INTRA-LIGAND FREE ENERGY PREDICTED BY IDOCK:   -6.43 KCAL/MOL
REMARK 927      BINDING AFFINITY PREDICTED BY RF-SCORE:    0.00 PKD
ROOT
HETATM    1 NA   UNL     1     -11.752   7.622  67.565  1.00  0.00    -0.473 Na 
HETATM    2  C   UNL     2      -9.949  10.192  65.215  1.00  0.00    -0.311 C  
ENDROOT
BRANCH   2   3
HETATM    3  C   UNL     2     -10.503   9.979  66.617  1.00  0.00    -0.174 C  
BRANCH   3   4
HETATM    4  O   UNL     2      -9.603  10.240  67.677  1.00  0.00    -0.150 OA 
BRANCH   4   5
HETATM    5  P   UNL     2     -10.211  10.136  69.293  1.00  0.00    -0.251 P  
HETATM    6  O   UNL     2     -10.150   8.569  69.223  1.00  0.00    -0.191 OA 
HETATM    7  O   UNL     2     -11.502  10.774  68.766  1.00  0.00    -0.269 OA 
BRANCH   5   8
HETATM    8  O   UNL     2     -10.819  10.032  70.910  1.00  0.00    -0.319 OA 
BRANCH   8   9
HETATM    9  C   UNL     2     -12.236   9.941  71.087  1.00  0.00    -0.373 C  
BRANCH   9  10
HETATM   10  C   UNL     2     -12.785   8.515  71.363  1.00  0.00    -0.271 C  
HETATM   11  H   UNL     2     -12.292   6.897  72.448  1.00  0.00     0.000 HD 
HETATM   12  O   UNL     2     -11.956   7.770  72.279  1.00  0.00    -0.310 OA 
BRANCH  10  13
HETATM   13  C   UNL     2     -14.207   8.617  71.941  1.00  0.00    -0.427 C  
HETATM   14  O   UNL     2     -14.197   8.763  73.365  1.00  0.00    -1.173 OA 
HETATM   15  H   UNL     2     -15.075   8.825  73.722  1.00  0.00     0.000 HD 
ENDBRANCH  10  13
ENDBRANCH   9  10
ENDBRANCH   8   9
ENDBRANCH   5   8
ENDBRANCH   4   5
ENDBRANCH   3   4
ENDBRANCH   2   3
BRANCH   2  16
HETATM   16  C   UNL     2     -10.277  11.556  64.632  1.00  0.00    -0.285 C  
BRANCH  16  17
HETATM   17  O   UNL     2     -11.525  12.087  65.074  1.00  0.00    -0.320 OA 
BRANCH  17  18
HETATM   18  C   UNL     2     -12.375  12.580  64.132  1.00  0.00    -0.462 C  
HETATM   19  O   UNL     2     -13.051  11.911  63.359  1.00  0.00    -0.710 OA 
BRANCH  18  20
HETATM   20  C   UNL     2     -12.283  14.070  64.144  1.00  0.00    -0.433 C  
BRANCH  20  21
HETATM   21  C   UNL     2     -11.973  14.514  65.548  1.00  0.00    -0.312 C  
BRANCH  21  22
HETATM   22  C   UNL     2     -10.927  15.613  65.543  1.00  0.00    -0.307 C  
BRANCH  22  23
HETATM   23  C   UNL     2      -9.540  15.001  65.650  1.00  0.00    -0.279 C  
BRANCH  23  24
HETATM   24  C   UNL     2      -8.555  16.031  66.172  1.00  0.00    -0.315 C  
BRANCH  24  25
HETATM   25  C   UNL     2      -9.303  17.236  66.714  1.00  0.00    -0.272 C  
BRANCH  25  26
HETATM   26  C   UNL     2      -9.227  17.261  68.231  1.00  0.00    -0.265 C  
BRANCH  26  27
HETATM   27  C   UNL     2     -10.623  17.178  68.827  1.00  0.00    -0.336 C  
BRANCH  27  28
HETATM   28  C   UNL     2     -10.696  16.046  69.838  1.00  0.00    -0.334 C  
BRANCH  28  29
HETATM   29  C   UNL     2     -10.988  14.726  69.141  1.00  0.00    -0.277 C  
BRANCH  29  30
HETATM   30  C   UNL     2     -12.340  14.181  69.582  1.00  0.00    -0.304 C  
BRANCH  30  31
HETATM   31  C   UNL     2     -12.320  13.827  71.065  1.00  0.00    -0.452 C  
BRANCH  31  32
HETATM   32  C   UNL     2     -13.520  14.440  71.780  1.00  0.00    -0.456 C  
BRANCH  32  33
HETATM   33  C   UNL     2     -13.134  14.932  73.171  1.00  0.00    -0.615 C  
HETATM   34  C   UNL     2     -12.186  16.115  73.088  1.00  0.00    -0.643 C  
ENDBRANCH  32  33
ENDBRANCH  31  32
ENDBRANCH  30  31
ENDBRANCH  29  30
ENDBRANCH  28  29
ENDBRANCH  27  28
ENDBRANCH  26  27
ENDBRANCH  25  26
ENDBRANCH  24  25
ENDBRANCH  23  24
ENDBRANCH  22  23
ENDBRANCH  21  22
ENDBRANCH  20  21
ENDBRANCH  18  20
ENDBRANCH  17  18
ENDBRANCH  16  17
ENDBRANCH   2  16
BRANCH   2  35
HETATM   35  O   UNL     2      -8.517  10.049  65.228  1.00  0.00    -0.139 OA 
BRANCH  35  36
HETATM   36  C   UNL     2      -8.035   8.969  64.549  1.00  0.00    -0.131 C  
HETATM   37  O   UNL     2      -8.385   8.615  63.421  1.00  0.00    -0.180 OA 
BRANCH  36  38
HETATM   38  C   UNL     2      -6.942   8.349  65.341  1.00  0.00    -0.074 C  
BRANCH  38  39
HETATM   39  C   UNL     2      -7.405   7.041  65.927  1.00  0.00    -0.075 C  
BRANCH  39  40
HETATM   40  C   UNL     2      -6.935   6.909  67.364  1.00  0.00    -0.079 C  
BRANCH  40  41
HETATM   41  C   UNL     2      -6.894   8.286  68.011  1.00  0.00    -0.066 C  
BRANCH  41  42
HETATM   42  C   UNL     2      -6.459   8.188  69.463  1.00  0.00    -0.034 C  
BRANCH  42  43
HETATM   43  C   UNL     2      -6.818   6.819  70.020  1.00  0.00    -0.057 C  
BRANCH  43  44
HETATM   44  C   UNL     2      -7.856   6.959  71.121  1.00  0.00    -0.100 C  
BRANCH  44  45
HETATM   45  C   UNL     2      -8.907   5.864  71.007  1.00  0.00    -0.141 C  
BRANCH  45  46
HETATM   46  C   UNL     2      -8.334   4.658  70.276  1.00  0.00    -0.082 C  
BRANCH  46  47
HETATM   47  C   UNL     2      -9.348   4.097  69.289  1.00  0.00    -0.237 C  
BRANCH  47  48
HETATM   48  C   UNL     2     -10.064   5.226  68.560  1.00  0.00    -0.232 C  
BRANCH  48  49
HETATM   49  C   UNL     2     -10.136   4.944  67.063  1.00  0.00    -0.243 C  
BRANCH  49  50
HETATM   50  C   UNL     2      -9.506   3.593  66.738  1.00  0.00    -0.203 C  
BRANCH  50  51
HETATM   51  C   UNL     2      -9.012   3.551  65.295  1.00  0.00    -0.137 C  
HETATM   52  C   UNL     2      -8.070   2.380  65.073  1.00  0.00    -0.079 C  
ENDBRANCH  50  51
ENDBRANCH  49  50
ENDBRANCH  48  49
ENDBRANCH  47  48
ENDBRANCH  46  47
ENDBRANCH  45  46
ENDBRANCH  44  45
ENDBRANCH  43  44
ENDBRANCH  42  43
ENDBRANCH  41  42
ENDBRANCH  40  41
ENDBRANCH  39  40
ENDBRANCH  38  39
ENDBRANCH  36  38
ENDBRANCH  35  36
ENDBRANCH   2  35
TORSDOF 40
ENDMDL
MODEL        5
REMARK 921   NORMALIZED FREE ENERGY PREDICTED BY IDOCK:   -4.11 KCAL/MOL
REMARK 922        TOTAL FREE ENERGY PREDICTED BY IDOCK:  -20.66 KCAL/MOL
REMARK 923 INTER-LIGAND FREE ENERGY PREDICTED BY IDOCK:  -13.53 KCAL/MOL
REMARK 924 INTRA-LIGAND FREE ENERGY PREDICTED BY IDOCK:   -7.13 KCAL/MOL
REMARK 927      BINDING AFFINITY PREDICTED BY RF-SCORE:    0.00 PKD
ROOT
HETATM    1 NA   UNL     1     -11.640  10.422  71.524  1.00  0.00    -0.309 Na 
HETATM    2  C   UNL     2      -8.992   9.758  68.709  1.00  0.00    -0.133 C  
ENDROOT
BRANCH   2   3
HETATM    3  C   UNL     2      -9.232   9.717  70.212  1.00  0.00    -0.172 C  
BRANCH   3   4
HETATM    4  O   UNL     2      -8.170   9.196  70.987  1.00  0.00    -0.176 OA 
BRANCH   4   5
HETATM    5  P   UNL     2      -8.574   8.156  72.310  1.00  0.00    -0.199 P  
HETATM    6  O   UNL     2     -10.002   8.803  72.392  1.00  0.00    -0.282 OA 
HETATM    7  O   UNL     2      -7.475   8.869  73.105  1.00  0.00    -0.360 OA 
BRANCH   5   8
HETATM    8  O   UNL     2      -8.978   7.115  73.632  1.00  0.00    -0.149 OA 
BRANCH   8   9
HETATM    9  C   UNL     2     -10.364   6.881  73.900  1.00  0.00    -0.365 C  
BRANCH   9  10
HETATM   10  C   UNL     2     -10.867   5.442  73.607  1.00  0.00    -0.272 C  
HETATM   11  H   UNL     2     -12.268   4.537  72.485  1.00  0.00     0.000 HD 
HETATM   12  O   UNL     2     -11.960   5.418  72.664  1.00  0.00    -0.214 OA 
BRANCH  10  13
HETATM   13  C   UNL     2      -9.707   4.598  73.052  1.00  0.00    -0.137 C  
HETATM   14  O   UNL     2      -9.448   3.446  73.862  1.00  0.00    -0.095 OA 
HETATM   15  H   UNL     2      -8.732   2.925  73.520  1.00  0.00     0.000 HD 
ENDBRANCH  10  13
ENDBRANCH   9  10
ENDBRANCH   8   9
ENDBRANCH   5   8
ENDBRANCH   4   5
ENDBRANCH   3   4
ENDBRANCH   2   3
BRANCH   2  16
HETATM   16  C   UNL     2      -7.638  10.332  68.325  1.00  0.00    -0.091 C  
BRANCH  16  17
HETATM   17  O   UNL     2      -7.632  11.752  68.190  1.00  0.00    -0.102 OA 
BRANCH  17  18
HETATM   18  C   UNL     2      -6.800  12.463  69.000  1.00  0.00    -0.093 C  
HETATM   19  O   UNL     2      -6.370  12.092  70.085  1.00  0.00    -0.111 OA 
BRANCH  18  20
HETATM   20  C   UNL     2      -6.567  13.802  68.380  1.00  0.00    -0.096 C  
BRANCH  20  21
HETATM   21  C   UNL     2      -6.717  14.851  69.448  1.00  0.00    -0.153 C  
BRANCH  21  22
HETATM   22  C   UNL     2      -6.786  16.236  68.831  1.00  0.00    -0.165 C  
BRANCH  22  23
HETATM   23  C   UNL     2      -6.717  16.127  67.317  1.00  0.00    -0.233 C  
BRANCH  23  24
HETATM   24  C   UNL     2      -6.126  17.396  66.730  1.00  0.00    -0.225 C  
BRANCH  24  25
HETATM   25  C   UNL     2      -6.417  18.574  67.642  1.00  0.00    -0.204 C  
BRANCH  25  26
HETATM   26  C   UNL     2      -7.008  19.722  66.842  1.00  0.00    -0.230 C  
BRANCH  26  27
HETATM   27  C   UNL     2      -8.288  20.213  67.496  1.00  0.00    -0.383 C  
BRANCH  27  28
HETATM   28  C   UNL     2      -8.615  19.364  68.713  1.00  0.00    -0.371 C  
BRANCH  28  29
HETATM   29  C   UNL     2      -9.750  18.399  68.401  1.00  0.00    -0.379 C  
BRANCH  29  30
HETATM   30  C   UNL     2     -10.639  18.964  67.303  1.00  0.00    -0.529 C  
BRANCH  30  31
HETATM   31  C   UNL     2     -10.890  17.919  66.221  1.00  0.00     0.055 C  
BRANCH  31  32
HETATM   32  C   UNL     2      -9.750  16.907  66.178  1.00  0.00    -0.296 C  
BRANCH  32  33
HETATM   33  C   UNL     2     -10.147  15.673  65.374  1.00  0.00    -0.370 C  
HETATM   34  C   UNL     2     -11.270  15.991  64.403  1.00  0.00    -0.218 C  
ENDBRANCH  32  33
ENDBRANCH  31  32
ENDBRANCH  30  31
ENDBRANCH  29  30
ENDBRANCH  28  29
ENDBRANCH  27  28
ENDBRANCH  26  27
ENDBRANCH  25  26
ENDBRANCH  24  25
ENDBRANCH  23  24
ENDBRANCH  22  23
ENDBRANCH  21  22
ENDBRANCH  20  21
ENDBRANCH  18  20
ENDBRANCH  17  18
ENDBRANCH  16  17
ENDBRANCH   2  16
BRANCH   2  35
HETATM   35  O   UNL     2      -9.080   8.429  68.163  1.00  0.00    -0.138 OA 
BRANCH  35  36
HETATM   36  C   UNL     2      -9.158   8.365  66.803  1.00  0.00    -0.157 C  
HETATM   37  O   UNL     2      -8.418   7.704  66.071  1.00  0.00    -0.129 OA 
BRANCH  36  38
HETATM   38  C   UNL     2     -10.346   9.133  66.351  1.00  0.00    -0.235 C  
BRANCH  38  39
HETATM   39  C   UNL     2      -9.974  10.036  65.205  1.00  0.00    -0.350 C  
BRANCH  39  40
HETATM   40  C   UNL     2     -10.055  11.491  65.629  1.00  0.00    -0.278 C  
BRANCH  40  41
HETATM   41  C   UNL     2     -11.196  12.170  64.885  1.00  0.00    -0.374 C  
BRANCH  41  42
HETATM   42  C   UNL     2     -12.120  12.888  65.854  1.00  0.00    -0.503 C  
BRANCH  42  43
HETATM   43  C   UNL     2     -11.802  12.468  67.281  1.00  0.00    -0.381 C  
BRANCH  43  44
HETATM   44  C   UNL     2     -11.833  13.677  68.201  1.00  0.00    -0.407 C  
BRANCH  44  45
HETATM   45  C   UNL     2     -10.420  14.127  68.540  1.00  0.00    -0.252 C  
BRANCH  45  46
HETATM   46  C   UNL     2     -10.420  14.931  69.833  1.00  0.00    -0.108 C  
BRANCH  46  47
HETATM   47  C   UNL     2     -11.729  15.690  69.994  1.00  0.00    -0.369 C  
BRANCH  47  48
HETATM   48  C   UNL     2     -11.805  16.337  71.371  1.00  0.00    -0.394 C  
BRANCH  48  49
HETATM   49  C   UNL     2     -11.773  15.279  72.469  1.00  0.00    -0.535 C  
BRANCH  49  50
HETATM   50  C   UNL     2     -13.149  15.123  73.108  1.00  0.00    -0.625 C  
BRANCH  50  51
HETATM   51  C   UNL     2     -14.061  14.259  72.241  1.00  0.00    -0.621 C  
HETATM   52  C   UNL     2     -13.504  12.855  72.090  1.00  0.00    -0.619 C  
ENDBRANCH  50  51
ENDBRANCH  49  50
ENDBRANCH  48  49
ENDBRANCH  47  48
ENDBRANCH  46  47
ENDBRANCH  45  46
ENDBRANCH  44  45
ENDBRANCH  43  44
ENDBRANCH  42  43
ENDBRANCH  41  42
ENDBRANCH  40  41
ENDBRANCH  39  40
ENDBRANCH  38  39
ENDBRANCH  36  38
ENDBRANCH  35  36
ENDBRANCH   2  35
TORSDOF 40
ENDMDL
MODEL        6
REMARK 921   NORMALIZED FREE ENERGY PREDICTED BY IDOCK:   -3.84 KCAL/MOL
REMARK 922        TOTAL FREE ENERGY PREDICTED BY IDOCK:  -19.76 KCAL/MOL
REMARK 923 INTER-LIGAND FREE ENERGY PREDICTED BY IDOCK:  -14.31 KCAL/MOL
REMARK 924 INTRA-LIGAND FREE ENERGY PREDICTED BY IDOCK:   -5.44 KCAL/MOL
REMARK 927      BINDING AFFINITY PREDICTED BY RF-SCORE:    0.00 PKD
ROOT
HETATM    1 NA   UNL     1      -7.472  13.724  68.310  1.00  0.00    -0.080 Na 
HETATM    2  C   UNL     2      -9.120  10.193  67.877  1.00  0.00    -0.131 C  
ENDROOT
BRANCH   2   3
HETATM    3  C   UNL     2      -9.375  11.629  68.315  1.00  0.00    -0.191 C  
BRANCH   3   4
HETATM    4  O   UNL     2     -10.533  12.236  67.777  1.00  0.00    -0.203 OA 
BRANCH   4   5
HETATM    5  P   UNL     2     -11.576  13.086  68.865  1.00  0.00    -0.334 P  
HETATM    6  O   UNL     2     -10.492  14.207  69.041  1.00  0.00    -0.237 OA 
HETATM    7  O   UNL     2     -11.446  11.883  69.806  1.00  0.00    -0.278 OA 
BRANCH   5   8
HETATM    8  O   UNL     2     -12.619  13.936  69.953  1.00  0.00    -0.281 OA 
BRANCH   8   9
HETATM    9  C   UNL     2     -12.746  13.435  71.287  1.00  0.00    -0.338 C  
BRANCH   9  10
HETATM   10  C   UNL     2     -12.814  14.512  72.402  1.00  0.00    -0.360 C  
HETATM   11  H   UNL     2     -11.740  16.086  73.042  1.00  0.00     0.000 HD 
HETATM   12  O   UNL     2     -11.698  15.426  72.359  1.00  0.00    -0.413 OA 
BRANCH  10  13
HETATM   13  C   UNL     2     -14.122  15.310  72.263  1.00  0.00    -0.554 C  
HETATM   14  O   UNL     2     -14.399  15.652  70.901  1.00  0.00    -0.801 OA 
HETATM   15  H   UNL     2     -15.206  16.144  70.815  1.00  0.00     0.000 HD 
ENDBRANCH  10  13
ENDBRANCH   9  10
ENDBRANCH   8   9
ENDBRANCH   5   8
ENDBRANCH   4   5
ENDBRANCH   3   4
ENDBRANCH   2   3
BRANCH   2  16
HETATM   16  C   UNL     2      -9.742   9.157  68.800  1.00  0.00    -0.162 C  
BRANCH  16  17
HETATM   17  O   UNL     2      -9.018   8.958  70.013  1.00  0.00    -0.148 OA 
BRANCH  17  18
HETATM   18  C   UNL     2      -8.094   7.959  70.044  1.00  0.00    -0.117 C  
HETATM   19  O   UNL     2      -7.088   7.938  70.741  1.00  0.00    -0.051 OA 
BRANCH  18  20
HETATM   20  C   UNL     2      -8.472   6.932  69.027  1.00  0.00    -0.128 C  
BRANCH  20  21
HETATM   21  C   UNL     2      -7.219   6.464  68.339  1.00  0.00    -0.085 C  
BRANCH  21  22
HETATM   22  C   UNL     2      -7.558   5.678  67.086  1.00  0.00    -0.096 C  
BRANCH  22  23
HETATM   23  C   UNL     2      -9.051   5.393  67.048  1.00  0.00    -0.112 C  
BRANCH  23  24
HETATM   24  C   UNL     2      -9.303   4.016  66.462  1.00  0.00    -0.192 C  
BRANCH  24  25
HETATM   25  C   UNL     2      -8.566   2.964  67.272  1.00  0.00    -0.117 C  
BRANCH  25  26
HETATM   26  C   UNL     2      -9.464   2.428  68.374  1.00  0.00    -0.219 C  
BRANCH  26  27
HETATM   27  C   UNL     2      -8.670   2.251  69.658  1.00  0.00    -0.120 C  
BRANCH  27  28
HETATM   28  C   UNL     2      -8.513   3.586  70.366  1.00  0.00    -0.093 C  
BRANCH  28  29
HETATM   29  C   UNL     2      -9.550   3.729  71.471  1.00  0.00    -0.232 C  
BRANCH  29  30
HETATM   30  C   UNL     2      -9.476   5.117  72.092  1.00  0.00    -0.170 C  
BRANCH  30  31
HETATM   31  C   UNL     2     -10.856   5.579  72.547  1.00  0.00    -0.302 C  
BRANCH  31  32
HETATM   32  C   UNL     2     -11.350   6.730  71.677  1.00  0.00    -0.305 C  
BRANCH  32  33
HETATM   33  C   UNL     2     -11.446   8.022  72.482  1.00  0.00    -0.471 C  
HETATM   34  C   UNL     2     -12.358   9.025  71.799  1.00  0.00    -0.438 C  
ENDBRANCH  32  33
ENDBRANCH  31  32
ENDBRANCH  30  31
ENDBRANCH  29  30
ENDBRANCH  28  29
ENDBRANCH  27  28
ENDBRANCH  26  27
ENDBRANCH  25  26
ENDBRANCH  24  25
ENDBRANCH  23  24
ENDBRANCH  22  23
ENDBRANCH  21  22
ENDBRANCH  20  21
ENDBRANCH  18  20
ENDBRANCH  17  18
ENDBRANCH  16  17
ENDBRANCH   2  16
BRANCH   2  35
HETATM   35  O   UNL     2      -9.650   9.983  66.555  1.00  0.00    -0.170 OA 
BRANCH  35  36
HETATM   36  C   UNL     2      -8.716   9.816  65.576  1.00  0.00    -0.149 C  
HETATM   37  O   UNL     2      -7.583   9.356  65.734  1.00  0.00    -0.097 OA 
BRANCH  36  38
HETATM   38  C   UNL     2      -9.319  10.176  64.268  1.00  0.00    -0.349 C  
BRANCH  38  39
HETATM   39  C   UNL     2     -10.119  11.445  64.398  1.00  0.00    -0.341 C  
BRANCH  39  40
HETATM   40  C   UNL     2     -10.877  11.728  63.114  1.00  0.00    -0.299 C  
BRANCH  40  41
HETATM   41  C   UNL     2     -12.139  12.516  63.435  1.00  0.00    -0.621 C  
BRANCH  41  42
HETATM   42  C   UNL     2     -12.344  12.616  64.937  1.00  0.00    -0.563 C  
BRANCH  42  43
HETATM   43  C   UNL     2     -12.658  14.054  65.322  1.00  0.00    -0.495 C  
BRANCH  43  44
HETATM   44  C   UNL     2     -11.655  14.998  64.678  1.00  0.00    -0.386 C  
BRANCH  44  45
HETATM   45  C   UNL     2     -10.304  14.896  65.369  1.00  0.00    -0.413 C  
BRANCH  45  46
HETATM   46  C   UNL     2      -9.991  16.190  66.108  1.00  0.00    -0.357 C  
BRANCH  46  47
HETATM   47  C   UNL     2      -8.488  16.352  66.293  1.00  0.00    -0.372 C  
BRANCH  47  48
HETATM   48  C   UNL     2      -8.187  17.573  67.153  1.00  0.00    -0.229 C  
BRANCH  48  49
HETATM   49  C   UNL     2      -7.952  18.803  66.282  1.00  0.00    -0.285 C  
BRANCH  49  50
HETATM   50  C   UNL     2      -8.515  20.054  66.951  1.00  0.00    -0.385 C  
BRANCH  50  51
HETATM   51  C   UNL     2     -10.021  19.933  67.161  1.00  0.00    -0.557 C  
HETATM   52  C   UNL     2     -10.753  19.832  65.834  1.00  0.00    -0.488 C  
ENDBRANCH  50  51
ENDBRANCH  49  50
ENDBRANCH  48  49
ENDBRANCH  47  48
ENDBRANCH  46  47
ENDBRANCH  45  46
ENDBRANCH  44  45
ENDBRANCH  43  44
ENDBRANCH  42  43
ENDBRANCH  41  42
ENDBRANCH  40  41
ENDBRANCH  39  40
ENDBRANCH  38  39
ENDBRANCH  36  38
ENDBRANCH  35  36
ENDBRANCH   2  35
TORSDOF 40
ENDMDL
MODEL        7
REMARK 921   NORMALIZED FREE ENERGY PREDICTED BY IDOCK:   -3.84 KCAL/MOL
REMARK 922        TOTAL FREE ENERGY PREDICTED BY IDOCK:  -19.76 KCAL/MOL
REMARK 923 INTER-LIGAND FREE ENERGY PREDICTED BY IDOCK:  -14.24 KCAL/MOL
REMARK 924 INTRA-LIGAND FREE ENERGY PREDICTED BY IDOCK:   -5.52 KCAL/MOL
REMARK 927      BINDING AFFINITY PREDICTED BY RF-SCORE:    0.00 PKD
ROOT
HETATM    1 NA   UNL     1      -8.377  15.377  65.503  1.00  0.00    -0.329 Na 
HETATM    2  C   UNL     2      -8.885  11.670  66.673  1.00  0.00    -0.187 C  
ENDROOT
BRANCH   2   3
HETATM    3  C   UNL     2      -8.080  12.940  66.912  1.00  0.00     0.039 C  
BRANCH   3   4
HETATM    4  O   UNL     2      -8.246  13.540  68.182  1.00  0.00    -0.144 OA 
BRANCH   4   5
HETATM    5  P   UNL     2      -7.794  15.202  68.352  1.00  0.00    -0.144 P  
HETATM    6  O   UNL     2      -6.658  15.010  67.286  1.00  0.00    -0.292 OA 
HETATM    7  O   UNL     2      -7.410  14.868  69.798  1.00  0.00    -0.179 OA 
BRANCH   5   8
HETATM    8  O   UNL     2      -7.342  16.863  68.522  1.00  0.00    -0.185 OA 
BRANCH   8   9
HETATM    9  C   UNL     2      -7.450  17.707  67.372  1.00  0.00    -0.194 C  
BRANCH   9  10
HETATM   10  C   UNL     2      -8.500  18.845  67.474  1.00  0.00    -0.274 C  
HETATM   11  H   UNL     2      -9.717  19.884  66.258  1.00  0.00     0.000 HD 
HETATM   12  O   UNL     2      -9.074  19.187  66.195  1.00  0.00    -0.405 OA 
BRANCH  10  13
HETATM   13  C   UNL     2      -9.625  18.419  68.432  1.00  0.00    -0.345 C  
HETATM   14  O   UNL     2     -10.343  19.544  68.951  1.00  0.00    -0.565 OA 
HETATM   15  H   UNL     2     -11.037  19.280  69.542  1.00  0.00     0.000 HD 
ENDBRANCH  10  13
ENDBRANCH   9  10
ENDBRANCH   8   9
ENDBRANCH   5   8
ENDBRANCH   4   5
ENDBRANCH   3   4
ENDBRANCH   2   3
BRANCH   2  16
HETATM   16  C   UNL     2      -8.043  10.404  66.690  1.00  0.00    -0.122 C  
BRANCH  16  17
HETATM   17  O   UNL     2      -7.435  10.134  67.952  1.00  0.00    -0.087 OA 
BRANCH  17  18
HETATM   18  C   UNL     2      -7.161   8.836  68.259  1.00  0.00    -0.078 C  
HETATM   19  O   UNL     2      -7.003   7.929  67.452  1.00  0.00    -0.071 OA 
BRANCH  18  20
HETATM   20  C   UNL     2      -7.167   8.690  69.746  1.00  0.00    -0.051 C  
BRANCH  20  21
HETATM   21  C   UNL     2      -7.175   7.223  70.078  1.00  0.00    -0.078 C  
BRANCH  21  22
HETATM   22  C   UNL     2      -7.600   7.004  71.518  1.00  0.00    -0.089 C  
BRANCH  22  23
HETATM   23  C   UNL     2      -8.569   8.096  71.940  1.00  0.00    -0.202 C  
BRANCH  23  24
HETATM   24  C   UNL     2      -8.621   8.191  73.453  1.00  0.00    -0.313 C  
BRANCH  24  25
HETATM   25  C   UNL     2      -8.698   6.800  74.058  1.00  0.00    -0.172 C  
BRANCH  25  26
HETATM   26  C   UNL     2     -10.148   6.404  74.277  1.00  0.00    -0.365 C  
BRANCH  26  27
HETATM   27  C   UNL     2     -10.537   5.289  73.320  1.00  0.00    -0.288 C  
BRANCH  27  28
HETATM   28  C   UNL     2      -9.426   4.256  73.238  1.00  0.00    -0.129 C  
BRANCH  28  29
HETATM   29  C   UNL     2      -9.228   3.798  71.800  1.00  0.00    -0.179 C  
BRANCH  29  30
HETATM   30  C   UNL     2     -10.030   4.676  70.849  1.00  0.00    -0.273 C  
BRANCH  30  31
HETATM   31  C   UNL     2      -9.657   4.383  69.400  1.00  0.00    -0.269 C  
BRANCH  31  32
HETATM   32  C   UNL     2     -10.351   5.361  68.458  1.00  0.00    -0.219 C  
BRANCH  32  33
HETATM   33  C   UNL     2     -11.055   6.466  69.240  1.00  0.00    -0.437 C  
HETATM   34  C   UNL     2     -10.628   7.838  68.750  1.00  0.00    -0.161 C  
ENDBRANCH  32  33
ENDBRANCH  31  32
ENDBRANCH  30  31
ENDBRANCH  29  30
ENDBRANCH  28  29
ENDBRANCH  27  28
ENDBRANCH  26  27
ENDBRANCH  25  26
ENDBRANCH  24  25
ENDBRANCH  23  24
ENDBRANCH  22  23
ENDBRANCH  21  22
ENDBRANCH  20  21
ENDBRANCH  18  20
ENDBRANCH  17  18
ENDBRANCH  16  17
ENDBRANCH   2  16
BRANCH   2  35
HETATM   35  O   UNL     2      -9.902  11.538  67.682  1.00  0.00    -0.177 OA 
BRANCH  35  36
HETATM   36  C   UNL     2     -11.173  11.392  67.210  1.00  0.00    -0.304 C  
HETATM   37  O   UNL     2     -12.157  11.072  67.880  1.00  0.00    -0.600 OA 
BRANCH  36  38
HETATM   38  C   UNL     2     -11.203  11.786  65.778  1.00  0.00    -0.337 C  
BRANCH  38  39
HETATM   39  C   UNL     2     -11.169  13.287  65.653  1.00  0.00    -0.304 C  
BRANCH  39  40
HETATM   40  C   UNL     2     -12.285  13.911  66.472  1.00  0.00    -0.482 C  
BRANCH  40  41
HETATM   41  C   UNL     2     -11.684  14.834  67.522  1.00  0.00    -0.370 C  
BRANCH  41  42
HETATM   42  C   UNL     2     -11.789  14.218  68.906  1.00  0.00    -0.372 C  
BRANCH  42  43
HETATM   43  C   UNL     2     -11.080  15.101  69.921  1.00  0.00    -0.302 C  
BRANCH  43  44
HETATM   44  C   UNL     2     -12.091  15.960  70.663  1.00  0.00    -0.367 C  
BRANCH  44  45
HETATM   45  C   UNL     2     -11.879  15.858  72.167  1.00  0.00    -0.615 C  
BRANCH  45  46
HETATM   46  C   UNL     2     -13.190  15.519  72.861  1.00  0.00    -0.633 C  
BRANCH  46  47
HETATM   47  C   UNL     2     -14.133  14.800  71.906  1.00  0.00    -0.609 C  
BRANCH  47  48
HETATM   48  C   UNL     2     -14.332  13.354  72.342  1.00  0.00    -0.257 C  
BRANCH  48  49
HETATM   49  C   UNL     2     -13.139  12.497  71.932  1.00  0.00    -0.473 C  
BRANCH  49  50
HETATM   50  C   UNL     2     -13.529  11.024  71.865  1.00  0.00    -0.299 C  
BRANCH  50  51
HETATM   51  C   UNL     2     -12.406  10.186  71.261  1.00  0.00    -0.501 C  
HETATM   52  C   UNL     2     -12.268   8.855  71.981  1.00  0.00    -0.447 C  
ENDBRANCH  50  51
ENDBRANCH  49  50
ENDBRANCH  48  49
ENDBRANCH  47  48
ENDBRANCH  46  47
ENDBRANCH  45  46
ENDBRANCH  44  45
ENDBRANCH  43  44
ENDBRANCH  42  43
ENDBRANCH  41  42
ENDBRANCH  40  41
ENDBRANCH  39  40
ENDBRANCH  38  39
ENDBRANCH  36  38
ENDBRANCH  35  36
ENDBRANCH   2  35
TORSDOF 40
ENDMDL
MODEL        8
REMARK 921   NORMALIZED FREE ENERGY PREDICTED BY IDOCK:   -3.78 KCAL/MOL
REMARK 922        TOTAL FREE ENERGY PREDICTED BY IDOCK:  -19.58 KCAL/MOL
REMARK 923 INTER-LIGAND FREE ENERGY PREDICTED BY IDOCK:  -13.61 KCAL/MOL
REMARK 924 INTRA-LIGAND FREE ENERGY PREDICTED BY IDOCK:   -5.97 KCAL/MOL
REMARK 927      BINDING AFFINITY PREDICTED BY RF-SCORE:    0.00 PKD
ROOT
HETATM    1 NA   UNL     1     -11.772   7.239  67.555  1.00  0.00    -0.507 Na 
HETATM    2  C   UNL     2      -9.991   9.845  65.228  1.00  0.00    -0.249 C  
ENDROOT
BRANCH   2   3
HETATM    3  C   UNL     2     -10.540   9.614  66.629  1.00  0.00    -0.103 C  
BRANCH   3   4
HETATM    4  O   UNL     2      -9.642   9.879  67.689  1.00  0.00    -0.146 OA 
BRANCH   4   5
HETATM    5  P   UNL     2     -10.294   9.986  69.289  1.00  0.00    -0.251 P  
HETATM    6  O   UNL     2      -8.843  10.007  69.887  1.00  0.00    -0.205 OA 
HETATM    7  O   UNL     2     -10.894   8.595  69.053  1.00  0.00    -0.153 OA 
BRANCH   5   8
HETATM    8  O   UNL     2     -10.946  10.093  70.888  1.00  0.00    -0.318 OA 
BRANCH   8   9
HETATM    9  C   UNL     2     -11.246   8.872  71.571  1.00  0.00    -0.326 C  
BRANCH   9  10
HETATM   10  C   UNL     2     -12.652   8.800  72.225  1.00  0.00    -0.394 C  
HETATM   11  H   UNL     2     -14.251   9.989  72.490  1.00  0.00     0.000 HD 
HETATM   12  O   UNL     2     -13.390  10.033  72.089  1.00  0.00    -0.444 OA 
BRANCH  10  13
HETATM   13  C   UNL     2     -13.458   7.659  71.581  1.00  0.00    -0.358 C  
HETATM   14  O   UNL     2     -12.782   7.097  70.451  1.00  0.00    -0.591 OA 
HETATM   15  H   UNL     2     -13.280   6.393  70.054  1.00  0.00     0.000 HD 
ENDBRANCH  10  13
ENDBRANCH   9  10
ENDBRANCH   8   9
ENDBRANCH   5   8
ENDBRANCH   4   5
ENDBRANCH   3   4
ENDBRANCH   2   3
BRANCH   2  16
HETATM   16  C   UNL     2     -10.330  11.214  64.660  1.00  0.00    -0.330 C  
BRANCH  16  17
HETATM   17  O   UNL     2     -11.434  11.847  65.304  1.00  0.00    -0.321 OA 
BRANCH  17  18
HETATM   18  C   UNL     2     -12.366  12.452  64.517  1.00  0.00    -0.438 C  
HETATM   19  O   UNL     2     -13.381  11.925  64.080  1.00  0.00    -0.646 OA 
BRANCH  18  20
HETATM   20  C   UNL     2     -11.901  13.838  64.211  1.00  0.00    -0.451 C  
BRANCH  20  21
HETATM   21  C   UNL     2     -11.420  14.469  65.489  1.00  0.00    -0.343 C  
BRANCH  21  22
HETATM   22  C   UNL     2      -9.914  14.653  65.461  1.00  0.00    -0.384 C  
BRANCH  22  23
HETATM   23  C   UNL     2      -9.337  14.369  66.837  1.00  0.00    -0.269 C  
BRANCH  23  24
HETATM   24  C   UNL     2      -8.130  15.254  67.089  1.00  0.00    -0.248 C  
BRANCH  24  25
HETATM   25  C   UNL     2      -8.168  16.458  66.165  1.00  0.00    -0.250 C  
BRANCH  25  26
HETATM   26  C   UNL     2      -8.555  17.703  66.944  1.00  0.00    -0.260 C  
BRANCH  26  27
HETATM   27  C   UNL     2     -10.063  17.890  66.917  1.00  0.00    -0.348 C  
BRANCH  27  28
HETATM   28  C   UNL     2     -10.568  18.284  68.295  1.00  0.00    -0.249 C  
BRANCH  28  29
HETATM   29  C   UNL     2     -10.542  17.088  69.235  1.00  0.00    -0.276 C  
BRANCH  29  30
HETATM   30  C   UNL     2     -11.700  16.148  68.929  1.00  0.00    -0.250 C  
BRANCH  30  31
HETATM   31  C   UNL     2     -11.785  15.039  69.973  1.00  0.00    -0.345 C  
BRANCH  31  32
HETATM   32  C   UNL     2     -12.637  15.482  71.158  1.00  0.00    -0.509 C  
BRANCH  32  33
HETATM   33  C   UNL     2     -11.774  15.714  72.394  1.00  0.00    -0.574 C  
HETATM   34  C   UNL     2     -12.460  15.191  73.644  1.00  0.00    -0.692 C  
ENDBRANCH  32  33
ENDBRANCH  31  32
ENDBRANCH  30  31
ENDBRANCH  29  30
ENDBRANCH  28  29
ENDBRANCH  27  28
ENDBRANCH  26  27
ENDBRANCH  25  26
ENDBRANCH  24  25
ENDBRANCH  23  24
ENDBRANCH  22  23
ENDBRANCH  21  22
ENDBRANCH  20  21
ENDBRANCH  18  20
ENDBRANCH  17  18
ENDBRANCH  16  17
ENDBRANCH   2  16
BRANCH   2  35
HETATM   35  O   UNL     2      -8.559   9.711  65.235  1.00  0.00    -0.136 OA 
BRANCH  35  36
HETATM   36  C   UNL     2      -8.067   8.698  64.465  1.00  0.00    -0.162 C  
HETATM   37  O   UNL     2      -8.381   8.467  63.295  1.00  0.00    -0.172 OA 
BRANCH  36  38
HETATM   38  C   UNL     2      -7.011   7.984  65.226  1.00  0.00    -0.063 C  
BRANCH  38  39
HETATM   39  C   UNL     2      -7.627   7.199  66.355  1.00  0.00    -0.092 C  
BRANCH  39  40
HETATM   40  C   UNL     2      -8.393   6.006  65.814  1.00  0.00    -0.142 C  
BRANCH  40  41
HETATM   41  C   UNL     2      -7.463   5.152  64.964  1.00  0.00    -0.073 C  
BRANCH  41  42
HETATM   42  C   UNL     2      -8.228   4.024  64.293  1.00  0.00    -0.091 C  
BRANCH  42  43
HETATM   43  C   UNL     2      -9.321   3.517  65.221  1.00  0.00    -0.157 C  
BRANCH  43  44
HETATM   44  C   UNL     2      -8.966   2.133  65.740  1.00  0.00    -0.110 C  
BRANCH  44  45
HETATM   45  C   UNL     2      -8.094   2.235  66.982  1.00  0.00    -0.073 C  
BRANCH  45  46
HETATM   46  C   UNL     2      -8.959   2.462  68.215  1.00  0.00    -0.187 C  
BRANCH  46  47
HETATM   47  C   UNL     2      -8.650   3.812  68.846  1.00  0.00    -0.117 C  
BRANCH  47  48
HETATM   48  C   UNL     2      -9.907   4.670  68.913  1.00  0.00    -0.211 C  
BRANCH  48  49
HETATM   49  C   UNL     2      -9.817   5.673  70.058  1.00  0.00    -0.247 C  
BRANCH  49  50
HETATM   50  C   UNL     2      -8.514   6.463  69.983  1.00  0.00    -0.135 C  
BRANCH  50  51
HETATM   51  C   UNL     2      -8.016   6.834  71.376  1.00  0.00    -0.109 C  
HETATM   52  C   UNL     2      -7.866   5.600  72.249  1.00  0.00    -0.103 C  
ENDBRANCH  50  51
ENDBRANCH  49  50
ENDBRANCH  48  49
ENDBRANCH  47  48
ENDBRANCH  46  47
ENDBRANCH  45  46
ENDBRANCH  44  45
ENDBRANCH  43  44
ENDBRANCH  42  43
ENDBRANCH  41  42
ENDBRANCH  40  41
ENDBRANCH  39  40
ENDBRANCH  38  39
ENDBRANCH  36  38
ENDBRANCH  35  36
ENDBRANCH   2  35
TORSDOF 40
ENDMDL
MODEL        9
REMARK 921   NORMALIZED FREE ENERGY PREDICTED BY IDOCK:   -3.78 KCAL/MOL
REMARK 922        TOTAL FREE ENERGY PREDICTED BY IDOCK:  -19.57 KCAL/MOL
REMARK 923 INTER-LIGAND FREE ENERGY PREDICTED BY IDOCK:  -14.71 KCAL/MOL
REMARK 924 INTRA-LIGAND FREE ENERGY PREDICTED BY IDOCK:   -4.86 KCAL/MOL
REMARK 927      BINDING AFFINITY PREDICTED BY RF-SCORE:    0.00 PKD
ROOT
HETATM    1 NA   UNL     1      -8.164  14.973  65.980  1.00  0.00    -0.357 Na 
HETATM    2  C   UNL     2      -8.265  11.409  67.612  1.00  0.00    -0.128 C  
ENDROOT
BRANCH   2   3
HETATM    3  C   UNL     2      -9.075  12.673  67.356  1.00  0.00    -0.191 C  
BRANCH   3   4
HETATM    4  O   UNL     2      -8.852  13.737  68.260  1.00  0.00    -0.178 OA 
BRANCH   4   5
HETATM    5  P   UNL     2     -10.196  14.293  69.196  1.00  0.00     0.078 P  
HETATM    6  O   UNL     2     -11.140  14.127  67.953  1.00  0.00    -0.255 OA 
HETATM    7  O   UNL     2      -9.467  15.638  69.301  1.00  0.00    -0.230 OA 
BRANCH   5   8
HETATM    8  O   UNL     2     -11.541  14.850  70.132  1.00  0.00    -0.260 OA 
BRANCH   8   9
HETATM    9  C   UNL     2     -12.227  13.897  70.949  1.00  0.00    -0.361 C  
BRANCH   9  10
HETATM   10  C   UNL     2     -13.543  14.401  71.602  1.00  0.00    -0.384 C  
HETATM   11  H   UNL     2     -15.024  13.681  72.754  1.00  0.00     0.000 HD 
HETATM   12  O   UNL     2     -14.218  13.372  72.354  1.00  0.00    -0.637 OA 
BRANCH  10  13
HETATM   13  C   UNL     2     -13.231  15.583  72.535  1.00  0.00    -0.473 C  
HETATM   14  O   UNL     2     -11.891  15.530  73.036  1.00  0.00    -0.436 OA 
HETATM   15  H   UNL     2     -11.698  16.260  73.613  1.00  0.00     0.000 HD 
ENDBRANCH  10  13
ENDBRANCH   9  10
ENDBRANCH   8   9
ENDBRANCH   5   8
ENDBRANCH   4   5
ENDBRANCH   3   4
ENDBRANCH   2   3
BRANCH   2  16
HETATM   16  C   UNL     2      -8.431  10.856  69.019  1.00  0.00    -0.105 C  
BRANCH  16  17
HETATM   17  O   UNL     2      -9.403   9.817  69.117  1.00  0.00    -0.163 OA 
BRANCH  17  18
HETATM   18  C   UNL     2     -10.045   9.659  70.308  1.00  0.00    -0.275 C  
HETATM   19  O   UNL     2      -9.643   8.992  71.253  1.00  0.00    -0.260 OA 
BRANCH  18  20
HETATM   20  C   UNL     2     -11.357  10.370  70.237  1.00  0.00    -0.406 C  
BRANCH  20  21
HETATM   21  C   UNL     2     -12.134  10.057  71.486  1.00  0.00    -0.475 C  
BRANCH  21  22
HETATM   22  C   UNL     2     -13.532   9.578  71.141  1.00  0.00    -0.280 C  
BRANCH  22  23
HETATM   23  C   UNL     2     -13.799   8.244  71.817  1.00  0.00    -0.450 C  
BRANCH  23  24
HETATM   24  C   UNL     2     -12.926   7.165  71.204  1.00  0.00    -0.316 C  
BRANCH  24  25
HETATM   25  C   UNL     2     -12.113   6.479  72.287  1.00  0.00    -0.236 C  
BRANCH  25  26
HETATM   26  C   UNL     2     -10.891   5.810  71.680  1.00  0.00    -0.316 C  
BRANCH  26  27
HETATM   27  C   UNL     2     -10.965   5.863  70.162  1.00  0.00    -0.412 C  
BRANCH  27  28
HETATM   28  C   UNL     2      -9.929   4.932  69.554  1.00  0.00    -0.295 C  
BRANCH  28  29
HETATM   29  C   UNL     2      -9.500   5.434  68.183  1.00  0.00    -0.142 C  
BRANCH  29  30
HETATM   30  C   UNL     2      -8.154   4.838  67.797  1.00  0.00    -0.093 C  
BRANCH  30  31
HETATM   31  C   UNL     2      -8.180   4.332  66.359  1.00  0.00    -0.102 C  
BRANCH  31  32
HETATM   32  C   UNL     2      -8.484   5.473  65.394  1.00  0.00    -0.146 C  
BRANCH  32  33
HETATM   33  C   UNL     2      -7.424   6.566  65.489  1.00  0.00    -0.083 C  
HETATM   34  C   UNL     2      -6.755   6.795  64.144  1.00  0.00    -0.045 C  
ENDBRANCH  32  33
ENDBRANCH  31  32
ENDBRANCH  30  31
ENDBRANCH  29  30
ENDBRANCH  28  29
ENDBRANCH  27  28
ENDBRANCH  26  27
ENDBRANCH  25  26
ENDBRANCH  24  25
ENDBRANCH  23  24
ENDBRANCH  22  23
ENDBRANCH  21  22
ENDBRANCH  20  21
ENDBRANCH  18  20
ENDBRANCH  17  18
ENDBRANCH  16  17
ENDBRANCH   2  16
BRANCH   2  35
HETATM   35  O   UNL     2      -8.653  10.381  66.683  1.00  0.00    -0.124 OA 
BRANCH  35  36
HETATM   36  C   UNL     2      -7.815  10.212  65.622  1.00  0.00    -0.145 C  
HETATM   37  O   UNL     2      -6.584  10.263  65.663  1.00  0.00    -0.107 OA 
BRANCH  36  38
HETATM   38  C   UNL     2      -8.618   9.846  64.427  1.00  0.00    -0.197 C  
BRANCH  38  39
HETATM   39  C   UNL     2     -10.002  10.430  64.535  1.00  0.00    -0.401 C  
BRANCH  39  40
HETATM   40  C   UNL     2     -10.283  11.346  63.358  1.00  0.00    -0.457 C  
BRANCH  40  41
HETATM   41  C   UNL     2     -11.633  12.020  63.554  1.00  0.00    -0.553 C  
BRANCH  41  42
HETATM   42  C   UNL     2     -11.905  12.263  65.029  1.00  0.00    -0.412 C  
BRANCH  42  43
HETATM   43  C   UNL     2     -12.695  13.551  65.205  1.00  0.00    -0.481 C  
BRANCH  43  44
HETATM   44  C   UNL     2     -12.166  14.621  64.264  1.00  0.00    -0.432 C  
BRANCH  44  45
HETATM   45  C   UNL     2     -10.845  15.177  64.775  1.00  0.00    -0.378 C  
BRANCH  45  46
HETATM   46  C   UNL     2     -10.980  16.663  65.077  1.00  0.00    -0.172 C  
BRANCH  46  47
HETATM   47  C   UNL     2     -10.103  17.054  66.258  1.00  0.00    -0.330 C  
BRANCH  47  48
HETATM   48  C   UNL     2     -10.716  18.226  67.013  1.00  0.00    -0.305 C  
BRANCH  48  49
HETATM   49  C   UNL     2     -10.519  19.527  66.244  1.00  0.00    -0.609 C  
BRANCH  49  50
HETATM   50  C   UNL     2      -9.593  20.470  67.006  1.00  0.00    -0.540 C  
BRANCH  50  51
HETATM   51  C   UNL     2      -8.163  19.937  67.026  1.00  0.00    -0.356 C  
HETATM   52  C   UNL     2      -7.157  21.061  66.855  1.00  0.00    -0.298 C  
ENDBRANCH  50  51
ENDBRANCH  49  50
ENDBRANCH  48  49
ENDBRANCH  47  48
ENDBRANCH  46  47
ENDBRANCH  45  46
ENDBRANCH  44  45
ENDBRANCH  43  44
ENDBRANCH  42  43
ENDBRANCH  41  42
ENDBRANCH  40  41
ENDBRANCH  39  40
ENDBRANCH  38  39
ENDBRANCH  36  38
ENDBRANCH  35  36
ENDBRANCH   2  35
TORSDOF 40
ENDMDL
MODEL       10
REMARK 921   NORMALIZED FREE ENERGY PREDICTED BY IDOCK:   -3.76 KCAL/MOL
REMARK 922        TOTAL FREE ENERGY PREDICTED BY IDOCK:  -19.51 KCAL/MOL
REMARK 923 INTER-LIGAND FREE ENERGY PREDICTED BY IDOCK:  -13.89 KCAL/MOL
REMARK 924 INTRA-LIGAND FREE ENERGY PREDICTED BY IDOCK:   -5.62 KCAL/MOL
REMARK 927      BINDING AFFINITY PREDICTED BY RF-SCORE:    0.00 PKD
ROOT
HETATM    1 NA   UNL     1      -8.123  13.125  69.240  1.00  0.00    -0.286 Na 
HETATM    2  C   UNL     2      -9.623   9.596  68.422  1.00  0.00    -0.144 C  
ENDROOT
BRANCH   2   3
HETATM    3  C   UNL     2      -9.970  11.017  68.843  1.00  0.00    -0.188 C  
BRANCH   3   4
HETATM    4  O   UNL     2     -11.245  11.479  68.443  1.00  0.00    -0.213 OA 
BRANCH   4   5
HETATM    5  P   UNL     2     -11.786  12.997  69.074  1.00  0.00    -0.312 P  
HETATM    6  O   UNL     2     -10.375  13.625  68.791  1.00  0.00    -0.231 OA 
HETATM    7  O   UNL     2     -11.939  12.292  70.426  1.00  0.00    -0.343 OA 
BRANCH   5   8
HETATM    8  O   UNL     2     -12.326  14.516  69.704  1.00  0.00    -0.306 OA 
BRANCH   8   9
HETATM    9  C   UNL     2     -11.731  14.986  70.917  1.00  0.00    -0.328 C  
BRANCH   9  10
HETATM   10  C   UNL     2     -12.678  15.770  71.865  1.00  0.00    -0.451 C  
HETATM   11  H   UNL     2     -14.615  15.764  72.400  1.00  0.00     0.000 HD 
HETATM   12  O   UNL     2     -14.036  15.284  71.820  1.00  0.00    -0.453 OA 
BRANCH  10  13
HETATM   13  C   UNL     2     -12.156  15.668  73.309  1.00  0.00    -0.488 C  
HETATM   14  O   UNL     2     -13.046  16.285  74.245  1.00  0.00    -0.944 OA 
HETATM   15  H   UNL     2     -12.724  16.223  75.136  1.00  0.00     0.000 HD 
ENDBRANCH  10  13
ENDBRANCH   9  10
ENDBRANCH   8   9
ENDBRANCH   5   8
ENDBRANCH   4   5
ENDBRANCH   3   4
ENDBRANCH   2   3
BRANCH   2  16
HETATM   16  C   UNL     2     -10.389   8.530  69.188  1.00  0.00    -0.217 C  
BRANCH  16  17
HETATM   17  O   UNL     2     -10.218   8.602  70.602  1.00  0.00    -0.187 OA 
BRANCH  17  18
HETATM   18  C   UNL     2      -8.960   8.443  71.098  1.00  0.00    -0.167 C  
HETATM   19  O   UNL     2      -8.293   9.311  71.647  1.00  0.00    -0.306 OA 
BRANCH  18  20
HETATM   20  C   UNL     2      -8.500   7.056  70.787  1.00  0.00    -0.135 C  
BRANCH  20  21
HETATM   21  C   UNL     2      -7.196   7.145  70.042  1.00  0.00    -0.078 C  
BRANCH  21  22
HETATM   22  C   UNL     2      -6.578   5.769  69.878  1.00  0.00    -0.046 C  
BRANCH  22  23
HETATM   23  C   UNL     2      -5.946   5.651  68.502  1.00  0.00    -0.017 C  
BRANCH  23  24
HETATM   24  C   UNL     2      -6.671   6.547  67.516  1.00  0.00    -0.067 C  
BRANCH  24  25
HETATM   25  C   UNL     2      -7.387   5.702  66.477  1.00  0.00    -0.079 C  
BRANCH  25  26
HETATM   26  C   UNL     2      -8.856   6.084  66.414  1.00  0.00    -0.137 C  
BRANCH  26  27
HETATM   27  C   UNL     2      -9.722   4.900  66.815  1.00  0.00    -0.195 C  
BRANCH  27  28
HETATM   28  C   UNL     2     -10.063   4.977  68.294  1.00  0.00    -0.170 C  
BRANCH  28  29
HETATM   29  C   UNL     2      -9.458   3.798  69.042  1.00  0.00    -0.233 C  
BRANCH  29  30
HETATM   30  C   UNL     2      -9.777   3.892  70.527  1.00  0.00    -0.247 C  
BRANCH  30  31
HETATM   31  C   UNL     2      -9.382   2.608  71.247  1.00  0.00    -0.207 C  
BRANCH  31  32
HETATM   32  C   UNL     2      -9.253   2.851  72.748  1.00  0.00    -0.122 C  
BRANCH  32  33
HETATM   33  C   UNL     2     -10.583   3.298  73.345  1.00  0.00    -0.280 C  
HETATM   34  C   UNL     2     -11.531   2.122  73.508  1.00  0.00    -0.305 C  
ENDBRANCH  32  33
ENDBRANCH  31  32
ENDBRANCH  30  31
ENDBRANCH  29  30
ENDBRANCH  28  29
ENDBRANCH  27  28
ENDBRANCH  26  27
ENDBRANCH  25  26
ENDBRANCH  24  25
ENDBRANCH  23  24
ENDBRANCH  22  23
ENDBRANCH  21  22
ENDBRANCH  20  21
ENDBRANCH  18  20
ENDBRANCH  17  18
ENDBRANCH  16  17
ENDBRANCH   2  16
BRANCH   2  35
HETATM   35  O   UNL     2      -9.899   9.419  67.021  1.00  0.00    -0.175 OA 
BRANCH  35  36
HETATM   36  C   UNL     2      -8.866   9.718  66.183  1.00  0.00    -0.141 C  
HETATM   37  O   UNL     2      -7.668   9.649  66.465  1.00  0.00    -0.097 OA 
BRANCH  36  38
HETATM   38  C   UNL     2      -9.413  10.037  64.839  1.00  0.00    -0.355 C  
BRANCH  38  39
HETATM   39  C   UNL     2     -10.338  11.222  64.924  1.00  0.00    -0.362 C  
BRANCH  39  40
HETATM   40  C   UNL     2     -10.826  11.614  63.541  1.00  0.00    -0.497 C  
BRANCH  40  41
HETATM   41  C   UNL     2     -12.096  12.442  63.669  1.00  0.00    -0.648 C  
BRANCH  41  42
HETATM   42  C   UNL     2     -12.443  12.674  65.130  1.00  0.00    -0.531 C  
BRANCH  42  43
HETATM   43  C   UNL     2     -12.781  14.140  65.356  1.00  0.00    -0.453 C  
BRANCH  43  44
HETATM   44  C   UNL     2     -12.063  15.005  64.333  1.00  0.00    -0.373 C  
BRANCH  44  45
HETATM   45  C   UNL     2     -10.697  15.426  64.853  1.00  0.00    -0.416 C  
BRANCH  45  46
HETATM   46  C   UNL     2     -10.829  16.053  66.233  1.00  0.00    -0.166 C  
BRANCH  46  47
HETATM   47  C   UNL     2     -10.167  17.424  66.266  1.00  0.00    -0.344 C  
BRANCH  47  48
HETATM   48  C   UNL     2     -10.649  18.220  67.473  1.00  0.00    -0.432 C  
BRANCH  48  49
HETATM   49  C   UNL     2      -9.529  18.382  68.495  1.00  0.00    -0.355 C  
BRANCH  49  50
HETATM   50  C   UNL     2      -8.176  18.058  67.869  1.00  0.00    -0.248 C  
BRANCH  50  51
HETATM   51  C   UNL     2      -7.476  16.934  68.628  1.00  0.00    -0.226 C  
HETATM   52  C   UNL     2      -7.075  15.809  67.690  1.00  0.00    -0.192 C  
ENDBRANCH  50  51
ENDBRANCH  49  50
ENDBRANCH  48  49
ENDBRANCH  47  48
ENDBRANCH  46  47
ENDBRANCH  45  46
ENDBRANCH  44  45
ENDBRANCH  43  44
ENDBRANCH  42  43
ENDBRANCH  41  42
ENDBRANCH  40  41
ENDBRANCH  39  40
ENDBRANCH  38  39
ENDBRANCH  36  38
ENDBRANCH  35  36
ENDBRANCH   2  35
TORSDOF 40
ENDMDL
MODEL       11
REMARK 921   NORMALIZED FREE ENERGY PREDICTED BY IDOCK:   -3.71 KCAL/MOL
REMARK 922        TOTAL FREE ENERGY PREDICTED BY IDOCK:  -19.32 KCAL/MOL
REMARK 923 INTER-LIGAND FREE ENERGY PREDICTED BY IDOCK:  -13.83 KCAL/MOL
REMARK 924 INTRA-LIGAND FREE ENERGY PREDICTED BY IDOCK:   -5.49 KCAL/MOL
REMARK 927      BINDING AFFINITY PREDICTED BY RF-SCORE:    0.00 PKD
ROOT
HETATM    1 NA   UNL     1     -11.747   7.348  67.105  1.00  0.00    -0.539 Na 
HETATM    2  C   UNL     2      -9.916  10.077  64.966  1.00  0.00    -0.250 C  
ENDROOT
BRANCH   2   3
HETATM    3  C   UNL     2     -10.380   9.715  66.371  1.00  0.00    -0.176 C  
BRANCH   3   4
HETATM    4  O   UNL     2      -9.826  10.489  67.416  1.00  0.00    -0.167 OA 
BRANCH   4   5
HETATM    5  P   UNL     2     -10.651  10.497  68.937  1.00  0.00    -0.250 P  
HETATM    6  O   UNL     2     -10.542   8.933  69.012  1.00  0.00    -0.226 OA 
HETATM    7  O   UNL     2     -11.871  11.042  68.184  1.00  0.00    -0.573 OA 
BRANCH   5   8
HETATM    8  O   UNL     2     -11.477  10.505  70.458  1.00  0.00    -0.313 OA 
BRANCH   8   9
HETATM    9  C   UNL     2     -11.481   9.296  71.223  1.00  0.00    -0.347 C  
BRANCH   9  10
HETATM   10  C   UNL     2     -12.758   9.044  72.068  1.00  0.00    -0.398 C  
HETATM   11  H   UNL     2     -14.430  10.026  72.598  1.00  0.00     0.000 HD 
HETATM   12  O   UNL     2     -13.648  10.180  72.080  1.00  0.00    -0.368 OA 
BRANCH  10  13
HETATM   13  C   UNL     2     -13.509   7.823  71.510  1.00  0.00    -0.327 C  
HETATM   14  O   UNL     2     -13.253   6.641  72.275  1.00  0.00    -0.545 OA 
HETATM   15  H   UNL     2     -13.717   5.888  71.930  1.00  0.00     0.000 HD 
ENDBRANCH  10  13
ENDBRANCH   9  10
ENDBRANCH   8   9
ENDBRANCH   5   8
ENDBRANCH   4   5
ENDBRANCH   3   4
ENDBRANCH   2   3
BRANCH   2  16
HETATM   16  C   UNL     2     -10.172  11.528  64.596  1.00  0.00    -0.285 C  
BRANCH  16  17
HETATM   17  O   UNL     2     -11.450  12.011  65.007  1.00  0.00    -0.320 OA 
BRANCH  17  18
HETATM   18  C   UNL     2     -12.280  12.508  64.048  1.00  0.00    -0.480 C  
HETATM   19  O   UNL     2     -13.021  11.846  63.332  1.00  0.00    -0.730 OA 
BRANCH  18  20
HETATM   20  C   UNL     2     -12.072  13.984  63.962  1.00  0.00    -0.413 C  
BRANCH  20  21
HETATM   21  C   UNL     2     -11.727  14.495  65.334  1.00  0.00    -0.354 C  
BRANCH  21  22
HETATM   22  C   UNL     2     -10.504  15.391  65.279  1.00  0.00    -0.440 C  
BRANCH  22  23
HETATM   23  C   UNL     2     -10.595  16.451  66.364  1.00  0.00    -0.236 C  
BRANCH  23  24
HETATM   24  C   UNL     2     -10.508  17.836  65.748  1.00  0.00    -0.199 C  
BRANCH  24  25
HETATM   25  C   UNL     2     -10.685  18.893  66.823  1.00  0.00    -0.414 C  
BRANCH  25  26
HETATM   26  C   UNL     2      -9.833  20.110  66.505  1.00  0.00    -0.574 C  
BRANCH  26  27
HETATM   27  C   UNL     2      -8.729  20.263  67.538  1.00  0.00    -0.401 C  
BRANCH  27  28
HETATM   28  C   UNL     2      -7.394  20.493  66.850  1.00  0.00    -0.349 C  
BRANCH  28  29
HETATM   29  C   UNL     2      -7.383  19.840  65.476  1.00  0.00    -0.228 C  
BRANCH  29  30
HETATM   30  C   UNL     2      -6.372  18.703  65.438  1.00  0.00    -0.314 C  
BRANCH  30  31
HETATM   31  C   UNL     2      -6.994  17.411  65.956  1.00  0.00    -0.246 C  
BRANCH  31  32
HETATM   32  C   UNL     2      -6.101  16.772  67.015  1.00  0.00    -0.218 C  
BRANCH  32  33
HETATM   33  C   UNL     2      -6.470  17.264  68.411  1.00  0.00    -0.164 C  
HETATM   34  C   UNL     2      -7.898  16.886  68.762  1.00  0.00    -0.250 C  
ENDBRANCH  32  33
ENDBRANCH  31  32
ENDBRANCH  30  31
ENDBRANCH  29  30
ENDBRANCH  28  29
ENDBRANCH  27  28
ENDBRANCH  26  27
ENDBRANCH  25  26
ENDBRANCH  24  25
ENDBRANCH  23  24
ENDBRANCH  22  23
ENDBRANCH  21  22
ENDBRANCH  20  21
ENDBRANCH  18  20
ENDBRANCH  17  18
ENDBRANCH  16  17
ENDBRANCH   2  16
BRANCH   2  35
HETATM   35  O   UNL     2      -8.504   9.830  64.839  1.00  0.00    -0.137 OA 
BRANCH  35  36
HETATM   36  C   UNL     2      -8.168   8.775  64.045  1.00  0.00    -0.161 C  
HETATM   37  O   UNL     2      -8.512   8.620  62.871  1.00  0.00    -0.188 OA 
BRANCH  36  38
HETATM   38  C   UNL     2      -7.230   7.893  64.786  1.00  0.00    -0.074 C  
BRANCH  38  39
HETATM   39  C   UNL     2      -7.910   7.320  66.002  1.00  0.00    -0.106 C  
BRANCH  39  40
HETATM   40  C   UNL     2      -8.486   5.951  65.692  1.00  0.00    -0.153 C  
BRANCH  40  41
HETATM   41  C   UNL     2      -7.414   4.892  65.905  1.00  0.00    -0.082 C  
BRANCH  41  42
HETATM   42  C   UNL     2      -8.037   3.516  66.060  1.00  0.00    -0.093 C  
BRANCH  42  43
HETATM   43  C   UNL     2      -9.438   3.644  66.638  1.00  0.00    -0.197 C  
BRANCH  43  44
HETATM   44  C   UNL     2      -9.502   2.985  68.007  1.00  0.00    -0.217 C  
BRANCH  44  45
HETATM   45  C   UNL     2      -9.203   3.997  69.102  1.00  0.00    -0.217 C  
BRANCH  45  46
HETATM   46  C   UNL     2     -10.240   5.112  69.087  1.00  0.00    -0.259 C  
BRANCH  46  47
HETATM   47  C   UNL     2     -10.296   5.812  70.438  1.00  0.00    -0.310 C  
BRANCH  47  48
HETATM   48  C   UNL     2      -9.011   5.568  71.218  1.00  0.00    -0.153 C  
BRANCH  48  49
HETATM   49  C   UNL     2      -8.810   6.645  72.279  1.00  0.00    -0.133 C  
BRANCH  49  50
HETATM   50  C   UNL     2      -8.289   7.933  71.648  1.00  0.00    -0.137 C  
BRANCH  50  51
HETATM   51  C   UNL     2      -7.147   7.646  70.678  1.00  0.00    -0.054 C  
HETATM   52  C   UNL     2      -7.166   8.615  69.508  1.00  0.00    -0.060 C  
ENDBRANCH  50  51
ENDBRANCH  49  50
ENDBRANCH  48  49
ENDBRANCH  47  48
ENDBRANCH  46  47
ENDBRANCH  45  46
ENDBRANCH  44  45
ENDBRANCH  43  44
ENDBRANCH  42  43
ENDBRANCH  41  42
ENDBRANCH  40  41
ENDBRANCH  39  40
ENDBRANCH  38  39
ENDBRANCH  36  38
ENDBRANCH  35  36
ENDBRANCH   2  35
TORSDOF 40
ENDMDL
MODEL       12
REMARK 921   NORMALIZED FREE ENERGY PREDICTED BY IDOCK:   -3.70 KCAL/MOL
REMARK 922        TOTAL FREE ENERGY PREDICTED BY IDOCK:  -19.30 KCAL/MOL
REMARK 923 INTER-LIGAND FREE ENERGY PREDICTED BY IDOCK:  -12.52 KCAL/MOL
REMARK 924 INTRA-LIGAND FREE ENERGY PREDICTED BY IDOCK:   -6.78 KCAL/MOL
REMARK 927      BINDING AFFINITY PREDICTED BY RF-SCORE:    0.00 PKD
ROOT
HETATM    1 NA   UNL     1      -8.752  14.717  65.599  1.00  0.00    -0.451 Na 
HETATM    2  C   UNL     2      -7.287  11.380  67.045  1.00  0.00    -0.144 C  
ENDROOT
BRANCH   2   3
HETATM    3  C   UNL     2      -7.301  12.894  67.207  1.00  0.00    -0.070 C  
BRANCH   3   4
HETATM    4  O   UNL     2      -6.290  13.430  68.037  1.00  0.00    -0.100 OA 
BRANCH   4   5
HETATM    5  P   UNL     2      -6.403  15.102  68.465  1.00  0.00    -0.106 P  
HETATM    6  O   UNL     2      -7.954  15.066  68.228  1.00  0.00    -0.120 OA 
HETATM    7  O   UNL     2      -5.548  15.397  67.227  1.00  0.00    -0.337 OA 
BRANCH   5   8
HETATM    8  O   UNL     2      -6.515  16.775  68.894  1.00  0.00    -0.158 OA 
BRANCH   8   9
HETATM    9  C   UNL     2      -7.116  17.668  67.951  1.00  0.00    -0.188 C  
BRANCH   9  10
HETATM   10  C   UNL     2      -7.966  18.814  68.564  1.00  0.00    -0.345 C  
HETATM   11  H   UNL     2      -8.141  20.809  68.403  1.00  0.00     0.000 HD 
HETATM   12  O   UNL     2      -7.621  20.108  68.027  1.00  0.00    -0.294 OA 
BRANCH  10  13
HETATM   13  C   UNL     2      -9.457  18.542  68.301  1.00  0.00    -0.335 C  
HETATM   14  O   UNL     2     -10.164  19.735  67.948  1.00  0.00    -0.402 OA 
HETATM   15  H   UNL     2     -11.085  19.568  67.785  1.00  0.00     0.000 HD 
ENDBRANCH  10  13
ENDBRANCH   9  10
ENDBRANCH   8   9
ENDBRANCH   5   8
ENDBRANCH   4   5
ENDBRANCH   3   4
ENDBRANCH   2   3
BRANCH   2  16
HETATM   16  C   UNL     2      -5.904  10.766  67.191  1.00  0.00    -0.050 C  
BRANCH  16  17
HETATM   17  O   UNL     2      -5.779   9.884  68.304  1.00  0.00    -0.043 OA 
BRANCH  17  18
HETATM   18  C   UNL     2      -5.662   8.551  68.049  1.00  0.00    -0.035 C  
HETATM   19  O   UNL     2      -5.531   8.046  66.941  1.00  0.00    -0.031 OA 
BRANCH  18  20
HETATM   20  C   UNL     2      -5.802   7.808  69.337  1.00  0.00    -0.030 C  
BRANCH  20  21
HETATM   21  C   UNL     2      -6.435   6.474  69.047  1.00  0.00    -0.043 C  
BRANCH  21  22
HETATM   22  C   UNL     2      -6.479   5.620  70.300  1.00  0.00    -0.032 C  
BRANCH  22  23
HETATM   23  C   UNL     2      -6.558   6.513  71.528  1.00  0.00    -0.054 C  
BRANCH  23  24
HETATM   24  C   UNL     2      -7.114   5.733  72.705  1.00  0.00    -0.085 C  
BRANCH  24  25
HETATM   25  C   UNL     2      -8.040   4.637  72.210  1.00  0.00    -0.102 C  
BRANCH  25  26
HETATM   26  C   UNL     2      -9.411   4.783  72.846  1.00  0.00    -0.150 C  
BRANCH  26  27
HETATM   27  C   UNL     2     -10.478   4.905  71.771  1.00  0.00    -0.214 C  
BRANCH  27  28
HETATM   28  C   UNL     2      -9.937   4.420  70.436  1.00  0.00    -0.253 C  
BRANCH  28  29
HETATM   29  C   UNL     2     -10.366   5.356  69.315  1.00  0.00    -0.322 C  
BRANCH  29  30
HETATM   30  C   UNL     2     -11.172   6.520  69.875  1.00  0.00    -0.456 C  
BRANCH  30  31
HETATM   31  C   UNL     2     -10.604   7.850  69.394  1.00  0.00    -0.209 C  
BRANCH  31  32
HETATM   32  C   UNL     2      -9.388   8.248  70.225  1.00  0.00    -0.159 C  
BRANCH  32  33
HETATM   33  C   UNL     2      -9.793   9.147  71.389  1.00  0.00    -0.354 C  
HETATM   34  C   UNL     2      -9.574   8.448  72.720  1.00  0.00    -0.308 C  
ENDBRANCH  32  33
ENDBRANCH  31  32
ENDBRANCH  30  31
ENDBRANCH  29  30
ENDBRANCH  28  29
ENDBRANCH  27  28
ENDBRANCH  26  27
ENDBRANCH  25  26
ENDBRANCH  24  25
ENDBRANCH  23  24
ENDBRANCH  22  23
ENDBRANCH  21  22
ENDBRANCH  20  21
ENDBRANCH  18  20
ENDBRANCH  17  18
ENDBRANCH  16  17
ENDBRANCH   2  16
BRANCH   2  35
HETATM   35  O   UNL     2      -8.146  10.774  68.029  1.00  0.00    -0.109 OA 
BRANCH  35  36
HETATM   36  C   UNL     2      -9.471  11.068  67.902  1.00  0.00    -0.165 C  
HETATM   37  O   UNL     2     -10.152  11.686  68.723  1.00  0.00    -0.207 OA 
BRANCH  36  38
HETATM   38  C   UNL     2      -9.938  10.620  66.565  1.00  0.00    -0.265 C  
BRANCH  38  39
HETATM   39  C   UNL     2     -10.302  11.811  65.718  1.00  0.00    -0.293 C  
BRANCH  39  40
HETATM   40  C   UNL     2     -11.782  12.121  65.847  1.00  0.00    -0.393 C  
BRANCH  40  41
HETATM   41  C   UNL     2     -11.966  13.612  66.083  1.00  0.00    -0.453 C  
BRANCH  41  42
HETATM   42  C   UNL     2     -12.098  13.912  67.567  1.00  0.00    -0.366 C  
BRANCH  42  43
HETATM   43  C   UNL     2     -11.375  15.208  67.899  1.00  0.00    -0.346 C  
BRANCH  43  44
HETATM   44  C   UNL     2     -11.975  15.836  69.147  1.00  0.00    -0.312 C  
BRANCH  44  45
HETATM   45  C   UNL     2     -11.012  15.724  70.319  1.00  0.00    -0.368 C  
BRANCH  45  46
HETATM   46  C   UNL     2     -11.784  15.610  71.626  1.00  0.00    -0.521 C  
BRANCH  46  47
HETATM   47  C   UNL     2     -13.221  15.180  71.365  1.00  0.00    -0.528 C  
BRANCH  47  48
HETATM   48  C   UNL     2     -13.493  13.820  71.994  1.00  0.00    -0.559 C  
BRANCH  48  49
HETATM   49  C   UNL     2     -12.788  12.714  71.217  1.00  0.00    -0.344 C  
BRANCH  49  50
HETATM   50  C   UNL     2     -12.951  11.370  71.921  1.00  0.00    -0.466 C  
BRANCH  50  51
HETATM   51  C   UNL     2     -13.058  10.231  70.911  1.00  0.00    -0.423 C  
HETATM   52  C   UNL     2     -13.444   8.930  71.592  1.00  0.00    -0.427 C  
ENDBRANCH  50  51
ENDBRANCH  49  50
ENDBRANCH  48  49
ENDBRANCH  47  48
ENDBRANCH  46  47
ENDBRANCH  45  46
ENDBRANCH  44  45
ENDBRANCH  43  44
ENDBRANCH  42  43
ENDBRANCH  41  42
ENDBRANCH  40  41
ENDBRANCH  39  40
ENDBRANCH  38  39
ENDBRANCH  36  38
ENDBRANCH  35  36
ENDBRANCH   2  35
TORSDOF 40
ENDMDL
MODEL       13
REMARK 921   NORMALIZED FREE ENERGY PREDICTED BY IDOCK:   -3.68 KCAL/MOL
REMARK 922        TOTAL FREE ENERGY PREDICTED BY IDOCK:  -19.23 KCAL/MOL
REMARK 923 INTER-LIGAND FREE ENERGY PREDICTED BY IDOCK:  -12.39 KCAL/MOL
REMARK 924 INTRA-LIGAND FREE ENERGY PREDICTED BY IDOCK:   -6.84 KCAL/MOL
REMARK 927      BINDING AFFINITY PREDICTED BY RF-SCORE:    0.00 PKD
ROOT
HETATM    1 NA   UNL     1      -9.868   9.131  62.606  1.00  0.00    -0.536 Na 
HETATM    2  C   UNL     2      -7.996   7.660  65.721  1.00  0.00    -0.116 C  
ENDROOT
BRANCH   2   3
HETATM    3  C   UNL     2      -9.208   8.468  65.278  1.00  0.00     0.105 C  
BRANCH   3   4
HETATM    4  O   UNL     2      -8.925   9.723  64.691  1.00  0.00    -0.199 OA 
BRANCH   4   5
HETATM    5  P   UNL     2      -9.883  11.077  65.185  1.00  0.00    -0.308 P  
HETATM    6  O   UNL     2     -10.692  10.156  66.165  1.00  0.00    -0.084 OA 
HETATM    7  O   UNL     2     -10.405  11.134  63.745  1.00  0.00    -0.333 OA 
BRANCH   5   8
HETATM    8  O   UNL     2     -10.841  12.431  65.679  1.00  0.00    -0.263 OA 
BRANCH   8   9
HETATM    9  C   UNL     2     -10.185  13.498  66.370  1.00  0.00    -0.291 C  
BRANCH   9  10
HETATM   10  C   UNL     2     -10.640  14.928  65.976  1.00  0.00    -0.315 C  
HETATM   11  H   UNL     2      -9.812  16.717  65.586  1.00  0.00     0.000 HD 
HETATM   12  O   UNL     2      -9.533  15.842  65.827  1.00  0.00    -0.335 OA 
BRANCH  10  13
HETATM   13  C   UNL     2     -11.424  14.869  64.654  1.00  0.00    -0.379 C  
HETATM   14  O   UNL     2     -11.407  16.124  63.965  1.00  0.00    -1.193 OA 
HETATM   15  H   UNL     2     -11.891  16.087  63.149  1.00  0.00     0.000 HD 
ENDBRANCH  10  13
ENDBRANCH   9  10
ENDBRANCH   8   9
ENDBRANCH   5   8
ENDBRANCH   4   5
ENDBRANCH   3   4
ENDBRANCH   2   3
BRANCH   2  16
HETATM   16  C   UNL     2      -7.302   8.229  66.948  1.00  0.00    -0.084 C  
BRANCH  16  17
HETATM   17  O   UNL     2      -8.155   9.013  67.781  1.00  0.00    -0.108 OA 
BRANCH  17  18
HETATM   18  C   UNL     2      -7.779   9.200  69.076  1.00  0.00    -0.078 C  
HETATM   19  O   UNL     2      -8.002  10.200  69.747  1.00  0.00    -0.162 OA 
BRANCH  18  20
HETATM   20  C   UNL     2      -6.981   8.016  69.514  1.00  0.00    -0.050 C  
BRANCH  20  21
HETATM   21  C   UNL     2      -6.583   8.218  70.951  1.00  0.00    -0.039 C  
BRANCH  21  22
HETATM   22  C   UNL     2      -7.479   7.412  71.873  1.00  0.00    -0.080 C  
BRANCH  22  23
HETATM   23  C   UNL     2      -8.043   8.314  72.958  1.00  0.00    -0.210 C  
BRANCH  23  24
HETATM   24  C   UNL     2      -8.984   7.529  73.852  1.00  0.00    -0.300 C  
BRANCH  24  25
HETATM   25  C   UNL     2      -9.030   6.077  73.409  1.00  0.00    -0.129 C  
BRANCH  25  26
HETATM   26  C   UNL     2      -9.894   5.267  74.360  1.00  0.00    -0.213 C  
BRANCH  26  27
HETATM   27  C   UNL     2     -11.167   4.820  73.659  1.00  0.00    -0.332 C  
BRANCH  27  28
HETATM   28  C   UNL     2     -11.065   3.354  73.271  1.00  0.00    -0.236 C  
BRANCH  28  29
HETATM   29  C   UNL     2     -10.095   2.626  74.191  1.00  0.00    -0.169 C  
BRANCH  29  30
HETATM   30  C   UNL     2      -8.984   1.973  73.379  1.00  0.00    -0.066 C  
BRANCH  30  31
HETATM   31  C   UNL     2      -8.970   2.512  71.953  1.00  0.00    -0.129 C  
BRANCH  31  32
HETATM   32  C   UNL     2      -7.557   2.480  71.381  1.00  0.00    -0.040 C  
BRANCH  32  33
HETATM   33  C   UNL     2      -6.999   3.891  71.223  1.00  0.00    -0.032 C  
HETATM   34  C   UNL     2      -5.973   4.196  72.300  1.00  0.00    -0.012 C  
ENDBRANCH  32  33
ENDBRANCH  31  32
ENDBRANCH  30  31
ENDBRANCH  29  30
ENDBRANCH  28  29
ENDBRANCH  27  28
ENDBRANCH  26  27
ENDBRANCH  25  26
ENDBRANCH  24  25
ENDBRANCH  23  24
ENDBRANCH  22  23
ENDBRANCH  21  22
ENDBRANCH  20  21
ENDBRANCH  18  20
ENDBRANCH  17  18
ENDBRANCH  16  17
ENDBRANCH   2  16
BRANCH   2  35
HETATM   35  O   UNL     2      -8.391   6.310  66.023  1.00  0.00    -0.125 OA 
BRANCH  35  36
HETATM   36  C   UNL     2      -9.378   6.188  66.956  1.00  0.00    -0.124 C  
HETATM   37  O   UNL     2     -10.522   6.636  66.855  1.00  0.00    -0.243 OA 
BRANCH  36  38
HETATM   38  C   UNL     2      -8.887   5.336  68.069  1.00  0.00    -0.106 C  
BRANCH  38  39
HETATM   39  C   UNL     2     -10.049   4.803  68.865  1.00  0.00    -0.149 C  
BRANCH  39  40
HETATM   40  C   UNL     2     -10.094   5.453  70.236  1.00  0.00    -0.318 C  
BRANCH  40  41
HETATM   41  C   UNL     2     -11.264   6.424  70.297  1.00  0.00    -0.445 C  
BRANCH  41  42
HETATM   42  C   UNL     2     -10.822   7.827  69.918  1.00  0.00    -0.228 C  
BRANCH  42  43
HETATM   43  C   UNL     2     -11.052   8.775  71.085  1.00  0.00    -0.340 C  
BRANCH  43  44
HETATM   44  C   UNL     2     -12.144   8.232  71.992  1.00  0.00    -0.402 C  
BRANCH  44  45
HETATM   45  C   UNL     2     -13.244   9.266  72.182  1.00  0.00    -0.535 C  
BRANCH  45  46
HETATM   46  C   UNL     2     -12.845  10.584  71.534  1.00  0.00    -0.568 C  
BRANCH  46  47
HETATM   47  C   UNL     2     -13.775  11.705  71.977  1.00  0.00     0.039 C  
BRANCH  47  48
HETATM   48  C   UNL     2     -12.995  12.999  72.173  1.00  0.00    -0.366 C  
BRANCH  48  49
HETATM   49  C   UNL     2     -13.204  13.939  70.990  1.00  0.00    -0.260 C  
BRANCH  49  50
HETATM   50  C   UNL     2     -13.230  15.392  71.454  1.00  0.00    -0.578 C  
BRANCH  50  51
HETATM   51  C   UNL     2     -11.818  15.915  71.701  1.00  0.00    -0.565 C  
HETATM   52  C   UNL     2     -10.999  15.903  70.423  1.00  0.00    -0.361 C  
ENDBRANCH  50  51
ENDBRANCH  49  50
ENDBRANCH  48  49
ENDBRANCH  47  48
ENDBRANCH  46  47
ENDBRANCH  45  46
ENDBRANCH  44  45
ENDBRANCH  43  44
ENDBRANCH  42  43
ENDBRANCH  41  42
ENDBRANCH  40  41
ENDBRANCH  39  40
ENDBRANCH  38  39
ENDBRANCH  36  38
ENDBRANCH  35  36
ENDBRANCH   2  35
TORSDOF 40
ENDMDL
MODEL       14
REMARK 921   NORMALIZED FREE ENERGY PREDICTED BY IDOCK:   -3.67 KCAL/MOL
REMARK 922        TOTAL FREE ENERGY PREDICTED BY IDOCK:  -19.19 KCAL/MOL
REMARK 923 INTER-LIGAND FREE ENERGY PREDICTED BY IDOCK:  -12.47 KCAL/MOL
REMARK 924 INTRA-LIGAND FREE ENERGY PREDICTED BY IDOCK:   -6.72 KCAL/MOL
REMARK 927      BINDING AFFINITY PREDICTED BY RF-SCORE:    0.00 PKD
ROOT
HETATM    1 NA   UNL     1      -9.331   8.215  64.317  1.00  0.00    -0.384 Na 
HETATM    2  C   UNL     2      -8.251   6.741  67.785  1.00  0.00    -0.120 C  
ENDROOT
BRANCH   2   3
HETATM    3  C   UNL     2      -9.022   7.865  67.109  1.00  0.00    -0.129 C  
BRANCH   3   4
HETATM    4  O   UNL     2      -8.236   8.821  66.425  1.00  0.00    -0.107 OA 
BRANCH   4   5
HETATM    5  P   UNL     2      -8.758  10.471  66.467  1.00  0.00    -0.146 P  
HETATM    6  O   UNL     2      -8.549  10.505  68.022  1.00  0.00    -0.118 OA 
HETATM    7  O   UNL     2     -10.126   9.968  65.991  1.00  0.00    -0.254 OA 
BRANCH   5   8
HETATM    8  O   UNL     2      -9.279  12.120  66.508  1.00  0.00    -0.212 OA 
BRANCH   8   9
HETATM    9  C   UNL     2      -9.950  12.639  65.356  1.00  0.00    -0.214 C  
BRANCH   9  10
HETATM   10  C   UNL     2     -11.489  12.793  65.492  1.00  0.00    -0.337 C  
HETATM   11  H   UNL     2     -12.831  14.248  65.836  1.00  0.00     0.000 HD 
HETATM   12  O   UNL     2     -11.889  14.154  65.753  1.00  0.00    -0.355 OA 
BRANCH  10  13
HETATM   13  C   UNL     2     -12.168  12.309  64.199  1.00  0.00    -0.446 C  
HETATM   14  O   UNL     2     -11.419  12.671  63.033  1.00  0.00    -0.763 OA 
HETATM   15  H   UNL     2     -11.839  12.372  62.235  1.00  0.00     0.000 HD 
ENDBRANCH  10  13
ENDBRANCH   9  10
ENDBRANCH   8   9
ENDBRANCH   5   8
ENDBRANCH   4   5
ENDBRANCH   3   4
ENDBRANCH   2   3
BRANCH   2  16
HETATM   16  C   UNL     2      -7.395   7.207  68.952  1.00  0.00    -0.093 C  
BRANCH  16  17
HETATM   17  O   UNL     2      -8.090   8.036  69.881  1.00  0.00    -0.112 OA 
BRANCH  17  18
HETATM   18  C   UNL     2      -7.407   8.477  70.973  1.00  0.00    -0.074 C  
HETATM   19  O   UNL     2      -7.453   9.610  71.435  1.00  0.00    -0.281 OA 
BRANCH  18  20
HETATM   20  C   UNL     2      -6.531   7.370  71.462  1.00  0.00    -0.039 C  
BRANCH  20  21
HETATM   21  C   UNL     2      -6.083   7.703  72.859  1.00  0.00    -0.055 C  
BRANCH  21  22
HETATM   22  C   UNL     2      -6.854   6.883  73.877  1.00  0.00    -0.071 C  
BRANCH  22  23
HETATM   23  C   UNL     2      -7.914   7.750  74.537  1.00  0.00    -0.262 C  
BRANCH  23  24
HETATM   24  C   UNL     2      -9.277   7.452  73.942  1.00  0.00    -0.312 C  
BRANCH  24  25
HETATM   25  C   UNL     2      -9.332   6.011  73.467  1.00  0.00    -0.134 C  
BRANCH  25  26
HETATM   26  C   UNL     2     -10.443   5.265  74.187  1.00  0.00    -0.319 C  
BRANCH  26  27
HETATM   27  C   UNL     2     -11.104   4.273  73.244  1.00  0.00    -0.342 C  
BRANCH  27  28
HETATM   28  C   UNL     2     -10.060   3.616  72.357  1.00  0.00    -0.233 C  
BRANCH  28  29
HETATM   29  C   UNL     2      -9.982   2.123  72.642  1.00  0.00    -0.199 C  
BRANCH  29  30
HETATM   30  C   UNL     2      -9.170   1.865  73.904  1.00  0.00    -0.078 C  
BRANCH  30  31
HETATM   31  C   UNL     2      -7.691   1.707  73.571  1.00  0.00    -0.037 C  
BRANCH  31  32
HETATM   32  C   UNL     2      -6.909   2.945  73.999  1.00  0.00    -0.035 C  
BRANCH  32  33
HETATM   33  C   UNL     2      -6.228   3.602  72.803  1.00  0.00    -0.012 C  
HETATM   34  C   UNL     2      -6.418   2.774  71.544  1.00  0.00    -0.019 C  
ENDBRANCH  32  33
ENDBRANCH  31  32
ENDBRANCH  30  31
ENDBRANCH  29  30
ENDBRANCH  28  29
ENDBRANCH  27  28
ENDBRANCH  26  27
ENDBRANCH  25  26
ENDBRANCH  24  25
ENDBRANCH  23  24
ENDBRANCH  22  23
ENDBRANCH  21  22
ENDBRANCH  20  21
ENDBRANCH  18  20
ENDBRANCH  17  18
ENDBRANCH  16  17
ENDBRANCH   2  16
BRANCH   2  35
HETATM   35  O   UNL     2      -9.167   5.746  68.278  1.00  0.00    -0.117 OA 
BRANCH  35  36
HETATM   36  C   UNL     2     -10.459   6.159  68.407  1.00  0.00    -0.231 C  
HETATM   37  O   UNL     2     -11.220   6.440  67.478  1.00  0.00    -0.347 OA 
BRANCH  36  38
HETATM   38  C   UNL     2     -10.840   6.114  69.842  1.00  0.00    -0.420 C  
BRANCH  38  39
HETATM   39  C   UNL     2     -12.153   6.820  70.052  1.00  0.00    -0.053 C  
BRANCH  39  40
HETATM   40  C   UNL     2     -12.331   7.182  71.516  1.00  0.00    -0.406 C  
BRANCH  40  41
HETATM   41  C   UNL     2     -12.428   8.694  71.654  1.00  0.00    -0.382 C  
BRANCH  41  42
HETATM   42  C   UNL     2     -11.050   9.330  71.596  1.00  0.00    -0.438 C  
BRANCH  42  43
HETATM   43  C   UNL     2     -10.954  10.250  70.388  1.00  0.00    -0.365 C  
BRANCH  43  44
HETATM   44  C   UNL     2     -12.332  10.779  70.024  1.00  0.00    -0.371 C  
BRANCH  44  45
HETATM   45  C   UNL     2     -12.215  11.987  69.106  1.00  0.00    -0.106 C  
BRANCH  45  46
HETATM   46  C   UNL     2     -11.129  12.928  69.610  1.00  0.00     0.028 C  
BRANCH  46  47
HETATM   47  C   UNL     2     -11.496  14.376  69.318  1.00  0.00    -0.323 C  
BRANCH  47  48
HETATM   48  C   UNL     2     -10.953  15.293  70.407  1.00  0.00    -0.317 C  
BRANCH  48  49
HETATM   49  C   UNL     2     -11.920  15.366  71.584  1.00  0.00    -0.454 C  
BRANCH  49  50
HETATM   50  C   UNL     2     -13.365  15.376  71.095  1.00  0.00    -0.580 C  
BRANCH  50  51
HETATM   51  C   UNL     2     -14.252  14.512  71.987  1.00  0.00    -0.630 C  
HETATM   52  C   UNL     2     -13.526  13.251  72.423  1.00  0.00    -0.670 C  
ENDBRANCH  50  51
ENDBRANCH  49  50
ENDBRANCH  48  49
ENDBRANCH  47  48
ENDBRANCH  46  47
ENDBRANCH  45  46
ENDBRANCH  44  45
ENDBRANCH  43  44
ENDBRANCH  42  43
ENDBRANCH  41  42
ENDBRANCH  40  41
ENDBRANCH  39  40
ENDBRANCH  38  39
ENDBRANCH  36  38
ENDBRANCH  35  36
ENDBRANCH   2  35
TORSDOF 40
ENDMDL
MODEL       15
REMARK 921   NORMALIZED FREE ENERGY PREDICTED BY IDOCK:   -3.58 KCAL/MOL
REMARK 922        TOTAL FREE ENERGY PREDICTED BY IDOCK:  -18.92 KCAL/MOL
REMARK 923 INTER-LIGAND FREE ENERGY PREDICTED BY IDOCK:  -13.06 KCAL/MOL
REMARK 924 INTRA-LIGAND FREE ENERGY PREDICTED BY IDOCK:   -5.86 KCAL/MOL
REMARK 927      BINDING AFFINITY PREDICTED BY RF-SCORE:    0.00 PKD
ROOT
HETATM    1 NA   UNL     1      -8.821  15.116  65.430  1.00  0.00    -0.385 Na 
HETATM    2  C   UNL     2      -7.816  11.600  66.847  1.00  0.00    -0.156 C  
ENDROOT
BRANCH   2   3
HETATM    3  C   UNL     2      -8.220  13.017  67.232  1.00  0.00    -0.172 C  
BRANCH   3   4
HETATM    4  O   UNL     2      -7.364  13.668  68.150  1.00  0.00    -0.094 OA 
BRANCH   4   5
HETATM    5  P   UNL     2      -6.940  15.314  67.826  1.00  0.00    -0.191 P  
HETATM    6  O   UNL     2      -5.445  14.892  67.601  1.00  0.00    -0.296 OA 
HETATM    7  O   UNL     2      -7.332  15.620  69.277  1.00  0.00    -0.177 OA 
BRANCH   5   8
HETATM    8  O   UNL     2      -6.516  16.961  67.502  1.00  0.00    -0.127 OA 
BRANCH   8   9
HETATM    9  C   UNL     2      -7.027  17.560  66.308  1.00  0.00    -0.297 C  
BRANCH   9  10
HETATM   10  C   UNL     2      -8.445  18.181  66.426  1.00  0.00    -0.238 C  
HETATM   11  H   UNL     2     -10.360  17.611  66.209  1.00  0.00     0.000 HD 
HETATM   12  O   UNL     2      -9.492  17.231  66.136  1.00  0.00    -0.390 OA 
BRANCH  10  13
HETATM   13  C   UNL     2      -8.645  18.731  67.849  1.00  0.00    -0.296 C  
HETATM   14  O   UNL     2      -9.183  17.742  68.734  1.00  0.00    -0.278 OA 
HETATM   15  H   UNL     2      -9.307  18.082  69.612  1.00  0.00     0.000 HD 
ENDBRANCH  10  13
ENDBRANCH   9  10
ENDBRANCH   8   9
ENDBRANCH   5   8
ENDBRANCH   4   5
ENDBRANCH   3   4
ENDBRANCH   2   3
BRANCH   2  16
HETATM   16  C   UNL     2      -6.675  11.045  67.683  1.00  0.00    -0.073 C  
BRANCH  16  17
HETATM   17  O   UNL     2      -7.024   9.884  68.436  1.00  0.00    -0.066 OA 
BRANCH  17  18
HETATM   18  C   UNL     2      -6.436   8.705  68.093  1.00  0.00    -0.060 C  
HETATM   19  O   UNL     2      -5.278   8.566  67.720  1.00  0.00    -0.033 OA 
BRANCH  18  20
HETATM   20  C   UNL     2      -7.464   7.624  68.170  1.00  0.00    -0.108 C  
BRANCH  20  21
HETATM   21  C   UNL     2      -8.456   7.989  69.241  1.00  0.00    -0.136 C  
BRANCH  21  22
HETATM   22  C   UNL     2      -9.873   7.720  68.770  1.00  0.00    -0.171 C  
BRANCH  22  23
HETATM   23  C   UNL     2      -9.871   7.421  67.280  1.00  0.00    -0.230 C  
BRANCH  23  24
HETATM   24  C   UNL     2     -11.020   6.493  66.932  1.00  0.00    -0.408 C  
BRANCH  24  25
HETATM   25  C   UNL     2     -10.491   5.099  66.644  1.00  0.00    -0.328 C  
BRANCH  25  26
HETATM   26  C   UNL     2      -9.133   5.184  65.970  1.00  0.00    -0.149 C  
BRANCH  26  27
HETATM   27  C   UNL     2      -8.136   4.285  66.683  1.00  0.00    -0.102 C  
BRANCH  27  28
HETATM   28  C   UNL     2      -8.714   2.890  66.850  1.00  0.00    -0.138 C  
BRANCH  28  29
HETATM   29  C   UNL     2      -8.546   2.411  68.286  1.00  0.00    -0.109 C  
BRANCH  29  30
HETATM   30  C   UNL     2      -8.189   3.579  69.195  1.00  0.00    -0.075 C  
BRANCH  30  31
HETATM   31  C   UNL     2      -8.879   3.439  70.548  1.00  0.00    -0.145 C  
BRANCH  31  32
HETATM   32  C   UNL     2      -9.978   4.486  70.700  1.00  0.00    -0.273 C  
BRANCH  32  33
HETATM   33  C   UNL     2      -9.682   5.423  71.867  1.00  0.00    -0.204 C  
HETATM   34  C   UNL     2     -10.894   5.572  72.769  1.00  0.00    -0.308 C  
ENDBRANCH  32  33
ENDBRANCH  31  32
ENDBRANCH  30  31
ENDBRANCH  29  30
ENDBRANCH  28  29
ENDBRANCH  27  28
ENDBRANCH  26  27
ENDBRANCH  25  26
ENDBRANCH  24  25
ENDBRANCH  23  24
ENDBRANCH  22  23
ENDBRANCH  21  22
ENDBRANCH  20  21
ENDBRANCH  18  20
ENDBRANCH  17  18
ENDBRANCH  16  17
ENDBRANCH   2  16
BRANCH   2  35
HETATM   35  O   UNL     2      -8.941  10.714  66.989  1.00  0.00    -0.137 OA 
BRANCH  35  36
HETATM   36  C   UNL     2      -9.942  11.172  67.794  1.00  0.00    -0.175 C  
HETATM   37  O   UNL     2      -9.807  11.576  68.951  1.00  0.00    -0.173 OA 
BRANCH  36  38
HETATM   38  C   UNL     2     -11.207  11.208  67.016  1.00  0.00    -0.291 C  
BRANCH  38  39
HETATM   39  C   UNL     2     -11.197  12.376  66.065  1.00  0.00    -0.374 C  
BRANCH  39  40
HETATM   40  C   UNL     2     -12.319  13.342  66.400  1.00  0.00    -0.347 C  
BRANCH  40  41
HETATM   41  C   UNL     2     -11.780  14.451  67.291  1.00  0.00    -0.429 C  
BRANCH  41  42
HETATM   42  C   UNL     2     -12.077  14.161  68.753  1.00  0.00    -0.326 C  
BRANCH  42  43
HETATM   43  C   UNL     2     -11.679  15.353  69.609  1.00  0.00    -0.355 C  
BRANCH  43  44
HETATM   44  C   UNL     2     -12.751  15.631  70.650  1.00  0.00    -0.443 C  
BRANCH  44  45
HETATM   45  C   UNL     2     -12.137  15.717  72.040  1.00  0.00    -0.562 C  
BRANCH  45  46
HETATM   46  C   UNL     2     -12.699  14.619  72.932  1.00  0.00    -0.506 C  
BRANCH  46  47
HETATM   47  C   UNL     2     -13.720  13.781  72.175  1.00  0.00    -0.634 C  
BRANCH  47  48
HETATM   48  C   UNL     2     -13.383  12.300  72.289  1.00  0.00    -0.375 C  
BRANCH  48  49
HETATM   49  C   UNL     2     -12.582  11.833  71.078  1.00  0.00    -0.409 C  
BRANCH  49  50
HETATM   50  C   UNL     2     -12.929  10.389  70.726  1.00  0.00    -0.422 C  
BRANCH  50  51
HETATM   51  C   UNL     2     -12.340   9.419  71.745  1.00  0.00    -0.471 C  
HETATM   52  C   UNL     2     -10.831   9.322  71.600  1.00  0.00    -0.418 C  
ENDBRANCH  50  51
ENDBRANCH  49  50
ENDBRANCH  48  49
ENDBRANCH  47  48
ENDBRANCH  46  47
ENDBRANCH  45  46
ENDBRANCH  44  45
ENDBRANCH  43  44
ENDBRANCH  42  43
ENDBRANCH  41  42
ENDBRANCH  40  41
ENDBRANCH  39  40
ENDBRANCH  38  39
ENDBRANCH  36  38
ENDBRANCH  35  36
ENDBRANCH   2  35
TORSDOF 40
ENDMDL
MODEL       16
REMARK 921   NORMALIZED FREE ENERGY PREDICTED BY IDOCK:   -3.51 KCAL/MOL
REMARK 922        TOTAL FREE ENERGY PREDICTED BY IDOCK:  -18.68 KCAL/MOL
REMARK 923 INTER-LIGAND FREE ENERGY PREDICTED BY IDOCK:  -12.05 KCAL/MOL
REMARK 924 INTRA-LIGAND FREE ENERGY PREDICTED BY IDOCK:   -6.63 KCAL/MOL
REMARK 927      BINDING AFFINITY PREDICTED BY RF-SCORE:    0.00 PKD
ROOT
HETATM    1 NA   UNL     1     -11.269  17.363  69.933  1.00  0.00    -0.406 Na 
HETATM    2  C   UNL     2     -10.787  14.679  67.115  1.00  0.00    -0.303 C  
ENDROOT
BRANCH   2   3
HETATM    3  C   UNL     2     -10.373  16.069  67.580  1.00  0.00    -0.287 C  
BRANCH   3   4
HETATM    4  O   UNL     2     -10.901  17.146  66.831  1.00  0.00    -0.171 OA 
BRANCH   4   5
HETATM    5  P   UNL     2      -9.812  18.401  66.347  1.00  0.00    -0.319 P  
HETATM    6  O   UNL     2      -8.732  17.326  65.969  1.00  0.00    -0.497 OA 
HETATM    7  O   UNL     2      -9.809  18.856  67.811  1.00  0.00    -0.313 OA 
BRANCH   5   8
HETATM    8  O   UNL     2      -8.722  19.655  65.863  1.00  0.00    -0.399 OA 
BRANCH   8   9
HETATM    9  C   UNL     2      -7.364  19.293  65.593  1.00  0.00    -0.160 C  
BRANCH   9  10
HETATM   10  C   UNL     2      -6.289  20.153  66.311  1.00  0.00    -0.196 C  
HETATM   11  H   UNL     2      -5.046  21.673  65.884  1.00  0.00     0.000 HD 
HETATM   12  O   UNL     2      -5.704  21.147  65.444  1.00  0.00    -0.232 OA 
BRANCH  10  13
HETATM   13  C   UNL     2      -6.922  20.855  67.524  1.00  0.00    -0.351 C  
HETATM   14  O   UNL     2      -7.278  19.926  68.554  1.00  0.00    -0.314 OA 
HETATM   15  H   UNL     2      -7.669  20.360  69.303  1.00  0.00     0.000 HD 
ENDBRANCH  10  13
ENDBRANCH   9  10
ENDBRANCH   8   9
ENDBRANCH   5   8
ENDBRANCH   4   5
ENDBRANCH   3   4
ENDBRANCH   2   3
BRANCH   2  16
HETATM   16  C   UNL     2     -11.073  14.597  65.624  1.00  0.00    -0.338 C  
BRANCH  16  17
HETATM   17  O   UNL     2     -12.071  13.637  65.281  1.00  0.00    -0.363 OA 
BRANCH  17  18
HETATM   18  C   UNL     2     -11.779  12.743  64.296  1.00  0.00    -0.381 C  
HETATM   19  O   UNL     2     -12.574  12.300  63.476  1.00  0.00    -0.667 OA 
BRANCH  18  20
HETATM   20  C   UNL     2     -10.350  12.334  64.435  1.00  0.00    -0.358 C  
BRANCH  20  21
HETATM   21  C   UNL     2     -10.309  10.900  64.887  1.00  0.00    -0.371 C  
BRANCH  21  22
HETATM   22  C   UNL     2     -11.073  10.727  66.187  1.00  0.00     0.066 C  
BRANCH  22  23
HETATM   23  C   UNL     2     -10.365   9.710  67.067  1.00  0.00    -0.315 C  
BRANCH  23  24
HETATM   24  C   UNL     2     -10.976   9.708  68.456  1.00  0.00    -0.153 C  
BRANCH  24  25
HETATM   25  C   UNL     2     -10.191   8.781  69.366  1.00  0.00    -0.210 C  
BRANCH  25  26
HETATM   26  C   UNL     2      -9.352   9.591  70.340  1.00  0.00    -0.311 C  
BRANCH  26  27
HETATM   27  C   UNL     2      -8.464   8.669  71.159  1.00  0.00    -0.211 C  
BRANCH  27  28
HETATM   28  C   UNL     2      -9.131   8.338  72.484  1.00  0.00    -0.323 C  
BRANCH  28  29
HETATM   29  C   UNL     2      -8.951   6.864  72.818  1.00  0.00    -0.146 C  
BRANCH  29  30
HETATM   30  C   UNL     2      -9.932   6.016  72.020  1.00  0.00    -0.195 C  
BRANCH  30  31
HETATM   31  C   UNL     2     -11.368   6.316  72.437  1.00  0.00    -0.333 C  
BRANCH  31  32
HETATM   32  C   UNL     2     -12.249   6.531  71.211  1.00  0.00    -0.287 C  
BRANCH  32  33
HETATM   33  C   UNL     2     -13.376   7.513  71.513  1.00  0.00    -0.409 C  
HETATM   34  C   UNL     2     -12.829   8.819  72.063  1.00  0.00    -0.442 C  
ENDBRANCH  32  33
ENDBRANCH  31  32
ENDBRANCH  30  31
ENDBRANCH  29  30
ENDBRANCH  28  29
ENDBRANCH  27  28
ENDBRANCH  26  27
ENDBRANCH  25  26
ENDBRANCH  24  25
ENDBRANCH  23  24
ENDBRANCH  22  23
ENDBRANCH  21  22
ENDBRANCH  20  21
ENDBRANCH  18  20
ENDBRANCH  17  18
ENDBRANCH  16  17
ENDBRANCH   2  16
BRANCH   2  35
HETATM   35  O   UNL     2      -9.749  13.731  67.420  1.00  0.00    -0.226 OA 
BRANCH  35  36
HETATM   36  C   UNL     2      -8.694  14.232  68.124  1.00  0.00    -0.174 C  
HETATM   37  O   UNL     2      -8.770  15.016  69.073  1.00  0.00    -0.193 OA 
BRANCH  36  38
HETATM   38  C   UNL     2      -7.443  13.598  67.635  1.00  0.00    -0.191 C  
BRANCH  38  39
HETATM   39  C   UNL     2      -7.690  12.147  67.313  1.00  0.00    -0.168 C  
BRANCH  39  40
HETATM   40  C   UNL     2      -6.386  11.454  66.961  1.00  0.00    -0.122 C  
BRANCH  40  41
HETATM   41  C   UNL     2      -6.682  10.050  66.453  1.00  0.00    -0.088 C  
BRANCH  41  42
HETATM   42  C   UNL     2      -6.699   9.053  67.599  1.00  0.00    -0.065 C  
BRANCH  42  43
HETATM   43  C   UNL     2      -5.587   8.033  67.414  1.00  0.00    -0.038 C  
BRANCH  43  44
HETATM   44  C   UNL     2      -6.007   6.691  67.993  1.00  0.00    -0.024 C  
BRANCH  44  45
HETATM   45  C   UNL     2      -7.454   6.740  68.460  1.00  0.00    -0.092 C  
BRANCH  45  46
HETATM   46  C   UNL     2      -7.889   5.372  68.968  1.00  0.00    -0.090 C  
BRANCH  46  47
HETATM   47  C   UNL     2      -9.358   5.125  68.654  1.00  0.00    -0.164 C  
BRANCH  47  48
HETATM   48  C   UNL     2      -9.498   4.227  67.431  1.00  0.00    -0.213 C  
BRANCH  48  49
HETATM   49  C   UNL     2      -9.942   5.034  66.216  1.00  0.00    -0.247 C  
BRANCH  49  50
HETATM   50  C   UNL     2      -9.152   4.623  64.977  1.00  0.00    -0.156 C  
BRANCH  50  51
HETATM   51  C   UNL     2      -8.032   5.617  64.686  1.00  0.00    -0.120 C  
HETATM   52  C   UNL     2      -8.472   7.040  64.986  1.00  0.00     0.018 C  
ENDBRANCH  50  51
ENDBRANCH  49  50
ENDBRANCH  48  49
ENDBRANCH  47  48
ENDBRANCH  46  47
ENDBRANCH  45  46
ENDBRANCH  44  45
ENDBRANCH  43  44
ENDBRANCH  42  43
ENDBRANCH  41  42
ENDBRANCH  40  41
ENDBRANCH  39  40
ENDBRANCH  38  39
ENDBRANCH  36  38
ENDBRANCH  35  36
ENDBRANCH   2  35
TORSDOF 40
ENDMDL
MODEL       17
REMARK 921   NORMALIZED FREE ENERGY PREDICTED BY IDOCK:   -3.49 KCAL/MOL
REMARK 922        TOTAL FREE ENERGY PREDICTED BY IDOCK:  -18.62 KCAL/MOL
REMARK 923 INTER-LIGAND FREE ENERGY PREDICTED BY IDOCK:  -12.16 KCAL/MOL
REMARK 924 INTRA-LIGAND FREE ENERGY PREDICTED BY IDOCK:   -6.46 KCAL/MOL
REMARK 927      BINDING AFFINITY PREDICTED BY RF-SCORE:    0.00 PKD
ROOT
HETATM    1 NA   UNL     1      -7.681  14.156  66.085  1.00  0.00    -0.224 Na 
HETATM    2  C   UNL     2      -7.434  10.672  67.867  1.00  0.00    -0.090 C  
ENDROOT
BRANCH   2   3
HETATM    3  C   UNL     2      -8.195  11.991  67.835  1.00  0.00    -0.153 C  
BRANCH   3   4
HETATM    4  O   UNL     2      -7.500  13.109  68.350  1.00  0.00    -0.111 OA 
BRANCH   4   5
HETATM    5  P   UNL     2      -8.439  14.444  68.925  1.00  0.00     0.070 P  
HETATM    6  O   UNL     2      -9.740  13.794  68.335  1.00  0.00    -0.220 OA 
HETATM    7  O   UNL     2      -7.639  15.324  67.957  1.00  0.00    -0.113 OA 
BRANCH   5   8
HETATM    8  O   UNL     2      -9.378  15.779  69.501  1.00  0.00    -0.265 OA 
BRANCH   8   9
HETATM    9  C   UNL     2     -10.380  15.516  70.487  1.00  0.00    -0.006 C  
BRANCH   9  10
HETATM   10  C   UNL     2     -11.826  15.922  70.095  1.00  0.00    -0.314 C  
HETATM   11  H   UNL     2     -12.795  16.699  68.515  1.00  0.00     0.000 HD 
HETATM   12  O   UNL     2     -11.910  16.451  68.755  1.00  0.00    -0.201 OA 
BRANCH  10  13
HETATM   13  C   UNL     2     -12.751  14.698  70.210  1.00  0.00    -0.273 C  
HETATM   14  O   UNL     2     -12.651  13.842  69.067  1.00  0.00    -0.372 OA 
HETATM   15  H   UNL     2     -13.222  13.086  69.139  1.00  0.00     0.000 HD 
ENDBRANCH  10  13
ENDBRANCH   9  10
ENDBRANCH   8   9
ENDBRANCH   5   8
ENDBRANCH   4   5
ENDBRANCH   3   4
ENDBRANCH   2   3
BRANCH   2  16
HETATM   16  C   UNL     2      -7.124  10.183  69.272  1.00  0.00    -0.076 C  
BRANCH  16  17
HETATM   17  O   UNL     2      -7.937   9.090  69.694  1.00  0.00    -0.085 OA 
BRANCH  17  18
HETATM   18  C   UNL     2      -8.731   9.273  70.785  1.00  0.00    -0.217 C  
HETATM   19  O   UNL     2      -8.413   9.046  71.946  1.00  0.00    -0.363 OA 
BRANCH  18  20
HETATM   20  C   UNL     2     -10.078   9.720  70.321  1.00  0.00    -0.323 C  
BRANCH  20  21
HETATM   21  C   UNL     2     -11.075   9.429  71.409  1.00  0.00    -0.450 C  
BRANCH  21  22
HETATM   22  C   UNL     2     -12.316   8.770  70.836  1.00  0.00    -0.102 C  
BRANCH  22  23
HETATM   23  C   UNL     2     -12.560   7.442  71.533  1.00  0.00    -0.401 C  
BRANCH  23  24
HETATM   24  C   UNL     2     -11.846   6.326  70.794  1.00  0.00    -0.205 C  
BRANCH  24  25
HETATM   25  C   UNL     2     -10.699   5.797  71.637  1.00  0.00    -0.314 C  
BRANCH  25  26
HETATM   26  C   UNL     2      -9.472   5.574  70.770  1.00  0.00    -0.209 C  
BRANCH  26  27
HETATM   27  C   UNL     2      -9.579   4.245  70.040  1.00  0.00    -0.274 C  
BRANCH  27  28
HETATM   28  C   UNL     2      -8.197   3.744  69.655  1.00  0.00    -0.068 C  
BRANCH  28  29
HETATM   29  C   UNL     2      -8.190   3.255  68.214  1.00  0.00    -0.088 C  
BRANCH  29  30
HETATM   30  C   UNL     2      -9.554   3.472  67.573  1.00  0.00    -0.177 C  
BRANCH  30  31
HETATM   31  C   UNL     2      -9.413   4.170  66.226  1.00  0.00    -0.193 C  
BRANCH  31  32
HETATM   32  C   UNL     2      -9.528   5.682  66.390  1.00  0.00    -0.170 C  
BRANCH  32  33
HETATM   33  C   UNL     2     -10.814   6.056  67.120  1.00  0.00    -0.414 C  
HETATM   34  C   UNL     2     -10.776   7.500  67.589  1.00  0.00    -0.266 C  
ENDBRANCH  32  33
ENDBRANCH  31  32
ENDBRANCH  30  31
ENDBRANCH  29  30
ENDBRANCH  28  29
ENDBRANCH  27  28
ENDBRANCH  26  27
ENDBRANCH  25  26
ENDBRANCH  24  25
ENDBRANCH  23  24
ENDBRANCH  22  23
ENDBRANCH  21  22
ENDBRANCH  20  21
ENDBRANCH  18  20
ENDBRANCH  17  18
ENDBRANCH  16  17
ENDBRANCH   2  16
BRANCH   2  35
HETATM   35  O   UNL     2      -8.198   9.650  67.201  1.00  0.00    -0.119 OA 
BRANCH  35  36
HETATM   36  C   UNL     2      -7.650   9.176  66.046  1.00  0.00    -0.095 C  
HETATM   37  O   UNL     2      -6.485   8.796  65.906  1.00  0.00    -0.056 OA 
BRANCH  36  38
HETATM   38  C   UNL     2      -8.711   9.085  65.011  1.00  0.00    -0.217 C  
BRANCH  38  39
HETATM   39  C   UNL     2      -9.654  10.254  65.133  1.00  0.00    -0.337 C  
BRANCH  39  40
HETATM   40  C   UNL     2      -9.764  10.985  63.807  1.00  0.00    -0.351 C  
BRANCH  40  41
HETATM   41  C   UNL     2     -11.134  11.641  63.705  1.00  0.00    -0.499 C  
BRANCH  41  42
HETATM   42  C   UNL     2     -11.742  11.837  65.083  1.00  0.00    -0.155 C  
BRANCH  42  43
HETATM   43  C   UNL     2     -12.598  13.094  65.097  1.00  0.00    -0.525 C  
BRANCH  43  44
HETATM   44  C   UNL     2     -11.963  14.169  64.231  1.00  0.00    -0.460 C  
BRANCH  44  45
HETATM   45  C   UNL     2     -10.841  14.869  64.985  1.00  0.00    -0.439 C  
BRANCH  45  46
HETATM   46  C   UNL     2     -10.939  16.376  64.795  1.00  0.00    -0.246 C  
BRANCH  46  47
HETATM   47  C   UNL     2     -10.094  17.104  65.830  1.00  0.00    -0.257 C  
BRANCH  47  48
HETATM   48  C   UNL     2     -10.472  18.579  65.886  1.00  0.00    -0.379 C  
BRANCH  48  49
HETATM   49  C   UNL     2      -9.224  19.456  65.913  1.00  0.00    -0.049 C  
BRANCH  49  50
HETATM   50  C   UNL     2      -9.241  20.381  67.126  1.00  0.00    -0.511 C  
BRANCH  50  51
HETATM   51  C   UNL     2     -10.342  19.983  68.104  1.00  0.00    -0.503 C  
HETATM   52  C   UNL     2      -9.772  19.227  69.292  1.00  0.00    -0.292 C  
ENDBRANCH  50  51
ENDBRANCH  49  50
ENDBRANCH  48  49
ENDBRANCH  47  48
ENDBRANCH  46  47
ENDBRANCH  45  46
ENDBRANCH  44  45
ENDBRANCH  43  44
ENDBRANCH  42  43
ENDBRANCH  41  42
ENDBRANCH  40  41
ENDBRANCH  39  40
ENDBRANCH  38  39
ENDBRANCH  36  38
ENDBRANCH  35  36
ENDBRANCH   2  35
TORSDOF 40
ENDMDL
MODEL       18
REMARK 921   NORMALIZED FREE ENERGY PREDICTED BY IDOCK:   -3.49 KCAL/MOL
REMARK 922        TOTAL FREE ENERGY PREDICTED BY IDOCK:  -18.60 KCAL/MOL
REMARK 923 INTER-LIGAND FREE ENERGY PREDICTED BY IDOCK:  -12.42 KCAL/MOL
REMARK 924 INTRA-LIGAND FREE ENERGY PREDICTED BY IDOCK:   -6.18 KCAL/MOL
REMARK 927      BINDING AFFINITY PREDICTED BY RF-SCORE:    0.00 PKD
ROOT
HETATM    1 NA   UNL     1     -11.745   7.434  67.163  1.00  0.00    -0.539 Na 
HETATM    2  C   UNL     2      -9.922  10.332  65.252  1.00  0.00    -0.317 C  
ENDROOT
BRANCH   2   3
HETATM    3  C   UNL     2     -10.493   9.909  66.599  1.00  0.00    -0.169 C  
BRANCH   3   4
HETATM    4  O   UNL     2     -10.031  10.643  67.716  1.00  0.00    -0.163 OA 
BRANCH   4   5
HETATM    5  P   UNL     2     -10.774  10.330  69.247  1.00  0.00    -0.265 P  
HETATM    6  O   UNL     2     -10.641   8.785  69.005  1.00  0.00    -0.222 OA 
HETATM    7  O   UNL     2     -12.039  10.985  68.679  1.00  0.00    -0.551 OA 
BRANCH   5   8
HETATM    8  O   UNL     2     -11.517  10.018  70.778  1.00  0.00    -0.303 OA 
BRANCH   8   9
HETATM    9  C   UNL     2     -10.815   9.183  71.704  1.00  0.00    -0.372 C  
BRANCH   9  10
HETATM   10  C   UNL     2     -11.454   7.793  71.968  1.00  0.00    -0.289 C  
HETATM   11  H   UNL     2     -11.668   6.499  73.491  1.00  0.00     0.000 HD 
HETATM   12  O   UNL     2     -11.277   7.350  73.330  1.00  0.00    -0.324 OA 
BRANCH  10  13
HETATM   13  C   UNL     2     -12.959   7.854  71.652  1.00  0.00    -0.334 C  
HETATM   14  O   UNL     2     -13.661   6.720  72.170  1.00  0.00    -0.540 OA 
HETATM   15  H   UNL     2     -14.590   6.757  71.975  1.00  0.00     0.000 HD 
ENDBRANCH  10  13
ENDBRANCH   9  10
ENDBRANCH   8   9
ENDBRANCH   5   8
ENDBRANCH   4   5
ENDBRANCH   3   4
ENDBRANCH   2   3
BRANCH   2  16
HETATM   16  C   UNL     2     -10.249  11.769  64.877  1.00  0.00    -0.273 C  
BRANCH  16  17
HETATM   17  O   UNL     2     -11.493  12.231  65.399  1.00  0.00    -0.332 OA 
BRANCH  17  18
HETATM   18  C   UNL     2     -12.440  12.642  64.510  1.00  0.00    -0.448 C  
HETATM   19  O   UNL     2     -13.405  11.985  64.140  1.00  0.00    -0.725 OA 
BRANCH  18  20
HETATM   20  C   UNL     2     -12.059  13.994  64.004  1.00  0.00    -0.413 C  
BRANCH  20  21
HETATM   21  C   UNL     2     -11.718  14.863  65.183  1.00  0.00    -0.295 C  
BRANCH  21  22
HETATM   22  C   UNL     2     -11.150  16.193  64.722  1.00  0.00    -0.345 C  
BRANCH  22  23
HETATM   23  C   UNL     2     -10.383  16.846  65.859  1.00  0.00    -0.327 C  
BRANCH  23  24
HETATM   24  C   UNL     2     -10.734  18.319  65.947  1.00  0.00    -0.168 C  
BRANCH  24  25
HETATM   25  C   UNL     2     -10.055  18.943  67.153  1.00  0.00    -0.414 C  
BRANCH  25  26
HETATM   26  C   UNL     2      -8.583  18.568  67.177  1.00  0.00    -0.273 C  
BRANCH  26  27
HETATM   27  C   UNL     2      -8.180  18.118  68.572  1.00  0.00    -0.320 C  
BRANCH  27  28
HETATM   28  C   UNL     2      -7.042  17.114  68.491  1.00  0.00    -0.213 C  
BRANCH  28  29
HETATM   29  C   UNL     2      -7.158  16.277  67.225  1.00  0.00    -0.226 C  
BRANCH  29  30
HETATM   30  C   UNL     2      -7.239  14.797  67.573  1.00  0.00    -0.222 C  
BRANCH  30  31
HETATM   31  C   UNL     2      -8.672  14.292  67.452  1.00  0.00    -0.217 C  
BRANCH  31  32
HETATM   32  C   UNL     2      -9.409  14.445  68.780  1.00  0.00    -0.150 C  
BRANCH  32  33
HETATM   33  C   UNL     2     -10.911  14.260  68.595  1.00  0.00    -0.268 C  
HETATM   34  C   UNL     2     -11.665  15.530  68.953  1.00  0.00    -0.385 C  
ENDBRANCH  32  33
ENDBRANCH  31  32
ENDBRANCH  30  31
ENDBRANCH  29  30
ENDBRANCH  28  29
ENDBRANCH  27  28
ENDBRANCH  26  27
ENDBRANCH  25  26
ENDBRANCH  24  25
ENDBRANCH  23  24
ENDBRANCH  22  23
ENDBRANCH  21  22
ENDBRANCH  20  21
ENDBRANCH  18  20
ENDBRANCH  17  18
ENDBRANCH  16  17
ENDBRANCH   2  16
BRANCH   2  35
HETATM   35  O   UNL     2      -8.490  10.191  65.260  1.00  0.00    -0.144 OA 
BRANCH  35  36
HETATM   36  C   UNL     2      -8.025   8.969  64.876  1.00  0.00    -0.126 C  
HETATM   37  O   UNL     2      -8.060   8.514  63.730  1.00  0.00    -0.155 OA 
BRANCH  36  38
HETATM   38  C   UNL     2      -7.370   8.315  66.038  1.00  0.00    -0.080 C  
BRANCH  38  39
HETATM   39  C   UNL     2      -8.253   7.223  66.582  1.00  0.00    -0.118 C  
BRANCH  39  40
HETATM   40  C   UNL     2      -7.421   6.013  66.968  1.00  0.00    -0.084 C  
BRANCH  40  41
HETATM   41  C   UNL     2      -6.648   6.318  68.243  1.00  0.00    -0.062 C  
BRANCH  41  42
HETATM   42  C   UNL     2      -6.197   5.035  68.920  1.00  0.00    -0.031 C  
BRANCH  42  43
HETATM   43  C   UNL     2      -6.812   3.834  68.218  1.00  0.00    -0.047 C  
BRANCH  43  44
HETATM   44  C   UNL     2      -7.139   2.748  69.230  1.00  0.00    -0.044 C  
BRANCH  44  45
HETATM   45  C   UNL     2      -8.599   2.335  69.119  1.00  0.00    -0.111 C  
BRANCH  45  46
HETATM   46  C   UNL     2      -9.505   3.533  69.371  1.00  0.00    -0.234 C  
BRANCH  46  47
HETATM   47  C   UNL     2      -9.670   3.776  70.865  1.00  0.00    -0.248 C  
BRANCH  47  48
HETATM   48  C   UNL     2      -9.286   5.208  71.218  1.00  0.00    -0.192 C  
BRANCH  48  49
HETATM   49  C   UNL     2      -8.077   5.230  72.147  1.00  0.00    -0.114 C  
BRANCH  49  50
HETATM   50  C   UNL     2      -7.809   6.645  72.650  1.00  0.00    -0.101 C  
BRANCH  50  51
HETATM   51  C   UNL     2      -6.701   7.314  71.843  1.00  0.00    -0.055 C  
HETATM   52  C   UNL     2      -7.243   8.472  71.023  1.00  0.00    -0.071 C  
ENDBRANCH  50  51
ENDBRANCH  49  50
ENDBRANCH  48  49
ENDBRANCH  47  48
ENDBRANCH  46  47
ENDBRANCH  45  46
ENDBRANCH  44  45
ENDBRANCH  43  44
ENDBRANCH  42  43
ENDBRANCH  41  42
ENDBRANCH  40  41
ENDBRANCH  39  40
ENDBRANCH  38  39
ENDBRANCH  36  38
ENDBRANCH  35  36
ENDBRANCH   2  35
TORSDOF 40
ENDMDL
MODEL       19
REMARK 921   NORMALIZED FREE ENERGY PREDICTED BY IDOCK:   -3.28 KCAL/MOL
REMARK 922        TOTAL FREE ENERGY PREDICTED BY IDOCK:  -17.90 KCAL/MOL
REMARK 923 INTER-LIGAND FREE ENERGY PREDICTED BY IDOCK:  -12.40 KCAL/MOL
REMARK 924 INTRA-LIGAND FREE ENERGY PREDICTED BY IDOCK:   -5.50 KCAL/MOL
REMARK 927      BINDING AFFINITY PREDICTED BY RF-SCORE:    0.00 PKD
ROOT
HETATM    1 NA   UNL     1      -8.956  15.368  66.607  1.00  0.00    -0.173 Na 
HETATM    2  C   UNL     2      -7.944  11.591  66.310  1.00  0.00     0.019 C  
ENDROOT
BRANCH   2   3
HETATM    3  C   UNL     2      -8.066  12.765  67.273  1.00  0.00    -0.172 C  
BRANCH   3   4
HETATM    4  O   UNL     2      -6.937  13.005  68.090  1.00  0.00    -0.082 OA 
BRANCH   4   5
HETATM    5  P   UNL     2      -6.847  14.526  68.911  1.00  0.00    -0.114 P  
HETATM    6  O   UNL     2      -6.101  13.842  70.111  1.00  0.00    -0.140 OA 
HETATM    7  O   UNL     2      -8.378  14.492  68.977  1.00  0.00    -0.140 OA 
BRANCH   5   8
HETATM    8  O   UNL     2      -6.757  16.046  69.733  1.00  0.00    -0.191 OA 
BRANCH   8   9
HETATM    9  C   UNL     2      -6.377  17.196  68.972  1.00  0.00    -0.204 C  
BRANCH   9  10
HETATM   10  C   UNL     2      -7.187  17.433  67.669  1.00  0.00    -0.164 C  
HETATM   11  H   UNL     2      -9.084  17.812  67.125  1.00  0.00     0.000 HD 
HETATM   12  O   UNL     2      -8.588  17.667  67.922  1.00  0.00    -0.228 OA 
BRANCH  10  13
HETATM   13  C   UNL     2      -6.604  18.642  66.917  1.00  0.00    -0.188 C  
HETATM   14  O   UNL     2      -7.150  18.766  65.599  1.00  0.00    -0.406 OA 
HETATM   15  H   UNL     2      -6.791  19.512  65.135  1.00  0.00     0.000 HD 
ENDBRANCH  10  13
ENDBRANCH   9  10
ENDBRANCH   8   9
ENDBRANCH   5   8
ENDBRANCH   4   5
ENDBRANCH   3   4
ENDBRANCH   2   3
BRANCH   2  16
HETATM   16  C   UNL     2      -6.669  10.784  66.494  1.00  0.00    -0.126 C  
BRANCH  16  17
HETATM   17  O   UNL     2      -6.896   9.426  66.867  1.00  0.00    -0.078 OA 
BRANCH  17  18
HETATM   18  C   UNL     2      -7.015   8.506  65.871  1.00  0.00    -0.071 C  
HETATM   19  O   UNL     2      -6.497   8.580  64.764  1.00  0.00    -0.064 OA 
BRANCH  18  20
HETATM   20  C   UNL     2      -7.948   7.432  66.327  1.00  0.00    -0.109 C  
BRANCH  20  21
HETATM   21  C   UNL     2      -7.862   7.335  67.826  1.00  0.00    -0.114 C  
BRANCH  21  22
HETATM   22  C   UNL     2      -9.240   7.140  68.429  1.00  0.00    -0.133 C  
BRANCH  22  23
HETATM   23  C   UNL     2      -9.558   5.657  68.513  1.00  0.00    -0.160 C  
BRANCH  23  24
HETATM   24  C   UNL     2     -10.427   5.377  69.726  1.00  0.00    -0.378 C  
BRANCH  24  25
HETATM   25  C   UNL     2     -11.357   6.550  69.978  1.00  0.00    -0.472 C  
BRANCH  25  26
HETATM   26  C   UNL     2     -11.898   6.493  71.397  1.00  0.00    -0.384 C  
BRANCH  26  27
HETATM   27  C   UNL     2     -11.124   5.471  72.212  1.00  0.00    -0.297 C  
BRANCH  27  28
HETATM   28  C   UNL     2     -10.728   6.061  73.555  1.00  0.00    -0.270 C  
BRANCH  28  29
HETATM   29  C   UNL     2     -10.551   7.569  73.444  1.00  0.00    -0.409 C  
BRANCH  29  30
HETATM   30  C   UNL     2      -9.073   7.932  73.460  1.00  0.00    -0.346 C  
BRANCH  30  31
HETATM   31  C   UNL     2      -8.549   8.121  72.041  1.00  0.00    -0.216 C  
BRANCH  31  32
HETATM   32  C   UNL     2      -7.533   7.038  71.694  1.00  0.00    -0.088 C  
BRANCH  32  33
HETATM   33  C   UNL     2      -6.261   7.647  71.112  1.00  0.00    -0.035 C  
HETATM   34  C   UNL     2      -6.493   9.084  70.679  1.00  0.00    -0.056 C  
ENDBRANCH  32  33
ENDBRANCH  31  32
ENDBRANCH  30  31
ENDBRANCH  29  30
ENDBRANCH  28  29
ENDBRANCH  27  28
ENDBRANCH  26  27
ENDBRANCH  25  26
ENDBRANCH  24  25
ENDBRANCH  23  24
ENDBRANCH  22  23
ENDBRANCH  21  22
ENDBRANCH  20  21
ENDBRANCH  18  20
ENDBRANCH  17  18
ENDBRANCH  16  17
ENDBRANCH   2  16
BRANCH   2  35
HETATM   35  O   UNL     2      -9.061  10.700  66.481  1.00  0.00    -0.157 OA 
BRANCH  35  36
HETATM   36  C   UNL     2      -9.734  10.832  67.659  1.00  0.00    -0.166 C  
HETATM   37  O   UNL     2      -9.238  10.748  68.784  1.00  0.00    -0.175 OA 
BRANCH  36  38
HETATM   38  C   UNL     2     -11.143  11.202  67.370  1.00  0.00    -0.370 C  
BRANCH  38  39
HETATM   39  C   UNL     2     -11.247  11.814  65.997  1.00  0.00    -0.352 C  
BRANCH  39  40
HETATM   40  C   UNL     2     -12.260  12.944  65.997  1.00  0.00    -0.431 C  
BRANCH  40  41
HETATM   41  C   UNL     2     -11.647  14.172  66.653  1.00  0.00    -0.399 C  
BRANCH  41  42
HETATM   42  C   UNL     2     -11.812  14.116  68.162  1.00  0.00    -0.387 C  
BRANCH  42  43
HETATM   43  C   UNL     2     -11.658  15.510  68.752  1.00  0.00    -0.390 C  
BRANCH  43  44
HETATM   44  C   UNL     2     -12.558  15.665  69.968  1.00  0.00    -0.181 C  
BRANCH  44  45
HETATM   45  C   UNL     2     -11.732  15.979  71.207  1.00  0.00    -0.516 C  
BRANCH  45  46
HETATM   46  C   UNL     2     -11.967  14.921  72.277  1.00  0.00    -0.396 C  
BRANCH  46  47
HETATM   47  C   UNL     2     -13.429  14.903  72.702  1.00  0.00    -0.573 C  
BRANCH  47  48
HETATM   48  C   UNL     2     -14.041  13.532  72.447  1.00  0.00    -0.563 C  
BRANCH  48  49
HETATM   49  C   UNL     2     -12.972  12.536  72.008  1.00  0.00    -0.379 C  
BRANCH  49  50
HETATM   50  C   UNL     2     -13.537  11.119  71.973  1.00  0.00    -0.133 C  
BRANCH  50  51
HETATM   51  C   UNL     2     -12.941  10.320  70.818  1.00  0.00    -0.408 C  
HETATM   52  C   UNL     2     -11.445  10.125  71.002  1.00  0.00    -0.436 C  
ENDBRANCH  50  51
ENDBRANCH  49  50
ENDBRANCH  48  49
ENDBRANCH  47  48
ENDBRANCH  46  47
ENDBRANCH  45  46
ENDBRANCH  44  45
ENDBRANCH  43  44
ENDBRANCH  42  43
ENDBRANCH  41  42
ENDBRANCH  40  41
ENDBRANCH  39  40
ENDBRANCH  38  39
ENDBRANCH  36  38
ENDBRANCH  35  36
ENDBRANCH   2  35
TORSDOF 40
ENDMDL
MODEL       20
REMARK 921   NORMALIZED FREE ENERGY PREDICTED BY IDOCK:   -3.28 KCAL/MOL
REMARK 922        TOTAL FREE ENERGY PREDICTED BY IDOCK:  -17.89 KCAL/MOL
REMARK 923 INTER-LIGAND FREE ENERGY PREDICTED BY IDOCK:  -12.48 KCAL/MOL
REMARK 924 INTRA-LIGAND FREE ENERGY PREDICTED BY IDOCK:   -5.42 KCAL/MOL
REMARK 927      BINDING AFFINITY PREDICTED BY RF-SCORE:    0.00 PKD
ROOT
HETATM    1 NA   UNL     1     -13.212  13.601  73.437  1.00  0.00    -0.486 Na 
HETATM    2  C   UNL     2     -11.868  11.688  70.289  1.00  0.00    -0.326 C  
ENDROOT
BRANCH   2   3
HETATM    3  C   UNL     2     -13.021  11.779  71.279  1.00  0.00    -0.254 C  
BRANCH   3   4
HETATM    4  O   UNL     2     -13.262  13.062  71.821  1.00  0.00    -0.415 OA 
BRANCH   4   5
HETATM    5  P   UNL     2     -12.820  14.435  70.865  1.00  0.00    -0.321 P  
HETATM    6  O   UNL     2     -11.643  14.754  71.854  1.00  0.00    -0.315 OA 
HETATM    7  O   UNL     2     -14.181  15.035  71.238  1.00  0.00    -0.448 OA 
BRANCH   5   8
HETATM    8  O   UNL     2     -12.377  15.809  69.910  1.00  0.00    -0.338 OA 
BRANCH   8   9
HETATM    9  C   UNL     2     -11.019  16.255  69.969  1.00  0.00    -0.355 C  
BRANCH   9  10
HETATM   10  C   UNL     2     -10.350  16.542  68.599  1.00  0.00    -0.287 C  
HETATM   11  H   UNL     2     -10.691  16.181  66.652  1.00  0.00     0.000 HD 
HETATM   12  O   UNL     2     -11.102  16.005  67.491  1.00  0.00    -0.300 OA 
BRANCH  10  13
HETATM   13  C   UNL     2     -10.197  18.062  68.412  1.00  0.00    -0.391 C  
HETATM   14  O   UNL     2      -8.823  18.464  68.395  1.00  0.00    -0.306 OA 
HETATM   15  H   UNL     2      -8.729  19.402  68.280  1.00  0.00     0.000 HD 
ENDBRANCH  10  13
ENDBRANCH   9  10
ENDBRANCH   8   9
ENDBRANCH   5   8
ENDBRANCH   4   5
ENDBRANCH   3   4
ENDBRANCH   2   3
BRANCH   2  16
HETATM   16  C   UNL     2     -11.447  10.261  69.975  1.00  0.00    -0.296 C  
BRANCH  16  17
HETATM   17  O   UNL     2     -11.844   9.313  70.963  1.00  0.00    -0.285 OA 
BRANCH  17  18
HETATM   18  C   UNL     2     -11.682   7.992  70.676  1.00  0.00    -0.150 C  
HETATM   19  O   UNL     2     -11.087   7.539  69.706  1.00  0.00    -0.224 OA 
BRANCH  18  20
HETATM   20  C   UNL     2     -12.420   7.191  71.698  1.00  0.00    -0.405 C  
BRANCH  20  21
HETATM   21  C   UNL     2     -11.429   6.324  72.427  1.00  0.00    -0.335 C  
BRANCH  21  22
HETATM   22  C   UNL     2     -10.678   7.131  73.469  1.00  0.00    -0.375 C  
BRANCH  22  23
HETATM   23  C   UNL     2      -9.184   6.892  73.325  1.00  0.00    -0.162 C  
BRANCH  23  24
HETATM   24  C   UNL     2      -8.412   7.889  74.169  1.00  0.00    -0.312 C  
BRANCH  24  25
HETATM   25  C   UNL     2      -6.970   7.959  73.700  1.00  0.00    -0.130 C  
BRANCH  25  26
HETATM   26  C   UNL     2      -6.892   7.693  72.207  1.00  0.00    -0.058 C  
BRANCH  26  27
HETATM   27  C   UNL     2      -6.724   8.999  71.448  1.00  0.00    -0.076 C  
BRANCH  27  28
HETATM   28  C   UNL     2      -7.992   9.325  70.678  1.00  0.00    -0.189 C  
BRANCH  28  29
HETATM   29  C   UNL     2      -7.755   9.194  69.180  1.00  0.00    -0.081 C  
BRANCH  29  30
HETATM   30  C   UNL     2      -6.322   9.576  68.835  1.00  0.00    -0.043 C  
BRANCH  30  31
HETATM   31  C   UNL     2      -6.136   9.660  67.324  1.00  0.00    -0.056 C  
BRANCH  31  32
HETATM   32  C   UNL     2      -5.900  11.104  66.892  1.00  0.00    -0.092 C  
BRANCH  32  33
HETATM   33  C   UNL     2      -7.122  11.969  67.186  1.00  0.00    -0.130 C  
HETATM   34  C   UNL     2      -6.712  13.327  67.728  1.00  0.00    -0.154 C  
ENDBRANCH  32  33
ENDBRANCH  31  32
ENDBRANCH  30  31
ENDBRANCH  29  30
ENDBRANCH  28  29
ENDBRANCH  27  28
ENDBRANCH  26  27
ENDBRANCH  25  26
ENDBRANCH  24  25
ENDBRANCH  23  24
ENDBRANCH  22  23
ENDBRANCH  21  22
ENDBRANCH  20  21
ENDBRANCH  18  20
ENDBRANCH  17  18
ENDBRANCH  16  17
ENDBRANCH   2  16
BRANCH   2  35
HETATM   35  O   UNL     2     -12.233  12.325  69.052  1.00  0.00    -0.198 OA 
BRANCH  35  36
HETATM   36  C   UNL     2     -11.199  12.564  68.195  1.00  0.00    -0.267 C  
HETATM   37  O   UNL     2     -10.148  13.142  68.480  1.00  0.00    -0.238 OA 
BRANCH  36  38
HETATM   38  C   UNL     2     -11.496  11.920  66.890  1.00  0.00    -0.390 C  
BRANCH  38  39
HETATM   39  C   UNL     2     -11.729  12.970  65.835  1.00  0.00    -0.442 C  
BRANCH  39  40
HETATM   40  C   UNL     2     -10.684  12.860  64.740  1.00  0.00    -0.354 C  
BRANCH  40  41
HETATM   41  C   UNL     2     -11.138  11.836  63.710  1.00  0.00    -0.513 C  
BRANCH  41  42
HETATM   42  C   UNL     2      -9.989  10.926  63.311  1.00  0.00    -0.399 C  
BRANCH  42  43
HETATM   43  C   UNL     2      -9.043  10.740  64.487  1.00  0.00    -0.220 C  
BRANCH  43  44
HETATM   44  C   UNL     2      -9.232   9.360  65.096  1.00  0.00    -0.287 C  
BRANCH  44  45
HETATM   45  C   UNL     2      -8.282   8.358  64.455  1.00  0.00    -0.149 C  
BRANCH  45  46
HETATM   46  C   UNL     2      -8.285   7.054  65.240  1.00  0.00    -0.128 C  
BRANCH  46  47
HETATM   47  C   UNL     2      -8.926   7.251  66.607  1.00  0.00    -0.170 C  
BRANCH  47  48
HETATM   48  C   UNL     2      -9.148   5.908  67.290  1.00  0.00    -0.111 C  
BRANCH  48  49
HETATM   49  C   UNL     2      -7.931   5.515  68.120  1.00  0.00    -0.096 C  
BRANCH  49  50
HETATM   50  C   UNL     2      -8.210   5.700  69.609  1.00  0.00    -0.107 C  
BRANCH  50  51
HETATM   51  C   UNL     2      -9.225   4.676  70.107  1.00  0.00    -0.188 C  
HETATM   52  C   UNL     2      -8.676   3.889  71.285  1.00  0.00    -0.127 C  
ENDBRANCH  50  51
ENDBRANCH  49  50
ENDBRANCH  48  49
ENDBRANCH  47  48
ENDBRANCH  46  47
ENDBRANCH  45  46
ENDBRANCH  44  45
ENDBRANCH  43  44
ENDBRANCH  42  43
ENDBRANCH  41  42
ENDBRANCH  40  41
ENDBRANCH  39  40
ENDBRANCH  38  39
ENDBRANCH  36  38
ENDBRANCH  35  36
ENDBRANCH   2  35
TORSDOF 40
ENDMDL
MODEL       21
REMARK 921   NORMALIZED FREE ENERGY PREDICTED BY IDOCK:   -3.19 KCAL/MOL
REMARK 922        TOTAL FREE ENERGY PREDICTED BY IDOCK:  -17.59 KCAL/MOL
REMARK 923 INTER-LIGAND FREE ENERGY PREDICTED BY IDOCK:  -10.88 KCAL/MOL
REMARK 924 INTRA-LIGAND FREE ENERGY PREDICTED BY IDOCK:   -6.71 KCAL/MOL
REMARK 927      BINDING AFFINITY PREDICTED BY RF-SCORE:    0.00 PKD
ROOT
HETATM    1 NA   UNL     1     -11.659   8.480  67.408  1.00  0.00    -0.487 Na 
HETATM    2  C   UNL     2      -9.012  11.296  66.741  1.00  0.00    -0.171 C  
ENDROOT
BRANCH   2   3
HETATM    3  C   UNL     2     -10.149  10.862  67.656  1.00  0.00    -0.179 C  
BRANCH   3   4
HETATM    4  O   UNL     2      -9.999  11.203  69.020  1.00  0.00    -0.199 OA 
BRANCH   4   5
HETATM    5  P   UNL     2     -10.832  10.234  70.188  1.00  0.00    -0.221 P  
HETATM    6  O   UNL     2     -10.641   8.966  69.283  1.00  0.00    -0.227 OA 
HETATM    7  O   UNL     2     -12.074  11.081  69.890  1.00  0.00    -0.315 OA 
BRANCH   5   8
HETATM    8  O   UNL     2     -11.664   9.265  71.356  1.00  0.00    -0.306 OA 
BRANCH   8   9
HETATM    9  C   UNL     2     -10.877   8.527  72.295  1.00  0.00    -0.348 C  
BRANCH   9  10
HETATM   10  C   UNL     2     -10.940   6.983  72.152  1.00  0.00    -0.234 C  
HETATM   11  H   UNL     2     -10.749   5.354  73.314  1.00  0.00     0.000 HD 
HETATM   12  O   UNL     2     -10.710   6.300  73.402  1.00  0.00    -0.255 OA 
BRANCH  10  13
HETATM   13  C   UNL     2     -12.319   6.576  71.604  1.00  0.00    -0.260 C  
HETATM   14  O   UNL     2     -12.483   6.955  70.233  1.00  0.00    -0.613 OA 
HETATM   15  H   UNL     2     -13.334   6.704  69.895  1.00  0.00     0.000 HD 
ENDBRANCH  10  13
ENDBRANCH   9  10
ENDBRANCH   8   9
ENDBRANCH   5   8
ENDBRANCH   4   5
ENDBRANCH   3   4
ENDBRANCH   2   3
BRANCH   2  16
HETATM   16  C   UNL     2      -9.055  12.771  66.376  1.00  0.00    -0.089 C  
BRANCH  16  17
HETATM   17  O   UNL     2     -10.335  13.373  66.557  1.00  0.00    -0.274 OA 
BRANCH  17  18
HETATM   18  C   UNL     2     -10.981  13.835  65.451  1.00  0.00    -0.309 C  
HETATM   19  O   UNL     2     -11.847  13.235  64.827  1.00  0.00    -0.342 OA 
BRANCH  18  20
HETATM   20  C   UNL     2     -10.399  15.161  65.083  1.00  0.00    -0.416 C  
BRANCH  20  21
HETATM   21  C   UNL     2      -9.856  15.803  66.330  1.00  0.00    -0.296 C  
BRANCH  21  22
HETATM   22  C   UNL     2     -10.791  16.892  66.821  1.00  0.00     0.001 C  
BRANCH  22  23
HETATM   23  C   UNL     2     -10.214  18.256  66.481  1.00  0.00    -0.409 C  
BRANCH  23  24
HETATM   24  C   UNL     2     -10.670  19.284  67.499  1.00  0.00    -0.571 C  
BRANCH  24  25
HETATM   25  C   UNL     2      -9.479  20.084  67.998  1.00  0.00    -0.427 C  
BRANCH  25  26
HETATM   26  C   UNL     2      -8.588  20.478  66.832  1.00  0.00    -0.271 C  
BRANCH  26  27
HETATM   27  C   UNL     2      -7.230  20.934  67.341  1.00  0.00    -0.396 C  
BRANCH  27  28
HETATM   28  C   UNL     2      -6.183  20.781  66.251  1.00  0.00    -0.292 C  
BRANCH  28  29
HETATM   29  C   UNL     2      -6.706  19.894  65.130  1.00  0.00    -0.308 C  
BRANCH  29  30
HETATM   30  C   UNL     2      -5.858  18.636  65.009  1.00  0.00    -0.280 C  
BRANCH  30  31
HETATM   31  C   UNL     2      -6.516  17.470  65.737  1.00  0.00    -0.055 C  
BRANCH  31  32
HETATM   32  C   UNL     2      -5.726  17.104  66.990  1.00  0.00    -0.205 C  
BRANCH  32  33
HETATM   33  C   UNL     2      -6.611  16.382  68.002  1.00  0.00    -0.146 C  
HETATM   34  C   UNL     2      -7.443  17.370  68.801  1.00  0.00    -0.258 C  
ENDBRANCH  32  33
ENDBRANCH  31  32
ENDBRANCH  30  31
ENDBRANCH  29  30
ENDBRANCH  28  29
ENDBRANCH  27  28
ENDBRANCH  26  27
ENDBRANCH  25  26
ENDBRANCH  24  25
ENDBRANCH  23  24
ENDBRANCH  22  23
ENDBRANCH  21  22
ENDBRANCH  20  21
ENDBRANCH  18  20
ENDBRANCH  17  18
ENDBRANCH  16  17
ENDBRANCH   2  16
BRANCH   2  35
HETATM   35  O   UNL     2      -7.747  11.032  67.372  1.00  0.00    -0.107 OA 
BRANCH  35  36
HETATM   36  C   UNL     2      -6.866  10.307  66.627  1.00  0.00    -0.091 C  
HETATM   37  O   UNL     2      -6.420  10.631  65.523  1.00  0.00    -0.121 OA 
BRANCH  36  38
HETATM   38  C   UNL     2      -6.443   9.114  67.405  1.00  0.00    -0.064 C  
BRANCH  38  39
HETATM   39  C   UNL     2      -7.448   8.005  67.240  1.00  0.00    -0.093 C  
BRANCH  39  40
HETATM   40  C   UNL     2      -7.229   7.283  65.923  1.00  0.00    -0.074 C  
BRANCH  40  41
HETATM   41  C   UNL     2      -6.131   6.244  66.094  1.00  0.00    -0.033 C  
BRANCH  41  42
HETATM   42  C   UNL     2      -6.686   4.839  65.928  1.00  0.00    -0.053 C  
BRANCH  42  43
HETATM   43  C   UNL     2      -8.121   4.906  65.428  1.00  0.00    -0.114 C  
BRANCH  43  44
HETATM   44  C   UNL     2      -8.944   3.790  66.050  1.00  0.00    -0.136 C  
BRANCH  44  45
HETATM   45  C   UNL     2     -10.158   4.358  66.769  1.00  0.00    -0.177 C  
BRANCH  45  46
HETATM   46  C   UNL     2      -9.721   5.351  67.837  1.00  0.00    -0.165 C  
BRANCH  46  47
HETATM   47  C   UNL     2      -9.957   4.781  69.229  1.00  0.00    -0.254 C  
BRANCH  47  48
HETATM   48  C   UNL     2      -8.714   4.953  70.093  1.00  0.00    -0.118 C  
BRANCH  48  49
HETATM   49  C   UNL     2      -7.486   4.379  69.393  1.00  0.00    -0.055 C  
BRANCH  49  50
HETATM   50  C   UNL     2      -6.211   4.762  70.139  1.00  0.00    -0.026 C  
BRANCH  50  51
HETATM   51  C   UNL     2      -5.606   6.041  69.569  1.00  0.00    -0.012 C  
HETATM   52  C   UNL     2      -5.831   7.217  70.504  1.00  0.00    -0.027 C  
ENDBRANCH  50  51
ENDBRANCH  49  50
ENDBRANCH  48  49
ENDBRANCH  47  48
ENDBRANCH  46  47
ENDBRANCH  45  46
ENDBRANCH  44  45
ENDBRANCH  43  44
ENDBRANCH  42  43
ENDBRANCH  41  42
ENDBRANCH  40  41
ENDBRANCH  39  40
ENDBRANCH  38  39
ENDBRANCH  36  38
ENDBRANCH  35  36
ENDBRANCH   2  35
TORSDOF 40
ENDMDL
MODEL       22
REMARK 921   NORMALIZED FREE ENERGY PREDICTED BY IDOCK:   -3.05 KCAL/MOL
REMARK 922        TOTAL FREE ENERGY PREDICTED BY IDOCK:  -17.14 KCAL/MOL
REMARK 923 INTER-LIGAND FREE ENERGY PREDICTED BY IDOCK:  -11.57 KCAL/MOL
REMARK 924 INTRA-LIGAND FREE ENERGY PREDICTED BY IDOCK:   -5.57 KCAL/MOL
REMARK 927      BINDING AFFINITY PREDICTED BY RF-SCORE:    0.00 PKD
ROOT
HETATM    1 NA   UNL     1     -11.240   8.628  73.167  1.00  0.00    -0.303 Na 
HETATM    2  C   UNL     2      -9.485   8.920  69.673  1.00  0.00    -0.168 C  
ENDROOT
BRANCH   2   3
HETATM    3  C   UNL     2      -9.270   8.553  71.135  1.00  0.00    -0.197 C  
BRANCH   3   4
HETATM    4  O   UNL     2      -8.956   7.197  71.385  1.00  0.00    -0.136 OA 
BRANCH   4   5
HETATM    5  P   UNL     2      -9.866   6.371  72.604  1.00  0.00    -0.168 P  
HETATM    6  O   UNL     2     -11.202   6.749  71.872  1.00  0.00    -0.242 OA 
HETATM    7  O   UNL     2      -9.336   7.413  73.596  1.00  0.00    -0.212 OA 
BRANCH   5   8
HETATM    8  O   UNL     2     -10.776   5.546  73.823  1.00  0.00    -0.270 OA 
BRANCH   8   9
HETATM    9  C   UNL     2     -11.520   4.388  73.433  1.00  0.00    -0.203 C  
BRANCH   9  10
HETATM   10  C   UNL     2     -10.829   3.026  73.710  1.00  0.00    -0.215 C  
HETATM   11  H   UNL     2     -11.322   1.080  73.804  1.00  0.00     0.000 HD 
HETATM   12  O   UNL     2     -11.745   1.914  73.634  1.00  0.00    -0.212 OA 
BRANCH  10  13
HETATM   13  C   UNL     2      -9.695   2.811  72.693  1.00  0.00    -0.127 C  
HETATM   14  O   UNL     2      -9.707   1.488  72.148  1.00  0.00    -0.088 OA 
HETATM   15  H   UNL     2      -9.007   1.356  71.520  1.00  0.00     0.000 HD 
ENDBRANCH  10  13
ENDBRANCH   9  10
ENDBRANCH   8   9
ENDBRANCH   5   8
ENDBRANCH   4   5
ENDBRANCH   3   4
ENDBRANCH   2   3
BRANCH   2  16
HETATM   16  C   UNL     2      -8.356   9.750  69.083  1.00  0.00    -0.137 C  
BRANCH  16  17
HETATM   17  O   UNL     2      -7.558  10.415  70.061  1.00  0.00    -0.152 OA 
BRANCH  17  18
HETATM   18  C   UNL     2      -6.207  10.264  69.985  1.00  0.00    -0.088 C  
HETATM   19  O   UNL     2      -5.577   9.276  70.343  1.00  0.00    -0.032 OA 
BRANCH  18  20
HETATM   20  C   UNL     2      -5.617  11.536  69.471  1.00  0.00    -0.060 C  
BRANCH  20  21
HETATM   21  C   UNL     2      -5.644  12.553  70.579  1.00  0.00    -0.172 C  
BRANCH  21  22
HETATM   22  C   UNL     2      -6.235  13.862  70.089  1.00  0.00    -0.123 C  
BRANCH  22  23
HETATM   23  C   UNL     2      -6.600  13.742  68.618  1.00  0.00    -0.096 C  
BRANCH  23  24
HETATM   24  C   UNL     2      -5.974  14.878  67.831  1.00  0.00    -0.160 C  
BRANCH  24  25
HETATM   25  C   UNL     2      -6.730  16.168  68.094  1.00  0.00    -0.133 C  
BRANCH  25  26
HETATM   26  C   UNL     2      -7.045  16.866  66.782  1.00  0.00    -0.273 C  
BRANCH  26  27
HETATM   27  C   UNL     2      -6.470  18.274  66.786  1.00  0.00    -0.209 C  
BRANCH  27  28
HETATM   28  C   UNL     2      -6.113  18.691  68.202  1.00  0.00    -0.202 C  
BRANCH  28  29
HETATM   29  C   UNL     2      -7.076  19.760  68.702  1.00  0.00    -0.366 C  
BRANCH  29  30
HETATM   30  C   UNL     2      -7.618  20.572  67.534  1.00  0.00    -0.344 C  
BRANCH  30  31
HETATM   31  C   UNL     2      -9.142  20.526  67.507  1.00  0.00    -0.413 C  
BRANCH  31  32
HETATM   32  C   UNL     2      -9.659  19.359  68.341  1.00  0.00    -0.460 C  
BRANCH  32  33
HETATM   33  C   UNL     2     -10.437  18.371  67.477  1.00  0.00    -0.445 C  
HETATM   34  C   UNL     2     -10.426  18.797  66.019  1.00  0.00    -0.483 C  
ENDBRANCH  32  33
ENDBRANCH  31  32
ENDBRANCH  30  31
ENDBRANCH  29  30
ENDBRANCH  28  29
ENDBRANCH  27  28
ENDBRANCH  26  27
ENDBRANCH  25  26
ENDBRANCH  24  25
ENDBRANCH  23  24
ENDBRANCH  22  23
ENDBRANCH  21  22
ENDBRANCH  20  21
ENDBRANCH  18  20
ENDBRANCH  17  18
ENDBRANCH  16  17
ENDBRANCH   2  16
BRANCH   2  35
HETATM   35  O   UNL     2      -9.615   7.725  68.882  1.00  0.00    -0.153 OA 
BRANCH  35  36
HETATM   36  C   UNL     2      -8.681   7.574  67.901  1.00  0.00    -0.124 C  
HETATM   37  O   UNL     2      -7.489   7.314  68.077  1.00  0.00    -0.097 OA 
BRANCH  36  38
HETATM   38  C   UNL     2      -9.352   7.663  66.579  1.00  0.00    -0.241 C  
BRANCH  38  39
HETATM   39  C   UNL     2      -8.358   8.061  65.519  1.00  0.00    -0.153 C  
BRANCH  39  40
HETATM   40  C   UNL     2      -8.414   9.558  65.275  1.00  0.00    -0.159 C  
BRANCH  40  41
HETATM   41  C   UNL     2      -8.771   9.819  63.819  1.00  0.00    -0.239 C  
BRANCH  41  42
HETATM   42  C   UNL     2      -9.865  10.866  63.711  1.00  0.00    -0.391 C  
BRANCH  42  43
HETATM   43  C   UNL     2     -10.763  10.806  64.937  1.00  0.00    -0.167 C  
BRANCH  43  44
HETATM   44  C   UNL     2     -11.686  12.013  64.969  1.00  0.00    -0.316 C  
BRANCH  44  45
HETATM   45  C   UNL     2     -11.671  12.734  63.629  1.00  0.00    -0.587 C  
BRANCH  45  46
HETATM   46  C   UNL     2     -12.176  14.161  63.794  1.00  0.00    -0.183 C  
BRANCH  46  47
HETATM   47  C   UNL     2     -11.874  14.679  65.193  1.00  0.00    -0.351 C  
BRANCH  47  48
HETATM   48  C   UNL     2     -10.567  15.463  65.200  1.00  0.00    -0.458 C  
BRANCH  48  49
HETATM   49  C   UNL     2      -9.523  14.765  66.064  1.00  0.00    -0.299 C  
BRANCH  49  50
HETATM   50  C   UNL     2     -10.053  14.541  67.477  1.00  0.00    -0.228 C  
BRANCH  50  51
HETATM   51  C   UNL     2      -9.962  13.069  67.870  1.00  0.00    -0.230 C  
HETATM   52  C   UNL     2     -11.080  12.687  68.824  1.00  0.00    -0.307 C  
ENDBRANCH  50  51
ENDBRANCH  49  50
ENDBRANCH  48  49
ENDBRANCH  47  48
ENDBRANCH  46  47
ENDBRANCH  45  46
ENDBRANCH  44  45
ENDBRANCH  43  44
ENDBRANCH  42  43
ENDBRANCH  41  42
ENDBRANCH  40  41
ENDBRANCH  39  40
ENDBRANCH  38  39
ENDBRANCH  36  38
ENDBRANCH  35  36
ENDBRANCH   2  35
TORSDOF 40
ENDMDL
MODEL       23
REMARK 921   NORMALIZED FREE ENERGY PREDICTED BY IDOCK:   -2.95 KCAL/MOL
REMARK 922        TOTAL FREE ENERGY PREDICTED BY IDOCK:  -16.81 KCAL/MOL
REMARK 923 INTER-LIGAND FREE ENERGY PREDICTED BY IDOCK:  -11.39 KCAL/MOL
REMARK 924 INTRA-LIGAND FREE ENERGY PREDICTED BY IDOCK:   -5.42 KCAL/MOL
REMARK 927      BINDING AFFINITY PREDICTED BY RF-SCORE:    0.00 PKD
ROOT
HETATM    1 NA   UNL     1      -9.378   8.044  64.477  1.00  0.00    -0.382 Na 
HETATM    2  C   UNL     2      -8.018   6.895  67.970  1.00  0.00    -0.115 C  
ENDROOT
BRANCH   2   3
HETATM    3  C   UNL     2      -8.850   7.951  67.256  1.00  0.00    -0.127 C  
BRANCH   3   4
HETATM    4  O   UNL     2      -8.131   8.828  66.411  1.00  0.00    -0.100 OA 
BRANCH   4   5
HETATM    5  P   UNL     2      -8.872  10.336  65.998  1.00  0.00    -0.162 P  
HETATM    6  O   UNL     2      -8.269  10.995  67.289  1.00  0.00    -0.120 OA 
HETATM    7  O   UNL     2     -10.222   9.633  66.181  1.00  0.00    -0.266 OA 
BRANCH   5   8
HETATM    8  O   UNL     2      -9.613  11.844  65.585  1.00  0.00    -0.233 OA 
BRANCH   8   9
HETATM    9  C   UNL     2     -11.022  11.977  65.796  1.00  0.00    -0.307 C  
BRANCH   9  10
HETATM   10  C   UNL     2     -11.908  11.780  64.537  1.00  0.00    -0.152 C  
HETATM   11  H   UNL     2     -13.787  12.171  63.942  1.00  0.00     0.000 HD 
HETATM   12  O   UNL     2     -13.245  12.291  64.714  1.00  0.00    -0.697 OA 
BRANCH  10  13
HETATM   13  C   UNL     2     -11.255  12.487  63.336  1.00  0.00    -0.397 C  
HETATM   14  O   UNL     2     -12.054  13.572  62.854  1.00  0.00    -0.798 OA 
HETATM   15  H   UNL     2     -11.651  14.009  62.114  1.00  0.00     0.000 HD 
ENDBRANCH  10  13
ENDBRANCH   9  10
ENDBRANCH   8   9
ENDBRANCH   5   8
ENDBRANCH   4   5
ENDBRANCH   3   4
ENDBRANCH   2   3
BRANCH   2  16
HETATM   16  C   UNL     2      -7.078   7.467  69.019  1.00  0.00    -0.079 C  
BRANCH  16  17
HETATM   17  O   UNL     2      -7.669   8.481  69.830  1.00  0.00    -0.087 OA 
BRANCH  17  18
HETATM   18  C   UNL     2      -6.846   9.217  70.626  1.00  0.00    -0.084 C  
HETATM   19  O   UNL     2      -6.792  10.440  70.662  1.00  0.00    -0.328 OA 
BRANCH  18  20
HETATM   20  C   UNL     2      -5.964   8.282  71.388  1.00  0.00    -0.037 C  
BRANCH  20  21
HETATM   21  C   UNL     2      -5.957   8.706  72.831  1.00  0.00    -0.081 C  
BRANCH  21  22
HETATM   22  C   UNL     2      -6.578   7.634  73.707  1.00  0.00    -0.090 C  
BRANCH  22  23
HETATM   23  C   UNL     2      -7.791   8.199  74.428  1.00  0.00    -0.298 C  
BRANCH  23  24
HETATM   24  C   UNL     2      -9.066   7.692  73.781  1.00  0.00    -0.332 C  
BRANCH  24  25
HETATM   25  C   UNL     2      -9.047   6.175  73.717  1.00  0.00    -0.131 C  
BRANCH  25  26
HETATM   26  C   UNL     2     -10.231   5.604  74.479  1.00  0.00    -0.288 C  
BRANCH  26  27
HETATM   27  C   UNL     2     -11.103   4.777  73.550  1.00  0.00    -0.412 C  
BRANCH  27  28
HETATM   28  C   UNL     2     -10.260   4.168  72.442  1.00  0.00    -0.239 C  
BRANCH  28  29
HETATM   29  C   UNL     2     -10.196   2.654  72.591  1.00  0.00    -0.235 C  
BRANCH  29  30
HETATM   30  C   UNL     2      -8.750   2.195  72.715  1.00  0.00    -0.066 C  
BRANCH  30  31
HETATM   31  C   UNL     2      -8.211   1.739  71.363  1.00  0.00    -0.054 C  
BRANCH  31  32
HETATM   32  C   UNL     2      -8.157   2.908  70.385  1.00  0.00    -0.056 C  
BRANCH  32  33
HETATM   33  C   UNL     2      -6.762   3.524  70.347  1.00  0.00    -0.033 C  
HETATM   34  C   UNL     2      -6.685   4.756  71.231  1.00  0.00    -0.035 C  
ENDBRANCH  32  33
ENDBRANCH  31  32
ENDBRANCH  30  31
ENDBRANCH  29  30
ENDBRANCH  28  29
ENDBRANCH  27  28
ENDBRANCH  26  27
ENDBRANCH  25  26
ENDBRANCH  24  25
ENDBRANCH  23  24
ENDBRANCH  22  23
ENDBRANCH  21  22
ENDBRANCH  20  21
ENDBRANCH  18  20
ENDBRANCH  17  18
ENDBRANCH  16  17
ENDBRANCH   2  16
BRANCH   2  35
HETATM   35  O   UNL     2      -8.883   5.947  68.621  1.00  0.00    -0.112 OA 
BRANCH  35  36
HETATM   36  C   UNL     2     -10.163   6.372  68.822  1.00  0.00    -0.177 C  
HETATM   37  O   UNL     2     -11.039   6.448  67.958  1.00  0.00    -0.317 OA 
BRANCH  36  38
HETATM   38  C   UNL     2     -10.365   6.625  70.271  1.00  0.00    -0.235 C  
BRANCH  38  39
HETATM   39  C   UNL     2     -11.655   7.370  70.492  1.00  0.00    -0.256 C  
BRANCH  39  40
HETATM   40  C   UNL     2     -11.481   8.422  71.572  1.00  0.00    -0.335 C  
BRANCH  40  41
HETATM   41  C   UNL     2     -11.800   9.794  70.997  1.00  0.00    -0.442 C  
BRANCH  41  42
HETATM   42  C   UNL     2     -10.897  10.108  69.817  1.00  0.00    -0.320 C  
BRANCH  42  43
HETATM   43  C   UNL     2     -11.193  11.506  69.295  1.00  0.00    -0.336 C  
BRANCH  43  44
HETATM   44  C   UNL     2     -12.182  12.208  70.213  1.00  0.00    -0.344 C  
BRANCH  44  45
HETATM   45  C   UNL     2     -11.710  13.620  70.525  1.00  0.00    -0.175 C  
BRANCH  45  46
HETATM   46  C   UNL     2     -12.442  14.626  69.647  1.00  0.00    -0.197 C  
BRANCH  46  47
HETATM   47  C   UNL     2     -11.825  16.010  69.788  1.00  0.00    -0.234 C  
BRANCH  47  48
HETATM   48  C   UNL     2     -11.135  16.420  68.493  1.00  0.00    -0.357 C  
BRANCH  48  49
HETATM   49  C   UNL     2      -9.623  16.479  68.682  1.00  0.00    -0.241 C  
BRANCH  49  50
HETATM   50  C   UNL     2      -8.902  16.117  67.387  1.00  0.00    -0.199 C  
BRANCH  50  51
HETATM   51  C   UNL     2      -8.515  14.642  67.368  1.00  0.00    -0.219 C  
HETATM   52  C   UNL     2      -8.359  14.099  68.778  1.00  0.00    -0.069 C  
ENDBRANCH  50  51
ENDBRANCH  49  50
ENDBRANCH  48  49
ENDBRANCH  47  48
ENDBRANCH  46  47
ENDBRANCH  45  46
ENDBRANCH  44  45
ENDBRANCH  43  44
ENDBRANCH  42  43
ENDBRANCH  41  42
ENDBRANCH  40  41
ENDBRANCH  39  40
ENDBRANCH  38  39
ENDBRANCH  36  38
ENDBRANCH  35  36
ENDBRANCH   2  35
TORSDOF 40
ENDMDL
MODEL       24
REMARK 921   NORMALIZED FREE ENERGY PREDICTED BY IDOCK:   -2.78 KCAL/MOL
REMARK 922        TOTAL FREE ENERGY PREDICTED BY IDOCK:  -16.22 KCAL/MOL
REMARK 923 INTER-LIGAND FREE ENERGY PREDICTED BY IDOCK:  -11.84 KCAL/MOL
REMARK 924 INTRA-LIGAND FREE ENERGY PREDICTED BY IDOCK:   -4.39 KCAL/MOL
REMARK 927      BINDING AFFINITY PREDICTED BY RF-SCORE:    0.00 PKD
ROOT
HETATM    1 NA   UNL     1      -8.444  14.094  65.720  1.00  0.00    -0.391 Na 
HETATM    2  C   UNL     2      -7.700  10.244  65.703  1.00  0.00    -0.148 C  
ENDROOT
BRANCH   2   3
HETATM    3  C   UNL     2      -8.652  11.315  66.218  1.00  0.00    -0.172 C  
BRANCH   3   4
HETATM    4  O   UNL     2      -8.081  12.274  67.087  1.00  0.00    -0.173 OA 
BRANCH   4   5
HETATM    5  P   UNL     2      -9.124  13.040  68.236  1.00  0.00    -0.089 P  
HETATM    6  O   UNL     2      -7.944  13.965  68.701  1.00  0.00    -0.138 OA 
HETATM    7  O   UNL     2      -9.218  11.681  68.940  1.00  0.00    -0.088 OA 
BRANCH   5   8
HETATM    8  O   UNL     2     -10.166  13.806  69.386  1.00  0.00     0.093 OA 
BRANCH   8   9
HETATM    9  C   UNL     2     -11.513  13.333  69.487  1.00  0.00    -0.234 C  
BRANCH   9  10
HETATM   10  C   UNL     2     -12.476  14.230  70.309  1.00  0.00    -0.361 C  
HETATM   11  H   UNL     2     -12.759  14.778  72.221  1.00  0.00     0.000 HD 
HETATM   12  O   UNL     2     -12.169  14.229  71.719  1.00  0.00    -0.319 OA 
BRANCH  10  13
HETATM   13  C   UNL     2     -12.405  15.674  69.781  1.00  0.00    -0.190 C  
HETATM   14  O   UNL     2     -12.375  15.720  68.351  1.00  0.00    -0.382 OA 
HETATM   15  H   UNL     2     -12.331  16.611  68.025  1.00  0.00     0.000 HD 
ENDBRANCH  10  13
ENDBRANCH   9  10
ENDBRANCH   8   9
ENDBRANCH   5   8
ENDBRANCH   4   5
ENDBRANCH   3   4
ENDBRANCH   2   3
BRANCH   2  16
HETATM   16  C   UNL     2      -7.344   9.195  66.744  1.00  0.00    -0.086 C  
BRANCH  16  17
HETATM   17  O   UNL     2      -8.469   8.690  67.461  1.00  0.00    -0.122 OA 
BRANCH  17  18
HETATM   18  C   UNL     2      -8.298   8.383  68.776  1.00  0.00    -0.116 C  
HETATM   19  O   UNL     2      -7.224   8.178  69.328  1.00  0.00    -0.068 OA 
BRANCH  18  20
HETATM   20  C   UNL     2      -9.644   8.257  69.412  1.00  0.00    -0.171 C  
BRANCH  20  21
HETATM   21  C   UNL     2      -9.461   8.217  70.904  1.00  0.00    -0.186 C  
BRANCH  21  22
HETATM   22  C   UNL     2     -10.665   8.817  71.607  1.00  0.00    -0.397 C  
BRANCH  22  23
HETATM   23  C   UNL     2     -11.175   7.853  72.665  1.00  0.00    -0.459 C  
BRANCH  23  24
HETATM   24  C   UNL     2     -11.383   6.477  72.060  1.00  0.00    -0.326 C  
BRANCH  24  25
HETATM   25  C   UNL     2     -11.338   5.419  73.148  1.00  0.00    -0.325 C  
BRANCH  25  26
HETATM   26  C   UNL     2     -10.015   4.675  73.099  1.00  0.00    -0.185 C  
BRANCH  26  27
HETATM   27  C   UNL     2      -9.705   4.249  71.674  1.00  0.00    -0.243 C  
BRANCH  27  28
HETATM   28  C   UNL     2      -8.247   4.526  71.349  1.00  0.00    -0.100 C  
BRANCH  28  29
HETATM   29  C   UNL     2      -8.075   4.802  69.862  1.00  0.00    -0.069 C  
BRANCH  29  30
HETATM   30  C   UNL     2      -9.387   4.571  69.125  1.00  0.00    -0.214 C  
BRANCH  30  31
HETATM   31  C   UNL     2      -9.131   4.249  67.657  1.00  0.00    -0.156 C  
BRANCH  31  32
HETATM   32  C   UNL     2      -7.686   3.808  67.447  1.00  0.00    -0.079 C  
BRANCH  32  33
HETATM   33  C   UNL     2      -7.562   2.905  66.224  1.00  0.00    -0.076 C  
HETATM   34  C   UNL     2      -8.908   2.311  65.846  1.00  0.00    -0.124 C  
ENDBRANCH  32  33
ENDBRANCH  31  32
ENDBRANCH  30  31
ENDBRANCH  29  30
ENDBRANCH  28  29
ENDBRANCH  27  28
ENDBRANCH  26  27
ENDBRANCH  25  26
ENDBRANCH  24  25
ENDBRANCH  23  24
ENDBRANCH  22  23
ENDBRANCH  21  22
ENDBRANCH  20  21
ENDBRANCH  18  20
ENDBRANCH  17  18
ENDBRANCH  16  17
ENDBRANCH   2  16
BRANCH   2  35
HETATM   35  O   UNL     2      -8.286   9.568  64.576  1.00  0.00    -0.142 OA 
BRANCH  35  36
HETATM   36  C   UNL     2      -7.796   9.936  63.359  1.00  0.00    -0.152 C  
HETATM   37  O   UNL     2      -6.623   9.827  62.993  1.00  0.00    -0.104 OA 
BRANCH  36  38
HETATM   38  C   UNL     2      -8.921  10.391  62.503  1.00  0.00    -0.291 C  
BRANCH  38  39
HETATM   39  C   UNL     2     -10.154  10.608  63.341  1.00  0.00    -0.266 C  
BRANCH  39  40
HETATM   40  C   UNL     2     -10.689  12.014  63.140  1.00  0.00    -0.277 C  
BRANCH  40  41
HETATM   41  C   UNL     2     -12.106  12.098  63.690  1.00  0.00    -0.648 C  
BRANCH  41  42
HETATM   42  C   UNL     2     -12.090  12.421  65.174  1.00  0.00    -0.464 C  
BRANCH  42  43
HETATM   43  C   UNL     2     -12.675  13.805  65.409  1.00  0.00    -0.513 C  
BRANCH  43  44
HETATM   44  C   UNL     2     -12.051  14.806  64.450  1.00  0.00    -0.457 C  
BRANCH  44  45
HETATM   45  C   UNL     2     -10.722  15.310  64.994  1.00  0.00    -0.461 C  
BRANCH  45  46
HETATM   46  C   UNL     2     -10.763  16.823  65.164  1.00  0.00    -0.159 C  
BRANCH  46  47
HETATM   47  C   UNL     2     -10.293  17.219  66.556  1.00  0.00    -0.308 C  
BRANCH  47  48
HETATM   48  C   UNL     2      -9.249  18.326  66.472  1.00  0.00    -0.298 C  
BRANCH  48  49
HETATM   49  C   UNL     2      -7.879  17.752  66.127  1.00  0.00    -0.262 C  
BRANCH  49  50
HETATM   50  C   UNL     2      -6.768  18.663  66.638  1.00  0.00    -0.218 C  
BRANCH  50  51
HETATM   51  C   UNL     2      -7.082  20.128  66.347  1.00  0.00    -0.297 C  
HETATM   52  C   UNL     2      -6.417  21.042  67.360  1.00  0.00    -0.427 C  
ENDBRANCH  50  51
ENDBRANCH  49  50
ENDBRANCH  48  49
ENDBRANCH  47  48
ENDBRANCH  46  47
ENDBRANCH  45  46
ENDBRANCH  44  45
ENDBRANCH  43  44
ENDBRANCH  42  43
ENDBRANCH  41  42
ENDBRANCH  40  41
ENDBRANCH  39  40
ENDBRANCH  38  39
ENDBRANCH  36  38
ENDBRANCH  35  36
ENDBRANCH   2  35
TORSDOF 40
ENDMDL
MODEL       25
REMARK 921   NORMALIZED FREE ENERGY PREDICTED BY IDOCK:   -2.47 KCAL/MOL
REMARK 922        TOTAL FREE ENERGY PREDICTED BY IDOCK:  -15.19 KCAL/MOL
REMARK 923 INTER-LIGAND FREE ENERGY PREDICTED BY IDOCK:  -10.33 KCAL/MOL
REMARK 924 INTRA-LIGAND FREE ENERGY PREDICTED BY IDOCK:   -4.86 KCAL/MOL
REMARK 927      BINDING AFFINITY PREDICTED BY RF-SCORE:    0.00 PKD
ROOT
HETATM    1 NA   UNL     1     -10.967  10.034  65.872  1.00  0.00    -0.158 Na 
HETATM    2  C   UNL     2      -8.070  12.390  67.065  1.00  0.00    -0.124 C  
ENDROOT
BRANCH   2   3
HETATM    3  C   UNL     2      -9.454  11.861  67.415  1.00  0.00    -0.175 C  
BRANCH   3   4
HETATM    4  O   UNL     2      -9.617  11.409  68.745  1.00  0.00    -0.190 OA 
BRANCH   4   5
HETATM    5  P   UNL     2     -10.458   9.916  68.990  1.00  0.00    -0.231 P  
HETATM    6  O   UNL     2      -9.171   9.115  68.583  1.00  0.00    -0.136 OA 
HETATM    7  O   UNL     2     -11.374  10.333  67.833  1.00  0.00    -0.294 OA 
BRANCH   5   8
HETATM    8  O   UNL     2     -11.299   8.424  69.235  1.00  0.00     0.182 OA 
BRANCH   8   9
HETATM    9  C   UNL     2     -11.204   7.806  70.521  1.00  0.00    -0.257 C  
BRANCH   9  10
HETATM   10  C   UNL     2     -12.525   7.751  71.335  1.00  0.00    -0.320 C  
HETATM   11  H   UNL     2     -13.481   6.486  72.570  1.00  0.00     0.000 HD 
HETATM   12  O   UNL     2     -12.673   6.519  72.071  1.00  0.00    -0.303 OA 
BRANCH  10  13
HETATM   13  C   UNL     2     -12.567   8.932  72.320  1.00  0.00    -0.385 C  
HETATM   14  O   UNL     2     -13.764   8.932  73.105  1.00  0.00    -1.009 OA 
HETATM   15  H   UNL     2     -13.790   9.661  73.713  1.00  0.00     0.000 HD 
ENDBRANCH  10  13
ENDBRANCH   9  10
ENDBRANCH   8   9
ENDBRANCH   5   8
ENDBRANCH   4   5
ENDBRANCH   3   4
ENDBRANCH   2   3
BRANCH   2  16
HETATM   16  C   UNL     2      -7.907  13.881  67.317  1.00  0.00    -0.114 C  
BRANCH  16  17
HETATM   17  O   UNL     2      -9.137  14.603  67.316  1.00  0.00    -0.188 OA 
BRANCH  17  18
HETATM   18  C   UNL     2      -9.585  15.090  66.126  1.00  0.00    -0.314 C  
HETATM   19  O   UNL     2     -10.056  14.423  65.213  1.00  0.00    -0.369 OA 
BRANCH  18  20
HETATM   20  C   UNL     2      -9.331  16.562  66.091  1.00  0.00    -0.339 C  
BRANCH  20  21
HETATM   21  C   UNL     2     -10.637  17.273  66.318  1.00  0.00    -0.184 C  
BRANCH  21  22
HETATM   22  C   UNL     2     -10.538  18.724  65.886  1.00  0.00    -0.405 C  
BRANCH  22  23
HETATM   23  C   UNL     2      -9.358  19.386  66.577  1.00  0.00    -0.414 C  
BRANCH  23  24
HETATM   24  C   UNL     2      -9.800  19.997  67.894  1.00  0.00    -0.538 C  
BRANCH  24  25
HETATM   25  C   UNL     2      -9.132  19.276  69.051  1.00  0.00    -0.298 C  
BRANCH  25  26
HETATM   26  C   UNL     2      -7.691  18.947  68.700  1.00  0.00    -0.375 C  
BRANCH  26  27
HETATM   27  C   UNL     2      -7.376  17.508  69.073  1.00  0.00    -0.197 C  
BRANCH  27  28
HETATM   28  C   UNL     2      -6.196  17.001  68.260  1.00  0.00    -0.135 C  
BRANCH  28  29
HETATM   29  C   UNL     2      -5.482  18.160  67.578  1.00  0.00    -0.141 C  
BRANCH  29  30
HETATM   30  C   UNL     2      -5.141  17.800  66.139  1.00  0.00    -0.221 C  
BRANCH  30  31
HETATM   31  C   UNL     2      -5.981  18.619  65.165  1.00  0.00    -0.294 C  
BRANCH  31  32
HETATM   32  C   UNL     2      -5.171  18.970  63.921  1.00  0.00    -0.281 C  
BRANCH  32  33
HETATM   33  C   UNL     2      -5.298  20.453  63.586  1.00  0.00    -0.249 C  
HETATM   34  C   UNL     2      -5.359  21.294  64.849  1.00  0.00    -0.181 C  
ENDBRANCH  32  33
ENDBRANCH  31  32
ENDBRANCH  30  31
ENDBRANCH  29  30
ENDBRANCH  28  29
ENDBRANCH  27  28
ENDBRANCH  26  27
ENDBRANCH  25  26
ENDBRANCH  24  25
ENDBRANCH  23  24
ENDBRANCH  22  23
ENDBRANCH  21  22
ENDBRANCH  20  21
ENDBRANCH  18  20
ENDBRANCH  17  18
ENDBRANCH  16  17
ENDBRANCH   2  16
BRANCH   2  35
HETATM   35  O   UNL     2      -7.071  11.699  67.837  1.00  0.00    -0.074 OA 
BRANCH  35  36
HETATM   36  C   UNL     2      -6.336  10.782  67.147  1.00  0.00    -0.072 C  
HETATM   37  O   UNL     2      -6.408  10.568  65.935  1.00  0.00    -0.109 OA 
BRANCH  36  38
HETATM   38  C   UNL     2      -5.356  10.156  68.071  1.00  0.00    -0.038 C  
BRANCH  38  39
HETATM   39  C   UNL     2      -6.009   9.035  68.837  1.00  0.00    -0.044 C  
BRANCH  39  40
HETATM   40  C   UNL     2      -5.185   8.681  70.062  1.00  0.00    -0.029 C  
BRANCH  40  41
HETATM   41  C   UNL     2      -5.243   9.829  71.058  1.00  0.00    -0.053 C  
BRANCH  41  42
HETATM   42  C   UNL     2      -6.000   9.420  72.310  1.00  0.00     0.115 C  
BRANCH  42  43
HETATM   43  C   UNL     2      -6.486   7.985  72.176  1.00  0.00    -0.057 C  
BRANCH  43  44
HETATM   44  C   UNL     2      -8.002   7.953  72.074  1.00  0.00    -0.135 C  
BRANCH  44  45
HETATM   45  C   UNL     2      -8.507   6.518  72.047  1.00  0.00    -0.114 C  
BRANCH  45  46
HETATM   46  C   UNL     2      -7.361   5.563  71.739  1.00  0.00    -0.091 C  
BRANCH  46  47
HETATM   47  C   UNL     2      -7.812   4.479  70.771  1.00  0.00    -0.064 C  
BRANCH  47  48
HETATM   48  C   UNL     2      -9.116   4.878  70.093  1.00  0.00    -0.157 C  
BRANCH  48  49
HETATM   49  C   UNL     2      -9.090   4.512  68.613  1.00  0.00    -0.164 C  
BRANCH  49  50
HETATM   50  C   UNL     2      -8.388   5.595  67.800  1.00  0.00    -0.100 C  
BRANCH  50  51
HETATM   51  C   UNL     2      -9.243   6.032  66.614  1.00  0.00    -0.151 C  
HETATM   52  C   UNL     2     -10.605   5.359  66.644  1.00  0.00    -0.359 C  
ENDBRANCH  50  51
ENDBRANCH  49  50
ENDBRANCH  48  49
ENDBRANCH  47  48
ENDBRANCH  46  47
ENDBRANCH  45  46
ENDBRANCH  44  45
ENDBRANCH  43  44
ENDBRANCH  42  43
ENDBRANCH  41  42
ENDBRANCH  40  41
ENDBRANCH  39  40
ENDBRANCH  38  39
ENDBRANCH  36  38
ENDBRANCH  35  36
ENDBRANCH   2  35
TORSDOF 40
ENDMDL
MODEL       26
REMARK 921   NORMALIZED FREE ENERGY PREDICTED BY IDOCK:   -2.47 KCAL/MOL
REMARK 922        TOTAL FREE ENERGY PREDICTED BY IDOCK:  -15.19 KCAL/MOL
REMARK 923 INTER-LIGAND FREE ENERGY PREDICTED BY IDOCK:   -9.98 KCAL/MOL
REMARK 924 INTRA-LIGAND FREE ENERGY PREDICTED BY IDOCK:   -5.21 KCAL/MOL
REMARK 927      BINDING AFFINITY PREDICTED BY RF-SCORE:    0.00 PKD
ROOT
HETATM    1 NA   UNL     1     -10.130  16.280  70.154  1.00  0.00    -0.245 Na 
HETATM    2  C   UNL     2      -9.083  13.221  67.937  1.00  0.00    -0.203 C  
ENDROOT
BRANCH   2   3
HETATM    3  C   UNL     2      -8.825  14.697  68.204  1.00  0.00    -0.173 C  
BRANCH   3   4
HETATM    4  O   UNL     2      -9.719  15.597  67.579  1.00  0.00    -0.220 OA 
BRANCH   4   5
HETATM    5  P   UNL     2      -9.047  16.987  66.798  1.00  0.00    -0.272 P  
HETATM    6  O   UNL     2      -7.688  16.227  66.599  1.00  0.00    -0.234 OA 
HETATM    7  O   UNL     2      -9.207  17.720  68.135  1.00  0.00    -0.262 OA 
BRANCH   5   8
HETATM    8  O   UNL     2      -8.374  18.377  66.017  1.00  0.00    -0.480 OA 
BRANCH   8   9
HETATM    9  C   UNL     2      -6.956  18.556  66.073  1.00  0.00    -0.275 C  
BRANCH   9  10
HETATM   10  C   UNL     2      -6.465  20.027  66.024  1.00  0.00    -0.213 C  
HETATM   11  H   UNL     2      -6.593  21.616  64.799  1.00  0.00     0.000 HD 
HETATM   12  O   UNL     2      -6.893  20.715  64.829  1.00  0.00    -0.257 OA 
BRANCH  10  13
HETATM   13  C   UNL     2      -6.993  20.784  67.255  1.00  0.00    -0.358 C  
HETATM   14  O   UNL     2      -7.235  19.906  68.360  1.00  0.00    -0.301 OA 
HETATM   15  H   UNL     2      -7.560  20.374  69.120  1.00  0.00     0.000 HD 
ENDBRANCH  10  13
ENDBRANCH   9  10
ENDBRANCH   8   9
ENDBRANCH   5   8
ENDBRANCH   4   5
ENDBRANCH   3   4
ENDBRANCH   2   3
BRANCH   2  16
HETATM   16  C   UNL     2      -9.142  12.871  66.459  1.00  0.00    -0.132 C  
BRANCH  16  17
HETATM   17  O   UNL     2     -10.466  12.680  65.965  1.00  0.00    -0.259 OA 
BRANCH  17  18
HETATM   18  C   UNL     2     -10.740  11.514  65.317  1.00  0.00    -0.279 C  
HETATM   19  O   UNL     2     -11.706  11.308  64.595  1.00  0.00     0.037 OA 
BRANCH  18  20
HETATM   20  C   UNL     2      -9.707  10.505  65.703  1.00  0.00    -0.289 C  
BRANCH  20  21
HETATM   21  C   UNL     2     -10.382   9.414  66.489  1.00  0.00    -0.268 C  
BRANCH  21  22
HETATM   22  C   UNL     2     -11.010   9.975  67.751  1.00  0.00    -0.310 C  
BRANCH  22  23
HETATM   23  C   UNL     2     -10.071   9.766  68.928  1.00  0.00    -0.194 C  
BRANCH  23  24
HETATM   24  C   UNL     2     -10.735  10.227  70.212  1.00  0.00    -0.310 C  
BRANCH  24  25
HETATM   25  C   UNL     2     -10.616   9.147  71.274  1.00  0.00    -0.399 C  
BRANCH  25  26
HETATM   26  C   UNL     2     -11.139   7.826  70.737  1.00  0.00    -0.265 C  
BRANCH  26  27
HETATM   27  C   UNL     2     -11.854   7.060  71.838  1.00  0.00    -0.341 C  
BRANCH  27  28
HETATM   28  C   UNL     2     -11.347   5.629  71.897  1.00  0.00    -0.208 C  
BRANCH  28  29
HETATM   29  C   UNL     2     -10.686   5.352  73.239  1.00  0.00    -0.320 C  
BRANCH  29  30
HETATM   30  C   UNL     2     -10.319   6.659  73.929  1.00  0.00    -0.385 C  
BRANCH  30  31
HETATM   31  C   UNL     2      -8.805   6.806  74.035  1.00  0.00    -0.187 C  
BRANCH  31  32
HETATM   32  C   UNL     2      -8.387   8.252  73.784  1.00  0.00    -0.265 C  
BRANCH  32  33
HETATM   33  C   UNL     2      -7.125   8.315  72.929  1.00  0.00    -0.129 C  
HETATM   34  C   UNL     2      -7.454   8.716  71.501  1.00  0.00    -0.124 C  
ENDBRANCH  32  33
ENDBRANCH  31  32
ENDBRANCH  30  31
ENDBRANCH  29  30
ENDBRANCH  28  29
ENDBRANCH  27  28
ENDBRANCH  26  27
ENDBRANCH  25  26
ENDBRANCH  24  25
ENDBRANCH  23  24
ENDBRANCH  22  23
ENDBRANCH  21  22
ENDBRANCH  20  21
ENDBRANCH  18  20
ENDBRANCH  17  18
ENDBRANCH  16  17
ENDBRANCH   2  16
BRANCH   2  35
HETATM   35  O   UNL     2      -8.045  12.425  68.539  1.00  0.00    -0.148 OA 
BRANCH  35  36
HETATM   36  C   UNL     2      -6.917  13.108  68.883  1.00  0.00    -0.093 C  
HETATM   37  O   UNL     2      -6.883  14.193  69.469  1.00  0.00    -0.125 OA 
BRANCH  36  38
HETATM   38  C   UNL     2      -5.730  12.284  68.536  1.00  0.00    -0.053 C  
BRANCH  38  39
HETATM   39  C   UNL     2      -5.916  11.654  67.181  1.00  0.00    -0.127 C  
BRANCH  39  40
HETATM   40  C   UNL     2      -5.638  10.163  67.248  1.00  0.00    -0.042 C  
BRANCH  40  41
HETATM   41  C   UNL     2      -6.736   9.412  66.510  1.00  0.00    -0.072 C  
BRANCH  41  42
HETATM   42  C   UNL     2      -7.029   8.084  67.187  1.00  0.00    -0.075 C  
BRANCH  42  43
HETATM   43  C   UNL     2      -6.590   6.937  66.290  1.00  0.00    -0.052 C  
BRANCH  43  44
HETATM   44  C   UNL     2      -7.455   5.713  66.544  1.00  0.00    -0.087 C  
BRANCH  44  45
HETATM   45  C   UNL     2      -6.612   4.446  66.511  1.00  0.00    -0.049 C  
BRANCH  45  46
HETATM   46  C   UNL     2      -7.365   3.332  65.797  1.00  0.00    -0.072 C  
BRANCH  46  47
HETATM   47  C   UNL     2      -7.774   2.244  66.781  1.00  0.00    -0.070 C  
BRANCH  47  48
HETATM   48  C   UNL     2      -9.219   2.440  67.221  1.00  0.00    -0.151 C  
BRANCH  48  49
HETATM   49  C   UNL     2      -9.350   2.285  68.732  1.00  0.00    -0.221 C  
BRANCH  49  50
HETATM   50  C   UNL     2      -9.420   3.650  69.411  1.00  0.00    -0.249 C  
BRANCH  50  51
HETATM   51  C   UNL     2      -8.202   3.884  70.299  1.00  0.00    -0.071 C  
HETATM   52  C   UNL     2      -7.922   5.368  70.464  1.00  0.00    -0.101 C  
ENDBRANCH  50  51
ENDBRANCH  49  50
ENDBRANCH  48  49
ENDBRANCH  47  48
ENDBRANCH  46  47
ENDBRANCH  45  46
ENDBRANCH  44  45
ENDBRANCH  43  44
ENDBRANCH  42  43
ENDBRANCH  41  42
ENDBRANCH  40  41
ENDBRANCH  39  40
ENDBRANCH  38  39
ENDBRANCH  36  38
ENDBRANCH  35  36
ENDBRANCH   2  35
TORSDOF 40
ENDMDL
MODEL       27
REMARK 921   NORMALIZED FREE ENERGY PREDICTED BY IDOCK:   -2.34 KCAL/MOL
REMARK 922        TOTAL FREE ENERGY PREDICTED BY IDOCK:  -14.75 KCAL/MOL
REMARK 923 INTER-LIGAND FREE ENERGY PREDICTED BY IDOCK:  -10.83 KCAL/MOL
REMARK 924 INTRA-LIGAND FREE ENERGY PREDICTED BY IDOCK:   -3.92 KCAL/MOL
REMARK 927      BINDING AFFINITY PREDICTED BY RF-SCORE:    0.00 PKD
ROOT
HETATM    1 NA   UNL     1     -13.208  13.437  73.382  1.00  0.00    -0.445 Na 
HETATM    2  C   UNL     2     -11.636  11.483  70.368  1.00  0.00    -0.121 C  
ENDROOT
BRANCH   2   3
HETATM    3  C   UNL     2     -12.938  11.789  71.096  1.00  0.00    -0.187 C  
BRANCH   3   4
HETATM    4  O   UNL     2     -13.038  13.087  71.649  1.00  0.00    -0.392 OA 
BRANCH   4   5
HETATM    5  P   UNL     2     -12.547  14.422  70.664  1.00  0.00    -0.348 P  
HETATM    6  O   UNL     2     -11.454  14.810  71.722  1.00  0.00    -0.292 OA 
HETATM    7  O   UNL     2     -13.942  15.012  70.905  1.00  0.00    -0.312 OA 
BRANCH   5   8
HETATM    8  O   UNL     2     -12.056  15.757  69.679  1.00  0.00    -0.355 OA 
BRANCH   8   9
HETATM    9  C   UNL     2     -10.870  16.464  70.054  1.00  0.00    -0.305 C  
BRANCH   9  10
HETATM   10  C   UNL     2      -9.631  16.213  69.153  1.00  0.00    -0.249 C  
HETATM   11  H   UNL     2      -8.343  14.725  68.746  1.00  0.00     0.000 HD 
HETATM   12  O   UNL     2      -9.102  14.878  69.297  1.00  0.00    -0.176 OA 
BRANCH  10  13
HETATM   13  C   UNL     2     -10.012  16.446  67.681  1.00  0.00    -0.252 C  
HETATM   14  O   UNL     2     -10.700  15.323  67.122  1.00  0.00    -0.303 OA 
HETATM   15  H   UNL     2     -10.936  15.467  66.213  1.00  0.00     0.000 HD 
ENDBRANCH  10  13
ENDBRANCH   9  10
ENDBRANCH   8   9
ENDBRANCH   5   8
ENDBRANCH   4   5
ENDBRANCH   3   4
ENDBRANCH   2   3
BRANCH   2  16
HETATM   16  C   UNL     2     -11.492  10.023  69.967  1.00  0.00    -0.248 C  
BRANCH  16  17
HETATM   17  O   UNL     2     -12.019   9.108  70.926  1.00  0.00    -0.285 OA 
BRANCH  17  18
HETATM   18  C   UNL     2     -11.783   7.781  70.734  1.00  0.00    -0.225 C  
HETATM   19  O   UNL     2     -11.157   7.295  69.800  1.00  0.00    -0.246 OA 
BRANCH  18  20
HETATM   20  C   UNL     2     -12.486   7.015  71.806  1.00  0.00    -0.393 C  
BRANCH  20  21
HETATM   21  C   UNL     2     -11.462   6.214  72.564  1.00  0.00    -0.318 C  
BRANCH  21  22
HETATM   22  C   UNL     2     -10.531   7.131  73.336  1.00  0.00    -0.410 C  
BRANCH  22  23
HETATM   23  C   UNL     2      -9.088   6.812  72.982  1.00  0.00    -0.143 C  
BRANCH  23  24
HETATM   24  C   UNL     2      -8.173   7.916  73.479  1.00  0.00    -0.251 C  
BRANCH  24  25
HETATM   25  C   UNL     2      -6.804   7.784  72.838  1.00  0.00    -0.083 C  
BRANCH  25  26
HETATM   26  C   UNL     2      -6.939   7.253  71.421  1.00  0.00    -0.063 C  
BRANCH  26  27
HETATM   27  C   UNL     2      -6.799   8.389  70.420  1.00  0.00    -0.037 C  
BRANCH  27  28
HETATM   28  C   UNL     2      -7.786   8.208  69.279  1.00  0.00    -0.104 C  
BRANCH  28  29
HETATM   29  C   UNL     2      -7.052   7.887  67.985  1.00  0.00    -0.085 C  
BRANCH  29  30
HETATM   30  C   UNL     2      -5.751   8.674  67.904  1.00  0.00    -0.039 C  
BRANCH  30  31
HETATM   31  C   UNL     2      -5.438   9.051  66.460  1.00  0.00    -0.038 C  
BRANCH  31  32
HETATM   32  C   UNL     2      -5.191  10.551  66.339  1.00  0.00    -0.058 C  
BRANCH  32  33
HETATM   33  C   UNL     2      -6.455  11.341  66.663  1.00  0.00    -0.128 C  
HETATM   34  C   UNL     2      -6.117  12.663  67.331  1.00  0.00    -0.142 C  
ENDBRANCH  32  33
ENDBRANCH  31  32
ENDBRANCH  30  31
ENDBRANCH  29  30
ENDBRANCH  28  29
ENDBRANCH  27  28
ENDBRANCH  26  27
ENDBRANCH  25  26
ENDBRANCH  24  25
ENDBRANCH  23  24
ENDBRANCH  22  23
ENDBRANCH  21  22
ENDBRANCH  20  21
ENDBRANCH  18  20
ENDBRANCH  17  18
ENDBRANCH  16  17
ENDBRANCH   2  16
BRANCH   2  35
HETATM   35  O   UNL     2     -11.543  12.281  69.174  1.00  0.00    -0.275 OA 
BRANCH  35  36
HETATM   36  C   UNL     2     -10.513  11.960  68.340  1.00  0.00    -0.217 C  
HETATM   37  O   UNL     2      -9.313  12.049  68.612  1.00  0.00    -0.156 OA 
BRANCH  36  38
HETATM   38  C   UNL     2     -11.067  11.381  67.090  1.00  0.00    -0.366 C  
BRANCH  38  39
HETATM   39  C   UNL     2     -11.475  12.483  66.147  1.00  0.00    -0.426 C  
BRANCH  39  40
HETATM   40  C   UNL     2     -10.539  12.532  64.953  1.00  0.00    -0.330 C  
BRANCH  40  41
HETATM   41  C   UNL     2     -11.068  11.619  63.857  1.00  0.00    -0.477 C  
BRANCH  41  42
HETATM   42  C   UNL     2      -9.973  10.699  63.345  1.00  0.00    -0.329 C  
BRANCH  42  43
HETATM   43  C   UNL     2      -8.841  10.628  64.358  1.00  0.00    -0.185 C  
BRANCH  43  44
HETATM   44  C   UNL     2      -8.713   9.214  64.901  1.00  0.00    -0.215 C  
BRANCH  44  45
HETATM   45  C   UNL     2      -7.886   8.352  63.958  1.00  0.00    -0.146 C  
BRANCH  45  46
HETATM   46  C   UNL     2      -8.032   6.882  64.326  1.00  0.00    -0.086 C  
BRANCH  46  47
HETATM   47  C   UNL     2      -6.668   6.252  64.571  1.00  0.00    -0.042 C  
BRANCH  47  48
HETATM   48  C   UNL     2      -6.822   4.884  65.223  1.00  0.00    -0.060 C  
BRANCH  48  49
HETATM   49  C   UNL     2      -7.722   3.984  64.384  1.00  0.00    -0.084 C  
BRANCH  49  50
HETATM   50  C   UNL     2      -8.840   3.391  65.237  1.00  0.00    -0.126 C  
BRANCH  50  51
HETATM   51  C   UNL     2     -10.204   3.624  64.594  1.00  0.00    -0.142 C  
HETATM   52  C   UNL     2     -10.061   3.991  63.127  1.00  0.00    -0.135 C  
ENDBRANCH  50  51
ENDBRANCH  49  50
ENDBRANCH  48  49
ENDBRANCH  47  48
ENDBRANCH  46  47
ENDBRANCH  45  46
ENDBRANCH  44  45
ENDBRANCH  43  44
ENDBRANCH  42  43
ENDBRANCH  41  42
ENDBRANCH  40  41
ENDBRANCH  39  40
ENDBRANCH  38  39
ENDBRANCH  36  38
ENDBRANCH  35  36
ENDBRANCH   2  35
TORSDOF 40
ENDMDL
MODEL       28
REMARK 921   NORMALIZED FREE ENERGY PREDICTED BY IDOCK:   -2.15 KCAL/MOL
REMARK 922        TOTAL FREE ENERGY PREDICTED BY IDOCK:  -14.14 KCAL/MOL
REMARK 923 INTER-LIGAND FREE ENERGY PREDICTED BY IDOCK:   -9.16 KCAL/MOL
REMARK 924 INTRA-LIGAND FREE ENERGY PREDICTED BY IDOCK:   -4.98 KCAL/MOL
REMARK 927      BINDING AFFINITY PREDICTED BY RF-SCORE:    0.00 PKD
ROOT
HETATM    1 NA   UNL     1     -11.142   9.668  65.871  1.00  0.00    -0.028 Na 
HETATM    2  C   UNL     2      -8.187  12.033  66.893  1.00  0.00    -0.146 C  
ENDROOT
BRANCH   2   3
HETATM    3  C   UNL     2      -9.481  11.395  67.378  1.00  0.00    -0.167 C  
BRANCH   3   4
HETATM    4  O   UNL     2      -9.356  10.526  68.487  1.00  0.00    -0.154 OA 
BRANCH   4   5
HETATM    5  P   UNL     2      -9.966   8.915  68.319  1.00  0.00    -0.188 P  
HETATM    6  O   UNL     2      -9.283   8.795  66.911  1.00  0.00    -0.144 OA 
HETATM    7  O   UNL     2     -11.370   9.529  68.325  1.00  0.00     0.025 OA 
BRANCH   5   8
HETATM    8  O   UNL     2     -10.575   7.304  68.151  1.00  0.00    -0.203 OA 
BRANCH   8   9
HETATM    9  C   UNL     2      -9.744   6.225  68.590  1.00  0.00    -0.127 C  
BRANCH   9  10
HETATM   10  C   UNL     2      -9.021   5.438  67.465  1.00  0.00    -0.108 C  
HETATM   11  H   UNL     2      -7.549   4.082  67.283  1.00  0.00     0.000 HD 
HETATM   12  O   UNL     2      -7.992   4.564  67.973  1.00  0.00    -0.083 OA 
BRANCH  10  13
HETATM   13  C   UNL     2     -10.049   4.603  66.683  1.00  0.00    -0.234 C  
HETATM   14  O   UNL     2     -10.995   5.427  65.993  1.00  0.00    -0.712 OA 
HETATM   15  H   UNL     2     -11.629   4.911  65.510  1.00  0.00     0.000 HD 
ENDBRANCH  10  13
ENDBRANCH   9  10
ENDBRANCH   8   9
ENDBRANCH   5   8
ENDBRANCH   4   5
ENDBRANCH   3   4
ENDBRANCH   2   3
BRANCH   2  16
HETATM   16  C   UNL     2      -8.043  13.494  67.290  1.00  0.00    -0.130 C  
BRANCH  16  17
HETATM   17  O   UNL     2      -9.269  14.221  67.263  1.00  0.00    -0.197 OA 
BRANCH  17  18
HETATM   18  C   UNL     2      -9.738  14.629  66.051  1.00  0.00    -0.312 C  
HETATM   19  O   UNL     2     -10.238  13.906  65.199  1.00  0.00    -0.359 OA 
BRANCH  18  20
HETATM   20  C   UNL     2      -9.466  16.091  65.906  1.00  0.00    -0.351 C  
BRANCH  20  21
HETATM   21  C   UNL     2     -10.775  16.795  65.675  1.00  0.00    -0.199 C  
BRANCH  21  22
HETATM   22  C   UNL     2     -10.568  18.297  65.594  1.00  0.00    -0.107 C  
BRANCH  22  23
HETATM   23  C   UNL     2      -9.530  18.727  66.618  1.00  0.00    -0.346 C  
BRANCH  23  24
HETATM   24  C   UNL     2     -10.186  18.932  67.971  1.00  0.00    -0.452 C  
BRANCH  24  25
HETATM   25  C   UNL     2      -9.555  18.011  68.999  1.00  0.00    -0.154 C  
BRANCH  25  26
HETATM   26  C   UNL     2      -8.042  18.043  68.872  1.00  0.00    -0.168 C  
BRANCH  26  27
HETATM   27  C   UNL     2      -7.484  16.629  68.884  1.00  0.00    -0.232 C  
BRANCH  27  28
HETATM   28  C   UNL     2      -6.134  16.591  68.188  1.00  0.00    -0.127 C  
BRANCH  28  29
HETATM   29  C   UNL     2      -5.759  17.975  67.677  1.00  0.00    -0.148 C  
BRANCH  29  30
HETATM   30  C   UNL     2      -5.217  17.887  66.257  1.00  0.00    -0.217 C  
BRANCH  30  31
HETATM   31  C   UNL     2      -6.246  18.399  65.254  1.00  0.00    -0.250 C  
BRANCH  31  32
HETATM   32  C   UNL     2      -5.560  18.874  63.977  1.00  0.00    -0.230 C  
BRANCH  32  33
HETATM   33  C   UNL     2      -5.772  20.370  63.767  1.00  0.00    -0.310 C  
HETATM   34  C   UNL     2      -5.317  21.161  64.981  1.00  0.00    -0.227 C  
ENDBRANCH  32  33
ENDBRANCH  31  32
ENDBRANCH  30  31
ENDBRANCH  29  30
ENDBRANCH  28  29
ENDBRANCH  27  28
ENDBRANCH  26  27
ENDBRANCH  25  26
ENDBRANCH  24  25
ENDBRANCH  23  24
ENDBRANCH  22  23
ENDBRANCH  21  22
ENDBRANCH  20  21
ENDBRANCH  18  20
ENDBRANCH  17  18
ENDBRANCH  16  17
ENDBRANCH   2  16
BRANCH   2  35
HETATM   35  O   UNL     2      -7.058  11.317  67.425  1.00  0.00    -0.096 OA 
BRANCH  35  36
HETATM   36  C   UNL     2      -6.220  10.780  66.493  1.00  0.00    -0.107 C  
HETATM   37  O   UNL     2      -6.190  11.077  65.297  1.00  0.00     0.035 OA 
BRANCH  36  38
HETATM   38  C   UNL     2      -5.274   9.856  67.170  1.00  0.00    -0.041 C  
BRANCH  38  39
HETATM   39  C   UNL     2      -6.035   8.818  67.953  1.00  0.00    -0.050 C  
BRANCH  39  40
HETATM   40  C   UNL     2      -5.371   8.577  69.296  1.00  0.00    -0.031 C  
BRANCH  40  41
HETATM   41  C   UNL     2      -5.154   9.909  69.999  1.00  0.00    -0.037 C  
BRANCH  41  42
HETATM   42  C   UNL     2      -5.417   9.783  71.489  1.00  0.00    -0.072 C  
BRANCH  42  43
HETATM   43  C   UNL     2      -6.281   8.560  71.761  1.00  0.00    -0.064 C  
BRANCH  43  44
HETATM   44  C   UNL     2      -7.734   8.863  71.430  1.00  0.00    -0.126 C  
BRANCH  44  45
HETATM   45  C   UNL     2      -8.653   8.319  72.514  1.00  0.00    -0.273 C  
BRANCH  45  46
HETATM   46  C   UNL     2      -7.834   7.813  73.693  1.00  0.00    -0.198 C  
BRANCH  46  47
HETATM   47  C   UNL     2      -8.168   6.358  73.994  1.00  0.00    -0.115 C  
BRANCH  47  48
HETATM   48  C   UNL     2      -8.241   5.551  72.704  1.00  0.00    -0.113 C  
BRANCH  48  49
HETATM   49  C   UNL     2      -8.922   4.208  72.945  1.00  0.00    -0.115 C  
BRANCH  49  50
HETATM   50  C   UNL     2     -10.335   4.208  72.371  1.00  0.00    -0.217 C  
BRANCH  50  51
HETATM   51  C   UNL     2     -11.180   5.314  72.995  1.00  0.00    -0.387 C  
HETATM   52  C   UNL     2     -11.689   6.277  71.936  1.00  0.00    -0.370 C  
ENDBRANCH  50  51
ENDBRANCH  49  50
ENDBRANCH  48  49
ENDBRANCH  47  48
ENDBRANCH  46  47
ENDBRANCH  45  46
ENDBRANCH  44  45
ENDBRANCH  43  44
ENDBRANCH  42  43
ENDBRANCH  41  42
ENDBRANCH  40  41
ENDBRANCH  39  40
ENDBRANCH  38  39
ENDBRANCH  36  38
ENDBRANCH  35  36
ENDBRANCH   2  35
TORSDOF 40
ENDMDL
MODEL       29
REMARK 921   NORMALIZED FREE ENERGY PREDICTED BY IDOCK:   -1.97 KCAL/MOL
REMARK 922        TOTAL FREE ENERGY PREDICTED BY IDOCK:  -13.53 KCAL/MOL
REMARK 923 INTER-LIGAND FREE ENERGY PREDICTED BY IDOCK:   -8.20 KCAL/MOL
REMARK 924 INTRA-LIGAND FREE ENERGY PREDICTED BY IDOCK:   -5.33 KCAL/MOL
REMARK 927      BINDING AFFINITY PREDICTED BY RF-SCORE:    0.00 PKD
ROOT
HETATM    1 NA   UNL     1     -10.986  10.001  65.904  1.00  0.00    -0.158 Na 
HETATM    2  C   UNL     2      -8.113  12.381  67.110  1.00  0.00    -0.167 C  
ENDROOT
BRANCH   2   3
HETATM    3  C   UNL     2      -9.501  11.853  67.446  1.00  0.00    -0.175 C  
BRANCH   3   4
HETATM    4  O   UNL     2      -9.685  11.425  68.781  1.00  0.00    -0.197 OA 
BRANCH   4   5
HETATM    5  P   UNL     2     -10.338   9.842  69.036  1.00  0.00    -0.234 P  
HETATM    6  O   UNL     2      -9.771   9.377  67.648  1.00  0.00    -0.147 OA 
HETATM    7  O   UNL     2     -11.725  10.494  69.001  1.00  0.00    -0.246 OA 
BRANCH   5   8
HETATM    8  O   UNL     2     -10.991   8.260  69.290  1.00  0.00    -0.110 OA 
BRANCH   8   9
HETATM    9  C   UNL     2     -10.571   7.214  68.409  1.00  0.00    -0.186 C  
BRANCH   9  10
HETATM   10  C   UNL     2     -10.094   5.909  69.102  1.00  0.00    -0.190 C  
HETATM   11  H   UNL     2      -8.474   5.228  70.077  1.00  0.00     0.000 HD 
HETATM   12  O   UNL     2      -8.766   6.027  69.653  1.00  0.00    -0.130 OA 
BRANCH  10  13
HETATM   13  C   UNL     2     -11.075   5.540  70.228  1.00  0.00    -0.007 C  
HETATM   14  O   UNL     2     -10.700   6.128  71.478  1.00  0.00    -0.234 OA 
HETATM   15  H   UNL     2     -11.305   5.900  72.174  1.00  0.00     0.000 HD 
ENDBRANCH  10  13
ENDBRANCH   9  10
ENDBRANCH   8   9
ENDBRANCH   5   8
ENDBRANCH   4   5
ENDBRANCH   3   4
ENDBRANCH   2   3
BRANCH   2  16
HETATM   16  C   UNL     2      -7.958  13.875  67.345  1.00  0.00    -0.170 C  
BRANCH  16  17
HETATM   17  O   UNL     2      -9.182  14.602  67.260  1.00  0.00    -0.191 OA 
BRANCH  17  18
HETATM   18  C   UNL     2      -9.571  15.048  66.033  1.00  0.00    -0.325 C  
HETATM   19  O   UNL     2      -9.963  14.346  65.109  1.00  0.00    -0.354 OA 
BRANCH  18  20
HETATM   20  C   UNL     2      -9.361  16.526  65.978  1.00  0.00    -0.302 C  
BRANCH  20  21
HETATM   21  C   UNL     2     -10.699  17.199  66.118  1.00  0.00    -0.094 C  
BRANCH  21  22
HETATM   22  C   UNL     2     -10.610  18.657  65.705  1.00  0.00    -0.290 C  
BRANCH  22  23
HETATM   23  C   UNL     2      -9.489  19.339  66.471  1.00  0.00    -0.407 C  
BRANCH  23  24
HETATM   24  C   UNL     2     -10.018  19.907  67.775  1.00  0.00    -0.552 C  
BRANCH  24  25
HETATM   25  C   UNL     2      -9.401  19.171  68.950  1.00  0.00    -0.391 C  
BRANCH  25  26
HETATM   26  C   UNL     2      -7.944  18.851  68.660  1.00  0.00    -0.381 C  
BRANCH  26  27
HETATM   27  C   UNL     2      -7.639  17.410  69.036  1.00  0.00    -0.169 C  
BRANCH  27  28
HETATM   28  C   UNL     2      -6.450  16.900  68.240  1.00  0.00    -0.142 C  
BRANCH  28  29
HETATM   29  C   UNL     2      -5.747  18.051  67.534  1.00  0.00    -0.147 C  
BRANCH  29  30
HETATM   30  C   UNL     2      -5.382  17.657  66.110  1.00  0.00    -0.231 C  
BRANCH  30  31
HETATM   31  C   UNL     2      -6.247  18.407  65.104  1.00  0.00    -0.191 C  
BRANCH  31  32
HETATM   32  C   UNL     2      -5.377  19.166  64.108  1.00  0.00    -0.289 C  
BRANCH  32  33
HETATM   33  C   UNL     2      -5.865  20.601  63.939  1.00  0.00    -0.329 C  
HETATM   34  C   UNL     2      -5.956  21.308  65.280  1.00  0.00    -0.136 C  
ENDBRANCH  32  33
ENDBRANCH  31  32
ENDBRANCH  30  31
ENDBRANCH  29  30
ENDBRANCH  28  29
ENDBRANCH  27  28
ENDBRANCH  26  27
ENDBRANCH  25  26
ENDBRANCH  24  25
ENDBRANCH  23  24
ENDBRANCH  22  23
ENDBRANCH  21  22
ENDBRANCH  20  21
ENDBRANCH  18  20
ENDBRANCH  17  18
ENDBRANCH  16  17
ENDBRANCH   2  16
BRANCH   2  35
HETATM   35  O   UNL     2      -7.124  11.703  67.906  1.00  0.00    -0.074 OA 
BRANCH  35  36
HETATM   36  C   UNL     2      -6.455  10.700  67.270  1.00  0.00    -0.072 C  
HETATM   37  O   UNL     2      -6.464  10.487  66.055  1.00  0.00    -0.109 OA 
BRANCH  36  38
HETATM   38  C   UNL     2      -5.624   9.970  68.261  1.00  0.00    -0.038 C  
BRANCH  38  39
HETATM   39  C   UNL     2      -6.481   9.017  69.053  1.00  0.00    -0.047 C  
BRANCH  39  40
HETATM   40  C   UNL     2      -5.781   8.622  70.341  1.00  0.00    -0.027 C  
BRANCH  40  41
HETATM   41  C   UNL     2      -5.619   9.850  71.224  1.00  0.00    -0.069 C  
BRANCH  41  42
HETATM   42  C   UNL     2      -5.443   9.450  72.679  1.00  0.00    -0.018 C  
BRANCH  42  43
HETATM   43  C   UNL     2      -5.641   7.949  72.830  1.00  0.00    -0.045 C  
BRANCH  43  44
HETATM   44  C   UNL     2      -6.880   7.667  73.664  1.00  0.00    -0.098 C  
BRANCH  44  45
HETATM   45  C   UNL     2      -6.659   6.456  74.558  1.00  0.00    -0.085 C  
BRANCH  45  46
HETATM   46  C   UNL     2      -5.487   5.630  74.046  1.00  0.00    -0.032 C  
BRANCH  46  47
HETATM   47  C   UNL     2      -5.813   4.144  74.100  1.00  0.00    -0.012 C  
BRANCH  47  48
HETATM   48  C   UNL     2      -7.317   3.925  73.998  1.00  0.00    -0.062 C  
BRANCH  48  49
HETATM   49  C   UNL     2      -7.645   2.945  72.876  1.00  0.00    -0.050 C  
BRANCH  49  50
HETATM   50  C   UNL     2      -7.720   3.667  71.534  1.00  0.00    -0.057 C  
BRANCH  50  51
HETATM   51  C   UNL     2      -6.529   3.307  70.650  1.00  0.00    -0.031 C  
HETATM   52  C   UNL     2      -5.353   4.231  70.915  1.00  0.00    -0.004 C  
ENDBRANCH  50  51
ENDBRANCH  49  50
ENDBRANCH  48  49
ENDBRANCH  47  48
ENDBRANCH  46  47
ENDBRANCH  45  46
ENDBRANCH  44  45
ENDBRANCH  43  44
ENDBRANCH  42  43
ENDBRANCH  41  42
ENDBRANCH  40  41
ENDBRANCH  39  40
ENDBRANCH  38  39
ENDBRANCH  36  38
ENDBRANCH  35  36
ENDBRANCH   2  35
TORSDOF 40
ENDMDL
MODEL       30
REMARK 921   NORMALIZED FREE ENERGY PREDICTED BY IDOCK:   -1.87 KCAL/MOL
REMARK 922        TOTAL FREE ENERGY PREDICTED BY IDOCK:  -13.18 KCAL/MOL
REMARK 923 INTER-LIGAND FREE ENERGY PREDICTED BY IDOCK:   -9.34 KCAL/MOL
REMARK 924 INTRA-LIGAND FREE ENERGY PREDICTED BY IDOCK:   -3.83 KCAL/MOL
REMARK 927      BINDING AFFINITY PREDICTED BY RF-SCORE:    0.00 PKD
ROOT
HETATM    1 NA   UNL     1      -9.736   7.908  72.652  1.00  0.00    -0.141 Na 
HETATM    2  C   UNL     2      -8.955   7.996  68.811  1.00  0.00    -0.141 C  
ENDROOT
BRANCH   2   3
HETATM    3  C   UNL     2      -8.328   7.980  70.198  1.00  0.00    -0.126 C  
BRANCH   3   4
HETATM    4  O   UNL     2      -7.352   6.980  70.417  1.00  0.00    -0.079 OA 
BRANCH   4   5
HETATM    5  P   UNL     2      -7.730   5.719  71.540  1.00  0.00    -0.110 P  
HETATM    6  O   UNL     2      -6.846   6.419  72.633  1.00  0.00    -0.068 OA 
HETATM    7  O   UNL     2      -6.987   4.764  70.598  1.00  0.00    -0.036 OA 
BRANCH   5   8
HETATM    8  O   UNL     2      -8.107   4.459  72.664  1.00  0.00    -0.094 OA 
BRANCH   8   9
HETATM    9  C   UNL     2      -7.701   3.127  72.336  1.00  0.00    -0.058 C  
BRANCH   9  10
HETATM   10  C   UNL     2      -8.806   2.043  72.453  1.00  0.00    -0.066 C  
HETATM   11  H   UNL     2     -10.107   1.362  73.824  1.00  0.00     0.000 HD 
HETATM   12  O   UNL     2      -9.431   2.026  73.753  1.00  0.00    -0.077 OA 
BRANCH  10  13
HETATM   13  C   UNL     2      -9.882   2.293  71.382  1.00  0.00    -0.105 C  
HETATM   14  O   UNL     2      -9.337   2.901  70.207  1.00  0.00    -0.134 OA 
HETATM   15  H   UNL     2     -10.002   3.056  69.546  1.00  0.00     0.000 HD 
ENDBRANCH  10  13
ENDBRANCH   9  10
ENDBRANCH   8   9
ENDBRANCH   5   8
ENDBRANCH   4   5
ENDBRANCH   3   4
ENDBRANCH   2   3
BRANCH   2  16
HETATM   16  C   UNL     2      -8.290   8.971  67.853  1.00  0.00    -0.117 C  
BRANCH  16  17
HETATM   17  O   UNL     2      -7.503   9.969  68.502  1.00  0.00    -0.083 OA 
BRANCH  17  18
HETATM   18  C   UNL     2      -6.189  10.062  68.159  1.00  0.00    -0.053 C  
HETATM   19  O   UNL     2      -5.472   9.131  67.817  1.00  0.00    -0.034 OA 
BRANCH  18  20
HETATM   20  C   UNL     2      -5.750  11.477  68.349  1.00  0.00    -0.045 C  
BRANCH  20  21
HETATM   21  C   UNL     2      -5.129  11.601  69.714  1.00  0.00    -0.063 C  
BRANCH  21  22
HETATM   22  C   UNL     2      -5.698  12.798  70.454  1.00  0.00    -0.173 C  
BRANCH  22  23
HETATM   23  C   UNL     2      -6.384  13.731  69.469  1.00  0.00    -0.118 C  
BRANCH  23  24
HETATM   24  C   UNL     2      -5.543  14.976  69.259  1.00  0.00    -0.094 C  
BRANCH  24  25
HETATM   25  C   UNL     2      -6.112  16.129  70.066  1.00  0.00    -0.142 C  
BRANCH  25  26
HETATM   26  C   UNL     2      -6.753  17.150  69.142  1.00  0.00    -0.238 C  
BRANCH  26  27
HETATM   27  C   UNL     2      -6.274  16.938  67.715  1.00  0.00    -0.157 C  
BRANCH  27  28
HETATM   28  C   UNL     2      -5.411  18.108  67.272  1.00  0.00    -0.143 C  
BRANCH  28  29
HETATM   29  C   UNL     2      -6.194  19.028  66.346  1.00  0.00    -0.199 C  
BRANCH  29  30
HETATM   30  C   UNL     2      -7.605  18.494  66.137  1.00  0.00    -0.273 C  
BRANCH  30  31
HETATM   31  C   UNL     2      -8.614  19.636  66.102  1.00  0.00    -0.357 C  
BRANCH  31  32
HETATM   32  C   UNL     2      -8.697  20.321  67.463  1.00  0.00    -0.401 C  
BRANCH  32  33
HETATM   33  C   UNL     2     -10.103  20.210  68.045  1.00  0.00    -0.519 C  
HETATM   34  C   UNL     2     -10.904  19.133  67.335  1.00  0.00    -0.533 C  
ENDBRANCH  32  33
ENDBRANCH  31  32
ENDBRANCH  30  31
ENDBRANCH  29  30
ENDBRANCH  28  29
ENDBRANCH  27  28
ENDBRANCH  26  27
ENDBRANCH  25  26
ENDBRANCH  24  25
ENDBRANCH  23  24
ENDBRANCH  22  23
ENDBRANCH  21  22
ENDBRANCH  20  21
ENDBRANCH  18  20
ENDBRANCH  17  18
ENDBRANCH  16  17
ENDBRANCH   2  16
BRANCH   2  35
HETATM   35  O   UNL     2      -8.884   6.683  68.226  1.00  0.00    -0.125 OA 
BRANCH  35  36
HETATM   36  C   UNL     2      -8.058   6.572  67.147  1.00  0.00    -0.113 C  
HETATM   37  O   UNL     2      -6.847   6.344  67.188  1.00  0.00    -0.061 OA 
BRANCH  36  38
HETATM   38  C   UNL     2      -8.871   6.663  65.907  1.00  0.00    -0.126 C  
BRANCH  38  39
HETATM   39  C   UNL     2      -7.972   6.703  64.700  1.00  0.00    -0.113 C  
BRANCH  39  40
HETATM   40  C   UNL     2      -7.669   8.140  64.313  1.00  0.00    -0.128 C  
BRANCH  40  41
HETATM   41  C   UNL     2      -8.500   8.520  63.097  1.00  0.00    -0.061 C  
BRANCH  41  42
HETATM   42  C   UNL     2      -9.114   9.899  63.272  1.00  0.00    -0.294 C  
BRANCH  42  43
HETATM   43  C   UNL     2      -9.372  10.167  64.746  1.00  0.00    -0.324 C  
BRANCH  43  44
HETATM   44  C   UNL     2     -10.416  11.261  64.904  1.00  0.00    -0.375 C  
BRANCH  44  45
HETATM   45  C   UNL     2     -10.795  11.838  63.548  1.00  0.00    -0.496 C  
BRANCH  45  46
HETATM   46  C   UNL     2     -12.290  12.119  63.495  1.00  0.00    -0.682 C  
BRANCH  46  47
HETATM   47  C   UNL     2     -12.823  12.455  64.881  1.00  0.00    -0.092 C  
BRANCH  47  48
HETATM   48  C   UNL     2     -12.229  13.767  65.376  1.00  0.00    -0.465 C  
BRANCH  48  49
HETATM   49  C   UNL     2     -12.229  13.820  66.900  1.00  0.00    -0.408 C  
BRANCH  49  50
HETATM   50  C   UNL     2     -11.902  15.227  67.392  1.00  0.00    -0.007 C  
BRANCH  50  51
HETATM   51  C   UNL     2     -10.396  15.415  67.554  1.00  0.00    -0.264 C  
HETATM   52  C   UNL     2      -9.918  14.873  68.890  1.00  0.00    -0.233 C  
ENDBRANCH  50  51
ENDBRANCH  49  50
ENDBRANCH  48  49
ENDBRANCH  47  48
ENDBRANCH  46  47
ENDBRANCH  45  46
ENDBRANCH  44  45
ENDBRANCH  43  44
ENDBRANCH  42  43
ENDBRANCH  41  42
ENDBRANCH  40  41
ENDBRANCH  39  40
ENDBRANCH  38  39
ENDBRANCH  36  38
ENDBRANCH  35  36
ENDBRANCH   2  35
TORSDOF 40
ENDMDL
MODEL       31
REMARK 921   NORMALIZED FREE ENERGY PREDICTED BY IDOCK:   -1.50 KCAL/MOL
REMARK 922        TOTAL FREE ENERGY PREDICTED BY IDOCK:  -11.94 KCAL/MOL
REMARK 923 INTER-LIGAND FREE ENERGY PREDICTED BY IDOCK:  -11.26 KCAL/MOL
REMARK 924 INTRA-LIGAND FREE ENERGY PREDICTED BY IDOCK:   -0.68 KCAL/MOL
REMARK 927      BINDING AFFINITY PREDICTED BY RF-SCORE:    0.00 PKD
ROOT
HETATM    1 NA   UNL     1      -8.904  13.315  67.132  1.00  0.00    -0.160 Na 
HETATM    2  C   UNL     2      -8.777   9.489  66.283  1.00  0.00    -0.143 C  
ENDROOT
BRANCH   2   3
HETATM    3  C   UNL     2      -9.573  10.567  67.004  1.00  0.00    -0.173 C  
BRANCH   3   4
HETATM    4  O   UNL     2      -8.975  11.848  67.042  1.00  0.00    -0.177 OA 
BRANCH   4   5
HETATM    5  P   UNL     2      -7.502  12.022  67.934  1.00  0.00    -0.140 P  
HETATM    6  O   UNL     2      -6.719  11.266  66.802  1.00  0.00    -0.122 OA 
HETATM    7  O   UNL     2      -8.138  11.133  69.008  1.00  0.00    -0.139 OA 
BRANCH   5   8
HETATM    8  O   UNL     2      -6.029  12.196  68.825  1.00  0.00    -0.053 OA 
BRANCH   8   9
HETATM    9  C   UNL     2      -6.102  12.778  70.130  1.00  0.00    -0.090 C  
BRANCH   9  10
HETATM   10  C   UNL     2      -6.397  14.302  70.166  1.00  0.00    -0.144 C  
HETATM   11  H   UNL     2      -5.526  15.988  70.828  1.00  0.00     0.000 HD 
HETATM   12  O   UNL     2      -5.345  15.055  70.807  1.00  0.00    -0.127 OA 
BRANCH  10  13
HETATM   13  C   UNL     2      -6.583  14.821  68.730  1.00  0.00    -0.088 C  
HETATM   14  O   UNL     2      -7.471  15.943  68.677  1.00  0.00    -0.142 OA 
HETATM   15  H   UNL     2      -7.586  16.263  67.791  1.00  0.00     0.000 HD 
ENDBRANCH  10  13
ENDBRANCH   9  10
ENDBRANCH   8   9
ENDBRANCH   5   8
ENDBRANCH   4   5
ENDBRANCH   3   4
ENDBRANCH   2   3
BRANCH   2  16
HETATM   16  C   UNL     2      -8.645   8.198  67.075  1.00  0.00    -0.123 C  
BRANCH  16  17
HETATM   17  O   UNL     2      -9.689   7.997  68.026  1.00  0.00    -0.152 OA 
BRANCH  17  18
HETATM   18  C   UNL     2      -9.339   7.570  69.271  1.00  0.00    -0.151 C  
HETATM   19  O   UNL     2      -8.318   7.879  69.871  1.00  0.00    -0.119 OA 
BRANCH  18  20
HETATM   20  C   UNL     2     -10.371   6.599  69.745  1.00  0.00    -0.226 C  
BRANCH  20  21
HETATM   21  C   UNL     2     -10.028   6.194  71.153  1.00  0.00    -0.218 C  
BRANCH  21  22
HETATM   22  C   UNL     2     -11.286   6.054  71.990  1.00  0.00    -0.341 C  
BRANCH  22  23
HETATM   23  C   UNL     2     -10.937   5.456  73.343  1.00  0.00    -0.349 C  
BRANCH  23  24
HETATM   24  C   UNL     2     -10.967   3.941  73.267  1.00  0.00    -0.294 C  
BRANCH  24  25
HETATM   25  C   UNL     2      -9.594   3.379  73.590  1.00  0.00    -0.137 C  
BRANCH  25  26
HETATM   26  C   UNL     2      -9.332   2.130  72.765  1.00  0.00    -0.118 C  
BRANCH  26  27
HETATM   27  C   UNL     2      -9.692   2.379  71.310  1.00  0.00    -0.201 C  
BRANCH  27  28
HETATM   28  C   UNL     2      -8.799   1.552  70.400  1.00  0.00    -0.118 C  
BRANCH  28  29
HETATM   29  C   UNL     2      -7.618   2.380  69.914  1.00  0.00    -0.043 C  
BRANCH  29  30
HETATM   30  C   UNL     2      -8.099   3.715  69.363  1.00  0.00    -0.063 C  
BRANCH  30  31
HETATM   31  C   UNL     2      -7.208   4.176  68.214  1.00  0.00    -0.059 C  
BRANCH  31  32
HETATM   32  C   UNL     2      -8.038   4.429  66.959  1.00  0.00    -0.101 C  
BRANCH  32  33
HETATM   33  C   UNL     2      -8.019   3.213  66.039  1.00  0.00    -0.085 C  
HETATM   34  C   UNL     2      -6.787   2.360  66.286  1.00  0.00    -0.043 C  
ENDBRANCH  32  33
ENDBRANCH  31  32
ENDBRANCH  30  31
ENDBRANCH  29  30
ENDBRANCH  28  29
ENDBRANCH  27  28
ENDBRANCH  26  27
ENDBRANCH  25  26
ENDBRANCH  24  25
ENDBRANCH  23  24
ENDBRANCH  22  23
ENDBRANCH  21  22
ENDBRANCH  20  21
ENDBRANCH  18  20
ENDBRANCH  17  18
ENDBRANCH  16  17
ENDBRANCH   2  16
BRANCH   2  35
HETATM   35  O   UNL     2      -9.403   9.175  65.026  1.00  0.00    -0.195 OA 
BRANCH  35  36
HETATM   36  C   UNL     2      -8.621   9.365  63.925  1.00  0.00    -0.210 C  
HETATM   37  O   UNL     2      -7.496   8.891  63.752  1.00  0.00    -0.106 OA 
BRANCH  36  38
HETATM   38  C   UNL     2      -9.387  10.145  62.919  1.00  0.00    -0.320 C  
BRANCH  38  39
HETATM   39  C   UNL     2     -10.527  10.870  63.584  1.00  0.00    -0.301 C  
BRANCH  39  40
HETATM   40  C   UNL     2     -10.327  12.372  63.488  1.00  0.00    -0.397 C  
BRANCH  40  41
HETATM   41  C   UNL     2     -11.676  13.068  63.601  1.00  0.00    -0.550 C  
BRANCH  41  42
HETATM   42  C   UNL     2     -12.458  12.540  64.791  1.00  0.00    -0.532 C  
BRANCH  42  43
HETATM   43  C   UNL     2     -12.396  13.539  65.936  1.00  0.00    -0.507 C  
BRANCH  43  44
HETATM   44  C   UNL     2     -11.481  14.696  65.571  1.00  0.00    -0.341 C  
BRANCH  44  45
HETATM   45  C   UNL     2     -10.528  15.006  66.716  1.00  0.00    -0.283 C  
BRANCH  45  46
HETATM   46  C   UNL     2     -11.035  16.199  67.515  1.00  0.00    -0.238 C  
BRANCH  46  47
HETATM   47  C   UNL     2     -11.424  15.775  68.924  1.00  0.00    -0.381 C  
BRANCH  47  48
HETATM   48  C   UNL     2     -11.261  14.270  69.092  1.00  0.00    -0.302 C  
BRANCH  48  49
HETATM   49  C   UNL     2     -12.139  13.754  70.227  1.00  0.00    -0.425 C  
BRANCH  49  50
HETATM   50  C   UNL     2     -12.136  14.732  71.399  1.00  0.00    -0.401 C  
BRANCH  50  51
HETATM   51  C   UNL     2     -13.558  15.109  71.802  1.00  0.00    -0.553 C  
HETATM   52  C   UNL     2     -13.570  15.872  73.116  1.00  0.00    -0.580 C  
ENDBRANCH  50  51
ENDBRANCH  49  50
ENDBRANCH  48  49
ENDBRANCH  47  48
ENDBRANCH  46  47
ENDBRANCH  45  46
ENDBRANCH  44  45
ENDBRANCH  43  44
ENDBRANCH  42  43
ENDBRANCH  41  42
ENDBRANCH  40  41
ENDBRANCH  39  40
ENDBRANCH  38  39
ENDBRANCH  36  38
ENDBRANCH  35  36
ENDBRANCH   2  35
TORSDOF 40
ENDMDL
MODEL       32
REMARK 921   NORMALIZED FREE ENERGY PREDICTED BY IDOCK:   -1.45 KCAL/MOL
REMARK 922        TOTAL FREE ENERGY PREDICTED BY IDOCK:  -11.79 KCAL/MOL
REMARK 923 INTER-LIGAND FREE ENERGY PREDICTED BY IDOCK:   -9.94 KCAL/MOL
REMARK 924 INTRA-LIGAND FREE ENERGY PREDICTED BY IDOCK:   -1.85 KCAL/MOL
REMARK 927      BINDING AFFINITY PREDICTED BY RF-SCORE:    0.00 PKD
ROOT
HETATM    1 NA   UNL     1     -10.355   9.325  65.451  1.00  0.00    -0.303 Na 
HETATM    2  C   UNL     2      -8.140   7.941  68.375  1.00  0.00    -0.123 C  
ENDROOT
BRANCH   2   3
HETATM    3  C   UNL     2      -9.192   8.979  68.008  1.00  0.00    -0.135 C  
BRANCH   3   4
HETATM    4  O   UNL     2      -8.717  10.301  67.849  1.00  0.00    -0.121 OA 
BRANCH   4   5
HETATM    5  P   UNL     2      -9.554  11.329  66.737  1.00  0.00    -0.202 P  
HETATM    6  O   UNL     2     -10.805  10.383  66.793  1.00  0.00    -0.207 OA 
HETATM    7  O   UNL     2      -8.484  10.953  65.705  1.00  0.00    -0.172 OA 
BRANCH   5   8
HETATM    8  O   UNL     2     -10.392  12.356  65.624  1.00  0.00    -0.248 OA 
BRANCH   8   9
HETATM    9  C   UNL     2     -11.296  13.326  66.160  1.00  0.00    -0.309 C  
BRANCH   9  10
HETATM   10  C   UNL     2     -11.848  14.360  65.141  1.00  0.00    -0.386 C  
HETATM   11  H   UNL     2     -13.600  15.226  64.675  1.00  0.00     0.000 HD 
HETATM   12  O   UNL     2     -13.263  14.593  65.299  1.00  0.00    -0.381 OA 
BRANCH  10  13
HETATM   13  C   UNL     2     -11.097  15.692  65.308  1.00  0.00    -0.303 C  
HETATM   14  O   UNL     2      -9.710  15.570  64.978  1.00  0.00    -0.246 OA 
HETATM   15  H   UNL     2      -9.247  16.393  65.081  1.00  0.00     0.000 HD 
ENDBRANCH  10  13
ENDBRANCH   9  10
ENDBRANCH   8   9
ENDBRANCH   5   8
ENDBRANCH   4   5
ENDBRANCH   3   4
ENDBRANCH   2   3
BRANCH   2  16
HETATM   16  C   UNL     2      -7.029   8.488  69.257  1.00  0.00    -0.054 C  
BRANCH  16  17
HETATM   17  O   UNL     2      -7.451   9.527  70.137  1.00  0.00    -0.098 OA 
BRANCH  17  18
HETATM   18  C   UNL     2      -6.513  10.418  70.563  1.00  0.00    -0.093 C  
HETATM   19  O   UNL     2      -6.572  11.634  70.433  1.00  0.00    -0.148 OA 
BRANCH  18  20
HETATM   20  C   UNL     2      -5.365   9.657  71.142  1.00  0.00    -0.059 C  
BRANCH  20  21
HETATM   21  C   UNL     2      -5.149  10.128  72.554  1.00  0.00     0.025 C  
BRANCH  21  22
HETATM   22  C   UNL     2      -5.180   8.957  73.519  1.00  0.00    -0.089 C  
BRANCH  22  23
HETATM   23  C   UNL     2      -6.571   8.821  74.115  1.00  0.00    -0.065 C  
BRANCH  23  24
HETATM   24  C   UNL     2      -7.304   7.660  73.468  1.00  0.00    -0.131 C  
BRANCH  24  25
HETATM   25  C   UNL     2      -6.311   6.739  72.780  1.00  0.00    -0.054 C  
BRANCH  25  26
HETATM   26  C   UNL     2      -6.153   5.453  73.573  1.00  0.00    -0.051 C  
BRANCH  26  27
HETATM   27  C   UNL     2      -7.007   4.353  72.963  1.00  0.00    -0.067 C  
BRANCH  27  28
HETATM   28  C   UNL     2      -7.713   4.866  71.719  1.00  0.00    -0.102 C  
BRANCH  28  29
HETATM   29  C   UNL     2      -7.647   3.831  70.604  1.00  0.00    -0.041 C  
BRANCH  29  30
HETATM   30  C   UNL     2      -9.041   3.542  70.066  1.00  0.00    -0.197 C  
BRANCH  30  31
HETATM   31  C   UNL     2     -10.093   3.755  71.150  1.00  0.00    -0.026 C  
BRANCH  31  32
HETATM   32  C   UNL     2     -10.116   2.574  72.115  1.00  0.00    -0.213 C  
BRANCH  32  33
HETATM   33  C   UNL     2     -10.865   2.929  73.395  1.00  0.00    -0.300 C  
HETATM   34  C   UNL     2     -11.886   1.861  73.745  1.00  0.00    -0.189 C  
ENDBRANCH  32  33
ENDBRANCH  31  32
ENDBRANCH  30  31
ENDBRANCH  29  30
ENDBRANCH  28  29
ENDBRANCH  27  28
ENDBRANCH  26  27
ENDBRANCH  25  26
ENDBRANCH  24  25
ENDBRANCH  23  24
ENDBRANCH  22  23
ENDBRANCH  21  22
ENDBRANCH  20  21
ENDBRANCH  18  20
ENDBRANCH  17  18
ENDBRANCH  16  17
ENDBRANCH   2  16
BRANCH   2  35
HETATM   35  O   UNL     2      -8.757   6.843  69.070  1.00  0.00    -0.131 OA 
BRANCH  35  36
HETATM   36  C   UNL     2     -10.106   6.943  69.232  1.00  0.00    -0.170 C  
HETATM   37  O   UNL     2     -10.958   6.459  68.484  1.00  0.00    -0.290 OA 
BRANCH  36  38
HETATM   38  C   UNL     2     -10.388   7.636  70.515  1.00  0.00    -0.211 C  
BRANCH  38  39
HETATM   39  C   UNL     2     -11.720   7.194  71.062  1.00  0.00    -0.358 C  
BRANCH  39  40
HETATM   40  C   UNL     2     -12.135   8.077  72.225  1.00  0.00    -0.392 C  
BRANCH  40  41
HETATM   41  C   UNL     2     -12.662   9.400  71.690  1.00  0.00    -0.459 C  
BRANCH  41  42
HETATM   42  C   UNL     2     -11.706   9.988  70.666  1.00  0.00    -0.421 C  
BRANCH  42  43
HETATM   43  C   UNL     2     -11.879  11.498  70.603  1.00  0.00    -0.279 C  
BRANCH  43  44
HETATM   44  C   UNL     2     -13.298  11.878  70.990  1.00  0.00     0.382 C  
BRANCH  44  45
HETATM   45  C   UNL     2     -13.307  13.177  71.782  1.00  0.00    -0.477 C  
BRANCH  45  46
HETATM   46  C   UNL     2     -13.185  14.368  70.842  1.00  0.00    -0.347 C  
BRANCH  46  47
HETATM   47  C   UNL     2     -11.745  14.855  70.775  1.00  0.00    -0.364 C  
BRANCH  47  48
HETATM   48  C   UNL     2     -11.319  15.066  69.328  1.00  0.00    -0.311 C  
BRANCH  48  49
HETATM   49  C   UNL     2     -10.569  16.384  69.171  1.00  0.00    -0.308 C  
BRANCH  49  50
HETATM   50  C   UNL     2      -9.363  16.214  68.252  1.00  0.00    -0.205 C  
BRANCH  50  51
HETATM   51  C   UNL     2      -8.586  17.520  68.119  1.00  0.00    -0.258 C  
HETATM   52  C   UNL     2      -9.242  18.631  68.920  1.00  0.00    -0.249 C  
ENDBRANCH  50  51
ENDBRANCH  49  50
ENDBRANCH  48  49
ENDBRANCH  47  48
ENDBRANCH  46  47
ENDBRANCH  45  46
ENDBRANCH  44  45
ENDBRANCH  43  44
ENDBRANCH  42  43
ENDBRANCH  41  42
ENDBRANCH  40  41
ENDBRANCH  39  40
ENDBRANCH  38  39
ENDBRANCH  36  38
ENDBRANCH  35  36
ENDBRANCH   2  35
TORSDOF 40
ENDMDL
MODEL       33
REMARK 921   NORMALIZED FREE ENERGY PREDICTED BY IDOCK:   -1.36 KCAL/MOL
REMARK 922        TOTAL FREE ENERGY PREDICTED BY IDOCK:  -11.49 KCAL/MOL
REMARK 923 INTER-LIGAND FREE ENERGY PREDICTED BY IDOCK:   -7.85 KCAL/MOL
REMARK 924 INTRA-LIGAND FREE ENERGY PREDICTED BY IDOCK:   -3.64 KCAL/MOL
REMARK 927      BINDING AFFINITY PREDICTED BY RF-SCORE:    0.00 PKD
ROOT
HETATM    1 NA   UNL     1      -9.934  15.279  70.579  1.00  0.00    -0.258 Na 
HETATM    2  C   UNL     2      -8.580  12.638  68.017  1.00  0.00    -0.189 C  
ENDROOT
BRANCH   2   3
HETATM    3  C   UNL     2      -8.456  14.082  68.483  1.00  0.00    -0.143 C  
BRANCH   3   4
HETATM    4  O   UNL     2      -9.628  14.865  68.369  1.00  0.00    -0.197 OA 
BRANCH   4   5
HETATM    5  P   UNL     2      -9.445  16.533  67.947  1.00  0.00    -0.225 P  
HETATM    6  O   UNL     2      -8.172  16.185  67.096  1.00  0.00    -0.166 OA 
HETATM    7  O   UNL     2      -9.195  16.801  69.435  1.00  0.00    -0.105 OA 
BRANCH   5   8
HETATM    8  O   UNL     2      -9.261  18.201  67.525  1.00  0.00    -0.255 OA 
BRANCH   8   9
HETATM    9  C   UNL     2      -8.308  18.534  66.511  1.00  0.00    -0.281 C  
BRANCH   9  10
HETATM   10  C   UNL     2      -7.411  19.764  66.816  1.00  0.00    -0.249 C  
HETATM   11  H   UNL     2      -7.598  21.606  67.595  1.00  0.00     0.000 HD 
HETATM   12  O   UNL     2      -8.147  20.853  67.409  1.00  0.00    -0.279 OA 
BRANCH  10  13
HETATM   13  C   UNL     2      -6.277  19.347  67.767  1.00  0.00    -0.208 C  
HETATM   14  O   UNL     2      -6.733  19.211  69.117  1.00  0.00    -0.289 OA 
HETATM   15  H   UNL     2      -6.032  18.953  69.704  1.00  0.00     0.000 HD 
ENDBRANCH  10  13
ENDBRANCH   9  10
ENDBRANCH   8   9
ENDBRANCH   5   8
ENDBRANCH   4   5
ENDBRANCH   3   4
ENDBRANCH   2   3
BRANCH   2  16
HETATM   16  C   UNL     2      -8.576  12.485  66.504  1.00  0.00     0.028 C  
BRANCH  16  17
HETATM   17  O   UNL     2      -9.826  12.795  65.891  1.00  0.00    -0.263 OA 
BRANCH  17  18
HETATM   18  C   UNL     2     -10.430  11.822  65.154  1.00  0.00    -0.283 C  
HETATM   19  O   UNL     2     -11.471  11.948  64.522  1.00  0.00    -0.327 OA 
BRANCH  18  20
HETATM   20  C   UNL     2      -9.654  10.556  65.314  1.00  0.00    -0.303 C  
BRANCH  20  21
HETATM   21  C   UNL     2     -10.574   9.502  65.867  1.00  0.00     0.339 C  
BRANCH  21  22
HETATM   22  C   UNL     2     -10.808   9.721  67.350  1.00  0.00    -0.265 C  
BRANCH  22  23
HETATM   23  C   UNL     2      -9.703   9.049  68.148  1.00  0.00    -0.172 C  
BRANCH  23  24
HETATM   24  C   UNL     2      -9.771   9.483  69.601  1.00  0.00    -0.215 C  
BRANCH  24  25
HETATM   25  C   UNL     2      -9.533   8.290  70.510  1.00  0.00    -0.178 C  
BRANCH  25  26
HETATM   26  C   UNL     2     -10.771   8.015  71.347  1.00  0.00    -0.270 C  
BRANCH  26  27
HETATM   27  C   UNL     2     -10.471   8.248  72.818  1.00  0.00    -0.329 C  
BRANCH  27  28
HETATM   28  C   UNL     2     -10.714   6.976  73.612  1.00  0.00    -0.310 C  
BRANCH  28  29
HETATM   29  C   UNL     2      -9.478   6.605  74.418  1.00  0.00    -0.279 C  
BRANCH  29  30
HETATM   30  C   UNL     2      -8.345   6.188  73.490  1.00  0.00    -0.118 C  
BRANCH  30  31
HETATM   31  C   UNL     2      -8.601   4.798  72.918  1.00  0.00    -0.111 C  
BRANCH  31  32
HETATM   32  C   UNL     2      -8.887   4.877  71.422  1.00  0.00    -0.153 C  
BRANCH  32  33
HETATM   33  C   UNL     2      -9.780   3.724  70.975  1.00  0.00    -0.248 C  
HETATM   34  C   UNL     2      -9.731   2.578  71.971  1.00  0.00    -0.212 C  
ENDBRANCH  32  33
ENDBRANCH  31  32
ENDBRANCH  30  31
ENDBRANCH  29  30
ENDBRANCH  28  29
ENDBRANCH  27  28
ENDBRANCH  26  27
ENDBRANCH  25  26
ENDBRANCH  24  25
ENDBRANCH  23  24
ENDBRANCH  22  23
ENDBRANCH  21  22
ENDBRANCH  20  21
ENDBRANCH  18  20
ENDBRANCH  17  18
ENDBRANCH  16  17
ENDBRANCH   2  16
BRANCH   2  35
HETATM   35  O   UNL     2      -7.491  11.858  68.543  1.00  0.00    -0.106 OA 
BRANCH  35  36
HETATM   36  C   UNL     2      -6.540  12.568  69.215  1.00  0.00    -0.089 C  
HETATM   37  O   UNL     2      -6.753  13.379  70.119  1.00  0.00     0.108 OA 
BRANCH  36  38
HETATM   38  C   UNL     2      -5.198  12.127  68.758  1.00  0.00    -0.050 C  
BRANCH  38  39
HETATM   39  C   UNL     2      -5.233  11.793  67.290  1.00  0.00    -0.089 C  
BRANCH  39  40
HETATM   40  C   UNL     2      -5.128  10.293  67.085  1.00  0.00    -0.040 C  
BRANCH  40  41
HETATM   41  C   UNL     2      -6.464   9.755  66.594  1.00  0.00    -0.070 C  
BRANCH  41  42
HETATM   42  C   UNL     2      -6.660   8.314  67.032  1.00  0.00    -0.058 C  
BRANCH  42  43
HETATM   43  C   UNL     2      -6.440   7.379  65.853  1.00  0.00    -0.045 C  
BRANCH  43  44
HETATM   44  C   UNL     2      -7.000   6.001  66.166  1.00  0.00    -0.062 C  
BRANCH  44  45
HETATM   45  C   UNL     2      -8.127   6.100  67.184  1.00  0.00    -0.106 C  
BRANCH  45  46
HETATM   46  C   UNL     2      -8.062   4.931  68.156  1.00  0.00    -0.086 C  
BRANCH  46  47
HETATM   47  C   UNL     2      -9.097   3.874  67.794  1.00  0.00    -0.183 C  
BRANCH  47  48
HETATM   48  C   UNL     2      -8.482   2.816  66.885  1.00  0.00    -0.104 C  
BRANCH  48  49
HETATM   49  C   UNL     2      -9.396   2.525  65.700  1.00  0.00    -0.003 C  
BRANCH  49  50
HETATM   50  C   UNL     2      -9.643   3.792  64.885  1.00  0.00    -0.177 C  
BRANCH  50  51
HETATM   51  C   UNL     2      -8.433   4.133  64.022  1.00  0.00    -0.103 C  
HETATM   52  C   UNL     2      -7.803   2.879  63.442  1.00  0.00    -0.072 C  
ENDBRANCH  50  51
ENDBRANCH  49  50
ENDBRANCH  48  49
ENDBRANCH  47  48
ENDBRANCH  46  47
ENDBRANCH  45  46
ENDBRANCH  44  45
ENDBRANCH  43  44
ENDBRANCH  42  43
ENDBRANCH  41  42
ENDBRANCH  40  41
ENDBRANCH  39  40
ENDBRANCH  38  39
ENDBRANCH  36  38
ENDBRANCH  35  36
ENDBRANCH   2  35
TORSDOF 40
ENDMDL
MODEL       34
REMARK 921   NORMALIZED FREE ENERGY PREDICTED BY IDOCK:   -1.26 KCAL/MOL
REMARK 922        TOTAL FREE ENERGY PREDICTED BY IDOCK:  -11.16 KCAL/MOL
REMARK 923 INTER-LIGAND FREE ENERGY PREDICTED BY IDOCK:  -10.70 KCAL/MOL
REMARK 924 INTRA-LIGAND FREE ENERGY PREDICTED BY IDOCK:   -0.46 KCAL/MOL
REMARK 927      BINDING AFFINITY PREDICTED BY RF-SCORE:    0.00 PKD
ROOT
HETATM    1 NA   UNL     1      -8.112  13.206  67.332  1.00  0.00    -0.120 Na 
HETATM    2  C   UNL     2      -8.734   9.486  66.260  1.00  0.00    -0.143 C  
ENDROOT
BRANCH   2   3
HETATM    3  C   UNL     2      -9.263  10.629  67.116  1.00  0.00    -0.147 C  
BRANCH   3   4
HETATM    4  O   UNL     2      -8.336  11.657  67.403  1.00  0.00    -0.139 OA 
BRANCH   4   5
HETATM    5  P   UNL     2      -6.874  11.219  68.220  1.00  0.00    -0.072 P  
HETATM    6  O   UNL     2      -6.130  12.430  67.555  1.00  0.00    -0.117 OA 
HETATM    7  O   UNL     2      -6.897   9.923  67.401  1.00  0.00    -0.080 OA 
BRANCH   5   8
HETATM    8  O   UNL     2      -5.413  10.780  69.037  1.00  0.00    -0.041 OA 
BRANCH   8   9
HETATM    9  C   UNL     2      -5.508  10.371  70.405  1.00  0.00    -0.066 C  
BRANCH   9  10
HETATM   10  C   UNL     2      -6.176   8.990  70.644  1.00  0.00    -0.043 C  
HETATM   11  H   UNL     2      -5.749   7.045  70.373  1.00  0.00     0.000 HD 
HETATM   12  O   UNL     2      -5.340   7.890  70.226  1.00  0.00    -0.023 OA 
BRANCH  10  13
HETATM   13  C   UNL     2      -6.504   8.832  72.138  1.00  0.00    -0.043 C  
HETATM   14  O   UNL     2      -6.203   7.517  72.617  1.00  0.00    -0.053 OA 
HETATM   15  H   UNL     2      -6.406   7.420  73.539  1.00  0.00     0.000 HD 
ENDBRANCH  10  13
ENDBRANCH   9  10
ENDBRANCH   8   9
ENDBRANCH   5   8
ENDBRANCH   4   5
ENDBRANCH   3   4
ENDBRANCH   2   3
BRANCH   2  16
HETATM   16  C   UNL     2      -8.763   8.137  66.960  1.00  0.00    -0.131 C  
BRANCH  16  17
HETATM   17  O   UNL     2      -9.847   7.986  67.875  1.00  0.00    -0.155 OA 
BRANCH  17  18
HETATM   18  C   UNL     2      -9.616   7.291  69.023  1.00  0.00    -0.147 C  
HETATM   19  O   UNL     2      -8.515   7.024  69.487  1.00  0.00    -0.131 OA 
BRANCH  18  20
HETATM   20  C   UNL     2     -10.929   6.842  69.576  1.00  0.00    -0.325 C  
BRANCH  20  21
HETATM   21  C   UNL     2     -10.669   6.041  70.822  1.00  0.00    -0.340 C  
BRANCH  21  22
HETATM   22  C   UNL     2     -11.782   6.247  71.832  1.00  0.00    -0.370 C  
BRANCH  22  23
HETATM   23  C   UNL     2     -11.339   5.739  73.195  1.00  0.00    -0.190 C  
BRANCH  23  24
HETATM   24  C   UNL     2     -11.051   4.251  73.128  1.00  0.00    -0.293 C  
BRANCH  24  25
HETATM   25  C   UNL     2      -9.624   3.979  73.570  1.00  0.00    -0.134 C  
BRANCH  25  26
HETATM   26  C   UNL     2      -9.125   2.682  72.957  1.00  0.00    -0.103 C  
BRANCH  26  27
HETATM   27  C   UNL     2      -9.846   2.409  71.647  1.00  0.00    -0.216 C  
BRANCH  27  28
HETATM   28  C   UNL     2      -9.001   1.510  70.760  1.00  0.00    -0.126 C  
BRANCH  28  29
HETATM   29  C   UNL     2      -8.156   2.344  69.806  1.00  0.00    -0.057 C  
BRANCH  29  30
HETATM   30  C   UNL     2      -8.985   3.477  69.217  1.00  0.00    -0.179 C  
BRANCH  30  31
HETATM   31  C   UNL     2      -8.857   3.504  67.698  1.00  0.00    -0.148 C  
BRANCH  31  32
HETATM   32  C   UNL     2      -9.961   4.357  67.081  1.00  0.00    -0.182 C  
BRANCH  32  33
HETATM   33  C   UNL     2      -9.853   4.374  65.560  1.00  0.00    -0.225 C  
HETATM   34  C   UNL     2      -8.478   4.838  65.115  1.00  0.00    -0.135 C  
ENDBRANCH  32  33
ENDBRANCH  31  32
ENDBRANCH  30  31
ENDBRANCH  29  30
ENDBRANCH  28  29
ENDBRANCH  27  28
ENDBRANCH  26  27
ENDBRANCH  25  26
ENDBRANCH  24  25
ENDBRANCH  23  24
ENDBRANCH  22  23
ENDBRANCH  21  22
ENDBRANCH  20  21
ENDBRANCH  18  20
ENDBRANCH  17  18
ENDBRANCH  16  17
ENDBRANCH   2  16
BRANCH   2  35
HETATM   35  O   UNL     2      -9.514   9.376  65.055  1.00  0.00    -0.247 OA 
BRANCH  35  36
HETATM   36  C   UNL     2      -8.822   9.573  63.897  1.00  0.00    -0.210 C  
HETATM   37  O   UNL     2      -7.777   9.002  63.577  1.00  0.00    -0.111 OA 
BRANCH  36  38
HETATM   38  C   UNL     2      -9.589  10.505  63.030  1.00  0.00    -0.369 C  
BRANCH  38  39
HETATM   39  C   UNL     2     -10.619  11.241  63.846  1.00  0.00    -0.455 C  
BRANCH  39  40
HETATM   40  C   UNL     2     -10.236  12.703  63.986  1.00  0.00    -0.363 C  
BRANCH  40  41
HETATM   41  C   UNL     2     -11.495  13.539  64.165  1.00  0.00    -0.394 C  
BRANCH  41  42
HETATM   42  C   UNL     2     -12.370  12.969  65.269  1.00  0.00    -0.537 C  
BRANCH  42  43
HETATM   43  C   UNL     2     -11.932  13.525  66.615  1.00  0.00    -0.452 C  
BRANCH  43  44
HETATM   44  C   UNL     2     -11.358  14.922  66.443  1.00  0.00    -0.308 C  
BRANCH  44  45
HETATM   45  C   UNL     2      -9.950  14.996  67.014  1.00  0.00    -0.242 C  
BRANCH  45  46
HETATM   46  C   UNL     2      -9.872  16.075  68.084  1.00  0.00    -0.222 C  
BRANCH  46  47
HETATM   47  C   UNL     2      -8.617  16.919  67.906  1.00  0.00    -0.208 C  
BRANCH  47  48
HETATM   48  C   UNL     2      -8.797  18.285  68.556  1.00  0.00    -0.322 C  
BRANCH  48  49
HETATM   49  C   UNL     2      -8.026  19.354  67.789  1.00  0.00    -0.321 C  
BRANCH  49  50
HETATM   50  C   UNL     2      -8.982  20.353  67.146  1.00  0.00    -0.453 C  
BRANCH  50  51
HETATM   51  C   UNL     2     -10.421  19.847  67.198  1.00  0.00    -0.566 C  
HETATM   52  C   UNL     2     -11.010  19.728  65.803  1.00  0.00    -0.252 C  
ENDBRANCH  50  51
ENDBRANCH  49  50
ENDBRANCH  48  49
ENDBRANCH  47  48
ENDBRANCH  46  47
ENDBRANCH  45  46
ENDBRANCH  44  45
ENDBRANCH  43  44
ENDBRANCH  42  43
ENDBRANCH  41  42
ENDBRANCH  40  41
ENDBRANCH  39  40
ENDBRANCH  38  39
ENDBRANCH  36  38
ENDBRANCH  35  36
ENDBRANCH   2  35
TORSDOF 40
ENDMDL
MODEL       35
REMARK 921   NORMALIZED FREE ENERGY PREDICTED BY IDOCK:   -1.11 KCAL/MOL
REMARK 922        TOTAL FREE ENERGY PREDICTED BY IDOCK:  -10.66 KCAL/MOL
REMARK 923 INTER-LIGAND FREE ENERGY PREDICTED BY IDOCK:  -10.34 KCAL/MOL
REMARK 924 INTRA-LIGAND FREE ENERGY PREDICTED BY IDOCK:   -0.32 KCAL/MOL
REMARK 927      BINDING AFFINITY PREDICTED BY RF-SCORE:    0.00 PKD
ROOT
HETATM    1 NA   UNL     1     -10.166   9.713  65.656  1.00  0.00    -0.235 Na 
HETATM    2  C   UNL     2      -7.583   7.786  67.889  1.00  0.00    -0.116 C  
ENDROOT
BRANCH   2   3
HETATM    3  C   UNL     2      -8.884   8.576  67.909  1.00  0.00    -0.137 C  
BRANCH   3   4
HETATM    4  O   UNL     2      -8.762   9.947  68.234  1.00  0.00    -0.118 OA 
BRANCH   4   5
HETATM    5  P   UNL     2      -9.375  11.100  67.099  1.00  0.00    -0.168 P  
HETATM    6  O   UNL     2      -8.177  10.796  66.131  1.00  0.00    -0.154 OA 
HETATM    7  O   UNL     2      -9.112  12.172  68.164  1.00  0.00    -0.186 OA 
BRANCH   5   8
HETATM    8  O   UNL     2      -9.988  12.254  65.964  1.00  0.00    -0.243 OA 
BRANCH   8   9
HETATM    9  C   UNL     2     -11.405  12.329  65.785  1.00  0.00    -0.355 C  
BRANCH   9  10
HETATM   10  C   UNL     2     -11.904  13.492  64.886  1.00  0.00    -0.374 C  
HETATM   11  H   UNL     2     -13.358  14.879  64.889  1.00  0.00     0.000 HD 
HETATM   12  O   UNL     2     -13.052  14.168  65.440  1.00  0.00    -0.743 OA 
BRANCH  10  13
HETATM   13  C   UNL     2     -10.768  14.510  64.689  1.00  0.00    -0.310 C  
HETATM   14  O   UNL     2     -11.103  15.795  65.223  1.00  0.00    -0.331 OA 
HETATM   15  H   UNL     2     -10.401  16.424  65.102  1.00  0.00     0.000 HD 
ENDBRANCH  10  13
ENDBRANCH   9  10
ENDBRANCH   8   9
ENDBRANCH   5   8
ENDBRANCH   4   5
ENDBRANCH   3   4
ENDBRANCH   2   3
BRANCH   2  16
HETATM   16  C   UNL     2      -6.636   8.145  69.023  1.00  0.00    -0.048 C  
BRANCH  16  17
HETATM   17  O   UNL     2      -7.225   8.971  70.026  1.00  0.00    -0.049 OA 
BRANCH  17  18
HETATM   18  C   UNL     2      -6.392   9.703  70.815  1.00  0.00    -0.097 C  
HETATM   19  O   UNL     2      -6.202  10.910  70.727  1.00  0.00    -0.333 OA 
BRANCH  18  20
HETATM   20  C   UNL     2      -5.690   8.775  71.752  1.00  0.00    -0.055 C  
BRANCH  20  21
HETATM   21  C   UNL     2      -5.945   9.240  73.159  1.00  0.00     0.160 C  
BRANCH  21  22
HETATM   22  C   UNL     2      -6.728   8.196  73.933  1.00  0.00    -0.144 C  
BRANCH  22  23
HETATM   23  C   UNL     2      -8.145   8.110  73.390  1.00  0.00    -0.253 C  
BRANCH  23  24
HETATM   24  C   UNL     2      -8.367   6.766  72.722  1.00  0.00    -0.115 C  
BRANCH  24  25
HETATM   25  C   UNL     2      -7.340   5.764  73.219  1.00  0.00    -0.094 C  
BRANCH  25  26
HETATM   26  C   UNL     2      -8.010   4.723  74.100  1.00  0.00    -0.101 C  
BRANCH  26  27
HETATM   27  C   UNL     2      -8.550   3.585  73.250  1.00  0.00    -0.086 C  
BRANCH  27  28
HETATM   28  C   UNL     2      -8.129   3.768  71.801  1.00  0.00    -0.067 C  
BRANCH  28  29
HETATM   29  C   UNL     2      -8.033   2.420  71.100  1.00  0.00    -0.050 C  
BRANCH  29  30
HETATM   30  C   UNL     2      -9.170   2.260  70.100  1.00  0.00    -0.189 C  
BRANCH  30  31
HETATM   31  C   UNL     2      -8.702   1.494  68.868  1.00  0.00    -0.102 C  
BRANCH  31  32
HETATM   32  C   UNL     2      -7.964   2.421  67.908  1.00  0.00    -0.062 C  
BRANCH  32  33
HETATM   33  C   UNL     2      -8.518   2.295  66.492  1.00  0.00    -0.101 C  
HETATM   34  C   UNL     2      -7.396   2.150  65.479  1.00  0.00    -0.065 C  
ENDBRANCH  32  33
ENDBRANCH  31  32
ENDBRANCH  30  31
ENDBRANCH  29  30
ENDBRANCH  28  29
ENDBRANCH  27  28
ENDBRANCH  26  27
ENDBRANCH  25  26
ENDBRANCH  24  25
ENDBRANCH  23  24
ENDBRANCH  22  23
ENDBRANCH  21  22
ENDBRANCH  20  21
ENDBRANCH  18  20
ENDBRANCH  17  18
ENDBRANCH  16  17
ENDBRANCH   2  16
BRANCH   2  35
HETATM   35  O   UNL     2      -7.864   6.377  67.977  1.00  0.00    -0.102 OA 
BRANCH  35  36
HETATM   36  C   UNL     2      -9.187   6.049  67.986  1.00  0.00    -0.115 C  
HETATM   37  O   UNL     2      -9.773   5.403  67.115  1.00  0.00    -0.129 OA 
BRANCH  36  38
HETATM   38  C   UNL     2      -9.787   6.499  69.268  1.00  0.00    -0.161 C  
BRANCH  38  39
HETATM   39  C   UNL     2     -10.615   5.394  69.869  1.00  0.00    -0.351 C  
BRANCH  39  40
HETATM   40  C   UNL     2     -11.100   5.789  71.252  1.00  0.00    -0.267 C  
BRANCH  40  41
HETATM   41  C   UNL     2     -11.892   7.084  71.159  1.00  0.00    -0.380 C  
BRANCH  41  42
HETATM   42  C   UNL     2     -11.122   8.132  70.374  1.00  0.00    -0.239 C  
BRANCH  42  43
HETATM   43  C   UNL     2     -11.657   9.519  70.697  1.00  0.00    -0.350 C  
BRANCH  43  44
HETATM   44  C   UNL     2     -13.130   9.438  71.065  1.00  0.00    -0.214 C  
BRANCH  44  45
HETATM   45  C   UNL     2     -13.435  10.340  72.252  1.00  0.00    -0.240 C  
BRANCH  45  46
HETATM   46  C   UNL     2     -13.660  11.770  71.782  1.00  0.00     0.003 C  
BRANCH  46  47
HETATM   47  C   UNL     2     -12.332  12.496  71.617  1.00  0.00     0.193 C  
BRANCH  47  48
HETATM   48  C   UNL     2     -12.378  13.425  70.411  1.00  0.00    -0.382 C  
BRANCH  48  49
HETATM   49  C   UNL     2     -12.416  14.884  70.854  1.00  0.00    -0.395 C  
BRANCH  49  50
HETATM   50  C   UNL     2     -13.799  15.252  71.383  1.00  0.00    -0.603 C  
BRANCH  50  51
HETATM   51  C   UNL     2     -13.703  15.905  72.759  1.00  0.00    -0.571 C  
HETATM   52  C   UNL     2     -12.610  15.262  73.595  1.00  0.00    -0.712 C  
ENDBRANCH  50  51
ENDBRANCH  49  50
ENDBRANCH  48  49
ENDBRANCH  47  48
ENDBRANCH  46  47
ENDBRANCH  45  46
ENDBRANCH  44  45
ENDBRANCH  43  44
ENDBRANCH  42  43
ENDBRANCH  41  42
ENDBRANCH  40  41
ENDBRANCH  39  40
ENDBRANCH  38  39
ENDBRANCH  36  38
ENDBRANCH  35  36
ENDBRANCH   2  35
TORSDOF 40
ENDMDL
MODEL       36
REMARK 921   NORMALIZED FREE ENERGY PREDICTED BY IDOCK:   -1.09 KCAL/MOL
REMARK 922        TOTAL FREE ENERGY PREDICTED BY IDOCK:  -10.58 KCAL/MOL
REMARK 923 INTER-LIGAND FREE ENERGY PREDICTED BY IDOCK:   -8.59 KCAL/MOL
REMARK 924 INTRA-LIGAND FREE ENERGY PREDICTED BY IDOCK:   -1.98 KCAL/MOL
REMARK 927      BINDING AFFINITY PREDICTED BY RF-SCORE:    0.00 PKD
ROOT
HETATM    1 NA   UNL     1     -13.839  12.484  72.980  1.00  0.00    -0.525 Na 
HETATM    2  C   UNL     2     -11.406  10.328  70.788  1.00  0.00    -0.337 C  
ENDROOT
BRANCH   2   3
HETATM    3  C   UNL     2     -12.836  10.837  70.908  1.00  0.00    -0.351 C  
BRANCH   3   4
HETATM    4  O   UNL     2     -12.976  12.158  71.392  1.00  0.00    -0.368 OA 
BRANCH   4   5
HETATM    5  P   UNL     2     -12.757  13.455  70.267  1.00  0.00     0.216 P  
HETATM    6  O   UNL     2     -11.394  13.827  70.950  1.00  0.00     0.255 OA 
HETATM    7  O   UNL     2     -14.006  14.097  70.884  1.00  0.00    -0.044 OA 
BRANCH   5   8
HETATM    8  O   UNL     2     -12.539  14.751  69.142  1.00  0.00    -0.036 OA 
BRANCH   8   9
HETATM    9  C   UNL     2     -11.252  15.374  69.081  1.00  0.00    -0.287 C  
BRANCH   9  10
HETATM   10  C   UNL     2     -10.622  15.468  67.666  1.00  0.00    -0.291 C  
HETATM   11  H   UNL     2     -11.157  15.143  65.756  1.00  0.00     0.000 HD 
HETATM   12  O   UNL     2     -11.543  15.085  66.622  1.00  0.00    -0.311 OA 
BRANCH  10  13
HETATM   13  C   UNL     2     -10.147  16.909  67.412  1.00  0.00    -0.279 C  
HETATM   14  O   UNL     2     -11.112  17.875  67.843  1.00  0.00    -0.194 OA 
HETATM   15  H   UNL     2     -10.818  18.764  67.686  1.00  0.00     0.000 HD 
ENDBRANCH  10  13
ENDBRANCH   9  10
ENDBRANCH   8   9
ENDBRANCH   5   8
ENDBRANCH   4   5
ENDBRANCH   3   4
ENDBRANCH   2   3
BRANCH   2  16
HETATM   16  C   UNL     2     -11.313   8.868  70.372  1.00  0.00    -0.202 C  
BRANCH  16  17
HETATM   17  O   UNL     2     -12.026   7.979  71.229  1.00  0.00    -0.292 OA 
BRANCH  17  18
HETATM   18  C   UNL     2     -11.860   6.641  71.036  1.00  0.00    -0.372 C  
HETATM   19  O   UNL     2     -11.627   6.098  69.963  1.00  0.00    -0.392 OA 
BRANCH  18  20
HETATM   20  C   UNL     2     -12.089   5.942  72.336  1.00  0.00    -0.135 C  
BRANCH  20  21
HETATM   21  C   UNL     2     -10.761   5.466  72.858  1.00  0.00    -0.296 C  
BRANCH  21  22
HETATM   22  C   UNL     2     -10.131   6.515  73.755  1.00  0.00    -0.297 C  
BRANCH  22  23
HETATM   23  C   UNL     2      -8.688   6.747  73.337  1.00  0.00    -0.140 C  
BRANCH  23  24
HETATM   24  C   UNL     2      -8.170   8.036  73.948  1.00  0.00    -0.306 C  
BRANCH  24  25
HETATM   25  C   UNL     2      -6.759   8.310  73.460  1.00  0.00    -0.142 C  
BRANCH  25  26
HETATM   26  C   UNL     2      -6.464   7.484  72.220  1.00  0.00    -0.050 C  
BRANCH  26  27
HETATM   27  C   UNL     2      -6.837   8.263  70.969  1.00  0.00    -0.046 C  
BRANCH  27  28
HETATM   28  C   UNL     2      -5.605   8.926  70.376  1.00  0.00    -0.030 C  
BRANCH  28  29
HETATM   29  C   UNL     2      -5.636  10.427  70.623  1.00  0.00    -0.088 C  
BRANCH  29  30
HETATM   30  C   UNL     2      -6.099  11.161  69.373  1.00  0.00    -0.071 C  
BRANCH  30  31
HETATM   31  C   UNL     2      -5.837  12.658  69.497  1.00  0.00    -0.105 C  
BRANCH  31  32
HETATM   32  C   UNL     2      -6.603  13.429  68.427  1.00  0.00    -0.094 C  
BRANCH  32  33
HETATM   33  C   UNL     2      -6.243  14.911  68.458  1.00  0.00    -0.091 C  
HETATM   34  C   UNL     2      -6.814  15.636  67.252  1.00  0.00    -0.197 C  
ENDBRANCH  32  33
ENDBRANCH  31  32
ENDBRANCH  30  31
ENDBRANCH  29  30
ENDBRANCH  28  29
ENDBRANCH  27  28
ENDBRANCH  26  27
ENDBRANCH  25  26
ENDBRANCH  24  25
ENDBRANCH  23  24
ENDBRANCH  22  23
ENDBRANCH  21  22
ENDBRANCH  20  21
ENDBRANCH  18  20
ENDBRANCH  17  18
ENDBRANCH  16  17
ENDBRANCH   2  16
BRANCH   2  35
HETATM   35  O   UNL     2     -10.687  11.111  69.819  1.00  0.00    -0.161 OA 
BRANCH  35  36
HETATM   36  C   UNL     2     -10.266  10.427  68.717  1.00  0.00    -0.187 C  
HETATM   37  O   UNL     2      -9.362   9.588  68.694  1.00  0.00    -0.140 OA 
BRANCH  36  38
HETATM   38  C   UNL     2     -11.143  10.773  67.570  1.00  0.00    -0.374 C  
BRANCH  38  39
HETATM   39  C   UNL     2     -10.327  11.380  66.459  1.00  0.00    -0.277 C  
BRANCH  39  40
HETATM   40  C   UNL     2      -8.909  10.840  66.488  1.00  0.00    -0.162 C  
BRANCH  40  41
HETATM   41  C   UNL     2      -8.691   9.930  65.288  1.00  0.00    -0.181 C  
BRANCH  41  42
HETATM   42  C   UNL     2      -7.277   9.373  65.283  1.00  0.00    -0.096 C  
BRANCH  42  43
HETATM   43  C   UNL     2      -6.929   8.831  66.660  1.00  0.00    -0.080 C  
BRANCH  43  44
HETATM   44  C   UNL     2      -6.816   7.316  66.612  1.00  0.00    -0.065 C  
BRANCH  44  45
HETATM   45  C   UNL     2      -7.303   6.785  65.272  1.00  0.00    -0.084 C  
BRANCH  45  46
HETATM   46  C   UNL     2      -7.448   5.271  65.327  1.00  0.00    -0.077 C  
BRANCH  46  47
HETATM   47  C   UNL     2      -8.861   4.852  64.946  1.00  0.00    -0.152 C  
BRANCH  47  48
HETATM   48  C   UNL     2      -9.045   3.352  65.144  1.00  0.00    -0.144 C  
BRANCH  48  49
HETATM   49  C   UNL     2      -8.240   2.863  66.343  1.00  0.00    -0.088 C  
BRANCH  49  50
HETATM   50  C   UNL     2      -9.024   3.060  67.637  1.00  0.00    -0.192 C  
BRANCH  50  51
HETATM   51  C   UNL     2      -8.746   1.931  68.624  1.00  0.00    -0.116 C  
HETATM   52  C   UNL     2      -9.474   2.160  69.937  1.00  0.00    -0.120 C  
ENDBRANCH  50  51
ENDBRANCH  49  50
ENDBRANCH  48  49
ENDBRANCH  47  48
ENDBRANCH  46  47
ENDBRANCH  45  46
ENDBRANCH  44  45
ENDBRANCH  43  44
ENDBRANCH  42  43
ENDBRANCH  41  42
ENDBRANCH  40  41
ENDBRANCH  39  40
ENDBRANCH  38  39
ENDBRANCH  36  38
ENDBRANCH  35  36
ENDBRANCH   2  35
TORSDOF 40
ENDMDL
MODEL       37
REMARK 921   NORMALIZED FREE ENERGY PREDICTED BY IDOCK:   -1.09 KCAL/MOL
REMARK 922        TOTAL FREE ENERGY PREDICTED BY IDOCK:  -10.57 KCAL/MOL
REMARK 923 INTER-LIGAND FREE ENERGY PREDICTED BY IDOCK:   -7.41 KCAL/MOL
REMARK 924 INTRA-LIGAND FREE ENERGY PREDICTED BY IDOCK:   -3.17 KCAL/MOL
REMARK 927      BINDING AFFINITY PREDICTED BY RF-SCORE:    0.00 PKD
ROOT
HETATM    1 NA   UNL     1      -9.954  15.309  70.551  1.00  0.00    -0.258 Na 
HETATM    2  C   UNL     2      -8.589  12.765  67.899  1.00  0.00    -0.181 C  
ENDROOT
BRANCH   2   3
HETATM    3  C   UNL     2      -8.494  14.201  68.393  1.00  0.00    -0.170 C  
BRANCH   3   4
HETATM    4  O   UNL     2      -9.629  15.009  68.148  1.00  0.00    -0.201 OA 
BRANCH   4   5
HETATM    5  P   UNL     2      -9.381  16.711  67.964  1.00  0.00    -0.236 P  
HETATM    6  O   UNL     2      -8.764  16.784  69.406  1.00  0.00    -0.057 OA 
HETATM    7  O   UNL     2     -10.907  16.846  67.888  1.00  0.00    -0.354 OA 
BRANCH   5   8
HETATM    8  O   UNL     2      -9.133  18.414  67.781  1.00  0.00    -0.271 OA 
BRANCH   8   9
HETATM    9  C   UNL     2      -8.974  18.928  66.455  1.00  0.00    -0.323 C  
BRANCH   9  10
HETATM   10  C   UNL     2      -8.517  20.408  66.363  1.00  0.00    -0.061 C  
HETATM   11  H   UNL     2      -9.256  22.238  66.746  1.00  0.00     0.000 HD 
HETATM   12  O   UNL     2      -9.536  21.331  66.803  1.00  0.00     0.250 OA 
BRANCH  10  13
HETATM   13  C   UNL     2      -7.255  20.609  67.219  1.00  0.00    -0.337 C  
HETATM   14  O   UNL     2      -6.592  19.370  67.494  1.00  0.00    -0.206 OA 
HETATM   15  H   UNL     2      -5.813  19.494  68.022  1.00  0.00     0.000 HD 
ENDBRANCH  10  13
ENDBRANCH   9  10
ENDBRANCH   8   9
ENDBRANCH   5   8
ENDBRANCH   4   5
ENDBRANCH   3   4
ENDBRANCH   2   3
BRANCH   2  16
HETATM   16  C   UNL     2      -8.619  12.644  66.384  1.00  0.00     0.164 C  
BRANCH  16  17
HETATM   17  O   UNL     2      -9.897  12.913  65.810  1.00  0.00    -0.264 OA 
BRANCH  17  18
HETATM   18  C   UNL     2     -10.452  11.954  65.019  1.00  0.00    -0.289 C  
HETATM   19  O   UNL     2     -11.501  12.061  64.395  1.00  0.00    -0.334 OA 
BRANCH  18  20
HETATM   20  C   UNL     2      -9.610  10.723  65.105  1.00  0.00    -0.295 C  
BRANCH  20  21
HETATM   21  C   UNL     2     -10.464   9.600  65.625  1.00  0.00     0.268 C  
BRANCH  21  22
HETATM   22  C   UNL     2     -10.727   9.771  67.110  1.00  0.00    -0.273 C  
BRANCH  22  23
HETATM   23  C   UNL     2      -9.529   9.278  67.904  1.00  0.00    -0.154 C  
BRANCH  23  24
HETATM   24  C   UNL     2      -9.624   9.754  69.341  1.00  0.00    -0.218 C  
BRANCH  24  25
HETATM   25  C   UNL     2      -9.337   8.603  70.289  1.00  0.00    -0.180 C  
BRANCH  25  26
HETATM   26  C   UNL     2      -9.391   7.283  69.540  1.00  0.00    -0.152 C  
BRANCH  26  27
HETATM   27  C   UNL     2     -10.586   6.466  70.004  1.00  0.00    -0.291 C  
BRANCH  27  28
HETATM   28  C   UNL     2     -10.126   5.122  70.543  1.00  0.00    -0.326 C  
BRANCH  28  29
HETATM   29  C   UNL     2     -10.483   4.988  72.017  1.00  0.00    -0.269 C  
BRANCH  29  30
HETATM   30  C   UNL     2      -9.712   6.008  72.844  1.00  0.00    -0.162 C  
BRANCH  30  31
HETATM   31  C   UNL     2     -10.646   7.092  73.370  1.00  0.00    -0.424 C  
BRANCH  31  32
HETATM   32  C   UNL     2     -11.778   7.352  72.382  1.00  0.00    -0.306 C  
BRANCH  32  33
HETATM   33  C   UNL     2     -12.761   8.379  72.936  1.00  0.00     0.142 C  
HETATM   34  C   UNL     2     -13.454   9.132  71.813  1.00  0.00    -0.478 C  
ENDBRANCH  32  33
ENDBRANCH  31  32
ENDBRANCH  30  31
ENDBRANCH  29  30
ENDBRANCH  28  29
ENDBRANCH  27  28
ENDBRANCH  26  27
ENDBRANCH  25  26
ENDBRANCH  24  25
ENDBRANCH  23  24
ENDBRANCH  22  23
ENDBRANCH  21  22
ENDBRANCH  20  21
ENDBRANCH  18  20
ENDBRANCH  17  18
ENDBRANCH  16  17
ENDBRANCH   2  16
BRANCH   2  35
HETATM   35  O   UNL     2      -7.466  12.005  68.381  1.00  0.00    -0.097 OA 
BRANCH  35  36
HETATM   36  C   UNL     2      -6.515  12.729  69.037  1.00  0.00    -0.096 C  
HETATM   37  O   UNL     2      -6.723  13.521  69.959  1.00  0.00     0.037 OA 
BRANCH  36  38
HETATM   38  C   UNL     2      -5.175  12.330  68.537  1.00  0.00    -0.051 C  
BRANCH  38  39
HETATM   39  C   UNL     2      -5.247  11.999  67.069  1.00  0.00    -0.079 C  
BRANCH  39  40
HETATM   40  C   UNL     2      -5.145  10.499  66.858  1.00  0.00    -0.042 C  
BRANCH  40  41
HETATM   41  C   UNL     2      -6.124  10.075  65.774  1.00  0.00    -0.086 C  
BRANCH  41  42
HETATM   42  C   UNL     2      -6.334   8.570  65.795  1.00  0.00    -0.052 C  
BRANCH  42  43
HETATM   43  C   UNL     2      -5.579   7.926  64.643  1.00  0.00    -0.044 C  
BRANCH  43  44
HETATM   44  C   UNL     2      -5.934   6.450  64.546  1.00  0.00    -0.023 C  
BRANCH  44  45
HETATM   45  C   UNL     2      -5.460   5.704  65.785  1.00  0.00    -0.013 C  
BRANCH  45  46
HETATM   46  C   UNL     2      -5.222   4.237  65.456  1.00  0.00    -0.009 C  
BRANCH  46  47
HETATM   47  C   UNL     2      -5.934   3.340  66.460  1.00  0.00    -0.024 C  
BRANCH  47  48
HETATM   48  C   UNL     2      -7.092   2.608  65.793  1.00  0.00    -0.064 C  
BRANCH  48  49
HETATM   49  C   UNL     2      -8.361   2.729  66.630  1.00  0.00    -0.096 C  
BRANCH  49  50
HETATM   50  C   UNL     2      -8.263   3.909  67.592  1.00  0.00    -0.093 C  
BRANCH  50  51
HETATM   51  C   UNL     2      -8.546   5.226  66.875  1.00  0.00    -0.105 C  
HETATM   52  C   UNL     2     -10.017   5.347  66.516  1.00  0.00    -0.222 C  
ENDBRANCH  50  51
ENDBRANCH  49  50
ENDBRANCH  48  49
ENDBRANCH  47  48
ENDBRANCH  46  47
ENDBRANCH  45  46
ENDBRANCH  44  45
ENDBRANCH  43  44
ENDBRANCH  42  43
ENDBRANCH  41  42
ENDBRANCH  40  41
ENDBRANCH  39  40
ENDBRANCH  38  39
ENDBRANCH  36  38
ENDBRANCH  35  36
ENDBRANCH   2  35
TORSDOF 40
ENDMDL
MODEL       38
REMARK 921   NORMALIZED FREE ENERGY PREDICTED BY IDOCK:   -0.98 KCAL/MOL
REMARK 922        TOTAL FREE ENERGY PREDICTED BY IDOCK:  -10.22 KCAL/MOL
REMARK 923 INTER-LIGAND FREE ENERGY PREDICTED BY IDOCK:   -7.05 KCAL/MOL
REMARK 924 INTRA-LIGAND FREE ENERGY PREDICTED BY IDOCK:   -3.17 KCAL/MOL
REMARK 927      BINDING AFFINITY PREDICTED BY RF-SCORE:    0.00 PKD
ROOT
HETATM    1 NA   UNL     1      -8.942  14.904  70.888  1.00  0.00    -0.317 Na 
HETATM    2  C   UNL     2      -8.321  12.368  67.963  1.00  0.00    -0.170 C  
ENDROOT
BRANCH   2   3
HETATM    3  C   UNL     2      -7.830  13.660  68.601  1.00  0.00    -0.096 C  
BRANCH   3   4
HETATM    4  O   UNL     2      -8.796  14.382  69.341  1.00  0.00     0.107 OA 
BRANCH   4   5
HETATM    5  P   UNL     2     -10.111  15.093  68.469  1.00  0.00    -0.241 P  
HETATM    6  O   UNL     2      -9.722  16.509  69.022  1.00  0.00    -0.247 OA 
HETATM    7  O   UNL     2     -11.046  14.266  69.360  1.00  0.00    -0.258 OA 
BRANCH   5   8
HETATM    8  O   UNL     2     -11.426  15.803  67.597  1.00  0.00    -0.254 OA 
BRANCH   8   9
HETATM    9  C   UNL     2     -11.544  15.504  66.203  1.00  0.00     0.213 C  
BRANCH   9  10
HETATM   10  C   UNL     2     -10.795  16.470  65.247  1.00  0.00    -0.221 C  
HETATM   11  H   UNL     2     -10.960  17.152  63.363  1.00  0.00     0.000 HD 
HETATM   12  O   UNL     2     -11.419  16.560  63.949  1.00  0.00    -1.145 OA 
BRANCH  10  13
HETATM   13  C   UNL     2     -10.740  17.873  65.876  1.00  0.00    -0.114 C  
HETATM   14  O   UNL     2      -9.548  18.069  66.644  1.00  0.00    -0.292 OA 
HETATM   15  H   UNL     2      -9.514  18.935  67.032  1.00  0.00     0.000 HD 
ENDBRANCH  10  13
ENDBRANCH   9  10
ENDBRANCH   8   9
ENDBRANCH   5   8
ENDBRANCH   4   5
ENDBRANCH   3   4
ENDBRANCH   2   3
BRANCH   2  16
HETATM   16  C   UNL     2      -8.366  12.419  66.444  1.00  0.00     0.219 C  
BRANCH  16  17
HETATM   17  O   UNL     2      -9.497  13.115  65.925  1.00  0.00    -0.160 OA 
BRANCH  17  18
HETATM   18  C   UNL     2     -10.200  12.523  64.920  1.00  0.00    -0.278 C  
HETATM   19  O   UNL     2     -11.190  12.989  64.370  1.00  0.00    -0.325 OA 
BRANCH  18  20
HETATM   20  C   UNL     2      -9.609  11.177  64.657  1.00  0.00    -0.289 C  
BRANCH  20  21
HETATM   21  C   UNL     2     -10.700  10.149  64.780  1.00  0.00     0.813 C  
BRANCH  21  22
HETATM   22  C   UNL     2     -11.147  10.013  66.224  1.00  0.00     0.443 C  
BRANCH  22  23
HETATM   23  C   UNL     2     -10.055   9.338  67.038  1.00  0.00    -0.313 C  
BRANCH  23  24
HETATM   24  C   UNL     2     -10.474   9.241  68.493  1.00  0.00    -0.240 C  
BRANCH  24  25
HETATM   25  C   UNL     2      -9.393   8.545  69.299  1.00  0.00    -0.154 C  
BRANCH  25  26
HETATM   26  C   UNL     2      -8.887   7.323  68.551  1.00  0.00    -0.129 C  
BRANCH  26  27
HETATM   27  C   UNL     2      -9.003   6.087  69.427  1.00  0.00    -0.126 C  
BRANCH  27  28
HETATM   28  C   UNL     2     -10.397   5.994  70.023  1.00  0.00    -0.290 C  
BRANCH  28  29
HETATM   29  C   UNL     2     -10.325   5.931  71.542  1.00  0.00    -0.273 C  
BRANCH  29  30
HETATM   30  C   UNL     2     -11.593   6.505  72.158  1.00  0.00    -0.349 C  
BRANCH  30  31
HETATM   31  C   UNL     2     -12.190   7.582  71.259  1.00  0.00    -0.357 C  
BRANCH  31  32
HETATM   32  C   UNL     2     -13.192   8.432  72.032  1.00  0.00    -0.372 C  
BRANCH  32  33
HETATM   33  C   UNL     2     -12.680   9.859  72.203  1.00  0.00    -0.387 C  
HETATM   34  C   UNL     2     -12.949  10.688  70.959  1.00  0.00    -0.456 C  
ENDBRANCH  32  33
ENDBRANCH  31  32
ENDBRANCH  30  31
ENDBRANCH  29  30
ENDBRANCH  28  29
ENDBRANCH  27  28
ENDBRANCH  26  27
ENDBRANCH  25  26
ENDBRANCH  24  25
ENDBRANCH  23  24
ENDBRANCH  22  23
ENDBRANCH  21  22
ENDBRANCH  20  21
ENDBRANCH  18  20
ENDBRANCH  17  18
ENDBRANCH  16  17
ENDBRANCH   2  16
BRANCH   2  35
HETATM   35  O   UNL     2      -7.463  11.277  68.344  1.00  0.00    -0.095 OA 
BRANCH  35  36
HETATM   36  C   UNL     2      -6.518  11.580  69.278  1.00  0.00    -0.103 C  
HETATM   37  O   UNL     2      -6.736  12.070  70.389  1.00  0.00     0.103 OA 
BRANCH  36  38
HETATM   38  C   UNL     2      -5.192  11.126  68.788  1.00  0.00    -0.040 C  
BRANCH  38  39
HETATM   39  C   UNL     2      -5.138  11.212  67.285  1.00  0.00    -0.047 C  
BRANCH  39  40
HETATM   40  C   UNL     2      -5.131   9.822  66.675  1.00  0.00    -0.040 C  
BRANCH  40  41
HETATM   41  C   UNL     2      -6.272   9.704  65.676  1.00  0.00    -0.068 C  
BRANCH  41  42
HETATM   42  C   UNL     2      -6.328   8.305  65.084  1.00  0.00    -0.048 C  
BRANCH  42  43
HETATM   43  C   UNL     2      -7.100   7.381  66.013  1.00  0.00    -0.066 C  
BRANCH  43  44
HETATM   44  C   UNL     2      -7.077   5.960  65.474  1.00  0.00    -0.069 C  
BRANCH  44  45
HETATM   45  C   UNL     2      -6.787   4.968  66.591  1.00  0.00    -0.062 C  
BRANCH  45  46
HETATM   46  C   UNL     2      -6.665   3.560  66.026  1.00  0.00    -0.041 C  
BRANCH  46  47
HETATM   47  C   UNL     2      -7.774   2.667  66.566  1.00  0.00    -0.076 C  
BRANCH  47  48
HETATM   48  C   UNL     2      -8.150   1.605  65.540  1.00  0.00    -0.076 C  
BRANCH  48  49
HETATM   49  C   UNL     2      -9.516   1.901  64.931  1.00  0.00    -0.025 C  
BRANCH  49  50
HETATM   50  C   UNL     2      -9.391   2.185  63.437  1.00  0.00    -0.095 C  
BRANCH  50  51
HETATM   51  C   UNL     2      -8.012   2.744  63.099  1.00  0.00    -0.069 C  
HETATM   52  C   UNL     2      -8.101   4.199  62.671  1.00  0.00    -0.075 C  
ENDBRANCH  50  51
ENDBRANCH  49  50
ENDBRANCH  48  49
ENDBRANCH  47  48
ENDBRANCH  46  47
ENDBRANCH  45  46
ENDBRANCH  44  45
ENDBRANCH  43  44
ENDBRANCH  42  43
ENDBRANCH  41  42
ENDBRANCH  40  41
ENDBRANCH  39  40
ENDBRANCH  38  39
ENDBRANCH  36  38
ENDBRANCH  35  36
ENDBRANCH   2  35
TORSDOF 40
ENDMDL
MODEL       39
REMARK 921   NORMALIZED FREE ENERGY PREDICTED BY IDOCK:   -0.95 KCAL/MOL
REMARK 922        TOTAL FREE ENERGY PREDICTED BY IDOCK:  -10.11 KCAL/MOL
REMARK 923 INTER-LIGAND FREE ENERGY PREDICTED BY IDOCK:   -9.75 KCAL/MOL
REMARK 924 INTRA-LIGAND FREE ENERGY PREDICTED BY IDOCK:   -0.36 KCAL/MOL
REMARK 927      BINDING AFFINITY PREDICTED BY RF-SCORE:    0.00 PKD
ROOT
HETATM    1 NA   UNL     1      -8.179  17.555  67.295  1.00  0.00    -0.186 Na 
HETATM    2  C   UNL     2      -7.164  13.782  66.967  1.00  0.00     0.488 C  
ENDROOT
BRANCH   2   3
HETATM    3  C   UNL     2      -7.504  14.887  67.958  1.00  0.00    -0.126 C  
BRANCH   3   4
HETATM    4  O   UNL     2      -6.417  15.689  68.376  1.00  0.00    -0.106 OA 
BRANCH   4   5
HETATM    5  P   UNL     2      -6.638  17.406  68.381  1.00  0.00    -0.195 P  
HETATM    6  O   UNL     2      -5.169  17.601  68.898  1.00  0.00    -0.154 OA 
HETATM    7  O   UNL     2      -7.700  17.187  69.465  1.00  0.00     0.049 OA 
BRANCH   5   8
HETATM    8  O   UNL     2      -6.860  19.122  68.386  1.00  0.00    -0.248 OA 
BRANCH   8   9
HETATM    9  C   UNL     2      -6.545  19.841  67.190  1.00  0.00    -0.197 C  
BRANCH   9  10
HETATM   10  C   UNL     2      -6.142  18.966  65.972  1.00  0.00    -0.182 C  
HETATM   11  H   UNL     2      -7.016  17.726  64.654  1.00  0.00     0.000 HD 
HETATM   12  O   UNL     2      -7.263  18.261  65.400  1.00  0.00    -0.541 OA 
BRANCH  10  13
HETATM   13  C   UNL     2      -5.504  19.857  64.892  1.00  0.00    -0.171 C  
HETATM   14  O   UNL     2      -6.093  21.161  64.857  1.00  0.00    -0.313 OA 
HETATM   15  H   UNL     2      -5.700  21.711  64.190  1.00  0.00     0.000 HD 
ENDBRANCH  10  13
ENDBRANCH   9  10
ENDBRANCH   8   9
ENDBRANCH   5   8
ENDBRANCH   4   5
ENDBRANCH   3   4
ENDBRANCH   2   3
BRANCH   2  16
HETATM   16  C   UNL     2      -5.980  12.928  67.391  1.00  0.00    -0.077 C  
BRANCH  16  17
HETATM   17  O   UNL     2      -6.255  11.529  67.405  1.00  0.00    -0.069 OA 
BRANCH  17  18
HETATM   18  C   UNL     2      -6.039  10.828  66.258  1.00  0.00    -0.126 C  
HETATM   19  O   UNL     2      -5.279  11.153  65.355  1.00  0.00    -0.236 OA 
BRANCH  18  20
HETATM   20  C   UNL     2      -6.945   9.640  66.251  1.00  0.00    -0.092 C  
BRANCH  20  21
HETATM   21  C   UNL     2      -7.317   9.320  67.673  1.00  0.00    -0.084 C  
BRANCH  21  22
HETATM   22  C   UNL     2      -8.534   8.416  67.717  1.00  0.00    -0.131 C  
BRANCH  22  23
HETATM   23  C   UNL     2      -8.174   7.044  67.171  1.00  0.00    -0.118 C  
BRANCH  23  24
HETATM   24  C   UNL     2      -9.102   5.992  67.749  1.00  0.00    -0.109 C  
BRANCH  24  25
HETATM   25  C   UNL     2     -10.507   6.554  67.877  1.00  0.00    -0.273 C  
BRANCH  25  26
HETATM   26  C   UNL     2     -10.842   6.796  69.339  1.00  0.00    -0.312 C  
BRANCH  26  27
HETATM   27  C   UNL     2     -10.913   5.474  70.086  1.00  0.00    -0.208 C  
BRANCH  27  28
HETATM   28  C   UNL     2     -11.161   5.720  71.565  1.00  0.00    -0.243 C  
BRANCH  28  29
HETATM   29  C   UNL     2      -9.967   5.262  72.390  1.00  0.00    -0.219 C  
BRANCH  29  30
HETATM   30  C   UNL     2      -9.021   4.429  71.536  1.00  0.00    -0.162 C  
BRANCH  30  31
HETATM   31  C   UNL     2      -7.640   5.073  71.475  1.00  0.00    -0.096 C  
BRANCH  31  32
HETATM   32  C   UNL     2      -7.722   6.459  70.842  1.00  0.00    -0.101 C  
BRANCH  32  33
HETATM   33  C   UNL     2      -7.258   7.534  71.820  1.00  0.00    -0.063 C  
HETATM   34  C   UNL     2      -7.511   8.924  71.262  1.00  0.00    -0.127 C  
ENDBRANCH  32  33
ENDBRANCH  31  32
ENDBRANCH  30  31
ENDBRANCH  29  30
ENDBRANCH  28  29
ENDBRANCH  27  28
ENDBRANCH  26  27
ENDBRANCH  25  26
ENDBRANCH  24  25
ENDBRANCH  23  24
ENDBRANCH  22  23
ENDBRANCH  21  22
ENDBRANCH  20  21
ENDBRANCH  18  20
ENDBRANCH  17  18
ENDBRANCH  16  17
ENDBRANCH   2  16
BRANCH   2  35
HETATM   35  O   UNL     2      -8.297  12.913  66.795  1.00  0.00    -0.098 OA 
BRANCH  35  36
HETATM   36  C   UNL     2      -9.030  12.684  67.922  1.00  0.00    -0.189 C  
HETATM   37  O   UNL     2      -8.576  12.352  69.019  1.00  0.00     0.211 OA 
BRANCH  36  38
HETATM   38  C   UNL     2     -10.453  13.005  67.645  1.00  0.00    -0.228 C  
BRANCH  38  39
HETATM   39  C   UNL     2     -10.659  13.214  66.168  1.00  0.00    -0.288 C  
BRANCH  39  40
HETATM   40  C   UNL     2     -11.362  14.535  65.913  1.00  0.00    -0.341 C  
BRANCH  40  41
HETATM   41  C   UNL     2     -10.791  15.598  66.840  1.00  0.00    -0.282 C  
BRANCH  41  42
HETATM   42  C   UNL     2     -10.972  15.200  68.295  1.00  0.00    -0.276 C  
BRANCH  42  43
HETATM   43  C   UNL     2     -11.747  16.279  69.034  1.00  0.00    -0.165 C  
BRANCH  43  44
HETATM   44  C   UNL     2     -12.527  15.666  70.186  1.00  0.00    -0.311 C  
BRANCH  44  45
HETATM   45  C   UNL     2     -11.924  16.081  71.520  1.00  0.00    -0.539 C  
BRANCH  45  46
HETATM   46  C   UNL     2     -11.794  14.872  72.437  1.00  0.00    -0.359 C  
BRANCH  46  47
HETATM   47  C   UNL     2     -13.133  14.542  73.082  1.00  0.00    -0.553 C  
BRANCH  47  48
HETATM   48  C   UNL     2     -13.842  13.439  72.306  1.00  0.00    -0.671 C  
BRANCH  48  49
HETATM   49  C   UNL     2     -12.959  12.200  72.200  1.00  0.00    -0.276 C  
BRANCH  49  50
HETATM   50  C   UNL     2     -13.205  11.474  70.881  1.00  0.00     0.177 C  
BRANCH  50  51
HETATM   51  C   UNL     2     -12.440  10.154  70.831  1.00  0.00    -0.455 C  
HETATM   52  C   UNL     2     -11.048  10.351  70.256  1.00  0.00    -0.379 C  
ENDBRANCH  50  51
ENDBRANCH  49  50
ENDBRANCH  48  49
ENDBRANCH  47  48
ENDBRANCH  46  47
ENDBRANCH  45  46
ENDBRANCH  44  45
ENDBRANCH  43  44
ENDBRANCH  42  43
ENDBRANCH  41  42
ENDBRANCH  40  41
ENDBRANCH  39  40
ENDBRANCH  38  39
ENDBRANCH  36  38
ENDBRANCH  35  36
ENDBRANCH   2  35
TORSDOF 40
ENDMDL
MODEL       40
REMARK 921   NORMALIZED FREE ENERGY PREDICTED BY IDOCK:   -0.87 KCAL/MOL
REMARK 922        TOTAL FREE ENERGY PREDICTED BY IDOCK:   -9.85 KCAL/MOL
REMARK 923 INTER-LIGAND FREE ENERGY PREDICTED BY IDOCK:   -7.48 KCAL/MOL
REMARK 924 INTRA-LIGAND FREE ENERGY PREDICTED BY IDOCK:   -2.37 KCAL/MOL
REMARK 927      BINDING AFFINITY PREDICTED BY RF-SCORE:    0.00 PKD
ROOT
HETATM    1 NA   UNL     1     -13.412  10.849  73.039  1.00  0.00    -0.536 Na 
HETATM    2  C   UNL     2     -10.483   8.874  71.337  1.00  0.00    -0.305 C  
ENDROOT
BRANCH   2   3
HETATM    3  C   UNL     2     -11.944   9.279  71.197  1.00  0.00    -0.322 C  
BRANCH   3   4
HETATM    4  O   UNL     2     -12.254  10.599  71.601  1.00  0.00    -0.304 OA 
BRANCH   4   5
HETATM    5  P   UNL     2     -12.257  11.832  70.387  1.00  0.00    -0.194 P  
HETATM    6  O   UNL     2     -13.278  12.672  71.233  1.00  0.00    -0.216 OA 
HETATM    7  O   UNL     2     -12.874  10.793  69.443  1.00  0.00    -0.182 OA 
BRANCH   5   8
HETATM    8  O   UNL     2     -12.260  13.066  69.173  1.00  0.00    -0.225 OA 
BRANCH   8   9
HETATM    9  C   UNL     2     -11.112  13.914  69.079  1.00  0.00    -0.268 C  
BRANCH   9  10
HETATM   10  C   UNL     2     -11.215  15.265  69.836  1.00  0.00    -0.288 C  
HETATM   11  H   UNL     2     -11.200  15.932  71.732  1.00  0.00     0.000 HD 
HETATM   12  O   UNL     2     -11.137  15.105  71.268  1.00  0.00    -0.316 OA 
BRANCH  10  13
HETATM   13  C   UNL     2     -10.084  16.199  69.373  1.00  0.00    -0.256 C  
HETATM   14  O   UNL     2     -10.590  17.376  68.735  1.00  0.00    -0.341 OA 
HETATM   15  H   UNL     2      -9.892  17.953  68.449  1.00  0.00     0.000 HD 
ENDBRANCH  10  13
ENDBRANCH   9  10
ENDBRANCH   8   9
ENDBRANCH   5   8
ENDBRANCH   4   5
ENDBRANCH   3   4
ENDBRANCH   2   3
BRANCH   2  16
HETATM   16  C   UNL     2     -10.216   7.425  70.962  1.00  0.00    -0.191 C  
BRANCH  16  17
HETATM   17  O   UNL     2     -10.692   6.484  71.922  1.00  0.00    -0.212 OA 
BRANCH  17  18
HETATM   18  C   UNL     2     -10.396   5.170  71.723  1.00  0.00    -0.209 C  
HETATM   19  O   UNL     2     -10.239   4.630  70.635  1.00  0.00    -0.217 OA 
BRANCH  18  20
HETATM   20  C   UNL     2     -10.376   4.483  73.049  1.00  0.00    -0.237 C  
BRANCH  20  21
HETATM   21  C   UNL     2      -8.942   4.281  73.457  1.00  0.00    -0.092 C  
BRANCH  21  22
HETATM   22  C   UNL     2      -8.457   5.446  74.300  1.00  0.00    -0.110 C  
BRANCH  22  23
HETATM   23  C   UNL     2      -7.880   6.526  73.400  1.00  0.00    -0.091 C  
BRANCH  23  24
HETATM   24  C   UNL     2      -7.206   7.597  74.237  1.00  0.00    -0.147 C  
BRANCH  24  25
HETATM   25  C   UNL     2      -6.869   8.797  73.370  1.00  0.00     0.080 C  
BRANCH  25  26
HETATM   26  C   UNL     2      -5.621   8.518  72.552  1.00  0.00    -0.054 C  
BRANCH  26  27
HETATM   27  C   UNL     2      -6.002   8.075  71.148  1.00  0.00    -0.034 C  
BRANCH  27  28
HETATM   28  C   UNL     2      -5.262   8.910  70.116  1.00  0.00    -0.028 C  
BRANCH  28  29
HETATM   29  C   UNL     2      -5.174  10.361  70.567  1.00  0.00    -0.059 C  
BRANCH  29  30
HETATM   30  C   UNL     2      -6.200  11.209  69.828  1.00  0.00    -0.119 C  
BRANCH  30  31
HETATM   31  C   UNL     2      -5.605  12.559  69.442  1.00  0.00    -0.080 C  
BRANCH  31  32
HETATM   32  C   UNL     2      -5.439  12.659  67.928  1.00  0.00    -0.099 C  
BRANCH  32  33
HETATM   33  C   UNL     2      -6.678  13.271  67.283  1.00  0.00     0.062 C  
HETATM   34  C   UNL     2      -7.609  13.854  68.332  1.00  0.00    -0.130 C  
ENDBRANCH  32  33
ENDBRANCH  31  32
ENDBRANCH  30  31
ENDBRANCH  29  30
ENDBRANCH  28  29
ENDBRANCH  27  28
ENDBRANCH  26  27
ENDBRANCH  25  26
ENDBRANCH  24  25
ENDBRANCH  23  24
ENDBRANCH  22  23
ENDBRANCH  21  22
ENDBRANCH  20  21
ENDBRANCH  18  20
ENDBRANCH  17  18
ENDBRANCH  16  17
ENDBRANCH   2  16
BRANCH   2  35
HETATM   35  O   UNL     2      -9.661   9.707  70.501  1.00  0.00    -0.258 OA 
BRANCH  35  36
HETATM   36  C   UNL     2      -9.306   9.158  69.305  1.00  0.00    -0.157 C  
HETATM   37  O   UNL     2      -8.337   8.420  69.111  1.00  0.00    -0.119 OA 
BRANCH  36  38
HETATM   38  C   UNL     2     -10.336   9.501  68.292  1.00  0.00    -0.244 C  
BRANCH  38  39
HETATM   39  C   UNL     2      -9.710  10.265  67.154  1.00  0.00    -0.210 C  
BRANCH  39  40
HETATM   40  C   UNL     2      -8.198  10.276  67.293  1.00  0.00    -0.121 C  
BRANCH  40  41
HETATM   41  C   UNL     2      -7.568   9.857  65.972  1.00  0.00    -0.106 C  
BRANCH  41  42
HETATM   42  C   UNL     2      -6.054   9.966  66.038  1.00  0.00    -0.072 C  
BRANCH  42  43
HETATM   43  C   UNL     2      -5.427   8.595  65.839  1.00  0.00    -0.038 C  
BRANCH  43  44
HETATM   44  C   UNL     2      -5.971   7.950  64.575  1.00  0.00    -0.048 C  
BRANCH  44  45
HETATM   45  C   UNL     2      -6.387   6.512  64.845  1.00  0.00    -0.041 C  
BRANCH  45  46
HETATM   46  C   UNL     2      -6.698   6.323  66.324  1.00  0.00    -0.056 C  
BRANCH  46  47
HETATM   47  C   UNL     2      -7.833   5.326  66.510  1.00  0.00    -0.100 C  
BRANCH  47  48
HETATM   48  C   UNL     2      -7.384   4.166  67.390  1.00  0.00    -0.069 C  
BRANCH  48  49
HETATM   49  C   UNL     2      -6.781   4.679  68.694  1.00  0.00    -0.050 C  
BRANCH  49  50
HETATM   50  C   UNL     2      -7.033   3.692  69.830  1.00  0.00    -0.041 C  
BRANCH  50  51
HETATM   51  C   UNL     2      -5.735   3.346  70.553  1.00  0.00    -0.017 C  
HETATM   52  C   UNL     2      -5.850   2.016  71.277  1.00  0.00    -0.013 C  
ENDBRANCH  50  51
ENDBRANCH  49  50
ENDBRANCH  48  49
ENDBRANCH  47  48
ENDBRANCH  46  47
ENDBRANCH  45  46
ENDBRANCH  44  45
ENDBRANCH  43  44
ENDBRANCH  42  43
ENDBRANCH  41  42
ENDBRANCH  40  41
ENDBRANCH  39  40
ENDBRANCH  38  39
ENDBRANCH  36  38
ENDBRANCH  35  36
ENDBRANCH   2  35
TORSDOF 40
ENDMDL
MODEL       41
REMARK 921   NORMALIZED FREE ENERGY PREDICTED BY IDOCK:   -0.08 KCAL/MOL
REMARK 922        TOTAL FREE ENERGY PREDICTED BY IDOCK:   -7.23 KCAL/MOL
REMARK 923 INTER-LIGAND FREE ENERGY PREDICTED BY IDOCK:   -8.55 KCAL/MOL
REMARK 924 INTRA-LIGAND FREE ENERGY PREDICTED BY IDOCK:    1.32 KCAL/MOL
REMARK 927      BINDING AFFINITY PREDICTED BY RF-SCORE:    0.00 PKD
ROOT
HETATM    1 NA   UNL     1      -8.137  17.702  67.359  1.00  0.00    -0.188 Na 
HETATM    2  C   UNL     2      -7.014  13.959  67.034  1.00  0.00     0.681 C  
ENDROOT
BRANCH   2   3
HETATM    3  C   UNL     2      -7.459  15.034  68.017  1.00  0.00    -0.123 C  
BRANCH   3   4
HETATM    4  O   UNL     2      -6.440  15.897  68.482  1.00  0.00    -0.107 OA 
BRANCH   4   5
HETATM    5  P   UNL     2      -6.860  17.548  68.784  1.00  0.00    -0.246 P  
HETATM    6  O   UNL     2      -5.472  17.782  69.479  1.00  0.00    -0.185 OA 
HETATM    7  O   UNL     2      -7.975  17.017  69.692  1.00  0.00     0.273 OA 
BRANCH   5   8
HETATM    8  O   UNL     2      -7.280  19.199  69.087  1.00  0.00    -0.332 OA 
BRANCH   8   9
HETATM    9  C   UNL     2      -7.105  20.140  68.023  1.00  0.00    -0.284 C  
BRANCH   9  10
HETATM   10  C   UNL     2      -6.652  19.537  66.667  1.00  0.00    -0.187 C  
HETATM   11  H   UNL     2      -7.486  18.805  64.991  1.00  0.00     0.000 HD 
HETATM   12  O   UNL     2      -7.764  19.174  65.822  1.00  0.00    -0.443 OA 
BRANCH  10  13
HETATM   13  C   UNL     2      -5.769  20.554  65.924  1.00  0.00    -0.193 C  
HETATM   14  O   UNL     2      -5.724  20.298  64.516  1.00  0.00    -0.187 OA 
HETATM   15  H   UNL     2      -5.179  20.926  64.058  1.00  0.00     0.000 HD 
ENDBRANCH  10  13
ENDBRANCH   9  10
ENDBRANCH   8   9
ENDBRANCH   5   8
ENDBRANCH   4   5
ENDBRANCH   3   4
ENDBRANCH   2   3
BRANCH   2  16
HETATM   16  C   UNL     2      -5.850  13.120  67.536  1.00  0.00    -0.070 C  
BRANCH  16  17
HETATM   17  O   UNL     2      -6.121  11.720  67.568  1.00  0.00    -0.068 OA 
BRANCH  17  18
HETATM   18  C   UNL     2      -5.856  10.997  66.445  1.00  0.00    -0.140 C  
HETATM   19  O   UNL     2      -5.133  11.350  65.522  1.00  0.00    -0.297 OA 
BRANCH  18  20
HETATM   20  C   UNL     2      -6.658   9.738  66.493  1.00  0.00    -0.072 C  
BRANCH  20  21
HETATM   21  C   UNL     2      -6.739   9.282  67.925  1.00  0.00    -0.071 C  
BRANCH  21  22
HETATM   22  C   UNL     2      -7.675   8.095  68.056  1.00  0.00    -0.114 C  
BRANCH  22  23
HETATM   23  C   UNL     2      -8.683   8.355  69.163  1.00  0.00    -0.142 C  
BRANCH  23  24
HETATM   24  C   UNL     2      -8.494   7.352  70.286  1.00  0.00    -0.136 C  
BRANCH  24  25
HETATM   25  C   UNL     2      -7.275   7.721  71.112  1.00  0.00    -0.061 C  
BRANCH  25  26
HETATM   26  C   UNL     2      -6.619   6.468  71.666  1.00  0.00    -0.057 C  
BRANCH  26  27
HETATM   27  C   UNL     2      -7.383   5.970  72.882  1.00  0.00    -0.094 C  
BRANCH  27  28
HETATM   28  C   UNL     2      -6.631   4.827  73.543  1.00  0.00    -0.066 C  
BRANCH  28  29
HETATM   29  C   UNL     2      -7.036   3.495  72.926  1.00  0.00    -0.044 C  
BRANCH  29  30
HETATM   30  C   UNL     2      -8.338   3.001  73.540  1.00  0.00    -0.073 C  
BRANCH  30  31
HETATM   31  C   UNL     2      -9.349   4.137  73.649  1.00  0.00    -0.113 C  
BRANCH  31  32
HETATM   32  C   UNL     2     -10.372   4.055  72.521  1.00  0.00    -0.223 C  
BRANCH  32  33
HETATM   33  C   UNL     2     -11.473   5.095  72.705  1.00  0.00    -0.221 C  
HETATM   34  C   UNL     2     -10.916   6.504  72.592  1.00  0.00    -0.287 C  
ENDBRANCH  32  33
ENDBRANCH  31  32
ENDBRANCH  30  31
ENDBRANCH  29  30
ENDBRANCH  28  29
ENDBRANCH  27  28
ENDBRANCH  26  27
ENDBRANCH  25  26
ENDBRANCH  24  25
ENDBRANCH  23  24
ENDBRANCH  22  23
ENDBRANCH  21  22
ENDBRANCH  20  21
ENDBRANCH  18  20
ENDBRANCH  17  18
ENDBRANCH  16  17
ENDBRANCH   2  16
BRANCH   2  35
HETATM   35  O   UNL     2      -8.110  13.071  66.749  1.00  0.00    -0.005 OA 
BRANCH  35  36
HETATM   36  C   UNL     2      -8.943  12.824  67.799  1.00  0.00    -0.190 C  
HETATM   37  O   UNL     2      -8.597  12.426  68.914  1.00  0.00     0.085 OA 
BRANCH  36  38
HETATM   38  C   UNL     2     -10.325  13.214  67.420  1.00  0.00    -0.239 C  
BRANCH  38  39
HETATM   39  C   UNL     2     -10.405  13.462  65.936  1.00  0.00    -0.290 C  
BRANCH  39  40
HETATM   40  C   UNL     2     -11.111  14.776  65.656  1.00  0.00    -0.342 C  
BRANCH  40  41
HETATM   41  C   UNL     2     -10.663  15.816  66.672  1.00  0.00    -0.287 C  
BRANCH  41  42
HETATM   42  C   UNL     2     -10.896  15.321  68.089  1.00  0.00    -0.273 C  
BRANCH  42  43
HETATM   43  C   UNL     2     -11.643  16.376  68.890  1.00  0.00    -0.147 C  
BRANCH  43  44
HETATM   44  C   UNL     2     -12.449  15.718  69.999  1.00  0.00    -0.178 C  
BRANCH  44  45
HETATM   45  C   UNL     2     -11.838  16.023  71.358  1.00  0.00    -0.531 C  
BRANCH  45  46
HETATM   46  C   UNL     2     -11.726  14.749  72.183  1.00  0.00    -0.239 C  
BRANCH  46  47
HETATM   47  C   UNL     2     -12.974  14.549  73.033  1.00  0.00    -0.596 C  
BRANCH  47  48
HETATM   48  C   UNL     2     -14.006  13.722  72.277  1.00  0.00    -0.672 C  
BRANCH  48  49
HETATM   49  C   UNL     2     -13.324  12.717  71.355  1.00  0.00    -0.087 C  
BRANCH  49  50
HETATM   50  C   UNL     2     -13.167  11.368  72.050  1.00  0.00    -0.432 C  
BRANCH  50  51
HETATM   51  C   UNL     2     -12.492  10.353  71.132  1.00  0.00    -0.509 C  
HETATM   52  C   UNL     2     -11.093  10.806  70.751  1.00  0.00     0.246 C  
ENDBRANCH  50  51
ENDBRANCH  49  50
ENDBRANCH  48  49
ENDBRANCH  47  48
ENDBRANCH  46  47
ENDBRANCH  45  46
ENDBRANCH  44  45
ENDBRANCH  43  44
ENDBRANCH  42  43
ENDBRANCH  41  42
ENDBRANCH  40  41
ENDBRANCH  39  40
ENDBRANCH  38  39
ENDBRANCH  36  38
ENDBRANCH  35  36
ENDBRANCH   2  35
TORSDOF 40
ENDMDL
MODEL       42
REMARK 921   NORMALIZED FREE ENERGY PREDICTED BY IDOCK:    0.05 KCAL/MOL
REMARK 922        TOTAL FREE ENERGY PREDICTED BY IDOCK:   -6.79 KCAL/MOL
REMARK 923 INTER-LIGAND FREE ENERGY PREDICTED BY IDOCK:   -8.78 KCAL/MOL
REMARK 924 INTRA-LIGAND FREE ENERGY PREDICTED BY IDOCK:    1.99 KCAL/MOL
REMARK 927      BINDING AFFINITY PREDICTED BY RF-SCORE:    0.00 PKD
ROOT
HETATM    1 NA   UNL     1      -8.139  17.688  67.352  1.00  0.00    -0.188 Na 
HETATM    2  C   UNL     2      -7.092  13.924  67.021  1.00  0.00     0.592 C  
ENDROOT
BRANCH   2   3
HETATM    3  C   UNL     2      -7.503  15.009  68.007  1.00  0.00    -0.123 C  
BRANCH   3   4
HETATM    4  O   UNL     2      -6.454  15.823  68.492  1.00  0.00    -0.103 OA 
BRANCH   4   5
HETATM    5  P   UNL     2      -6.784  17.506  68.726  1.00  0.00    -0.242 P  
HETATM    6  O   UNL     2      -5.314  17.732  69.228  1.00  0.00    -0.179 OA 
HETATM    7  O   UNL     2      -7.793  17.080  69.798  1.00  0.00     0.445 OA 
BRANCH   5   8
HETATM    8  O   UNL     2      -7.114  19.189  68.959  1.00  0.00    -0.325 OA 
BRANCH   8   9
HETATM    9  C   UNL     2      -7.002  20.056  67.826  1.00  0.00    -0.270 C  
BRANCH   9  10
HETATM   10  C   UNL     2      -6.693  19.354  66.477  1.00  0.00    -0.190 C  
HETATM   11  H   UNL     2      -7.699  18.581  64.918  1.00  0.00     0.000 HD 
HETATM   12  O   UNL     2      -7.888  19.010  65.744  1.00  0.00    -0.462 OA 
BRANCH  10  13
HETATM   13  C   UNL     2      -5.820  20.277  65.609  1.00  0.00    -0.182 C  
HETATM   14  O   UNL     2      -6.526  20.756  64.459  1.00  0.00    -0.365 OA 
HETATM   15  H   UNL     2      -5.987  21.325  63.923  1.00  0.00     0.000 HD 
ENDBRANCH  10  13
ENDBRANCH   9  10
ENDBRANCH   8   9
ENDBRANCH   5   8
ENDBRANCH   4   5
ENDBRANCH   3   4
ENDBRANCH   2   3
BRANCH   2  16
HETATM   16  C   UNL     2      -5.938  13.064  67.509  1.00  0.00    -0.109 C  
BRANCH  16  17
HETATM   17  O   UNL     2      -6.235  11.669  67.547  1.00  0.00    -0.063 OA 
BRANCH  17  18
HETATM   18  C   UNL     2      -6.003  10.940  66.420  1.00  0.00    -0.131 C  
HETATM   19  O   UNL     2      -5.268  11.267  65.497  1.00  0.00    -0.268 OA 
BRANCH  18  20
HETATM   20  C   UNL     2      -6.857   9.716  66.465  1.00  0.00    -0.084 C  
BRANCH  20  21
HETATM   21  C   UNL     2      -6.951   9.255  67.894  1.00  0.00    -0.077 C  
BRANCH  21  22
HETATM   22  C   UNL     2      -7.960   8.129  68.028  1.00  0.00    -0.127 C  
BRANCH  22  23
HETATM   23  C   UNL     2      -7.232   6.799  68.133  1.00  0.00    -0.091 C  
BRANCH  23  24
HETATM   24  C   UNL     2      -7.575   5.922  66.944  1.00  0.00    -0.099 C  
BRANCH  24  25
HETATM   25  C   UNL     2      -9.081   5.787  66.815  1.00  0.00    -0.126 C  
BRANCH  25  26
HETATM   26  C   UNL     2      -9.438   4.432  66.229  1.00  0.00    -0.178 C  
BRANCH  26  27
HETATM   27  C   UNL     2      -9.246   4.445  64.721  1.00  0.00    -0.157 C  
BRANCH  27  28
HETATM   28  C   UNL     2     -10.130   3.394  64.071  1.00  0.00    -0.197 C  
BRANCH  28  29
HETATM   29  C   UNL     2      -9.393   2.066  63.969  1.00  0.00    -0.123 C  
BRANCH  29  30
HETATM   30  C   UNL     2      -8.501   2.048  62.735  1.00  0.00    -0.073 C  
BRANCH  30  31
HETATM   31  C   UNL     2      -7.736   3.360  62.603  1.00  0.00    -0.059 C  
BRANCH  31  32
HETATM   32  C   UNL     2      -6.299   3.196  63.089  1.00  0.00    -0.018 C  
BRANCH  32  33
HETATM   33  C   UNL     2      -5.483   4.454  62.814  1.00  0.00    -0.009 C  
HETATM   34  C   UNL     2      -6.009   5.632  63.615  1.00  0.00    -0.024 C  
ENDBRANCH  32  33
ENDBRANCH  31  32
ENDBRANCH  30  31
ENDBRANCH  29  30
ENDBRANCH  28  29
ENDBRANCH  27  28
ENDBRANCH  26  27
ENDBRANCH  25  26
ENDBRANCH  24  25
ENDBRANCH  23  24
ENDBRANCH  22  23
ENDBRANCH  21  22
ENDBRANCH  20  21
ENDBRANCH  18  20
ENDBRANCH  17  18
ENDBRANCH  16  17
ENDBRANCH   2  16
BRANCH   2  35
HETATM   35  O   UNL     2      -8.209  13.056  66.753  1.00  0.00    -0.046 OA 
BRANCH  35  36
HETATM   36  C   UNL     2      -9.029  12.821  67.817  1.00  0.00    -0.190 C  
HETATM   37  O   UNL     2      -8.669  12.431  68.930  1.00  0.00     0.088 OA 
BRANCH  36  38
HETATM   38  C   UNL     2     -10.414  13.214  67.454  1.00  0.00    -0.243 C  
BRANCH  38  39
HETATM   39  C   UNL     2     -10.509  13.467  65.972  1.00  0.00    -0.299 C  
BRANCH  39  40
HETATM   40  C   UNL     2     -11.258  14.760  65.703  1.00  0.00    -0.343 C  
BRANCH  40  41
HETATM   41  C   UNL     2     -10.839  15.808  66.724  1.00  0.00    -0.254 C  
BRANCH  41  42
HETATM   42  C   UNL     2     -11.043  15.295  68.139  1.00  0.00    -0.309 C  
BRANCH  42  43
HETATM   43  C   UNL     2     -11.867  16.293  68.938  1.00  0.00    -0.060 C  
BRANCH  43  44
HETATM   44  C   UNL     2     -12.618  15.579  70.050  1.00  0.00    -0.232 C  
BRANCH  44  45
HETATM   45  C   UNL     2     -12.054  15.966  71.410  1.00  0.00    -0.508 C  
BRANCH  45  46
HETATM   46  C   UNL     2     -11.793  14.719  72.244  1.00  0.00    -0.283 C  
BRANCH  46  47
HETATM   47  C   UNL     2     -13.022  14.356  73.066  1.00  0.00    -0.571 C  
BRANCH  47  48
HETATM   48  C   UNL     2     -13.897  13.367  72.307  1.00  0.00    -0.671 C  
BRANCH  48  49
HETATM   49  C   UNL     2     -13.045  12.450  71.436  1.00  0.00    -0.299 C  
BRANCH  49  50
HETATM   50  C   UNL     2     -13.018  11.035  72.006  1.00  0.00    -0.398 C  
BRANCH  50  51
HETATM   51  C   UNL     2     -13.739  10.058  71.083  1.00  0.00    -0.071 C  
HETATM   52  C   UNL     2     -13.925   8.708  71.754  1.00  0.00    -0.492 C  
ENDBRANCH  50  51
ENDBRANCH  49  50
ENDBRANCH  48  49
ENDBRANCH  47  48
ENDBRANCH  46  47
ENDBRANCH  45  46
ENDBRANCH  44  45
ENDBRANCH  43  44
ENDBRANCH  42  43
ENDBRANCH  41  42
ENDBRANCH  40  41
ENDBRANCH  39  40
ENDBRANCH  38  39
ENDBRANCH  36  38
ENDBRANCH  35  36
ENDBRANCH   2  35
TORSDOF 40
ENDMDL
MODEL       43
REMARK 921   NORMALIZED FREE ENERGY PREDICTED BY IDOCK:    0.43 KCAL/MOL
REMARK 922        TOTAL FREE ENERGY PREDICTED BY IDOCK:   -5.52 KCAL/MOL
REMARK 923 INTER-LIGAND FREE ENERGY PREDICTED BY IDOCK:   -6.22 KCAL/MOL
REMARK 924 INTRA-LIGAND FREE ENERGY PREDICTED BY IDOCK:    0.70 KCAL/MOL
REMARK 927      BINDING AFFINITY PREDICTED BY RF-SCORE:    0.00 PKD
ROOT
HETATM    1 NA   UNL     1     -13.724  10.894  73.509  1.00  0.00     0.598 Na 
HETATM    2  C   UNL     2     -10.812   9.009  71.682  1.00  0.00    -0.366 C  
ENDROOT
BRANCH   2   3
HETATM    3  C   UNL     2     -12.275   9.418  71.577  1.00  0.00    -0.369 C  
BRANCH   3   4
HETATM    4  O   UNL     2     -12.588  10.701  72.082  1.00  0.00    -0.211 OA 
BRANCH   4   5
HETATM    5  P   UNL     2     -12.645  12.016  70.958  1.00  0.00    -0.040 P  
HETATM    6  O   UNL     2     -13.778  12.699  71.804  1.00  0.00    -0.190 OA 
HETATM    7  O   UNL     2     -13.119  11.000  69.912  1.00  0.00     0.011 OA 
BRANCH   5   8
HETATM    8  O   UNL     2     -12.702  13.332  69.835  1.00  0.00    -0.017 OA 
BRANCH   8   9
HETATM    9  C   UNL     2     -12.069  13.154  68.565  1.00  0.00    -0.182 C  
BRANCH   9  10
HETATM   10  C   UNL     2     -10.956  14.181  68.224  1.00  0.00    -0.251 C  
HETATM   11  H   UNL     2     -10.665  15.724  66.969  1.00  0.00     0.000 HD 
HETATM   12  O   UNL     2     -11.347  15.095  67.177  1.00  0.00    -0.338 OA 
BRANCH  10  13
HETATM   13  C   UNL     2     -10.599  14.986  69.485  1.00  0.00    -0.254 C  
HETATM   14  O   UNL     2      -9.197  14.938  69.771  1.00  0.00    -0.444 OA 
HETATM   15  H   UNL     2      -8.976  15.435  70.550  1.00  0.00     0.000 HD 
ENDBRANCH  10  13
ENDBRANCH   9  10
ENDBRANCH   8   9
ENDBRANCH   5   8
ENDBRANCH   4   5
ENDBRANCH   3   4
ENDBRANCH   2   3
BRANCH   2  16
HETATM   16  C   UNL     2     -10.546   7.581  71.233  1.00  0.00    -0.215 C  
BRANCH  16  17
HETATM   17  O   UNL     2     -11.210   6.596  72.023  1.00  0.00    -0.244 OA 
BRANCH  17  18
HETATM   18  C   UNL     2     -10.905   5.289  71.795  1.00  0.00    -0.128 C  
HETATM   19  O   UNL     2     -10.495   4.825  70.739  1.00  0.00    -0.160 OA 
BRANCH  18  20
HETATM   20  C   UNL     2     -11.233   4.505  73.024  1.00  0.00    -0.277 C  
BRANCH  20  21
HETATM   21  C   UNL     2     -10.258   3.364  73.132  1.00  0.00    -0.231 C  
BRANCH  21  22
HETATM   22  C   UNL     2      -8.918   3.854  73.650  1.00  0.00    -0.091 C  
BRANCH  22  23
HETATM   23  C   UNL     2      -8.284   4.787  72.631  1.00  0.00    -0.111 C  
BRANCH  23  24
HETATM   24  C   UNL     2      -6.783   4.849  72.844  1.00  0.00    -0.069 C  
BRANCH  24  25
HETATM   25  C   UNL     2      -6.200   6.030  72.089  1.00  0.00    -0.042 C  
BRANCH  25  26
HETATM   26  C   UNL     2      -5.475   5.549  70.843  1.00  0.00    -0.009 C  
BRANCH  26  27
HETATM   27  C   UNL     2      -6.426   5.530  69.657  1.00  0.00    -0.045 C  
BRANCH  27  28
HETATM   28  C   UNL     2      -5.907   6.438  68.555  1.00  0.00    -0.020 C  
BRANCH  28  29
HETATM   29  C   UNL     2      -5.159   7.624  69.148  1.00  0.00    -0.015 C  
BRANCH  29  30
HETATM   30  C   UNL     2      -6.142   8.670  69.656  1.00  0.00    -0.032 C  
BRANCH  30  31
HETATM   31  C   UNL     2      -5.485   9.566  70.700  1.00  0.00    -0.045 C  
BRANCH  31  32
HETATM   32  C   UNL     2      -5.271  10.970  70.144  1.00  0.00    -0.060 C  
BRANCH  32  33
HETATM   33  C   UNL     2      -6.023  11.158  68.830  1.00  0.00    -0.040 C  
HETATM   34  C   UNL     2      -5.418  12.285  68.012  1.00  0.00    -0.068 C  
ENDBRANCH  32  33
ENDBRANCH  31  32
ENDBRANCH  30  31
ENDBRANCH  29  30
ENDBRANCH  28  29
ENDBRANCH  27  28
ENDBRANCH  26  27
ENDBRANCH  25  26
ENDBRANCH  24  25
ENDBRANCH  23  24
ENDBRANCH  22  23
ENDBRANCH  21  22
ENDBRANCH  20  21
ENDBRANCH  18  20
ENDBRANCH  17  18
ENDBRANCH  16  17
ENDBRANCH   2  16
BRANCH   2  35
HETATM   35  O   UNL     2      -9.999   9.883  70.878  1.00  0.00    -0.129 OA 
BRANCH  35  36
HETATM   36  C   UNL     2      -9.814   9.482  69.589  1.00  0.00    -0.205 C  
HETATM   37  O   UNL     2      -8.733   9.188  69.075  1.00  0.00    -0.130 OA 
BRANCH  36  38
HETATM   38  C   UNL     2     -11.139   9.349  68.931  1.00  0.00    -0.003 C  
BRANCH  38  39
HETATM   39  C   UNL     2     -11.094   9.950  67.550  1.00  0.00    -0.141 C  
BRANCH  39  40
HETATM   40  C   UNL     2      -9.684  10.396  67.212  1.00  0.00    -0.195 C  
BRANCH  40  41
HETATM   41  C   UNL     2      -9.098   9.466  66.160  1.00  0.00    -0.214 C  
BRANCH  41  42
HETATM   42  C   UNL     2      -7.756   9.981  65.671  1.00  0.00    -0.136 C  
BRANCH  42  43
HETATM   43  C   UNL     2      -6.680   8.934  65.912  1.00  0.00    -0.068 C  
BRANCH  43  44
HETATM   44  C   UNL     2      -6.211   8.351  64.588  1.00  0.00    -0.065 C  
BRANCH  44  45
HETATM   45  C   UNL     2      -6.644   6.898  64.460  1.00  0.00    -0.042 C  
BRANCH  45  46
HETATM   46  C   UNL     2      -7.860   6.789  63.552  1.00  0.00    -0.110 C  
BRANCH  46  47
HETATM   47  C   UNL     2      -7.808   5.505  62.736  1.00  0.00    -0.090 C  
BRANCH  47  48
HETATM   48  C   UNL     2      -8.935   4.566  63.147  1.00  0.00    -0.130 C  
BRANCH  48  49
HETATM   49  C   UNL     2      -9.067   4.511  64.665  1.00  0.00    -0.151 C  
BRANCH  49  50
HETATM   50  C   UNL     2     -10.534   4.447  65.078  1.00  0.00    -0.157 C  
BRANCH  50  51
HETATM   51  C   UNL     2     -10.798   5.322  66.300  1.00  0.00    -0.181 C  
HETATM   52  C   UNL     2      -9.839   6.498  66.349  1.00  0.00    -0.112 C  
ENDBRANCH  50  51
ENDBRANCH  49  50
ENDBRANCH  48  49
ENDBRANCH  47  48
ENDBRANCH  46  47
ENDBRANCH  45  46
ENDBRANCH  44  45
ENDBRANCH  43  44
ENDBRANCH  42  43
ENDBRANCH  41  42
ENDBRANCH  40  41
ENDBRANCH  39  40
ENDBRANCH  38  39
ENDBRANCH  36  38
ENDBRANCH  35  36
ENDBRANCH   2  35
TORSDOF 40
ENDMDL
MODEL       44
REMARK 921   NORMALIZED FREE ENERGY PREDICTED BY IDOCK:    0.78 KCAL/MOL
REMARK 922        TOTAL FREE ENERGY PREDICTED BY IDOCK:   -4.33 KCAL/MOL
REMARK 923 INTER-LIGAND FREE ENERGY PREDICTED BY IDOCK:   -7.36 KCAL/MOL
REMARK 924 INTRA-LIGAND FREE ENERGY PREDICTED BY IDOCK:    3.02 KCAL/MOL
REMARK 927      BINDING AFFINITY PREDICTED BY RF-SCORE:    0.00 PKD
ROOT
HETATM    1 NA   UNL     1      -7.959   8.048  73.482  1.00  0.00    -0.104 Na 
HETATM    2  C   UNL     2      -9.284   7.740  69.805  1.00  0.00    -0.150 C  
ENDROOT
BRANCH   2   3
HETATM    3  C   UNL     2      -8.160   7.336  70.750  1.00  0.00    -0.111 C  
BRANCH   3   4
HETATM    4  O   UNL     2      -7.660   6.024  70.579  1.00  0.00    -0.087 OA 
BRANCH   4   5
HETATM    5  P   UNL     2      -7.368   5.083  72.002  1.00  0.00    -0.094 P  
HETATM    6  O   UNL     2      -8.862   5.275  72.444  1.00  0.00    -0.127 OA 
HETATM    7  O   UNL     2      -6.400   6.187  72.440  1.00  0.00    -0.051 OA 
BRANCH   5   8
HETATM    8  O   UNL     2      -7.077   4.142  73.424  1.00  0.00    -0.060 OA 
BRANCH   8   9
HETATM    9  C   UNL     2      -8.153   3.985  74.354  1.00  0.00    -0.090 C  
BRANCH   9  10
HETATM   10  C   UNL     2      -8.817   2.582  74.377  1.00  0.00    -0.074 C  
HETATM   11  H   UNL     2     -10.665   1.792  74.387  1.00  0.00     0.000 HD 
HETATM   12  O   UNL     2     -10.259   2.651  74.374  1.00  0.00    -0.120 OA 
BRANCH  10  13
HETATM   13  C   UNL     2      -8.351   1.776  73.152  1.00  0.00    -0.057 C  
HETATM   14  O   UNL     2      -8.791   2.364  71.924  1.00  0.00    -0.070 OA 
HETATM   15  H   UNL     2      -8.504   1.866  71.168  1.00  0.00     0.000 HD 
ENDBRANCH  10  13
ENDBRANCH   9  10
ENDBRANCH   8   9
ENDBRANCH   5   8
ENDBRANCH   4   5
ENDBRANCH   3   4
ENDBRANCH   2   3
BRANCH   2  16
HETATM   16  C   UNL     2      -8.797   8.165  68.429  1.00  0.00    -0.133 C  
BRANCH  16  17
HETATM   17  O   UNL     2      -7.561   8.876  68.449  1.00  0.00    -0.089 OA 
BRANCH  17  18
HETATM   18  C   UNL     2      -6.446   8.200  68.842  1.00  0.00    -0.048 C  
HETATM   19  O   UNL     2      -6.322   6.983  68.869  1.00  0.00    -0.026 OA 
BRANCH  18  20
HETATM   20  C   UNL     2      -5.432   9.192  69.311  1.00  0.00    -0.036 C  
BRANCH  20  21
HETATM   21  C   UNL     2      -5.255   9.022  70.795  1.00  0.00    -0.027 C  
BRANCH  21  22
HETATM   22  C   UNL     2      -5.746  10.251  71.537  1.00  0.00     0.118 C  
BRANCH  22  23
HETATM   23  C   UNL     2      -6.399  11.214  70.559  1.00  0.00     0.065 C  
BRANCH  23  24
HETATM   24  C   UNL     2      -5.352  11.812  69.638  1.00  0.00    -0.066 C  
BRANCH  24  25
HETATM   25  C   UNL     2      -5.240  13.306  69.880  1.00  0.00    -0.088 C  
BRANCH  25  26
HETATM   26  C   UNL     2      -6.148  14.061  68.924  1.00  0.00    -0.086 C  
BRANCH  26  27
HETATM   27  C   UNL     2      -5.322  14.949  68.007  1.00  0.00    -0.124 C  
BRANCH  27  28
HETATM   28  C   UNL     2      -5.690  16.408  68.220  1.00  0.00    -0.105 C  
BRANCH  28  29
HETATM   29  C   UNL     2      -7.186  16.614  68.026  1.00  0.00    -0.162 C  
BRANCH  29  30
HETATM   30  C   UNL     2      -7.568  18.053  68.346  1.00  0.00    -0.288 C  
BRANCH  30  31
HETATM   31  C   UNL     2      -8.355  18.670  67.195  1.00  0.00    -0.271 C  
BRANCH  31  32
HETATM   32  C   UNL     2      -8.719  20.118  67.510  1.00  0.00    -0.415 C  
BRANCH  32  33
HETATM   33  C   UNL     2     -10.203  20.373  67.268  1.00  0.00    -0.432 C  
HETATM   34  C   UNL     2     -11.026  19.132  67.569  1.00  0.00    -0.405 C  
ENDBRANCH  32  33
ENDBRANCH  31  32
ENDBRANCH  30  31
ENDBRANCH  29  30
ENDBRANCH  28  29
ENDBRANCH  27  28
ENDBRANCH  26  27
ENDBRANCH  25  26
ENDBRANCH  24  25
ENDBRANCH  23  24
ENDBRANCH  22  23
ENDBRANCH  21  22
ENDBRANCH  20  21
ENDBRANCH  18  20
ENDBRANCH  17  18
ENDBRANCH  16  17
ENDBRANCH   2  16
BRANCH   2  35
HETATM   35  O   UNL     2     -10.197   6.641  69.631  1.00  0.00    -0.177 OA 
BRANCH  35  36
HETATM   36  C   UNL     2      -9.771   5.661  68.784  1.00  0.00    -0.137 C  
HETATM   37  O   UNL     2      -9.354   4.551  69.121  1.00  0.00    -0.123 OA 
BRANCH  36  38
HETATM   38  C   UNL     2      -9.993   6.104  67.384  1.00  0.00    -0.166 C  
BRANCH  38  39
HETATM   39  C   UNL     2      -8.839   5.676  66.516  1.00  0.00    -0.123 C  
BRANCH  39  40
HETATM   40  C   UNL     2      -8.130   6.890  65.942  1.00  0.00    -0.119 C  
BRANCH  40  41
HETATM   41  C   UNL     2      -8.879   7.376  64.710  1.00  0.00     0.461 C  
BRANCH  41  42
HETATM   42  C   UNL     2      -8.458   8.789  64.345  1.00  0.00    -0.146 C  
BRANCH  42  43
HETATM   43  C   UNL     2      -8.543   9.687  65.569  1.00  0.00    -0.162 C  
BRANCH  43  44
HETATM   44  C   UNL     2      -8.829  11.120  65.148  1.00  0.00    -0.054 C  
BRANCH  44  45
HETATM   45  C   UNL     2      -9.307  11.167  63.704  1.00  0.00    -0.226 C  
BRANCH  45  46
HETATM   46  C   UNL     2     -10.792  11.495  63.652  1.00  0.00    -0.488 C  
BRANCH  46  47
HETATM   47  C   UNL     2     -11.337  11.743  65.052  1.00  0.00    -0.288 C  
BRANCH  47  48
HETATM   48  C   UNL     2     -12.177  13.013  65.079  1.00  0.00    -0.501 C  
BRANCH  48  49
HETATM   49  C   UNL     2     -12.069  13.704  66.435  1.00  0.00    -0.478 C  
BRANCH  49  50
HETATM   50  C   UNL     2     -11.205  12.886  67.390  1.00  0.00    -0.331 C  
BRANCH  50  51
HETATM   51  C   UNL     2     -10.201  13.774  68.118  1.00  0.00    -0.253 C  
HETATM   52  C   UNL     2     -10.117  15.147  67.474  1.00  0.00    -0.232 C  
ENDBRANCH  50  51
ENDBRANCH  49  50
ENDBRANCH  48  49
ENDBRANCH  47  48
ENDBRANCH  46  47
ENDBRANCH  45  46
ENDBRANCH  44  45
ENDBRANCH  43  44
ENDBRANCH  42  43
ENDBRANCH  41  42
ENDBRANCH  40  41
ENDBRANCH  39  40
ENDBRANCH  38  39
ENDBRANCH  36  38
ENDBRANCH  35  36
ENDBRANCH   2  35
TORSDOF 40
ENDMDL
MODEL       45
REMARK 921   NORMALIZED FREE ENERGY PREDICTED BY IDOCK:    1.57 KCAL/MOL
REMARK 922        TOTAL FREE ENERGY PREDICTED BY IDOCK:   -1.72 KCAL/MOL
REMARK 923 INTER-LIGAND FREE ENERGY PREDICTED BY IDOCK:   -1.90 KCAL/MOL
REMARK 924 INTRA-LIGAND FREE ENERGY PREDICTED BY IDOCK:    0.18 KCAL/MOL
REMARK 927      BINDING AFFINITY PREDICTED BY RF-SCORE:    0.00 PKD
ROOT
HETATM    1 NA   UNL     1      -8.597  15.289  69.960  1.00  0.00    -0.219 Na 
HETATM    2  C   UNL     2      -8.338  12.177  67.589  1.00  0.00    -0.163 C  
ENDROOT
BRANCH   2   3
HETATM    3  C   UNL     2      -7.608  13.422  68.076  1.00  0.00    -0.143 C  
BRANCH   3   4
HETATM    4  O   UNL     2      -8.395  14.349  68.798  1.00  0.00    -0.157 OA 
BRANCH   4   5
HETATM    5  P   UNL     2      -9.889  14.859  68.089  1.00  0.00    -0.227 P  
HETATM    6  O   UNL     2      -9.384  16.345  68.077  1.00  0.00    -0.212 OA 
HETATM    7  O   UNL     2     -10.570  14.401  69.384  1.00  0.00    -0.212 OA 
BRANCH   5   8
HETATM    8  O   UNL     2     -11.383  15.370  67.380  1.00  0.00    -0.319 OA 
BRANCH   8   9
HETATM    9  C   UNL     2     -11.932  14.571  66.328  1.00  0.00    -0.322 C  
BRANCH   9  10
HETATM   10  C   UNL     2     -11.558  15.015  64.888  1.00  0.00    -0.374 C  
HETATM   11  H   UNL     2     -12.232  14.762  63.012  1.00  0.00     0.000 HD 
HETATM   12  O   UNL     2     -12.461  14.490  63.893  1.00  0.00    -0.814 OA 
BRANCH  10  13
HETATM   13  C   UNL     2     -11.562  16.552  64.809  1.00  0.00     0.213 C  
HETATM   14  O   UNL     2     -10.349  17.117  65.317  1.00  0.00    -0.629 OA 
HETATM   15  H   UNL     2     -10.352  18.066  65.268  1.00  0.00     0.000 HD 
ENDBRANCH  10  13
ENDBRANCH   9  10
ENDBRANCH   8   9
ENDBRANCH   5   8
ENDBRANCH   4   5
ENDBRANCH   3   4
ENDBRANCH   2   3
BRANCH   2  16
HETATM   16  C   UNL     2      -8.221  11.952  66.090  1.00  0.00     0.236 C  
BRANCH  16  17
HETATM   17  O   UNL     2      -9.175  12.684  65.322  1.00  0.00     0.230 OA 
BRANCH  17  18
HETATM   18  C   UNL     2      -9.652  12.105  64.185  1.00  0.00     0.045 C  
HETATM   19  O   UNL     2     -10.526  12.566  63.462  1.00  0.00    -0.420 OA 
BRANCH  18  20
HETATM   20  C   UNL     2      -8.989  10.778  64.015  1.00  0.00    -0.167 C  
BRANCH  20  21
HETATM   21  C   UNL     2     -10.058   9.726  63.899  1.00  0.00     0.979 C  
BRANCH  21  22
HETATM   22  C   UNL     2     -10.841   9.613  65.194  1.00  0.00     2.064 C  
BRANCH  22  23
HETATM   23  C   UNL     2      -9.926   9.128  66.306  1.00  0.00    -0.352 C  
BRANCH  23  24
HETATM   24  C   UNL     2     -10.719   8.932  67.585  1.00  0.00    -0.221 C  
BRANCH  24  25
HETATM   25  C   UNL     2      -9.799   9.045  68.788  1.00  0.00    -0.180 C  
BRANCH  25  26
HETATM   26  C   UNL     2      -8.518   8.267  68.542  1.00  0.00    -0.126 C  
BRANCH  26  27
HETATM   27  C   UNL     2      -8.310   7.238  69.641  1.00  0.00    -0.132 C  
BRANCH  27  28
HETATM   28  C   UNL     2      -9.374   7.394  70.714  1.00  0.00    -0.159 C  
BRANCH  28  29
HETATM   29  C   UNL     2      -8.747   7.331  72.100  1.00  0.00    -0.134 C  
BRANCH  29  30
HETATM   30  C   UNL     2      -8.191   5.939  72.367  1.00  0.00    -0.110 C  
BRANCH  30  31
HETATM   31  C   UNL     2      -9.012   4.881  71.639  1.00  0.00    -0.161 C  
BRANCH  31  32
HETATM   32  C   UNL     2      -8.226   3.580  71.518  1.00  0.00    -0.070 C  
BRANCH  32  33
HETATM   33  C   UNL     2      -9.098   2.465  70.948  1.00  0.00    -0.180 C  
HETATM   34  C   UNL     2      -8.795   2.234  69.478  1.00  0.00    -0.142 C  
ENDBRANCH  32  33
ENDBRANCH  31  32
ENDBRANCH  30  31
ENDBRANCH  29  30
ENDBRANCH  28  29
ENDBRANCH  27  28
ENDBRANCH  26  27
ENDBRANCH  25  26
ENDBRANCH  24  25
ENDBRANCH  23  24
ENDBRANCH  22  23
ENDBRANCH  21  22
ENDBRANCH  20  21
ENDBRANCH  18  20
ENDBRANCH  17  18
ENDBRANCH  16  17
ENDBRANCH   2  16
BRANCH   2  35
HETATM   35  O   UNL     2      -7.817  11.012  68.253  1.00  0.00    -0.108 OA 
BRANCH  35  36
HETATM   36  C   UNL     2      -7.174  11.254  69.431  1.00  0.00    -0.063 C  
HETATM   37  O   UNL     2      -7.710  11.616  70.481  1.00  0.00     1.812 OA 
BRANCH  36  38
HETATM   38  C   UNL     2      -5.738  10.907  69.277  1.00  0.00    -0.041 C  
BRANCH  38  39
HETATM   39  C   UNL     2      -5.299  11.139  67.855  1.00  0.00    -0.043 C  
BRANCH  39  40
HETATM   40  C   UNL     2      -5.154   9.817  67.123  1.00  0.00    -0.034 C  
BRANCH  40  41
HETATM   41  C   UNL     2      -6.218   9.721  66.039  1.00  0.00    -0.071 C  
BRANCH  41  42
HETATM   42  C   UNL     2      -6.170   8.366  65.355  1.00  0.00    -0.045 C  
BRANCH  42  43
HETATM   43  C   UNL     2      -6.939   7.343  66.177  1.00  0.00    -0.065 C  
BRANCH  43  44
HETATM   44  C   UNL     2      -7.150   6.074  65.368  1.00  0.00    -0.065 C  
BRANCH  44  45
HETATM   45  C   UNL     2      -6.420   4.903  66.009  1.00  0.00    -0.040 C  
BRANCH  45  46
HETATM   46  C   UNL     2      -6.171   3.810  64.979  1.00  0.00    -0.024 C  
BRANCH  46  47
HETATM   47  C   UNL     2      -6.925   2.541  65.349  1.00  0.00    -0.052 C  
BRANCH  47  48
HETATM   48  C   UNL     2      -7.422   1.831  64.096  1.00  0.00    -0.058 C  
BRANCH  48  49
HETATM   49  C   UNL     2      -8.920   2.045  63.912  1.00  0.00    -0.094 C  
BRANCH  49  50
HETATM   50  C   UNL     2      -9.213   2.688  62.560  1.00  0.00    -0.087 C  
BRANCH  50  51
HETATM   51  C   UNL     2     -10.360   3.688  62.665  1.00  0.00    -0.184 C  
HETATM   52  C   UNL     2     -10.985   3.661  64.049  1.00  0.00    -0.061 C  
ENDBRANCH  50  51
ENDBRANCH  49  50
ENDBRANCH  48  49
ENDBRANCH  47  48
ENDBRANCH  46  47
ENDBRANCH  45  46
ENDBRANCH  44  45
ENDBRANCH  43  44
ENDBRANCH  42  43
ENDBRANCH  41  42
ENDBRANCH  40  41
ENDBRANCH  39  40
ENDBRANCH  38  39
ENDBRANCH  36  38
ENDBRANCH  35  36
ENDBRANCH   2  35
TORSDOF 40
ENDMDL
MODEL       46
REMARK 921   NORMALIZED FREE ENERGY PREDICTED BY IDOCK:    1.73 KCAL/MOL
REMARK 922        TOTAL FREE ENERGY PREDICTED BY IDOCK:   -1.18 KCAL/MOL
REMARK 923 INTER-LIGAND FREE ENERGY PREDICTED BY IDOCK:   -0.36 KCAL/MOL
REMARK 924 INTRA-LIGAND FREE ENERGY PREDICTED BY IDOCK:   -0.82 KCAL/MOL
REMARK 927      BINDING AFFINITY PREDICTED BY RF-SCORE:    0.00 PKD
ROOT
HETATM    1 NA   UNL     1      -8.600  15.292  69.952  1.00  0.00    -0.209 Na 
HETATM    2  C   UNL     2      -8.368  12.121  67.658  1.00  0.00    -0.163 C  
ENDROOT
BRANCH   2   3
HETATM    3  C   UNL     2      -7.610  13.346  68.150  1.00  0.00    -0.138 C  
BRANCH   3   4
HETATM    4  O   UNL     2      -8.401  14.355  68.748  1.00  0.00    -0.157 OA 
BRANCH   4   5
HETATM    5  P   UNL     2     -10.030  14.535  68.193  1.00  0.00    -0.229 P  
HETATM    6  O   UNL     2      -9.722  16.006  67.741  1.00  0.00    -0.219 OA 
HETATM    7  O   UNL     2     -10.463  14.366  69.654  1.00  0.00    -0.093 OA 
BRANCH   5   8
HETATM    8  O   UNL     2     -11.660  14.714  67.639  1.00  0.00    -0.334 OA 
BRANCH   8   9
HETATM    9  C   UNL     2     -12.243  13.628  66.914  1.00  0.00    -0.352 C  
BRANCH   9  10
HETATM   10  C   UNL     2     -12.110  13.708  65.369  1.00  0.00    -0.403 C  
HETATM   11  H   UNL     2     -12.985  12.919  63.741  1.00  0.00     0.000 HD 
HETATM   12  O   UNL     2     -13.066  12.870  64.686  1.00  0.00    -0.742 OA 
BRANCH  10  13
HETATM   13  C   UNL     2     -12.304  15.164  64.914  1.00  0.00     0.016 C  
HETATM   14  O   UNL     2     -11.312  15.564  63.962  1.00  0.00    -0.666 OA 
HETATM   15  H   UNL     2     -11.431  16.463  63.681  1.00  0.00     0.000 HD 
ENDBRANCH  10  13
ENDBRANCH   9  10
ENDBRANCH   8   9
ENDBRANCH   5   8
ENDBRANCH   4   5
ENDBRANCH   3   4
ENDBRANCH   2   3
BRANCH   2  16
HETATM   16  C   UNL     2      -8.200  11.858  66.170  1.00  0.00     0.236 C  
BRANCH  16  17
HETATM   17  O   UNL     2      -8.927  12.762  65.340  1.00  0.00     0.491 OA 
BRANCH  17  18
HETATM   18  C   UNL     2      -9.438  12.280  64.173  1.00  0.00     0.248 C  
HETATM   19  O   UNL     2     -10.148  12.903  63.394  1.00  0.00    -0.169 OA 
BRANCH  18  20
HETATM   20  C   UNL     2      -9.056  10.842  64.047  1.00  0.00    -0.215 C  
BRANCH  20  21
HETATM   21  C   UNL     2     -10.310  10.032  63.861  1.00  0.00     0.959 C  
BRANCH  21  22
HETATM   22  C   UNL     2     -11.183  10.106  65.100  1.00  0.00     1.796 C  
BRANCH  22  23
HETATM   23  C   UNL     2     -10.455   9.479  66.278  1.00  0.00    -0.137 C  
BRANCH  23  24
HETATM   24  C   UNL     2     -11.353   9.473  67.501  1.00  0.00     0.556 C  
BRANCH  24  25
HETATM   25  C   UNL     2     -10.509   9.513  68.763  1.00  0.00    -0.243 C  
BRANCH  25  26
HETATM   26  C   UNL     2      -9.345   8.544  68.645  1.00  0.00    -0.142 C  
BRANCH  26  27
HETATM   27  C   UNL     2      -9.364   7.557  69.801  1.00  0.00    -0.150 C  
BRANCH  27  28
HETATM   28  C   UNL     2     -10.193   6.337  69.435  1.00  0.00    -0.238 C  
BRANCH  28  29
HETATM   29  C   UNL     2     -11.606   6.467  69.988  1.00  0.00    -0.455 C  
BRANCH  29  30
HETATM   30  C   UNL     2     -11.601   7.301  71.262  1.00  0.00    -0.316 C  
BRANCH  30  31
HETATM   31  C   UNL     2     -11.391   6.415  72.485  1.00  0.00    -0.299 C  
BRANCH  31  32
HETATM   32  C   UNL     2     -10.936   7.248  73.680  1.00  0.00    -0.011 C  
BRANCH  32  33
HETATM   33  C   UNL     2      -9.477   7.666  73.530  1.00  0.00    -0.347 C  
HETATM   34  C   UNL     2      -8.562   6.453  73.501  1.00  0.00    -0.128 C  
ENDBRANCH  32  33
ENDBRANCH  31  32
ENDBRANCH  30  31
ENDBRANCH  29  30
ENDBRANCH  28  29
ENDBRANCH  27  28
ENDBRANCH  26  27
ENDBRANCH  25  26
ENDBRANCH  24  25
ENDBRANCH  23  24
ENDBRANCH  22  23
ENDBRANCH  21  22
ENDBRANCH  20  21
ENDBRANCH  18  20
ENDBRANCH  17  18
ENDBRANCH  16  17
ENDBRANCH   2  16
BRANCH   2  35
HETATM   35  O   UNL     2      -7.922  10.951  68.367  1.00  0.00    -0.113 OA 
BRANCH  35  36
HETATM   36  C   UNL     2      -7.319  11.193  69.565  1.00  0.00    -0.018 C  
HETATM   37  O   UNL     2      -7.882  11.602  70.584  1.00  0.00     2.536 OA 
BRANCH  36  38
HETATM   38  C   UNL     2      -5.894  10.783  69.480  1.00  0.00    -0.043 C  
BRANCH  38  39
HETATM   39  C   UNL     2      -5.387  10.964  68.073  1.00  0.00    -0.039 C  
BRANCH  39  40
HETATM   40  C   UNL     2      -5.168   9.615  67.412  1.00  0.00    -0.036 C  
BRANCH  40  41
HETATM   41  C   UNL     2      -6.170   9.439  66.280  1.00  0.00    -0.064 C  
BRANCH  41  42
HETATM   42  C   UNL     2      -6.057   8.053  65.670  1.00  0.00    -0.038 C  
BRANCH  42  43
HETATM   43  C   UNL     2      -6.887   7.064  66.474  1.00  0.00    -0.061 C  
BRANCH  43  44
HETATM   44  C   UNL     2      -6.085   6.548  67.658  1.00  0.00    -0.027 C  
BRANCH  44  45
HETATM   45  C   UNL     2      -6.730   6.977  68.968  1.00  0.00    -0.056 C  
BRANCH  45  46
HETATM   46  C   UNL     2      -5.704   6.948  70.093  1.00  0.00    -0.023 C  
BRANCH  46  47
HETATM   47  C   UNL     2      -6.079   5.902  71.134  1.00  0.00    -0.038 C  
BRANCH  47  48
HETATM   48  C   UNL     2      -5.186   4.675  71.001  1.00  0.00    -0.004 C  
BRANCH  48  49
HETATM   49  C   UNL     2      -5.941   3.526  70.341  1.00  0.00    -0.018 C  
BRANCH  49  50
HETATM   50  C   UNL     2      -5.219   3.059  69.080  1.00  0.00    -0.012 C  
BRANCH  50  51
HETATM   51  C   UNL     2      -6.212   2.575  68.028  1.00  0.00    -0.028 C  
HETATM   52  C   UNL     2      -5.912   3.187  66.670  1.00  0.00    -0.024 C  
ENDBRANCH  50  51
ENDBRANCH  49  50
ENDBRANCH  48  49
ENDBRANCH  47  48
ENDBRANCH  46  47
ENDBRANCH  45  46
ENDBRANCH  44  45
ENDBRANCH  43  44
ENDBRANCH  42  43
ENDBRANCH  41  42
ENDBRANCH  40  41
ENDBRANCH  39  40
ENDBRANCH  38  39
ENDBRANCH  36  38
ENDBRANCH  35  36
ENDBRANCH   2  35
TORSDOF 40
ENDMDL
MODEL       47
REMARK 921   NORMALIZED FREE ENERGY PREDICTED BY IDOCK:    2.64 KCAL/MOL
REMARK 922        TOTAL FREE ENERGY PREDICTED BY IDOCK:    1.86 KCAL/MOL
REMARK 923 INTER-LIGAND FREE ENERGY PREDICTED BY IDOCK:   -4.97 KCAL/MOL
REMARK 924 INTRA-LIGAND FREE ENERGY PREDICTED BY IDOCK:    6.83 KCAL/MOL
REMARK 927      BINDING AFFINITY PREDICTED BY RF-SCORE:    0.00 PKD
ROOT
HETATM    1 NA   UNL     1      -7.974   8.038  73.476  1.00  0.00    -0.104 Na 
HETATM    2  C   UNL     2      -9.724   7.321  70.042  1.00  0.00    -0.175 C  
ENDROOT
BRANCH   2   3
HETATM    3  C   UNL     2      -8.488   7.031  70.881  1.00  0.00    -0.134 C  
BRANCH   3   4
HETATM    4  O   UNL     2      -7.875   5.777  70.653  1.00  0.00    -0.096 OA 
BRANCH   4   5
HETATM    5  P   UNL     2      -7.373   4.864  72.035  1.00  0.00    -0.085 P  
HETATM    6  O   UNL     2      -8.841   4.881  72.589  1.00  0.00    -0.121 OA 
HETATM    7  O   UNL     2      -6.504   6.067  72.418  1.00  0.00    -0.055 OA 
BRANCH   5   8
HETATM    8  O   UNL     2      -6.871   3.950  73.416  1.00  0.00    -0.045 OA 
BRANCH   8   9
HETATM    9  C   UNL     2      -7.850   3.659  74.418  1.00  0.00    -0.073 C  
BRANCH   9  10
HETATM   10  C   UNL     2      -8.400   2.208  74.413  1.00  0.00    -0.058 C  
HETATM   11  H   UNL     2     -10.175   1.270  74.508  1.00  0.00     0.000 HD 
HETATM   12  O   UNL     2      -9.838   2.159  74.512  1.00  0.00    -0.092 OA 
BRANCH  10  13
HETATM   13  C   UNL     2      -7.961   1.499  73.120  1.00  0.00    -0.041 C  
HETATM   14  O   UNL     2      -8.500   2.130  71.954  1.00  0.00    -0.058 OA 
HETATM   15  H   UNL     2      -8.229   1.693  71.155  1.00  0.00     0.000 HD 
ENDBRANCH  10  13
ENDBRANCH   9  10
ENDBRANCH   8   9
ENDBRANCH   5   8
ENDBRANCH   4   5
ENDBRANCH   3   4
ENDBRANCH   2   3
BRANCH   2  16
HETATM   16  C   UNL     2      -9.415   7.597  68.579  1.00  0.00    -0.147 C  
BRANCH  16  17
HETATM   17  O   UNL     2      -8.143   8.204  68.364  1.00  0.00    -0.124 OA 
BRANCH  17  18
HETATM   18  C   UNL     2      -7.039   7.538  68.801  1.00  0.00    -0.080 C  
HETATM   19  O   UNL     2      -6.974   6.336  69.026  1.00  0.00    -0.063 OA 
BRANCH  18  20
HETATM   20  C   UNL     2      -5.949   8.531  69.037  1.00  0.00    -0.043 C  
BRANCH  20  21
HETATM   21  C   UNL     2      -5.663   8.579  70.513  1.00  0.00    -0.027 C  
BRANCH  21  22
HETATM   22  C   UNL     2      -5.999   9.947  71.077  1.00  0.00    -0.072 C  
BRANCH  22  23
HETATM   23  C   UNL     2      -6.674  10.792  70.009  1.00  0.00    -0.149 C  
BRANCH  23  24
HETATM   24  C   UNL     2      -5.707  11.066  68.873  1.00  0.00    -0.039 C  
BRANCH  24  25
HETATM   25  C   UNL     2      -5.323  12.535  68.861  1.00  0.00    -0.058 C  
BRANCH  25  26
HETATM   26  C   UNL     2      -6.253  13.312  67.945  1.00  0.00    -0.144 C  
BRANCH  26  27
HETATM   27  C   UNL     2      -6.978  14.394  68.729  1.00  0.00    -0.100 C  
BRANCH  27  28
HETATM   28  C   UNL     2      -8.323  13.879  69.213  1.00  0.00     0.443 C  
BRANCH  28  29
HETATM   29  C   UNL     2      -9.161  13.391  68.040  1.00  0.00    -0.205 C  
BRANCH  29  30
HETATM   30  C   UNL     2     -10.430  12.715  68.540  1.00  0.00    -0.249 C  
BRANCH  30  31
HETATM   31  C   UNL     2     -11.141  11.993  67.401  1.00  0.00    -0.337 C  
BRANCH  31  32
HETATM   32  C   UNL     2     -11.054  12.805  66.113  1.00  0.00    -0.322 C  
BRANCH  32  33
HETATM   33  C   UNL     2     -12.444  13.142  65.584  1.00  0.00    -0.485 C  
HETATM   34  C   UNL     2     -12.674  14.643  65.572  1.00  0.00    -0.059 C  
ENDBRANCH  32  33
ENDBRANCH  31  32
ENDBRANCH  30  31
ENDBRANCH  29  30
ENDBRANCH  28  29
ENDBRANCH  27  28
ENDBRANCH  26  27
ENDBRANCH  25  26
ENDBRANCH  24  25
ENDBRANCH  23  24
ENDBRANCH  22  23
ENDBRANCH  21  22
ENDBRANCH  20  21
ENDBRANCH  18  20
ENDBRANCH  17  18
ENDBRANCH  16  17
ENDBRANCH   2  16
BRANCH   2  35
HETATM   35  O   UNL     2     -10.629   6.204  70.100  1.00  0.00    -0.216 OA 
BRANCH  35  36
HETATM   36  C   UNL     2     -10.203   5.078  69.460  1.00  0.00    -0.216 C  
HETATM   37  O   UNL     2      -9.806   4.047  70.007  1.00  0.00    -0.210 OA 
BRANCH  36  38
HETATM   38  C   UNL     2     -10.396   5.252  67.998  1.00  0.00    -0.183 C  
BRANCH  38  39
HETATM   39  C   UNL     2      -9.200   4.721  67.251  1.00  0.00    -0.139 C  
BRANCH  39  40
HETATM   40  C   UNL     2      -8.498   5.843  66.509  1.00  0.00    -0.113 C  
BRANCH  40  41
HETATM   41  C   UNL     2      -9.378   6.319  65.363  1.00  0.00     0.353 C  
BRANCH  41  42
HETATM   42  C   UNL     2      -8.866   7.633  64.798  1.00  0.00     0.396 C  
BRANCH  42  43
HETATM   43  C   UNL     2      -8.614   8.618  65.929  1.00  0.00    -0.177 C  
BRANCH  43  44
HETATM   44  C   UNL     2      -8.798  10.043  65.432  1.00  0.00    -0.199 C  
BRANCH  44  45
HETATM   45  C   UNL     2      -9.599  10.058  64.138  1.00  0.00    -0.274 C  
BRANCH  45  46
HETATM   46  C   UNL     2      -8.669  10.236  62.946  1.00  0.00    -0.212 C  
BRANCH  46  47
HETATM   47  C   UNL     2      -7.213  10.167  63.385  1.00  0.00    -0.121 C  
BRANCH  47  48
HETATM   48  C   UNL     2      -6.375   9.442  62.340  1.00  0.00    -0.096 C  
BRANCH  48  49
HETATM   49  C   UNL     2      -5.298   8.592  63.007  1.00  0.00    -0.068 C  
BRANCH  49  50
HETATM   50  C   UNL     2      -5.335   8.764  64.522  1.00  0.00    -0.050 C  
BRANCH  50  51
HETATM   51  C   UNL     2      -5.302   7.412  65.229  1.00  0.00    -0.029 C  
HETATM   52  C   UNL     2      -5.594   6.280  64.259  1.00  0.00    -0.022 C  
ENDBRANCH  50  51
ENDBRANCH  49  50
ENDBRANCH  48  49
ENDBRANCH  47  48
ENDBRANCH  46  47
ENDBRANCH  45  46
ENDBRANCH  44  45
ENDBRANCH  43  44
ENDBRANCH  42  43
ENDBRANCH  41  42
ENDBRANCH  40  41
ENDBRANCH  39  40
ENDBRANCH  38  39
ENDBRANCH  36  38
ENDBRANCH  35  36
ENDBRANCH   2  35
TORSDOF 40
ENDMDL
MODEL       48
REMARK 921   NORMALIZED FREE ENERGY PREDICTED BY IDOCK:    2.66 KCAL/MOL
REMARK 922        TOTAL FREE ENERGY PREDICTED BY IDOCK:    1.95 KCAL/MOL
REMARK 923 INTER-LIGAND FREE ENERGY PREDICTED BY IDOCK:   -5.37 KCAL/MOL
REMARK 924 INTRA-LIGAND FREE ENERGY PREDICTED BY IDOCK:    7.32 KCAL/MOL
REMARK 927      BINDING AFFINITY PREDICTED BY RF-SCORE:    0.00 PKD
ROOT
HETATM    1 NA   UNL     1      -7.972   8.039  73.481  1.00  0.00    -0.104 Na 
HETATM    2  C   UNL     2      -9.652   7.428  69.991  1.00  0.00    -0.168 C  
ENDROOT
BRANCH   2   3
HETATM    3  C   UNL     2      -8.431   7.115  70.845  1.00  0.00    -0.133 C  
BRANCH   3   4
HETATM    4  O   UNL     2      -7.842   5.847  70.628  1.00  0.00    -0.100 OA 
BRANCH   4   5
HETATM    5  P   UNL     2      -7.371   4.931  72.019  1.00  0.00    -0.085 P  
HETATM    6  O   UNL     2      -8.843   4.984  72.561  1.00  0.00    -0.122 OA 
HETATM    7  O   UNL     2      -6.479   6.117  72.403  1.00  0.00    -0.056 OA 
BRANCH   5   8
HETATM    8  O   UNL     2      -6.901   4.014  73.409  1.00  0.00    -0.049 OA 
BRANCH   8   9
HETATM    9  C   UNL     2      -7.894   3.750  74.404  1.00  0.00    -0.074 C  
BRANCH   9  10
HETATM   10  C   UNL     2      -8.452   2.302  74.422  1.00  0.00    -0.059 C  
HETATM   11  H   UNL     2     -10.234   1.376  74.515  1.00  0.00     0.000 HD 
HETATM   12  O   UNL     2      -9.893   2.263  74.504  1.00  0.00    -0.093 OA 
BRANCH  10  13
HETATM   13  C   UNL     2      -8.002   1.564  73.150  1.00  0.00    -0.041 C  
HETATM   14  O   UNL     2      -8.525   2.172  71.964  1.00  0.00    -0.056 OA 
HETATM   15  H   UNL     2      -8.247   1.717  71.179  1.00  0.00     0.000 HD 
ENDBRANCH  10  13
ENDBRANCH   9  10
ENDBRANCH   8   9
ENDBRANCH   5   8
ENDBRANCH   4   5
ENDBRANCH   3   4
ENDBRANCH   2   3
BRANCH   2  16
HETATM   16  C   UNL     2      -9.315   7.752  68.544  1.00  0.00    -0.147 C  
BRANCH  16  17
HETATM   17  O   UNL     2      -8.049   8.386  68.376  1.00  0.00    -0.119 OA 
BRANCH  17  18
HETATM   18  C   UNL     2      -6.940   7.706  68.781  1.00  0.00    -0.071 C  
HETATM   19  O   UNL     2      -6.854   6.492  68.908  1.00  0.00    -0.064 OA 
BRANCH  18  20
HETATM   20  C   UNL     2      -5.876   8.697  69.122  1.00  0.00    -0.039 C  
BRANCH  20  21
HETATM   21  C   UNL     2      -5.597   8.605  70.597  1.00  0.00    -0.027 C  
BRANCH  21  22
HETATM   22  C   UNL     2      -5.993   9.892  71.297  1.00  0.00     0.002 C  
BRANCH  22  23
HETATM   23  C   UNL     2      -6.696  10.815  70.316  1.00  0.00    -0.052 C  
BRANCH  23  24
HETATM   24  C   UNL     2      -5.729  11.258  69.234  1.00  0.00    -0.043 C  
BRANCH  24  25
HETATM   25  C   UNL     2      -5.400  12.730  69.403  1.00  0.00    -0.076 C  
BRANCH  25  26
HETATM   26  C   UNL     2      -6.356  13.579  68.584  1.00  0.00    -0.091 C  
BRANCH  26  27
HETATM   27  C   UNL     2      -5.593  14.350  67.520  1.00  0.00     0.174 C  
BRANCH  27  28
HETATM   28  C   UNL     2      -5.654  15.841  67.807  1.00  0.00    -0.155 C  
BRANCH  28  29
HETATM   29  C   UNL     2      -7.098  16.300  67.943  1.00  0.00    -0.147 C  
BRANCH  29  30
HETATM   30  C   UNL     2      -7.153  17.750  68.404  1.00  0.00    -0.239 C  
BRANCH  30  31
HETATM   31  C   UNL     2      -8.040  18.577  67.479  1.00  0.00    -0.261 C  
BRANCH  31  32
HETATM   32  C   UNL     2      -9.293  19.043  68.213  1.00  0.00    -0.393 C  
BRANCH  32  33
HETATM   33  C   UNL     2     -10.549  18.722  67.407  1.00  0.00    -0.505 C  
HETATM   34  C   UNL     2     -10.193  18.113  66.062  1.00  0.00    -0.325 C  
ENDBRANCH  32  33
ENDBRANCH  31  32
ENDBRANCH  30  31
ENDBRANCH  29  30
ENDBRANCH  28  29
ENDBRANCH  27  28
ENDBRANCH  26  27
ENDBRANCH  25  26
ENDBRANCH  24  25
ENDBRANCH  23  24
ENDBRANCH  22  23
ENDBRANCH  21  22
ENDBRANCH  20  21
ENDBRANCH  18  20
ENDBRANCH  17  18
ENDBRANCH  16  17
ENDBRANCH   2  16
BRANCH   2  35
HETATM   35  O   UNL     2     -10.553   6.306  69.995  1.00  0.00    -0.207 OA 
BRANCH  35  36
HETATM   36  C   UNL     2     -10.107   5.201  69.332  1.00  0.00    -0.234 C  
HETATM   37  O   UNL     2      -9.714   4.157  69.858  1.00  0.00    -0.200 OA 
BRANCH  36  38
HETATM   38  C   UNL     2     -10.271   5.415  67.872  1.00  0.00    -0.219 C  
BRANCH  38  39
HETATM   39  C   UNL     2      -9.070   4.887  67.132  1.00  0.00    -0.122 C  
BRANCH  39  40
HETATM   40  C   UNL     2      -8.352   6.016  66.415  1.00  0.00    -0.118 C  
BRANCH  40  41
HETATM   41  C   UNL     2      -9.210   6.505  65.258  1.00  0.00     0.431 C  
BRANCH  41  42
HETATM   42  C   UNL     2      -8.676   7.816  64.707  1.00  0.00     0.221 C  
BRANCH  42  43
HETATM   43  C   UNL     2      -8.431   8.795  65.845  1.00  0.00    -0.154 C  
BRANCH  43  44
HETATM   44  C   UNL     2      -8.595  10.223  65.352  1.00  0.00    -0.169 C  
BRANCH  44  45
HETATM   45  C   UNL     2      -9.367  10.251  64.041  1.00  0.00    -0.337 C  
BRANCH  45  46
HETATM   46  C   UNL     2      -8.404  10.312  62.864  1.00  0.00    -0.172 C  
BRANCH  46  47
HETATM   47  C   UNL     2      -6.966  10.163  63.338  1.00  0.00    -0.121 C  
BRANCH  47  48
HETATM   48  C   UNL     2      -6.157   9.345  62.340  1.00  0.00    -0.093 C  
BRANCH  48  49
HETATM   49  C   UNL     2      -5.133   8.474  63.059  1.00  0.00    -0.063 C  
BRANCH  49  50
HETATM   50  C   UNL     2      -5.173   8.723  64.564  1.00  0.00    -0.043 C  
BRANCH  50  51
HETATM   51  C   UNL     2      -5.209   7.408  65.337  1.00  0.00    -0.028 C  
HETATM   52  C   UNL     2      -5.543   6.244  64.421  1.00  0.00    -0.022 C  
ENDBRANCH  50  51
ENDBRANCH  49  50
ENDBRANCH  48  49
ENDBRANCH  47  48
ENDBRANCH  46  47
ENDBRANCH  45  46
ENDBRANCH  44  45
ENDBRANCH  43  44
ENDBRANCH  42  43
ENDBRANCH  41  42
ENDBRANCH  40  41
ENDBRANCH  39  40
ENDBRANCH  38  39
ENDBRANCH  36  38
ENDBRANCH  35  36
ENDBRANCH   2  35
TORSDOF 40
ENDMDL
MODEL       49
REMARK 921   NORMALIZED FREE ENERGY PREDICTED BY IDOCK:    4.28 KCAL/MOL
REMARK 922        TOTAL FREE ENERGY PREDICTED BY IDOCK:    7.33 KCAL/MOL
REMARK 923 INTER-LIGAND FREE ENERGY PREDICTED BY IDOCK:    1.11 KCAL/MOL
REMARK 924 INTRA-LIGAND FREE ENERGY PREDICTED BY IDOCK:    6.22 KCAL/MOL
REMARK 927      BINDING AFFINITY PREDICTED BY RF-SCORE:    0.00 PKD
ROOT
HETATM    1 NA   UNL     1      -9.786   8.592  65.322  1.00  0.00    -0.405 Na 
HETATM    2  C   UNL     2      -7.221   7.124  67.899  1.00  0.00    -0.091 C  
ENDROOT
BRANCH   2   3
HETATM    3  C   UNL     2      -8.549   7.857  67.760  1.00  0.00    -0.128 C  
BRANCH   3   4
HETATM    4  O   UNL     2      -8.565   9.189  68.233  1.00  0.00    -0.127 OA 
BRANCH   4   5
HETATM    5  P   UNL     2      -8.853  10.448  67.081  1.00  0.00    -0.135 P  
HETATM    6  O   UNL     2      -7.689   9.902  66.181  1.00  0.00    -0.102 OA 
HETATM    7  O   UNL     2      -8.437  11.438  68.176  1.00  0.00    -0.137 OA 
BRANCH   5   8
HETATM    8  O   UNL     2      -9.141  11.708  65.929  1.00  0.00    -0.207 OA 
BRANCH   8   9
HETATM    9  C   UNL     2     -10.455  12.270  65.868  1.00  0.00    -0.256 C  
BRANCH   9  10
HETATM   10  C   UNL     2     -10.553  13.666  65.197  1.00  0.00    -0.361 C  
HETATM   11  H   UNL     2     -11.960  14.853  64.391  1.00  0.00     0.000 HD 
HETATM   12  O   UNL     2     -11.900  13.998  64.802  1.00  0.00    -0.363 OA 
BRANCH  10  13
HETATM   13  C   UNL     2     -10.036  14.739  66.171  1.00  0.00    -0.296 C  
HETATM   14  O   UNL     2      -8.722  14.438  66.651  1.00  0.00    -0.395 OA 
HETATM   15  H   UNL     2      -8.403  15.101  67.252  1.00  0.00     0.000 HD 
ENDBRANCH  10  13
ENDBRANCH   9  10
ENDBRANCH   8   9
ENDBRANCH   5   8
ENDBRANCH   4   5
ENDBRANCH   3   4
ENDBRANCH   2   3
BRANCH   2  16
HETATM   16  C   UNL     2      -6.329   7.687  68.994  1.00  0.00    -0.036 C  
BRANCH  16  17
HETATM   17  O   UNL     2      -6.772   8.940  69.511  1.00  0.00    -0.046 OA 
BRANCH  17  18
HETATM   18  C   UNL     2      -5.844   9.924  69.670  1.00  0.00    -0.041 C  
HETATM   19  O   UNL     2      -5.590  10.805  68.857  1.00  0.00    -0.041 OA 
BRANCH  18  20
HETATM   20  C   UNL     2      -5.134   9.701  70.964  1.00  0.00    -0.041 C  
BRANCH  20  21
HETATM   21  C   UNL     2      -5.513  10.807  71.910  1.00  0.00     0.305 C  
BRANCH  21  22
HETATM   22  C   UNL     2      -6.533  10.320  72.922  1.00  0.00     2.222 C  
BRANCH  22  23
HETATM   23  C   UNL     2      -7.739   9.744  72.199  1.00  0.00     2.141 C  
BRANCH  23  24
HETATM   24  C   UNL     2      -7.535   8.262  71.943  1.00  0.00    -0.118 C  
BRANCH  24  25
HETATM   25  C   UNL     2      -6.316   7.768  72.701  1.00  0.00    -0.063 C  
BRANCH  25  26
HETATM   26  C   UNL     2      -6.728   7.221  74.057  1.00  0.00    -0.082 C  
BRANCH  26  27
HETATM   27  C   UNL     2      -7.048   5.739  73.949  1.00  0.00    -0.082 C  
BRANCH  27  28
HETATM   28  C   UNL     2      -6.736   5.235  72.550  1.00  0.00    -0.073 C  
BRANCH  28  29
HETATM   29  C   UNL     2      -5.497   4.350  72.566  1.00  0.00    -0.004 C  
BRANCH  29  30
HETATM   30  C   UNL     2      -5.650   3.244  73.601  1.00  0.00     0.000 C  
BRANCH  30  31
HETATM   31  C   UNL     2      -5.483   1.874  72.955  1.00  0.00     0.000 C  
BRANCH  31  32
HETATM   32  C   UNL     2      -6.513   1.673  71.847  1.00  0.00    -0.015 C  
BRANCH  32  33
HETATM   33  C   UNL     2      -7.874   2.223  72.261  1.00  0.00    -0.053 C  
HETATM   34  C   UNL     2      -8.644   2.737  71.057  1.00  0.00    -0.107 C  
ENDBRANCH  32  33
ENDBRANCH  31  32
ENDBRANCH  30  31
ENDBRANCH  29  30
ENDBRANCH  28  29
ENDBRANCH  27  28
ENDBRANCH  26  27
ENDBRANCH  25  26
ENDBRANCH  24  25
ENDBRANCH  23  24
ENDBRANCH  22  23
ENDBRANCH  21  22
ENDBRANCH  20  21
ENDBRANCH  18  20
ENDBRANCH  17  18
ENDBRANCH  16  17
ENDBRANCH   2  16
BRANCH   2  35
HETATM   35  O   UNL     2      -7.457   5.735  68.190  1.00  0.00    -0.076 OA 
BRANCH  35  36
HETATM   36  C   UNL     2      -8.668   5.255  67.789  1.00  0.00    -0.103 C  
HETATM   37  O   UNL     2      -8.846   4.308  67.019  1.00  0.00    -0.111 OA 
BRANCH  36  38
HETATM   38  C   UNL     2      -9.740   5.985  68.512  1.00  0.00    -0.142 C  
BRANCH  38  39
HETATM   39  C   UNL     2     -10.752   5.012  69.056  1.00  0.00     0.270 C  
BRANCH  39  40
HETATM   40  C   UNL     2     -11.669   5.702  70.050  1.00  0.00     1.156 C  
BRANCH  40  41
HETATM   41  C   UNL     2     -12.209   6.984  69.432  1.00  0.00     1.048 C  
BRANCH  41  42
HETATM   42  C   UNL     2     -11.085   7.803  68.820  1.00  0.00     0.239 C  
BRANCH  42  43
HETATM   43  C   UNL     2     -11.254   9.269  69.184  1.00  0.00     0.101 C  
BRANCH  43  44
HETATM   44  C   UNL     2     -12.410   9.436  70.158  1.00  0.00     0.380 C  
BRANCH  44  45
HETATM   45  C   UNL     2     -11.920  10.021  71.474  1.00  0.00    -0.438 C  
BRANCH  45  46
HETATM   46  C   UNL     2     -12.057  11.537  71.459  1.00  0.00     0.277 C  
BRANCH  46  47
HETATM   47  C   UNL     2     -13.400  11.961  72.038  1.00  0.00    -0.425 C  
BRANCH  47  48
HETATM   48  C   UNL     2     -13.293  13.339  72.679  1.00  0.00    -0.447 C  
BRANCH  48  49
HETATM   49  C   UNL     2     -13.135  14.419  71.615  1.00  0.00    -0.421 C  
BRANCH  49  50
HETATM   50  C   UNL     2     -11.686  14.890  71.536  1.00  0.00    -0.394 C  
BRANCH  50  51
HETATM   51  C   UNL     2     -11.279  15.173  70.092  1.00  0.00    -0.299 C  
HETATM   52  C   UNL     2     -11.997  14.242  69.130  1.00  0.00    -0.372 C  
ENDBRANCH  50  51
ENDBRANCH  49  50
ENDBRANCH  48  49
ENDBRANCH  47  48
ENDBRANCH  46  47
ENDBRANCH  45  46
ENDBRANCH  44  45
ENDBRANCH  43  44
ENDBRANCH  42  43
ENDBRANCH  41  42
ENDBRANCH  40  41
ENDBRANCH  39  40
ENDBRANCH  38  39
ENDBRANCH  36  38
ENDBRANCH  35  36
ENDBRANCH   2  35
TORSDOF 40
ENDMDL
