MODEL        1
REMARK 921   NORMALIZED FREE ENERGY PREDICTED BY IDOCK:   -5.24 KCAL/MOL
REMARK 922        TOTAL FREE ENERGY PREDICTED BY IDOCK:  -10.78 KCAL/MOL
REMARK 923 INTER-LIGAND FREE ENERGY PREDICTED BY IDOCK:   -9.22 KCAL/MOL
REMARK 924 INTRA-LIGAND FREE ENERGY PREDICTED BY IDOCK:   -1.56 KCAL/MOL
REMARK 927      BINDING AFFINITY PREDICTED BY RF-SCORE:    0.00 PKD
ROOT
HETATM    1 NA   UNL     1     -12.855  14.573  67.368  1.00  0.00    -0.600 Na 
HETATM    2  C   UNL     2     -11.873  11.950  68.637  1.00  0.00    -0.365 C  
HETATM    3  C   UNL     2     -11.617  12.215  70.111  1.00  0.00    -0.202 C  
ENDROOT
BRANCH   3   4
HETATM    4  C   UNL     2     -12.442  11.271  70.980  1.00  0.00    -0.503 C  
BRANCH   4   5
HETATM    5  C   UNL     2     -13.526  12.019  71.750  1.00  0.00    -0.194 C  
BRANCH   5   6
HETATM    6  C   UNL     2     -12.952  13.287  72.377  1.00  0.00    -0.334 C  
BRANCH   6   7
HETATM    7  C   UNL     2     -13.903  14.467  72.209  1.00  0.00    -0.589 C  
BRANCH   7   8
HETATM    8  C   UNL     2     -13.410  15.400  71.106  1.00  0.00    -0.580 C  
BRANCH   8   9
HETATM    9  C   UNL     2     -12.026  15.948  71.437  1.00  0.00    -0.515 C  
BRANCH   9  10
HETATM   10  C   UNL     2     -11.000  15.495  70.402  1.00  0.00    -0.360 C  
BRANCH  10  11
HETATM   11  C   UNL     2     -11.272  16.154  69.053  1.00  0.00    -0.347 C  
BRANCH  11  12
HETATM   12  C   UNL     2      -9.975  16.415  68.295  1.00  0.00    -0.243 C  
BRANCH  12  13
HETATM   13  C   UNL     2     -10.000  15.740  66.928  1.00  0.00    -0.243 C  
BRANCH  13  14
HETATM   14  O   UNL     2     -11.112  16.211  66.160  1.00  0.00    -0.104 OA 
BRANCH  14  15
HETATM   15  C   UNL     2     -11.166  15.767  64.867  1.00  0.00    -0.350 C  
HETATM   16  O   UNL     2     -11.613  16.433  63.938  1.00  0.00    -1.100 OA 
BRANCH  15  17
HETATM   17  C   UNL     2     -10.779  14.335  64.778  1.00  0.00    -0.416 C  
HETATM   18  S   UNL     2     -12.149  13.354  64.282  1.00  0.00    -0.420 S  
HETATM   19  O   UNL     2     -13.146  13.571  65.328  1.00  0.00    -0.713 OA 
HETATM   20  O   UNL     2     -11.577  12.009  64.261  1.00  0.00    -0.349 OA 
HETATM   21  O   UNL     2     -12.511  13.876  62.965  1.00  0.00    -0.689 OA 
ENDBRANCH  15  17
ENDBRANCH  14  15
ENDBRANCH  13  14
ENDBRANCH  12  13
ENDBRANCH  11  12
ENDBRANCH  10  11
ENDBRANCH   9  10
ENDBRANCH   8   9
ENDBRANCH   7   8
ENDBRANCH   6   7
ENDBRANCH   5   6
ENDBRANCH   4   5
ENDBRANCH   3   4
TORSDOF 13
ENDMDL
MODEL        2
REMARK 921   NORMALIZED FREE ENERGY PREDICTED BY IDOCK:   -5.08 KCAL/MOL
REMARK 922        TOTAL FREE ENERGY PREDICTED BY IDOCK:  -10.50 KCAL/MOL
REMARK 923 INTER-LIGAND FREE ENERGY PREDICTED BY IDOCK:   -9.42 KCAL/MOL
REMARK 924 INTRA-LIGAND FREE ENERGY PREDICTED BY IDOCK:   -1.08 KCAL/MOL
REMARK 927      BINDING AFFINITY PREDICTED BY RF-SCORE:    0.00 PKD
ROOT
HETATM    1 NA   UNL     1     -12.801   6.642  69.642  1.00  0.00    -0.631 Na 
HETATM    2  C   UNL     2     -11.892   9.026  71.359  1.00  0.00    -0.395 C  
HETATM    3  C   UNL     2     -11.337  10.087  70.424  1.00  0.00    -0.392 C  
ENDROOT
BRANCH   3   4
HETATM    4  C   UNL     2     -12.082  11.405  70.601  1.00  0.00    -0.469 C  
BRANCH   4   5
HETATM    5  C   UNL     2     -13.137  11.311  71.699  1.00  0.00    -0.513 C  
BRANCH   5   6
HETATM    6  C   UNL     2     -13.495  12.703  72.212  1.00  0.00    -0.541 C  
BRANCH   6   7
HETATM    7  C   UNL     2     -12.851  13.790  71.360  1.00  0.00    -0.449 C  
BRANCH   7   8
HETATM    8  C   UNL     2     -12.268  14.889  72.243  1.00  0.00    -0.419 C  
BRANCH   8   9
HETATM    9  C   UNL     2     -11.713  16.029  71.397  1.00  0.00    -0.536 C  
BRANCH   9  10
HETATM   10  C   UNL     2     -11.821  15.706  69.909  1.00  0.00    -0.374 C  
BRANCH  10  11
HETATM   11  C   UNL     2     -10.706  16.393  69.128  1.00  0.00    -0.317 C  
BRANCH  11  12
HETATM   12  C   UNL     2      -9.839  15.376  68.394  1.00  0.00    -0.215 C  
BRANCH  12  13
HETATM   13  C   UNL     2     -10.363  13.960  68.611  1.00  0.00    -0.237 C  
BRANCH  13  14
HETATM   14  O   UNL     2     -10.354  13.231  67.380  1.00  0.00    -0.240 OA 
BRANCH  14  15
HETATM   15  C   UNL     2     -11.585  12.897  66.884  1.00  0.00    -0.368 C  
HETATM   16  O   UNL     2     -12.076  11.776  66.983  1.00  0.00    -0.575 OA 
BRANCH  15  17
HETATM   17  C   UNL     2     -12.155  14.007  66.077  1.00  0.00    -0.439 C  
HETATM   18  S   UNL     2     -12.065  13.633  64.363  1.00  0.00    -0.420 S  
HETATM   19  O   UNL     2     -10.637  13.467  64.104  1.00  0.00    -0.394 OA 
HETATM   20  O   UNL     2     -12.656  14.824  63.754  1.00  0.00    -0.806 OA 
HETATM   21  O   UNL     2     -12.867  12.420  64.214  1.00  0.00    -0.692 OA 
ENDBRANCH  15  17
ENDBRANCH  14  15
ENDBRANCH  13  14
ENDBRANCH  12  13
ENDBRANCH  11  12
ENDBRANCH  10  11
ENDBRANCH   9  10
ENDBRANCH   8   9
ENDBRANCH   7   8
ENDBRANCH   6   7
ENDBRANCH   5   6
ENDBRANCH   4   5
ENDBRANCH   3   4
TORSDOF 13
ENDMDL
MODEL        3
REMARK 921   NORMALIZED FREE ENERGY PREDICTED BY IDOCK:   -4.93 KCAL/MOL
REMARK 922        TOTAL FREE ENERGY PREDICTED BY IDOCK:  -10.24 KCAL/MOL
REMARK 923 INTER-LIGAND FREE ENERGY PREDICTED BY IDOCK:   -8.59 KCAL/MOL
REMARK 924 INTRA-LIGAND FREE ENERGY PREDICTED BY IDOCK:   -1.66 KCAL/MOL
REMARK 927      BINDING AFFINITY PREDICTED BY RF-SCORE:    0.00 PKD
ROOT
HETATM    1 NA   UNL     1     -11.043  21.034  69.987  1.00  0.00    -0.801 Na 
HETATM    2  C   UNL     2     -10.909  19.417  67.374  1.00  0.00    -0.555 C  
HETATM    3  C   UNL     2      -9.972  20.146  66.425  1.00  0.00    -0.573 C  
ENDROOT
BRANCH   3   4
HETATM    4  C   UNL     2      -8.831  19.233  65.988  1.00  0.00    -0.134 C  
BRANCH   4   5
HETATM    5  C   UNL     2      -7.499  19.977  65.953  1.00  0.00    -0.321 C  
BRANCH   5   6
HETATM    6  C   UNL     2      -7.221  20.633  67.303  1.00  0.00    -0.388 C  
BRANCH   6   7
HETATM    7  C   UNL     2      -6.199  19.837  68.106  1.00  0.00    -0.267 C  
BRANCH   7   8
HETATM    8  C   UNL     2      -6.900  18.896  69.083  1.00  0.00    -0.327 C  
BRANCH   8   9
HETATM    9  C   UNL     2      -6.457  17.454  68.861  1.00  0.00    -0.208 C  
BRANCH   9  10
HETATM   10  C   UNL     2      -7.575  16.632  68.227  1.00  0.00    -0.181 C  
BRANCH  10  11
HETATM   11  C   UNL     2      -8.917  16.962  68.872  1.00  0.00    -0.215 C  
BRANCH  11  12
HETATM   12  C   UNL     2      -9.916  15.826  68.681  1.00  0.00    -0.208 C  
BRANCH  12  13
HETATM   13  C   UNL     2      -9.963  15.385  67.222  1.00  0.00    -0.226 C  
BRANCH  13  14
HETATM   14  O   UNL     2     -10.910  16.173  66.493  1.00  0.00    -0.262 OA 
BRANCH  14  15
HETATM   15  C   UNL     2     -10.955  15.942  65.145  1.00  0.00    -0.377 C  
HETATM   16  O   UNL     2     -11.286  16.791  64.322  1.00  0.00    -1.170 OA 
BRANCH  15  17
HETATM   17  C   UNL     2     -10.721  14.507  64.841  1.00  0.00    -0.429 C  
HETATM   18  S   UNL     2     -12.226  13.714  64.406  1.00  0.00    -0.366 S  
HETATM   19  O   UNL     2     -13.074  13.875  65.584  1.00  0.00    -0.625 OA 
HETATM   20  O   UNL     2     -11.793  12.340  64.155  1.00  0.00    -0.367 OA 
HETATM   21  O   UNL     2     -12.681  14.429  63.214  1.00  0.00    -0.587 OA 
ENDBRANCH  15  17
ENDBRANCH  14  15
ENDBRANCH  13  14
ENDBRANCH  12  13
ENDBRANCH  11  12
ENDBRANCH  10  11
ENDBRANCH   9  10
ENDBRANCH   8   9
ENDBRANCH   7   8
ENDBRANCH   6   7
ENDBRANCH   5   6
ENDBRANCH   4   5
ENDBRANCH   3   4
TORSDOF 13
ENDMDL
MODEL        4
REMARK 921   NORMALIZED FREE ENERGY PREDICTED BY IDOCK:   -4.85 KCAL/MOL
REMARK 922        TOTAL FREE ENERGY PREDICTED BY IDOCK:  -10.10 KCAL/MOL
REMARK 923 INTER-LIGAND FREE ENERGY PREDICTED BY IDOCK:   -8.58 KCAL/MOL
REMARK 924 INTRA-LIGAND FREE ENERGY PREDICTED BY IDOCK:   -1.52 KCAL/MOL
REMARK 927      BINDING AFFINITY PREDICTED BY RF-SCORE:    0.00 PKD
ROOT
HETATM    1 NA   UNL     1      -6.935  20.918  72.107  1.00  0.00    -0.839 Na 
HETATM    2  C   UNL     2      -5.781  19.141  69.877  1.00  0.00    -0.266 C  
HETATM    3  C   UNL     2      -6.945  18.614  69.055  1.00  0.00    -0.305 C  
ENDROOT
BRANCH   3   4
HETATM    4  C   UNL     2      -6.787  18.999  67.588  1.00  0.00    -0.228 C  
BRANCH   4   5
HETATM    5  C   UNL     2      -7.295  20.412  67.320  1.00  0.00    -0.353 C  
BRANCH   5   6
HETATM    6  C   UNL     2      -8.803  20.486  67.550  1.00  0.00    -0.352 C  
BRANCH   6   7
HETATM    7  C   UNL     2      -9.556  19.581  66.581  1.00  0.00    -0.450 C  
BRANCH   7   8
HETATM    8  C   UNL     2     -10.773  18.962  67.263  1.00  0.00    -0.523 C  
BRANCH   8   9
HETATM    9  C   UNL     2     -10.568  17.468  67.488  1.00  0.00    -0.333 C  
BRANCH   9  10
HETATM   10  C   UNL     2      -9.890  16.823  66.281  1.00  0.00    -0.327 C  
BRANCH  10  11
HETATM   11  C   UNL     2      -8.840  15.813  66.732  1.00  0.00    -0.299 C  
BRANCH  11  12
HETATM   12  C   UNL     2      -9.219  15.182  68.066  1.00  0.00    -0.185 C  
BRANCH  12  13
HETATM   13  C   UNL     2      -9.736  13.761  67.867  1.00  0.00    -0.229 C  
BRANCH  13  14
HETATM   14  O   UNL     2     -11.152  13.713  68.065  1.00  0.00    -0.247 OA 
BRANCH  14  15
HETATM   15  C   UNL     2     -11.870  13.134  67.054  1.00  0.00    -0.379 C  
HETATM   16  O   UNL     2     -11.945  11.921  66.883  1.00  0.00    -0.614 OA 
BRANCH  15  17
HETATM   17  C   UNL     2     -12.391  14.160  66.114  1.00  0.00    -0.436 C  
HETATM   18  S   UNL     2     -11.971  13.751  64.459  1.00  0.00    -0.443 S  
HETATM   19  O   UNL     2     -10.511  13.720  64.454  1.00  0.00    -0.422 OA 
HETATM   20  O   UNL     2     -12.555  14.861  63.706  1.00  0.00    -0.791 OA 
HETATM   21  O   UNL     2     -12.618  12.461  64.228  1.00  0.00    -0.562 OA 
ENDBRANCH  15  17
ENDBRANCH  14  15
ENDBRANCH  13  14
ENDBRANCH  12  13
ENDBRANCH  11  12
ENDBRANCH  10  11
ENDBRANCH   9  10
ENDBRANCH   8   9
ENDBRANCH   7   8
ENDBRANCH   6   7
ENDBRANCH   5   6
ENDBRANCH   4   5
ENDBRANCH   3   4
TORSDOF 13
ENDMDL
MODEL        5
REMARK 921   NORMALIZED FREE ENERGY PREDICTED BY IDOCK:   -4.85 KCAL/MOL
REMARK 922        TOTAL FREE ENERGY PREDICTED BY IDOCK:  -10.10 KCAL/MOL
REMARK 923 INTER-LIGAND FREE ENERGY PREDICTED BY IDOCK:   -8.21 KCAL/MOL
REMARK 924 INTRA-LIGAND FREE ENERGY PREDICTED BY IDOCK:   -1.89 KCAL/MOL
REMARK 927      BINDING AFFINITY PREDICTED BY RF-SCORE:    0.00 PKD
ROOT
HETATM    1 NA   UNL     1     -12.105  16.410  63.298  1.00  0.00    -0.793 Na 
HETATM    2  C   UNL     2     -10.385  17.277  65.695  1.00  0.00    -0.185 C  
HETATM    3  C   UNL     2     -10.516  18.784  65.840  1.00  0.00    -0.424 C  
ENDROOT
BRANCH   3   4
HETATM    4  C   UNL     2     -11.028  19.149  67.229  1.00  0.00    -0.417 C  
BRANCH   4   5
HETATM    5  C   UNL     2      -9.960  19.868  68.050  1.00  0.00    -0.556 C  
BRANCH   5   6
HETATM    6  C   UNL     2      -8.880  20.436  67.133  1.00  0.00    -0.435 C  
BRANCH   6   7
HETATM    7  C   UNL     2      -7.486  20.179  67.694  1.00  0.00    -0.341 C  
BRANCH   7   8
HETATM    8  C   UNL     2      -7.542  19.148  68.818  1.00  0.00    -0.388 C  
BRANCH   8   9
HETATM    9  C   UNL     2      -6.681  17.935  68.485  1.00  0.00    -0.227 C  
BRANCH   9  10
HETATM   10  C   UNL     2      -7.526  16.817  67.878  1.00  0.00    -0.169 C  
BRANCH  10  11
HETATM   11  C   UNL     2      -8.746  16.534  68.748  1.00  0.00    -0.259 C  
BRANCH  11  12
HETATM   12  C   UNL     2      -8.968  15.035  68.916  1.00  0.00    -0.202 C  
BRANCH  12  13
HETATM   13  C   UNL     2     -10.394  14.652  68.533  1.00  0.00    -0.238 C  
BRANCH  13  14
HETATM   14  O   UNL     2     -10.421  13.345  67.953  1.00  0.00    -0.230 OA 
BRANCH  14  15
HETATM   15  C   UNL     2     -11.650  12.908  67.540  1.00  0.00    -0.356 C  
HETATM   16  O   UNL     2     -12.073  11.774  67.748  1.00  0.00    -0.595 OA 
BRANCH  15  17
HETATM   17  C   UNL     2     -12.313  13.918  66.675  1.00  0.00    -0.369 C  
HETATM   18  S   UNL     2     -12.074  13.532  64.979  1.00  0.00    -0.424 S  
HETATM   19  O   UNL     2     -10.624  13.553  64.804  1.00  0.00    -0.370 OA 
HETATM   20  O   UNL     2     -12.780  14.622  64.309  1.00  0.00    -0.679 OA 
HETATM   21  O   UNL     2     -12.697  12.219  64.815  1.00  0.00    -0.556 OA 
ENDBRANCH  15  17
ENDBRANCH  14  15
ENDBRANCH  13  14
ENDBRANCH  12  13
ENDBRANCH  11  12
ENDBRANCH  10  11
ENDBRANCH   9  10
ENDBRANCH   8   9
ENDBRANCH   7   8
ENDBRANCH   6   7
ENDBRANCH   5   6
ENDBRANCH   4   5
ENDBRANCH   3   4
TORSDOF 13
ENDMDL
MODEL        6
REMARK 921   NORMALIZED FREE ENERGY PREDICTED BY IDOCK:   -4.85 KCAL/MOL
REMARK 922        TOTAL FREE ENERGY PREDICTED BY IDOCK:  -10.10 KCAL/MOL
REMARK 923 INTER-LIGAND FREE ENERGY PREDICTED BY IDOCK:   -8.97 KCAL/MOL
REMARK 924 INTRA-LIGAND FREE ENERGY PREDICTED BY IDOCK:   -1.13 KCAL/MOL
REMARK 927      BINDING AFFINITY PREDICTED BY RF-SCORE:    0.00 PKD
ROOT
HETATM    1 NA   UNL     1      -9.088  12.426  68.998  1.00  0.00    -0.288 Na 
HETATM    2  C   UNL     2     -10.597   9.819  69.620  1.00  0.00    -0.260 C  
HETATM    3  C   UNL     2     -11.174   9.940  71.020  1.00  0.00    -0.435 C  
ENDROOT
BRANCH   3   4
HETATM    4  C   UNL     2     -12.687   9.747  70.998  1.00  0.00    -0.392 C  
BRANCH   4   5
HETATM    5  C   UNL     2     -13.390  10.719  71.942  1.00  0.00    -0.445 C  
BRANCH   5   6
HETATM    6  C   UNL     2     -12.903  12.144  71.695  1.00  0.00    -0.390 C  
BRANCH   6   7
HETATM    7  C   UNL     2     -13.906  13.169  72.212  1.00  0.00    -0.586 C  
BRANCH   7   8
HETATM    8  C   UNL     2     -13.182  14.393  72.767  1.00  0.00    -0.611 C  
BRANCH   8   9
HETATM    9  C   UNL     2     -13.033  15.468  71.697  1.00  0.00    -0.540 C  
BRANCH   9  10
HETATM   10  C   UNL     2     -11.560  15.748  71.407  1.00  0.00    -0.511 C  
BRANCH  10  11
HETATM   11  C   UNL     2     -11.347  16.015  69.921  1.00  0.00    -0.340 C  
BRANCH  11  12
HETATM   12  C   UNL     2     -11.940  14.898  69.069  1.00  0.00    -0.307 C  
BRANCH  12  13
HETATM   13  C   UNL     2     -11.208  14.786  67.736  1.00  0.00    -0.313 C  
BRANCH  13  14
HETATM   14  O   UNL     2     -10.697  13.462  67.556  1.00  0.00    -0.250 OA 
BRANCH  14  15
HETATM   15  C   UNL     2     -10.488  13.081  66.259  1.00  0.00    -0.276 C  
HETATM   16  O   UNL     2      -9.760  12.147  65.934  1.00  0.00    -0.241 OA 
BRANCH  15  17
HETATM   17  C   UNL     2     -11.114  14.040  65.313  1.00  0.00    -0.325 C  
HETATM   18  S   UNL     2     -12.018  13.186  64.074  1.00  0.00    -0.479 S  
HETATM   19  O   UNL     2     -11.019  12.356  63.405  1.00  0.00    -0.456 OA 
HETATM   20  O   UNL     2     -12.539  14.281  63.258  1.00  0.00    -0.716 OA 
HETATM   21  O   UNL     2     -13.040  12.447  64.815  1.00  0.00    -0.806 OA 
ENDBRANCH  15  17
ENDBRANCH  14  15
ENDBRANCH  13  14
ENDBRANCH  12  13
ENDBRANCH  11  12
ENDBRANCH  10  11
ENDBRANCH   9  10
ENDBRANCH   8   9
ENDBRANCH   7   8
ENDBRANCH   6   7
ENDBRANCH   5   6
ENDBRANCH   4   5
ENDBRANCH   3   4
TORSDOF 13
ENDMDL
MODEL        7
REMARK 921   NORMALIZED FREE ENERGY PREDICTED BY IDOCK:   -4.80 KCAL/MOL
REMARK 922        TOTAL FREE ENERGY PREDICTED BY IDOCK:  -10.01 KCAL/MOL
REMARK 923 INTER-LIGAND FREE ENERGY PREDICTED BY IDOCK:   -8.69 KCAL/MOL
REMARK 924 INTRA-LIGAND FREE ENERGY PREDICTED BY IDOCK:   -1.32 KCAL/MOL
REMARK 927      BINDING AFFINITY PREDICTED BY RF-SCORE:    0.00 PKD
ROOT
HETATM    1 NA   UNL     1     -14.400  16.961  74.066  1.00  0.00    -0.940 Na 
HETATM    2  C   UNL     2     -14.232  15.115  71.611  1.00  0.00    -0.664 C  
HETATM    3  C   UNL     2     -12.964  15.467  70.852  1.00  0.00    -0.539 C  
ENDROOT
BRANCH   3   4
HETATM    4  C   UNL     2     -12.067  14.242  70.706  1.00  0.00    -0.418 C  
BRANCH   4   5
HETATM    5  C   UNL     2     -12.004  13.762  69.259  1.00  0.00    -0.399 C  
BRANCH   5   6
HETATM    6  C   UNL     2     -11.691  12.269  69.209  1.00  0.00    -0.388 C  
BRANCH   6   7
HETATM    7  C   UNL     2     -10.621  11.961  68.168  1.00  0.00    -0.233 C  
BRANCH   7   8
HETATM    8  C   UNL     2     -11.217  11.175  67.003  1.00  0.00    -0.291 C  
BRANCH   8   9
HETATM    9  C   UNL     2     -11.098  11.959  65.702  1.00  0.00    -0.362 C  
BRANCH   9  10
HETATM   10  C   UNL     2     -12.287  12.900  65.523  1.00  0.00    -0.517 C  
BRANCH  10  11
HETATM   11  C   UNL     2     -11.816  14.348  65.425  1.00  0.00    -0.366 C  
BRANCH  11  12
HETATM   12  C   UNL     2     -10.309  14.424  65.204  1.00  0.00    -0.447 C  
BRANCH  12  13
HETATM   13  C   UNL     2      -9.748  15.738  65.738  1.00  0.00    -0.337 C  
BRANCH  13  14
HETATM   14  O   UNL     2     -10.760  16.461  66.445  1.00  0.00    -0.268 OA 
BRANCH  14  15
HETATM   15  C   UNL     2     -10.348  17.082  67.593  1.00  0.00    -0.332 C  
HETATM   16  O   UNL     2      -9.891  16.483  68.563  1.00  0.00    -0.226 OA 
BRANCH  15  17
HETATM   17  C   UNL     2     -10.683  18.529  67.567  1.00  0.00    -0.377 C  
HETATM   18  S   UNL     2      -9.232  19.496  67.358  1.00  0.00    -0.327 S  
HETATM   19  O   UNL     2      -8.406  19.163  68.516  1.00  0.00    -0.340 OA 
HETATM   20  O   UNL     2      -9.763  20.859  67.364  1.00  0.00    -0.456 OA 
HETATM   21  O   UNL     2      -8.693  19.066  66.069  1.00  0.00    -0.459 OA 
ENDBRANCH  15  17
ENDBRANCH  14  15
ENDBRANCH  13  14
ENDBRANCH  12  13
ENDBRANCH  11  12
ENDBRANCH  10  11
ENDBRANCH   9  10
ENDBRANCH   8   9
ENDBRANCH   7   8
ENDBRANCH   6   7
ENDBRANCH   5   6
ENDBRANCH   4   5
ENDBRANCH   3   4
TORSDOF 13
ENDMDL
MODEL        8
REMARK 921   NORMALIZED FREE ENERGY PREDICTED BY IDOCK:   -4.79 KCAL/MOL
REMARK 922        TOTAL FREE ENERGY PREDICTED BY IDOCK:  -10.00 KCAL/MOL
REMARK 923 INTER-LIGAND FREE ENERGY PREDICTED BY IDOCK:   -8.45 KCAL/MOL
REMARK 924 INTRA-LIGAND FREE ENERGY PREDICTED BY IDOCK:   -1.56 KCAL/MOL
REMARK 927      BINDING AFFINITY PREDICTED BY RF-SCORE:    0.00 PKD
ROOT
HETATM    1 NA   UNL     1     -12.364  11.754  64.785  1.00  0.00    -0.338 Na 
HETATM    2  C   UNL     2     -10.624  11.478  67.305  1.00  0.00    -0.266 C  
HETATM    3  C   UNL     2     -11.528  11.650  68.515  1.00  0.00    -0.358 C  
ENDROOT
BRANCH   3   4
HETATM    4  C   UNL     2     -11.449  10.429  69.425  1.00  0.00    -0.292 C  
BRANCH   4   5
HETATM    5  C   UNL     2     -12.303  10.606  70.677  1.00  0.00    -0.462 C  
BRANCH   5   6
HETATM    6  C   UNL     2     -12.470  12.088  71.001  1.00  0.00    -0.376 C  
BRANCH   6   7
HETATM    7  C   UNL     2     -13.457  12.298  72.143  1.00  0.00    -0.431 C  
BRANCH   7   8
HETATM    8  C   UNL     2     -13.881  13.762  72.222  1.00  0.00    -0.679 C  
BRANCH   8   9
HETATM    9  C   UNL     2     -13.354  14.546  71.026  1.00  0.00    -0.384 C  
BRANCH   9  10
HETATM   10  C   UNL     2     -12.535  15.751  71.481  1.00  0.00    -0.515 C  
BRANCH  10  11
HETATM   11  C   UNL     2     -11.386  16.015  70.513  1.00  0.00    -0.420 C  
BRANCH  11  12
HETATM   12  C   UNL     2     -11.544  15.201  69.234  1.00  0.00    -0.344 C  
BRANCH  12  13
HETATM   13  C   UNL     2     -10.454  15.555  68.228  1.00  0.00    -0.242 C  
BRANCH  13  14
HETATM   14  O   UNL     2     -11.013  16.251  67.111  1.00  0.00    -0.248 OA 
BRANCH  14  15
HETATM   15  C   UNL     2     -10.312  16.149  65.940  1.00  0.00    -0.367 C  
HETATM   16  O   UNL     2      -9.092  16.264  65.867  1.00  0.00    -0.395 OA 
BRANCH  15  17
HETATM   17  C   UNL     2     -11.229  16.055  64.775  1.00  0.00    -0.339 C  
HETATM   18  S   UNL     2     -11.823  14.414  64.588  1.00  0.00    -0.455 S  
HETATM   19  O   UNL     2     -10.619  13.614  64.382  1.00  0.00    -0.423 OA 
HETATM   20  O   UNL     2     -12.684  14.527  63.411  1.00  0.00    -0.627 OA 
HETATM   21  O   UNL     2     -12.540  14.144  65.834  1.00  0.00    -0.486 OA 
ENDBRANCH  15  17
ENDBRANCH  14  15
ENDBRANCH  13  14
ENDBRANCH  12  13
ENDBRANCH  11  12
ENDBRANCH  10  11
ENDBRANCH   9  10
ENDBRANCH   8   9
ENDBRANCH   7   8
ENDBRANCH   6   7
ENDBRANCH   5   6
ENDBRANCH   4   5
ENDBRANCH   3   4
TORSDOF 13
ENDMDL
MODEL        9
REMARK 921   NORMALIZED FREE ENERGY PREDICTED BY IDOCK:   -4.77 KCAL/MOL
REMARK 922        TOTAL FREE ENERGY PREDICTED BY IDOCK:   -9.96 KCAL/MOL
REMARK 923 INTER-LIGAND FREE ENERGY PREDICTED BY IDOCK:   -8.38 KCAL/MOL
REMARK 924 INTRA-LIGAND FREE ENERGY PREDICTED BY IDOCK:   -1.58 KCAL/MOL
REMARK 927      BINDING AFFINITY PREDICTED BY RF-SCORE:    0.00 PKD
ROOT
HETATM    1 NA   UNL     1     -11.813   4.978  65.212  1.00  0.00    -0.676 Na 
HETATM    2  C   UNL     2     -10.477   6.545  67.496  1.00  0.00    -0.297 C  
HETATM    3  C   UNL     2     -11.321   6.355  68.745  1.00  0.00    -0.252 C  
ENDROOT
BRANCH   3   4
HETATM    4  C   UNL     2     -10.486   5.763  69.875  1.00  0.00    -0.360 C  
BRANCH   4   5
HETATM    5  C   UNL     2     -10.933   6.285  71.238  1.00  0.00    -0.330 C  
BRANCH   5   6
HETATM    6  C   UNL     2     -12.219   7.096  71.099  1.00  0.00    -0.405 C  
BRANCH   6   7
HETATM    7  C   UNL     2     -12.057   8.496  71.678  1.00  0.00    -0.373 C  
BRANCH   7   8
HETATM    8  C   UNL     2     -10.585   8.898  71.703  1.00  0.00    -0.422 C  
BRANCH   8   9
HETATM    9  C   UNL     2     -10.217   9.690  70.453  1.00  0.00    -0.348 C  
BRANCH   9  10
HETATM   10  C   UNL     2     -11.438  10.411  69.886  1.00  0.00    -0.368 C  
BRANCH  10  11
HETATM   11  C   UNL     2     -11.359  10.485  68.365  1.00  0.00    -0.328 C  
BRANCH  11  12
HETATM   12  C   UNL     2      -9.912  10.577  67.891  1.00  0.00    -0.193 C  
BRANCH  12  13
HETATM   13  C   UNL     2      -9.802  10.222  66.412  1.00  0.00    -0.217 C  
BRANCH  13  14
HETATM   14  O   UNL     2      -9.493  11.387  65.641  1.00  0.00    -0.222 OA 
BRANCH  14  15
HETATM   15  C   UNL     2     -10.059  11.438  64.396  1.00  0.00    -0.291 C  
HETATM   16  O   UNL     2     -10.060  10.494  63.611  1.00  0.00    -0.301 OA 
BRANCH  15  17
HETATM   17  C   UNL     2     -10.508  12.816  64.071  1.00  0.00    -0.406 C  
HETATM   18  S   UNL     2     -12.245  12.965  64.283  1.00  0.00    -0.413 S  
HETATM   19  O   UNL     2     -12.808  11.990  63.353  1.00  0.00    -0.760 OA 
HETATM   20  O   UNL     2     -12.485  14.360  63.915  1.00  0.00    -0.798 OA 
HETATM   21  O   UNL     2     -12.465  12.669  65.698  1.00  0.00    -0.622 OA 
ENDBRANCH  15  17
ENDBRANCH  14  15
ENDBRANCH  13  14
ENDBRANCH  12  13
ENDBRANCH  11  12
ENDBRANCH  10  11
ENDBRANCH   9  10
ENDBRANCH   8   9
ENDBRANCH   7   8
ENDBRANCH   6   7
ENDBRANCH   5   6
ENDBRANCH   4   5
ENDBRANCH   3   4
TORSDOF 13
ENDMDL
MODEL       10
REMARK 921   NORMALIZED FREE ENERGY PREDICTED BY IDOCK:   -4.75 KCAL/MOL
REMARK 922        TOTAL FREE ENERGY PREDICTED BY IDOCK:   -9.92 KCAL/MOL
REMARK 923 INTER-LIGAND FREE ENERGY PREDICTED BY IDOCK:   -8.99 KCAL/MOL
REMARK 924 INTRA-LIGAND FREE ENERGY PREDICTED BY IDOCK:   -0.93 KCAL/MOL
REMARK 927      BINDING AFFINITY PREDICTED BY RF-SCORE:    0.00 PKD
ROOT
HETATM    1 NA   UNL     1     -12.700  15.743  68.104  1.00  0.00    -0.443 Na 
HETATM    2  C   UNL     2     -12.015  16.030  71.088  1.00  0.00    -0.443 C  
HETATM    3  C   UNL     2     -13.293  15.817  71.881  1.00  0.00    -0.457 C  
ENDROOT
BRANCH   3   4
HETATM    4  C   UNL     2     -13.125  14.677  72.879  1.00  0.00    -0.609 C  
BRANCH   4   5
HETATM    5  C   UNL     2     -13.823  13.406  72.405  1.00  0.00    -0.665 C  
BRANCH   5   6
HETATM    6  C   UNL     2     -12.906  12.611  71.479  1.00  0.00    -0.368 C  
BRANCH   6   7
HETATM    7  C   UNL     2     -12.855  11.141  71.878  1.00  0.00    -0.400 C  
BRANCH   7   8
HETATM    8  C   UNL     2     -12.390  10.283  70.704  1.00  0.00    -0.416 C  
BRANCH   8   9
HETATM    9  C   UNL     2     -12.281  11.116  69.432  1.00  0.00    -0.329 C  
BRANCH   9  10
HETATM   10  C   UNL     2     -10.830  11.215  68.969  1.00  0.00    -0.276 C  
BRANCH  10  11
HETATM   11  C   UNL     2     -10.590  12.530  68.234  1.00  0.00    -0.245 C  
BRANCH  11  12
HETATM   12  C   UNL     2     -10.014  12.288  66.844  1.00  0.00    -0.223 C  
BRANCH  12  13
HETATM   13  C   UNL     2     -11.098  12.410  65.778  1.00  0.00    -0.315 C  
BRANCH  13  14
HETATM   14  O   UNL     2     -11.842  13.618  65.959  1.00  0.00    -0.349 OA 
BRANCH  14  15
HETATM   15  C   UNL     2     -11.626  14.590  65.020  1.00  0.00    -0.382 C  
HETATM   16  O   UNL     2     -12.423  14.860  64.126  1.00  0.00    -0.763 OA 
BRANCH  15  17
HETATM   17  C   UNL     2     -10.250  15.141  65.129  1.00  0.00    -0.351 C  
HETATM   18  S   UNL     2     -10.290  16.790  65.731  1.00  0.00    -0.237 S  
HETATM   19  O   UNL     2     -11.077  17.518  64.739  1.00  0.00    -0.959 OA 
HETATM   20  O   UNL     2      -8.872  17.145  65.759  1.00  0.00    -0.526 OA 
HETATM   21  O   UNL     2     -10.909  16.678  67.051  1.00  0.00    -0.230 OA 
ENDBRANCH  15  17
ENDBRANCH  14  15
ENDBRANCH  13  14
ENDBRANCH  12  13
ENDBRANCH  11  12
ENDBRANCH  10  11
ENDBRANCH   9  10
ENDBRANCH   8   9
ENDBRANCH   7   8
ENDBRANCH   6   7
ENDBRANCH   5   6
ENDBRANCH   4   5
ENDBRANCH   3   4
TORSDOF 13
ENDMDL
MODEL       11
REMARK 921   NORMALIZED FREE ENERGY PREDICTED BY IDOCK:   -4.74 KCAL/MOL
REMARK 922        TOTAL FREE ENERGY PREDICTED BY IDOCK:   -9.91 KCAL/MOL
REMARK 923 INTER-LIGAND FREE ENERGY PREDICTED BY IDOCK:   -8.64 KCAL/MOL
REMARK 924 INTRA-LIGAND FREE ENERGY PREDICTED BY IDOCK:   -1.27 KCAL/MOL
REMARK 927      BINDING AFFINITY PREDICTED BY RF-SCORE:    0.00 PKD
ROOT
HETATM    1 NA   UNL     1     -13.574  16.072  69.610  1.00  0.00    -0.678 Na 
HETATM    2  C   UNL     2     -12.472  14.100  71.697  1.00  0.00    -0.395 C  
HETATM    3  C   UNL     2     -13.599  13.157  72.084  1.00  0.00    -0.637 C  
ENDROOT
BRANCH   3   4
HETATM    4  C   UNL     2     -13.199  11.707  71.830  1.00  0.00    -0.475 C  
BRANCH   4   5
HETATM    5  C   UNL     2     -12.292  11.580  70.609  1.00  0.00    -0.457 C  
BRANCH   5   6
HETATM    6  C   UNL     2     -11.538  10.254  70.644  1.00  0.00    -0.435 C  
BRANCH   6   7
HETATM    7  C   UNL     2     -10.245  10.330  69.840  1.00  0.00    -0.250 C  
BRANCH   7   8
HETATM    8  C   UNL     2     -10.328   9.435  68.606  1.00  0.00    -0.227 C  
BRANCH   8   9
HETATM    9  C   UNL     2     -11.095  10.125  67.485  1.00  0.00    -0.251 C  
BRANCH   9  10
HETATM   10  C   UNL     2     -10.582  11.547  67.268  1.00  0.00    -0.266 C  
BRANCH  10  11
HETATM   11  C   UNL     2     -11.742  12.505  67.020  1.00  0.00    -0.437 C  
BRANCH  11  12
HETATM   12  C   UNL     2     -12.121  12.542  65.544  1.00  0.00    -0.481 C  
BRANCH  12  13
HETATM   13  C   UNL     2     -12.456  13.964  65.105  1.00  0.00    -0.453 C  
BRANCH  13  14
HETATM   14  O   UNL     2     -11.339  14.555  64.435  1.00  0.00    -0.327 OA 
BRANCH  14  15
HETATM   15  C   UNL     2     -10.962  15.789  64.892  1.00  0.00    -0.427 C  
HETATM   16  O   UNL     2     -11.307  16.843  64.365  1.00  0.00    -1.133 OA 
BRANCH  15  17
HETATM   17  C   UNL     2      -9.962  15.671  65.984  1.00  0.00    -0.333 C  
HETATM   18  S   UNL     2     -10.509  16.526  67.417  1.00  0.00    -0.296 S  
HETATM   19  O   UNL     2     -10.655  17.911  66.979  1.00  0.00    -0.344 OA 
HETATM   20  O   UNL     2      -9.408  16.299  68.353  1.00  0.00    -0.199 OA 
HETATM   21  O   UNL     2     -11.757  15.858  67.783  1.00  0.00    -0.141 OA 
ENDBRANCH  15  17
ENDBRANCH  14  15
ENDBRANCH  13  14
ENDBRANCH  12  13
ENDBRANCH  11  12
ENDBRANCH  10  11
ENDBRANCH   9  10
ENDBRANCH   8   9
ENDBRANCH   7   8
ENDBRANCH   6   7
ENDBRANCH   5   6
ENDBRANCH   4   5
ENDBRANCH   3   4
TORSDOF 13
ENDMDL
MODEL       12
REMARK 921   NORMALIZED FREE ENERGY PREDICTED BY IDOCK:   -4.72 KCAL/MOL
REMARK 922        TOTAL FREE ENERGY PREDICTED BY IDOCK:   -9.87 KCAL/MOL
REMARK 923 INTER-LIGAND FREE ENERGY PREDICTED BY IDOCK:   -8.05 KCAL/MOL
REMARK 924 INTRA-LIGAND FREE ENERGY PREDICTED BY IDOCK:   -1.83 KCAL/MOL
REMARK 927      BINDING AFFINITY PREDICTED BY RF-SCORE:    0.00 PKD
ROOT
HETATM    1 NA   UNL     1      -8.763  12.451  65.646  1.00  0.00    -0.371 Na 
HETATM    2  C   UNL     2      -8.695   9.846  67.278  1.00  0.00    -0.131 C  
HETATM    3  C   UNL     2     -10.066   9.197  67.175  1.00  0.00    -0.301 C  
ENDROOT
BRANCH   3   4
HETATM    4  C   UNL     2      -9.952   7.785  66.611  1.00  0.00    -0.299 C  
BRANCH   4   5
HETATM    5  C   UNL     2     -10.685   6.771  67.485  1.00  0.00    -0.381 C  
BRANCH   5   6
HETATM    6  C   UNL     2     -10.405   7.043  68.961  1.00  0.00    -0.208 C  
BRANCH   6   7
HETATM    7  C   UNL     2     -11.235   6.132  69.859  1.00  0.00    -0.484 C  
BRANCH   7   8
HETATM    8  C   UNL     2     -11.887   6.935  70.981  1.00  0.00    -0.411 C  
BRANCH   8   9
HETATM    9  C   UNL     2     -11.455   8.396  70.926  1.00  0.00    -0.295 C  
BRANCH   9  10
HETATM   10  C   UNL     2     -12.343   9.261  71.817  1.00  0.00    -0.454 C  
BRANCH  10  11
HETATM   11  C   UNL     2     -12.436  10.680  71.267  1.00  0.00    -0.515 C  
BRANCH  11  12
HETATM   12  C   UNL     2     -12.093  10.720  69.782  1.00  0.00    -0.389 C  
BRANCH  12  13
HETATM   13  C   UNL     2     -11.883  12.155  69.311  1.00  0.00    -0.313 C  
BRANCH  13  14
HETATM   14  O   UNL     2     -12.081  12.251  67.898  1.00  0.00    -0.466 OA 
BRANCH  14  15
HETATM   15  C   UNL     2     -11.230  13.095  67.238  1.00  0.00    -0.287 C  
HETATM   16  O   UNL     2     -10.023  13.149  67.456  1.00  0.00    -0.217 OA 
BRANCH  15  17
HETATM   17  C   UNL     2     -11.980  14.036  66.366  1.00  0.00    -0.438 C  
HETATM   18  S   UNL     2     -11.998  13.459  64.708  1.00  0.00    -0.414 S  
HETATM   19  O   UNL     2     -10.588  13.396  64.332  1.00  0.00    -0.411 OA 
HETATM   20  O   UNL     2     -12.761  14.503  64.024  1.00  0.00    -0.759 OA 
HETATM   21  O   UNL     2     -12.678  12.166  64.781  1.00  0.00    -0.502 OA 
ENDBRANCH  15  17
ENDBRANCH  14  15
ENDBRANCH  13  14
ENDBRANCH  12  13
ENDBRANCH  11  12
ENDBRANCH  10  11
ENDBRANCH   9  10
ENDBRANCH   8   9
ENDBRANCH   7   8
ENDBRANCH   6   7
ENDBRANCH   5   6
ENDBRANCH   4   5
ENDBRANCH   3   4
TORSDOF 13
ENDMDL
MODEL       13
REMARK 921   NORMALIZED FREE ENERGY PREDICTED BY IDOCK:   -4.70 KCAL/MOL
REMARK 922        TOTAL FREE ENERGY PREDICTED BY IDOCK:   -9.83 KCAL/MOL
REMARK 923 INTER-LIGAND FREE ENERGY PREDICTED BY IDOCK:   -8.84 KCAL/MOL
REMARK 924 INTRA-LIGAND FREE ENERGY PREDICTED BY IDOCK:   -0.99 KCAL/MOL
REMARK 927      BINDING AFFINITY PREDICTED BY RF-SCORE:    0.00 PKD
ROOT
HETATM    1 NA   UNL     1     -10.833  20.765  70.308  1.00  0.00    -0.816 Na 
HETATM    2  C   UNL     2     -10.672  18.652  68.079  1.00  0.00    -0.273 C  
HETATM    3  C   UNL     2     -10.020  17.409  68.664  1.00  0.00    -0.340 C  
ENDROOT
BRANCH   3   4
HETATM    4  C   UNL     2     -10.932  16.197  68.504  1.00  0.00    -0.338 C  
BRANCH   4   5
HETATM    5  C   UNL     2     -10.922  15.319  69.752  1.00  0.00    -0.295 C  
BRANCH   5   6
HETATM    6  C   UNL     2     -11.880  15.876  70.801  1.00  0.00    -0.423 C  
BRANCH   6   7
HETATM    7  C   UNL     2     -11.518  15.386  72.198  1.00  0.00    -0.525 C  
BRANCH   7   8
HETATM    8  C   UNL     2     -12.776  15.016  72.979  1.00  0.00    -0.560 C  
BRANCH   8   9
HETATM    9  C   UNL     2     -13.625  14.018  72.200  1.00  0.00    -0.582 C  
BRANCH   9  10
HETATM   10  C   UNL     2     -12.964  12.642  72.176  1.00  0.00    -0.333 C  
BRANCH  10  11
HETATM   11  C   UNL     2     -12.655  12.219  70.744  1.00  0.00    -0.302 C  
BRANCH  11  12
HETATM   12  C   UNL     2     -12.212  10.762  70.681  1.00  0.00    -0.474 C  
BRANCH  12  13
HETATM   13  C   UNL     2     -11.574  10.446  69.333  1.00  0.00    -0.202 C  
BRANCH  13  14
HETATM   14  O   UNL     2     -12.219  11.184  68.290  1.00  0.00    -0.613 OA 
BRANCH  14  15
HETATM   15  C   UNL     2     -11.429  11.510  67.222  1.00  0.00    -0.263 C  
HETATM   16  O   UNL     2     -10.628  10.735  66.708  1.00  0.00    -0.246 OA 
BRANCH  15  17
HETATM   17  C   UNL     2     -11.549  12.954  66.891  1.00  0.00    -0.368 C  
HETATM   18  S   UNL     2     -11.866  13.169  65.177  1.00  0.00    -0.384 S  
HETATM   19  O   UNL     2     -10.711  12.568  64.517  1.00  0.00    -0.294 OA 
HETATM   20  O   UNL     2     -11.943  14.625  65.056  1.00  0.00    -0.379 OA 
HETATM   21  O   UNL     2     -13.136  12.479  64.954  1.00  0.00    -0.833 OA 
ENDBRANCH  15  17
ENDBRANCH  14  15
ENDBRANCH  13  14
ENDBRANCH  12  13
ENDBRANCH  11  12
ENDBRANCH  10  11
ENDBRANCH   9  10
ENDBRANCH   8   9
ENDBRANCH   7   8
ENDBRANCH   6   7
ENDBRANCH   5   6
ENDBRANCH   4   5
ENDBRANCH   3   4
TORSDOF 13
ENDMDL
MODEL       14
REMARK 921   NORMALIZED FREE ENERGY PREDICTED BY IDOCK:   -4.65 KCAL/MOL
REMARK 922        TOTAL FREE ENERGY PREDICTED BY IDOCK:   -9.75 KCAL/MOL
REMARK 923 INTER-LIGAND FREE ENERGY PREDICTED BY IDOCK:   -8.39 KCAL/MOL
REMARK 924 INTRA-LIGAND FREE ENERGY PREDICTED BY IDOCK:   -1.36 KCAL/MOL
REMARK 927      BINDING AFFINITY PREDICTED BY RF-SCORE:    0.00 PKD
ROOT
HETATM    1 NA   UNL     1     -10.774  10.060  65.692  1.00  0.00    -0.242 Na 
HETATM    2  C   UNL     2     -10.467   7.307  67.029  1.00  0.00    -0.398 C  
HETATM    3  C   UNL     2     -10.239   7.535  68.514  1.00  0.00    -0.216 C  
ENDROOT
BRANCH   3   4
HETATM    4  C   UNL     2     -11.298   6.812  69.339  1.00  0.00    -0.255 C  
BRANCH   4   5
HETATM    5  C   UNL     2     -10.762   6.405  70.708  1.00  0.00    -0.302 C  
BRANCH   5   6
HETATM    6  C   UNL     2     -11.837   6.593  71.776  1.00  0.00    -0.380 C  
BRANCH   6   7
HETATM    7  C   UNL     2     -11.836   8.017  72.319  1.00  0.00    -0.424 C  
BRANCH   7   8
HETATM    8  C   UNL     2     -13.226   8.635  72.206  1.00  0.00    -0.410 C  
BRANCH   8   9
HETATM    9  C   UNL     2     -13.137  10.103  71.804  1.00  0.00    -0.568 C  
BRANCH   9  10
HETATM   10  C   UNL     2     -11.840  10.384  71.049  1.00  0.00    -0.458 C  
BRANCH  10  11
HETATM   11  C   UNL     2     -12.013  11.573  70.110  1.00  0.00    -0.452 C  
BRANCH  11  12
HETATM   12  C   UNL     2     -11.851  11.153  68.653  1.00  0.00    -0.357 C  
BRANCH  12  13
HETATM   13  C   UNL     2     -11.557  12.361  67.770  1.00  0.00    -0.352 C  
BRANCH  13  14
HETATM   14  O   UNL     2     -11.899  12.080  66.410  1.00  0.00    -0.578 OA 
BRANCH  14  15
HETATM   15  C   UNL     2     -12.520  13.096  65.735  1.00  0.00    -0.377 C  
HETATM   16  O   UNL     2     -13.256  12.919  64.769  1.00  0.00    -0.764 OA 
BRANCH  15  17
HETATM   17  C   UNL     2     -12.051  14.421  66.216  1.00  0.00    -0.366 C  
HETATM   18  S   UNL     2     -11.081  15.216  64.988  1.00  0.00    -0.419 S  
HETATM   19  O   UNL     2      -9.961  14.305  64.766  1.00  0.00    -0.280 OA 
HETATM   20  O   UNL     2     -10.718  16.472  65.642  1.00  0.00    -0.331 OA 
HETATM   21  O   UNL     2     -11.989  15.369  63.851  1.00  0.00    -0.466 OA 
ENDBRANCH  15  17
ENDBRANCH  14  15
ENDBRANCH  13  14
ENDBRANCH  12  13
ENDBRANCH  11  12
ENDBRANCH  10  11
ENDBRANCH   9  10
ENDBRANCH   8   9
ENDBRANCH   7   8
ENDBRANCH   6   7
ENDBRANCH   5   6
ENDBRANCH   4   5
ENDBRANCH   3   4
TORSDOF 13
ENDMDL
MODEL       15
REMARK 921   NORMALIZED FREE ENERGY PREDICTED BY IDOCK:   -4.64 KCAL/MOL
REMARK 922        TOTAL FREE ENERGY PREDICTED BY IDOCK:   -9.73 KCAL/MOL
REMARK 923 INTER-LIGAND FREE ENERGY PREDICTED BY IDOCK:   -8.71 KCAL/MOL
REMARK 924 INTRA-LIGAND FREE ENERGY PREDICTED BY IDOCK:   -1.02 KCAL/MOL
REMARK 927      BINDING AFFINITY PREDICTED BY RF-SCORE:    0.00 PKD
ROOT
HETATM    1 NA   UNL     1     -13.071  14.535  62.933  1.00  0.00    -0.812 Na 
HETATM    2  C   UNL     2     -11.880  12.285  64.659  1.00  0.00    -0.435 C  
HETATM    3  C   UNL     2     -11.081  12.933  65.778  1.00  0.00    -0.312 C  
ENDROOT
BRANCH   3   4
HETATM    4  C   UNL     2     -11.594  12.475  67.140  1.00  0.00    -0.437 C  
BRANCH   4   5
HETATM    5  C   UNL     2     -11.252  11.011  67.406  1.00  0.00    -0.355 C  
BRANCH   5   6
HETATM    6  C   UNL     2     -11.305  10.718  68.903  1.00  0.00    -0.349 C  
BRANCH   6   7
HETATM    7  C   UNL     2     -11.936  11.873  69.672  1.00  0.00    -0.365 C  
BRANCH   7   8
HETATM    8  C   UNL     2     -12.461  11.394  71.022  1.00  0.00    -0.486 C  
BRANCH   8   9
HETATM    9  C   UNL     2     -13.060  12.551  71.814  1.00  0.00    -0.450 C  
BRANCH   9  10
HETATM   10  C   UNL     2     -12.881  13.871  71.068  1.00  0.00    -0.394 C  
BRANCH  10  11
HETATM   11  C   UNL     2     -12.099  14.866  71.920  1.00  0.00    -0.435 C  
BRANCH  11  12
HETATM   12  C   UNL     2     -11.570  16.020  71.075  1.00  0.00    -0.472 C  
BRANCH  12  13
HETATM   13  C   UNL     2     -10.873  15.500  69.822  1.00  0.00    -0.296 C  
BRANCH  13  14
HETATM   14  O   UNL     2     -11.102  16.383  68.720  1.00  0.00    -0.328 OA 
BRANCH  14  15
HETATM   15  C   UNL     2     -10.071  17.231  68.419  1.00  0.00    -0.333 C  
HETATM   16  O   UNL     2      -8.909  17.037  68.765  1.00  0.00    -0.263 OA 
BRANCH  15  17
HETATM   17  C   UNL     2     -10.573  18.475  67.781  1.00  0.00    -0.385 C  
HETATM   18  S   UNL     2     -10.120  18.524  66.085  1.00  0.00    -0.318 S  
HETATM   19  O   UNL     2      -8.661  18.487  66.099  1.00  0.00    -0.456 OA 
HETATM   20  O   UNL     2     -10.689  19.799  65.648  1.00  0.00    -0.505 OA 
HETATM   21  O   UNL     2     -10.764  17.347  65.503  1.00  0.00    -0.530 OA 
ENDBRANCH  15  17
ENDBRANCH  14  15
ENDBRANCH  13  14
ENDBRANCH  12  13
ENDBRANCH  11  12
ENDBRANCH  10  11
ENDBRANCH   9  10
ENDBRANCH   8   9
ENDBRANCH   7   8
ENDBRANCH   6   7
ENDBRANCH   5   6
ENDBRANCH   4   5
ENDBRANCH   3   4
TORSDOF 13
ENDMDL
MODEL       16
REMARK 921   NORMALIZED FREE ENERGY PREDICTED BY IDOCK:   -4.64 KCAL/MOL
REMARK 922        TOTAL FREE ENERGY PREDICTED BY IDOCK:   -9.73 KCAL/MOL
REMARK 923 INTER-LIGAND FREE ENERGY PREDICTED BY IDOCK:   -7.94 KCAL/MOL
REMARK 924 INTRA-LIGAND FREE ENERGY PREDICTED BY IDOCK:   -1.79 KCAL/MOL
REMARK 927      BINDING AFFINITY PREDICTED BY RF-SCORE:    0.00 PKD
ROOT
HETATM    1 NA   UNL     1     -10.876  12.605  69.985  1.00  0.00    -0.438 Na 
HETATM    2  C   UNL     2     -12.918  11.251  71.843  1.00  0.00    -0.471 C  
HETATM    3  C   UNL     2     -13.269   9.901  71.241  1.00  0.00    -0.465 C  
ENDROOT
BRANCH   3   4
HETATM    4  C   UNL     2     -12.980   8.778  72.231  1.00  0.00    -0.462 C  
BRANCH   4   5
HETATM    5  C   UNL     2     -12.774   7.442  71.521  1.00  0.00    -0.409 C  
BRANCH   5   6
HETATM    6  C   UNL     2     -11.481   6.784  71.994  1.00  0.00    -0.317 C  
BRANCH   6   7
HETATM    7  C   UNL     2     -10.836   7.578  73.124  1.00  0.00    -0.448 C  
BRANCH   7   8
HETATM    8  C   UNL     2      -9.455   8.076  72.709  1.00  0.00    -0.336 C  
BRANCH   8   9
HETATM    9  C   UNL     2      -9.251   7.923  71.206  1.00  0.00    -0.170 C  
BRANCH   9  10
HETATM   10  C   UNL     2      -9.598   9.218  70.475  1.00  0.00    -0.317 C  
BRANCH  10  11
HETATM   11  C   UNL     2     -10.077   8.921  69.057  1.00  0.00    -0.205 C  
BRANCH  11  12
HETATM   12  C   UNL     2     -10.857  10.097  68.481  1.00  0.00    -0.278 C  
BRANCH  12  13
HETATM   13  C   UNL     2     -10.108  10.722  67.308  1.00  0.00    -0.196 C  
BRANCH  13  14
HETATM   14  O   UNL     2     -10.163  12.149  67.384  1.00  0.00    -0.197 OA 
BRANCH  14  15
HETATM   15  C   UNL     2     -11.348  12.715  67.001  1.00  0.00    -0.323 C  
HETATM   16  O   UNL     2     -12.074  13.351  67.760  1.00  0.00    -0.338 OA 
BRANCH  15  17
HETATM   17  C   UNL     2     -11.708  12.315  65.616  1.00  0.00    -0.382 C  
HETATM   18  S   UNL     2     -11.999  13.732  64.620  1.00  0.00    -0.437 S  
HETATM   19  O   UNL     2     -13.108  14.416  65.280  1.00  0.00    -0.629 OA 
HETATM   20  O   UNL     2     -12.337  13.139  63.327  1.00  0.00    -0.712 OA 
HETATM   21  O   UNL     2     -10.728  14.455  64.638  1.00  0.00    -0.405 OA 
ENDBRANCH  15  17
ENDBRANCH  14  15
ENDBRANCH  13  14
ENDBRANCH  12  13
ENDBRANCH  11  12
ENDBRANCH  10  11
ENDBRANCH   9  10
ENDBRANCH   8   9
ENDBRANCH   7   8
ENDBRANCH   6   7
ENDBRANCH   5   6
ENDBRANCH   4   5
ENDBRANCH   3   4
TORSDOF 13
ENDMDL
MODEL       17
REMARK 921   NORMALIZED FREE ENERGY PREDICTED BY IDOCK:   -4.63 KCAL/MOL
REMARK 922        TOTAL FREE ENERGY PREDICTED BY IDOCK:   -9.71 KCAL/MOL
REMARK 923 INTER-LIGAND FREE ENERGY PREDICTED BY IDOCK:   -8.62 KCAL/MOL
REMARK 924 INTRA-LIGAND FREE ENERGY PREDICTED BY IDOCK:   -1.10 KCAL/MOL
REMARK 927      BINDING AFFINITY PREDICTED BY RF-SCORE:    0.00 PKD
ROOT
HETATM    1 NA   UNL     1     -13.807  12.992  65.026  1.00  0.00    -0.696 Na 
HETATM    2  C   UNL     2     -11.349  12.236  66.713  1.00  0.00    -0.395 C  
HETATM    3  C   UNL     2     -11.780  12.195  68.169  1.00  0.00    -0.402 C  
ENDROOT
BRANCH   3   4
HETATM    4  C   UNL     2     -11.492  10.827  68.779  1.00  0.00    -0.364 C  
BRANCH   4   5
HETATM    5  C   UNL     2     -11.891  10.772  70.250  1.00  0.00    -0.438 C  
BRANCH   5   6
HETATM    6  C   UNL     2     -12.420  12.129  70.708  1.00  0.00    -0.362 C  
BRANCH   6   7
HETATM    7  C   UNL     2     -13.264  11.998  71.970  1.00  0.00    -0.481 C  
BRANCH   7   8
HETATM    8  C   UNL     2     -13.657  13.376  72.497  1.00  0.00    -0.659 C  
BRANCH   8   9
HETATM    9  C   UNL     2     -13.465  14.443  71.426  1.00  0.00    -0.422 C  
BRANCH   9  10
HETATM   10  C   UNL     2     -12.695  15.639  71.980  1.00  0.00    -0.508 C  
BRANCH  10  11
HETATM   11  C   UNL     2     -11.581  16.050  71.023  1.00  0.00    -0.472 C  
BRANCH  11  12
HETATM   12  C   UNL     2     -11.724  15.349  69.676  1.00  0.00    -0.355 C  
BRANCH  12  13
HETATM   13  C   UNL     2     -10.800  15.977  68.638  1.00  0.00    -0.301 C  
BRANCH  13  14
HETATM   14  O   UNL     2     -11.006  17.392  68.577  1.00  0.00    -0.251 OA 
BRANCH  14  15
HETATM   15  C   UNL     2      -9.874  18.157  68.660  1.00  0.00    -0.377 C  
HETATM   16  O   UNL     2      -9.854  19.290  69.132  1.00  0.00    -0.412 OA 
BRANCH  15  17
HETATM   17  C   UNL     2      -8.737  17.507  67.959  1.00  0.00    -0.254 C  
HETATM   18  S   UNL     2      -8.565  18.149  66.334  1.00  0.00    -0.186 S  
HETATM   19  O   UNL     2      -9.837  17.839  65.686  1.00  0.00    -0.528 OA 
HETATM   20  O   UNL     2      -7.423  17.394  65.820  1.00  0.00    -0.453 OA 
HETATM   21  O   UNL     2      -8.304  19.574  66.534  1.00  0.00    -0.298 OA 
ENDBRANCH  15  17
ENDBRANCH  14  15
ENDBRANCH  13  14
ENDBRANCH  12  13
ENDBRANCH  11  12
ENDBRANCH  10  11
ENDBRANCH   9  10
ENDBRANCH   8   9
ENDBRANCH   7   8
ENDBRANCH   6   7
ENDBRANCH   5   6
ENDBRANCH   4   5
ENDBRANCH   3   4
TORSDOF 13
ENDMDL
MODEL       18
REMARK 921   NORMALIZED FREE ENERGY PREDICTED BY IDOCK:   -4.61 KCAL/MOL
REMARK 922        TOTAL FREE ENERGY PREDICTED BY IDOCK:   -9.68 KCAL/MOL
REMARK 923 INTER-LIGAND FREE ENERGY PREDICTED BY IDOCK:   -8.87 KCAL/MOL
REMARK 924 INTRA-LIGAND FREE ENERGY PREDICTED BY IDOCK:   -0.80 KCAL/MOL
REMARK 927      BINDING AFFINITY PREDICTED BY RF-SCORE:    0.00 PKD
ROOT
HETATM    1 NA   UNL     1     -12.237   6.367  68.576  1.00  0.00    -0.499 Na 
HETATM    2  C   UNL     2     -12.932   7.184  71.458  1.00  0.00    -0.431 C  
HETATM    3  C   UNL     2     -12.262   8.519  71.736  1.00  0.00    -0.388 C  
ENDROOT
BRANCH   3   4
HETATM    4  C   UNL     2     -13.293   9.563  72.152  1.00  0.00    -0.545 C  
BRANCH   4   5
HETATM    5  C   UNL     2     -12.944  10.945  71.607  1.00  0.00    -0.569 C  
BRANCH   5   6
HETATM    6  C   UNL     2     -12.561  10.853  70.133  1.00  0.00    -0.304 C  
BRANCH   6   7
HETATM    7  C   UNL     2     -11.398  11.782  69.803  1.00  0.00    -0.245 C  
BRANCH   7   8
HETATM    8  C   UNL     2     -11.831  12.845  68.797  1.00  0.00    -0.353 C  
BRANCH   8   9
HETATM    9  C   UNL     2     -10.873  14.031  68.814  1.00  0.00    -0.279 C  
BRANCH   9  10
HETATM   10  C   UNL     2     -11.469  15.201  69.591  1.00  0.00    -0.314 C  
BRANCH  10  11
HETATM   11  C   UNL     2     -11.339  16.496  68.795  1.00  0.00    -0.221 C  
BRANCH  11  12
HETATM   12  C   UNL     2     -10.079  16.492  67.937  1.00  0.00    -0.256 C  
BRANCH  12  13
HETATM   13  C   UNL     2     -10.342  17.144  66.584  1.00  0.00    -0.310 C  
BRANCH  13  14
HETATM   14  O   UNL     2     -10.167  16.193  65.530  1.00  0.00    -0.414 OA 
BRANCH  14  15
HETATM   15  C   UNL     2     -11.277  15.944  64.769  1.00  0.00    -0.355 C  
HETATM   16  O   UNL     2     -11.657  16.679  63.861  1.00  0.00    -1.204 OA 
BRANCH  15  17
HETATM   17  C   UNL     2     -12.037  14.782  65.297  1.00  0.00    -0.198 C  
HETATM   18  S   UNL     2     -12.042  13.468  64.132  1.00  0.00    -0.411 S  
HETATM   19  O   UNL     2     -12.690  14.033  62.952  1.00  0.00    -0.447 OA 
HETATM   20  O   UNL     2     -12.827  12.444  64.821  1.00  0.00    -0.728 OA 
HETATM   21  O   UNL     2     -10.630  13.130  63.960  1.00  0.00    -0.402 OA 
ENDBRANCH  15  17
ENDBRANCH  14  15
ENDBRANCH  13  14
ENDBRANCH  12  13
ENDBRANCH  11  12
ENDBRANCH  10  11
ENDBRANCH   9  10
ENDBRANCH   8   9
ENDBRANCH   7   8
ENDBRANCH   6   7
ENDBRANCH   5   6
ENDBRANCH   4   5
ENDBRANCH   3   4
TORSDOF 13
ENDMDL
MODEL       19
REMARK 921   NORMALIZED FREE ENERGY PREDICTED BY IDOCK:   -4.59 KCAL/MOL
REMARK 922        TOTAL FREE ENERGY PREDICTED BY IDOCK:   -9.64 KCAL/MOL
REMARK 923 INTER-LIGAND FREE ENERGY PREDICTED BY IDOCK:   -8.24 KCAL/MOL
REMARK 924 INTRA-LIGAND FREE ENERGY PREDICTED BY IDOCK:   -1.40 KCAL/MOL
REMARK 927      BINDING AFFINITY PREDICTED BY RF-SCORE:    0.00 PKD
ROOT
HETATM    1 NA   UNL     1     -12.357  14.577  62.505  1.00  0.00    -0.905 Na 
HETATM    2  C   UNL     2     -12.131  11.861  63.931  1.00  0.00    -0.505 C  
HETATM    3  C   UNL     2     -10.712  11.354  63.741  1.00  0.00    -0.470 C  
ENDROOT
BRANCH   3   4
HETATM    4  C   UNL     2     -10.047  11.097  65.089  1.00  0.00    -0.335 C  
BRANCH   4   5
HETATM    5  C   UNL     2      -9.758   9.614  65.300  1.00  0.00    -0.330 C  
BRANCH   5   6
HETATM    6  C   UNL     2     -10.137   9.196  66.719  1.00  0.00    -0.341 C  
BRANCH   6   7
HETATM    7  C   UNL     2      -9.432  10.061  67.758  1.00  0.00    -0.157 C  
BRANCH   7   8
HETATM    8  C   UNL     2     -10.282  10.183  69.020  1.00  0.00    -0.221 C  
BRANCH   8   9
HETATM    9  C   UNL     2     -11.576  10.935  68.733  1.00  0.00    -0.378 C  
BRANCH   9  10
HETATM   10  C   UNL     2     -11.693  12.174  69.617  1.00  0.00    -0.396 C  
BRANCH  10  11
HETATM   11  C   UNL     2     -12.024  13.403  68.776  1.00  0.00    -0.359 C  
BRANCH  11  12
HETATM   12  C   UNL     2     -11.201  13.432  67.493  1.00  0.00    -0.309 C  
BRANCH  12  13
HETATM   13  C   UNL     2     -11.668  14.556  66.574  1.00  0.00    -0.368 C  
BRANCH  13  14
HETATM   14  O   UNL     2     -10.594  14.994  65.736  1.00  0.00    -0.303 OA 
BRANCH  14  15
HETATM   15  C   UNL     2      -9.687  15.831  66.328  1.00  0.00    -0.302 C  
HETATM   16  O   UNL     2      -8.478  15.619  66.347  1.00  0.00    -0.284 OA 
BRANCH  15  17
HETATM   17  C   UNL     2     -10.372  16.917  67.075  1.00  0.00    -0.307 C  
HETATM   18  S   UNL     2     -10.354  18.410  66.150  1.00  0.00    -0.350 S  
HETATM   19  O   UNL     2      -8.935  18.704  65.967  1.00  0.00    -0.489 OA 
HETATM   20  O   UNL     2     -11.054  19.335  67.039  1.00  0.00    -0.391 OA 
HETATM   21  O   UNL     2     -11.081  18.085  64.924  1.00  0.00    -0.738 OA 
ENDBRANCH  15  17
ENDBRANCH  14  15
ENDBRANCH  13  14
ENDBRANCH  12  13
ENDBRANCH  11  12
ENDBRANCH  10  11
ENDBRANCH   9  10
ENDBRANCH   8   9
ENDBRANCH   7   8
ENDBRANCH   6   7
ENDBRANCH   5   6
ENDBRANCH   4   5
ENDBRANCH   3   4
TORSDOF 13
ENDMDL
MODEL       20
REMARK 921   NORMALIZED FREE ENERGY PREDICTED BY IDOCK:   -4.59 KCAL/MOL
REMARK 922        TOTAL FREE ENERGY PREDICTED BY IDOCK:   -9.64 KCAL/MOL
REMARK 923 INTER-LIGAND FREE ENERGY PREDICTED BY IDOCK:   -8.90 KCAL/MOL
REMARK 924 INTRA-LIGAND FREE ENERGY PREDICTED BY IDOCK:   -0.74 KCAL/MOL
REMARK 927      BINDING AFFINITY PREDICTED BY RF-SCORE:    0.00 PKD
ROOT
HETATM    1 NA   UNL     1     -10.508   6.218  70.517  1.00  0.00    -0.178 Na 
HETATM    2  C   UNL     2     -10.536   9.221  71.182  1.00  0.00    -0.401 C  
HETATM    3  C   UNL     2     -10.708   9.983  69.879  1.00  0.00    -0.328 C  
ENDROOT
BRANCH   3   4
HETATM    4  C   UNL     2     -11.939  10.881  69.938  1.00  0.00    -0.430 C  
BRANCH   4   5
HETATM    5  C   UNL     2     -12.982  10.340  70.911  1.00  0.00    -0.456 C  
BRANCH   5   6
HETATM    6  C   UNL     2     -13.285  11.373  71.994  1.00  0.00    -0.432 C  
BRANCH   6   7
HETATM    7  C   UNL     2     -12.822  12.764  71.577  1.00  0.00    -0.369 C  
BRANCH   7   8
HETATM    8  C   UNL     2     -13.386  13.822  72.521  1.00  0.00    -0.656 C  
BRANCH   8   9
HETATM    9  C   UNL     2     -12.654  15.148  72.350  1.00  0.00    -0.433 C  
BRANCH   9  10
HETATM   10  C   UNL     2     -12.699  15.612  70.896  1.00  0.00    -0.500 C  
BRANCH  10  11
HETATM   11  C   UNL     2     -11.297  15.946  70.396  1.00  0.00    -0.399 C  
BRANCH  11  12
HETATM   12  C   UNL     2     -10.882  15.022  69.257  1.00  0.00    -0.263 C  
BRANCH  12  13
HETATM   13  C   UNL     2     -11.070  15.707  67.907  1.00  0.00    -0.324 C  
BRANCH  13  14
HETATM   14  O   UNL     2      -9.995  15.373  67.024  1.00  0.00    -0.233 OA 
BRANCH  14  15
HETATM   15  C   UNL     2     -10.203  15.668  65.704  1.00  0.00    -0.375 C  
HETATM   16  O   UNL     2     -10.392  16.806  65.284  1.00  0.00    -0.622 OA 
BRANCH  15  17
HETATM   17  C   UNL     2     -10.336  14.429  64.895  1.00  0.00    -0.389 C  
HETATM   18  S   UNL     2     -12.022  14.117  64.516  1.00  0.00    -0.461 S  
HETATM   19  O   UNL     2     -12.664  13.971  65.820  1.00  0.00    -0.516 OA 
HETATM   20  O   UNL     2     -11.942  12.881  63.739  1.00  0.00    -0.435 OA 
HETATM   21  O   UNL     2     -12.442  15.287  63.746  1.00  0.00    -0.698 OA 
ENDBRANCH  15  17
ENDBRANCH  14  15
ENDBRANCH  13  14
ENDBRANCH  12  13
ENDBRANCH  11  12
ENDBRANCH  10  11
ENDBRANCH   9  10
ENDBRANCH   8   9
ENDBRANCH   7   8
ENDBRANCH   6   7
ENDBRANCH   5   6
ENDBRANCH   4   5
ENDBRANCH   3   4
TORSDOF 13
ENDMDL
MODEL       21
REMARK 921   NORMALIZED FREE ENERGY PREDICTED BY IDOCK:   -4.57 KCAL/MOL
REMARK 922        TOTAL FREE ENERGY PREDICTED BY IDOCK:   -9.61 KCAL/MOL
REMARK 923 INTER-LIGAND FREE ENERGY PREDICTED BY IDOCK:   -8.29 KCAL/MOL
REMARK 924 INTRA-LIGAND FREE ENERGY PREDICTED BY IDOCK:   -1.33 KCAL/MOL
REMARK 927      BINDING AFFINITY PREDICTED BY RF-SCORE:    0.00 PKD
ROOT
HETATM    1 NA   UNL     1     -12.208   6.717  66.919  1.00  0.00    -0.683 Na 
HETATM    2  C   UNL     2     -10.797   6.041  69.566  1.00  0.00    -0.439 C  
HETATM    3  C   UNL     2      -9.307   6.267  69.369  1.00  0.00    -0.145 C  
ENDROOT
BRANCH   3   4
HETATM    4  C   UNL     2      -8.775   7.270  70.388  1.00  0.00    -0.146 C  
BRANCH   4   5
HETATM    5  C   UNL     2      -9.821   8.324  70.737  1.00  0.00    -0.205 C  
BRANCH   5   6
HETATM    6  C   UNL     2      -9.914   8.498  72.251  1.00  0.00    -0.385 C  
BRANCH   6   7
HETATM    7  C   UNL     2     -11.324   8.212  72.756  1.00  0.00    -0.406 C  
BRANCH   7   8
HETATM    8  C   UNL     2     -12.356   8.550  71.684  1.00  0.00    -0.371 C  
BRANCH   8   9
HETATM    9  C   UNL     2     -13.341   9.598  72.189  1.00  0.00    -0.545 C  
BRANCH   9  10
HETATM   10  C   UNL     2     -13.071  10.956  71.544  1.00  0.00    -0.503 C  
BRANCH  10  11
HETATM   11  C   UNL     2     -12.757  10.792  70.060  1.00  0.00    -0.176 C  
BRANCH  11  12
HETATM   12  C   UNL     2     -11.426  11.444  69.702  1.00  0.00    -0.380 C  
BRANCH  12  13
HETATM   13  C   UNL     2     -11.626  12.557  68.678  1.00  0.00    -0.314 C  
BRANCH  13  14
HETATM   14  O   UNL     2     -12.144  12.023  67.456  1.00  0.00    -0.555 OA 
BRANCH  14  15
HETATM   15  C   UNL     2     -11.244  11.915  66.431  1.00  0.00    -0.331 C  
HETATM   16  O   UNL     2     -10.361  11.063  66.387  1.00  0.00    -0.235 OA 
BRANCH  15  17
HETATM   17  C   UNL     2     -11.373  13.055  65.486  1.00  0.00    -0.300 C  
HETATM   18  S   UNL     2     -12.187  12.548  64.015  1.00  0.00    -0.501 S  
HETATM   19  O   UNL     2     -11.328  11.501  63.469  1.00  0.00    -0.408 OA 
HETATM   20  O   UNL     2     -12.210  13.782  63.231  1.00  0.00    -0.642 OA 
HETATM   21  O   UNL     2     -13.503  12.096  64.466  1.00  0.00    -0.614 OA 
ENDBRANCH  15  17
ENDBRANCH  14  15
ENDBRANCH  13  14
ENDBRANCH  12  13
ENDBRANCH  11  12
ENDBRANCH  10  11
ENDBRANCH   9  10
ENDBRANCH   8   9
ENDBRANCH   7   8
ENDBRANCH   6   7
ENDBRANCH   5   6
ENDBRANCH   4   5
ENDBRANCH   3   4
TORSDOF 13
ENDMDL
MODEL       22
REMARK 921   NORMALIZED FREE ENERGY PREDICTED BY IDOCK:   -4.56 KCAL/MOL
REMARK 922        TOTAL FREE ENERGY PREDICTED BY IDOCK:   -9.59 KCAL/MOL
REMARK 923 INTER-LIGAND FREE ENERGY PREDICTED BY IDOCK:   -8.37 KCAL/MOL
REMARK 924 INTRA-LIGAND FREE ENERGY PREDICTED BY IDOCK:   -1.23 KCAL/MOL
REMARK 927      BINDING AFFINITY PREDICTED BY RF-SCORE:    0.00 PKD
ROOT
HETATM    1 NA   UNL     1     -11.199  13.057  70.337  1.00  0.00    -0.452 Na 
HETATM    2  C   UNL     2     -13.062  10.885  71.464  1.00  0.00    -0.503 C  
HETATM    3  C   UNL     2     -12.567   9.541  70.958  1.00  0.00    -0.331 C  
ENDROOT
BRANCH   3   4
HETATM    4  C   UNL     2     -12.259   8.606  72.123  1.00  0.00    -0.453 C  
BRANCH   4   5
HETATM    5  C   UNL     2     -12.379   7.141  71.716  1.00  0.00    -0.385 C  
BRANCH   5   6
HETATM    6  C   UNL     2     -11.011   6.465  71.756  1.00  0.00    -0.298 C  
BRANCH   6   7
HETATM    7  C   UNL     2     -10.747   5.671  70.482  1.00  0.00    -0.344 C  
BRANCH   7   8
HETATM    8  C   UNL     2     -11.403   6.349  69.283  1.00  0.00    -0.405 C  
BRANCH   8   9
HETATM    9  C   UNL     2     -10.637   6.045  68.000  1.00  0.00    -0.330 C  
BRANCH   9  10
HETATM   10  C   UNL     2     -10.580   7.273  67.095  1.00  0.00    -0.416 C  
BRANCH  10  11
HETATM   11  C   UNL     2     -10.577   8.552  67.926  1.00  0.00    -0.219 C  
BRANCH  11  12
HETATM   12  C   UNL     2     -10.558   9.789  67.035  1.00  0.00    -0.269 C  
BRANCH  12  13
HETATM   13  C   UNL     2     -11.005  11.024  67.811  1.00  0.00    -0.269 C  
BRANCH  13  14
HETATM   14  O   UNL     2     -11.923  11.797  67.032  1.00  0.00    -0.610 OA 
BRANCH  14  15
HETATM   15  C   UNL     2     -11.757  13.154  67.099  1.00  0.00    -0.377 C  
HETATM   16  O   UNL     2     -11.175  13.722  68.019  1.00  0.00    -0.248 OA 
BRANCH  15  17
HETATM   17  C   UNL     2     -12.510  13.838  66.017  1.00  0.00    -0.445 C  
HETATM   18  S   UNL     2     -11.717  13.603  64.468  1.00  0.00    -0.418 S  
HETATM   19  O   UNL     2     -10.393  14.193  64.647  1.00  0.00    -0.432 OA 
HETATM   20  O   UNL     2     -12.590  14.342  63.557  1.00  0.00    -0.814 OA 
HETATM   21  O   UNL     2     -11.728  12.154  64.271  1.00  0.00    -0.350 OA 
ENDBRANCH  15  17
ENDBRANCH  14  15
ENDBRANCH  13  14
ENDBRANCH  12  13
ENDBRANCH  11  12
ENDBRANCH  10  11
ENDBRANCH   9  10
ENDBRANCH   8   9
ENDBRANCH   7   8
ENDBRANCH   6   7
ENDBRANCH   5   6
ENDBRANCH   4   5
ENDBRANCH   3   4
TORSDOF 13
ENDMDL
MODEL       23
REMARK 921   NORMALIZED FREE ENERGY PREDICTED BY IDOCK:   -4.55 KCAL/MOL
REMARK 922        TOTAL FREE ENERGY PREDICTED BY IDOCK:   -9.58 KCAL/MOL
REMARK 923 INTER-LIGAND FREE ENERGY PREDICTED BY IDOCK:   -8.23 KCAL/MOL
REMARK 924 INTRA-LIGAND FREE ENERGY PREDICTED BY IDOCK:   -1.35 KCAL/MOL
REMARK 927      BINDING AFFINITY PREDICTED BY RF-SCORE:    0.00 PKD
ROOT
HETATM    1 NA   UNL     1      -8.697  12.599  69.311  1.00  0.00    -0.341 Na 
HETATM    2  C   UNL     2      -8.382   9.610  69.960  1.00  0.00    -0.197 C  
HETATM    3  C   UNL     2      -9.578   9.188  70.798  1.00  0.00    -0.338 C  
ENDROOT
BRANCH   3   4
HETATM    4  C   UNL     2     -10.324   8.038  70.131  1.00  0.00    -0.215 C  
BRANCH   4   5
HETATM    5  C   UNL     2     -11.498   7.561  70.982  1.00  0.00    -0.299 C  
BRANCH   5   6
HETATM    6  C   UNL     2     -11.630   8.424  72.234  1.00  0.00    -0.453 C  
BRANCH   6   7
HETATM    7  C   UNL     2     -13.028   9.020  72.352  1.00  0.00    -0.471 C  
BRANCH   7   8
HETATM    8  C   UNL     2     -13.269  10.045  71.247  1.00  0.00    -0.469 C  
BRANCH   8   9
HETATM    9  C   UNL     2     -13.114  11.465  71.781  1.00  0.00    -0.523 C  
BRANCH   9  10
HETATM   10  C   UNL     2     -12.645  12.412  70.680  1.00  0.00    -0.237 C  
BRANCH  10  11
HETATM   11  C   UNL     2     -11.594  11.738  69.804  1.00  0.00    -0.372 C  
BRANCH  11  12
HETATM   12  C   UNL     2     -11.893  11.947  68.324  1.00  0.00    -0.343 C  
BRANCH  12  13
HETATM   13  C   UNL     2     -11.844  13.428  67.964  1.00  0.00    -0.357 C  
BRANCH  13  14
HETATM   14  O   UNL     2     -10.600  13.748  67.334  1.00  0.00    -0.257 OA 
BRANCH  14  15
HETATM   15  C   UNL     2     -10.425  13.233  66.078  1.00  0.00    -0.286 C  
HETATM   16  O   UNL     2      -9.689  12.282  65.830  1.00  0.00    -0.247 OA 
BRANCH  15  17
HETATM   17  C   UNL     2     -11.101  14.075  65.057  1.00  0.00    -0.363 C  
HETATM   18  S   UNL     2     -12.093  13.085  63.999  1.00  0.00    -0.461 S  
HETATM   19  O   UNL     2     -11.150  12.157  63.382  1.00  0.00    -0.431 OA 
HETATM   20  O   UNL     2     -12.655  14.076  63.083  1.00  0.00    -0.733 OA 
HETATM   21  O   UNL     2     -13.073  12.468  64.894  1.00  0.00    -0.833 OA 
ENDBRANCH  15  17
ENDBRANCH  14  15
ENDBRANCH  13  14
ENDBRANCH  12  13
ENDBRANCH  11  12
ENDBRANCH  10  11
ENDBRANCH   9  10
ENDBRANCH   8   9
ENDBRANCH   7   8
ENDBRANCH   6   7
ENDBRANCH   5   6
ENDBRANCH   4   5
ENDBRANCH   3   4
TORSDOF 13
ENDMDL
MODEL       24
REMARK 921   NORMALIZED FREE ENERGY PREDICTED BY IDOCK:   -4.55 KCAL/MOL
REMARK 922        TOTAL FREE ENERGY PREDICTED BY IDOCK:   -9.57 KCAL/MOL
REMARK 923 INTER-LIGAND FREE ENERGY PREDICTED BY IDOCK:   -7.59 KCAL/MOL
REMARK 924 INTRA-LIGAND FREE ENERGY PREDICTED BY IDOCK:   -1.98 KCAL/MOL
REMARK 927      BINDING AFFINITY PREDICTED BY RF-SCORE:    0.00 PKD
ROOT
HETATM    1 NA   UNL     1     -12.956  15.943  68.748  1.00  0.00    -0.572 Na 
HETATM    2  C   UNL     2     -11.614  13.250  69.385  1.00  0.00    -0.364 C  
HETATM    3  C   UNL     2     -11.901  12.304  68.230  1.00  0.00    -0.367 C  
ENDROOT
BRANCH   3   4
HETATM    4  C   UNL     2     -10.602  11.780  67.627  1.00  0.00    -0.237 C  
BRANCH   4   5
HETATM    5  C   UNL     2     -10.732  10.324  67.190  1.00  0.00    -0.303 C  
BRANCH   5   6
HETATM    6  C   UNL     2      -9.604   9.956  66.230  1.00  0.00    -0.265 C  
BRANCH   6   7
HETATM    7  C   UNL     2      -9.317  11.089  65.252  1.00  0.00    -0.245 C  
BRANCH   7   8
HETATM    8  C   UNL     2     -10.161  10.934  63.990  1.00  0.00    -0.422 C  
BRANCH   8   9
HETATM    9  C   UNL     2     -10.740  12.276  63.555  1.00  0.00    -0.497 C  
BRANCH   9  10
HETATM   10  C   UNL     2     -12.177  12.434  64.046  1.00  0.00    -0.579 C  
BRANCH  10  11
HETATM   11  C   UNL     2     -12.321  13.700  64.884  1.00  0.00    -0.442 C  
BRANCH  11  12
HETATM   12  C   UNL     2     -10.980  14.405  65.054  1.00  0.00    -0.398 C  
BRANCH  12  13
HETATM   13  C   UNL     2     -11.019  15.370  66.234  1.00  0.00    -0.278 C  
BRANCH  13  14
HETATM   14  O   UNL     2      -9.788  15.320  66.961  1.00  0.00    -0.225 OA 
BRANCH  14  15
HETATM   15  C   UNL     2      -9.670  16.220  67.985  1.00  0.00    -0.230 C  
HETATM   16  O   UNL     2      -9.024  16.006  69.007  1.00  0.00    -0.218 OA 
BRANCH  15  17
HETATM   17  C   UNL     2     -10.554  17.394  67.768  1.00  0.00    -0.371 C  
HETATM   18  S   UNL     2      -9.624  18.768  67.191  1.00  0.00    -0.310 S  
HETATM   19  O   UNL     2      -8.656  19.022  68.255  1.00  0.00    -0.306 OA 
HETATM   20  O   UNL     2     -10.650  19.800  67.048  1.00  0.00    -0.458 OA 
HETATM   21  O   UNL     2      -9.048  18.311  65.927  1.00  0.00    -0.503 OA 
ENDBRANCH  15  17
ENDBRANCH  14  15
ENDBRANCH  13  14
ENDBRANCH  12  13
ENDBRANCH  11  12
ENDBRANCH  10  11
ENDBRANCH   9  10
ENDBRANCH   8   9
ENDBRANCH   7   8
ENDBRANCH   6   7
ENDBRANCH   5   6
ENDBRANCH   4   5
ENDBRANCH   3   4
TORSDOF 13
ENDMDL
MODEL       25
REMARK 921   NORMALIZED FREE ENERGY PREDICTED BY IDOCK:   -4.51 KCAL/MOL
REMARK 922        TOTAL FREE ENERGY PREDICTED BY IDOCK:   -9.51 KCAL/MOL
REMARK 923 INTER-LIGAND FREE ENERGY PREDICTED BY IDOCK:   -8.40 KCAL/MOL
REMARK 924 INTRA-LIGAND FREE ENERGY PREDICTED BY IDOCK:   -1.11 KCAL/MOL
REMARK 927      BINDING AFFINITY PREDICTED BY RF-SCORE:    0.00 PKD
ROOT
HETATM    1 NA   UNL     1     -12.176   5.229  65.018  1.00  0.00    -0.717 Na 
HETATM    2  C   UNL     2     -10.313   6.197  67.264  1.00  0.00    -0.272 C  
HETATM    3  C   UNL     2     -11.087   6.133  68.570  1.00  0.00    -0.352 C  
ENDROOT
BRANCH   3   4
HETATM    4  C   UNL     2     -10.364   5.251  69.582  1.00  0.00    -0.348 C  
BRANCH   4   5
HETATM    5  C   UNL     2     -10.967   5.387  70.978  1.00  0.00    -0.120 C  
BRANCH   5   6
HETATM    6  C   UNL     2      -9.985   6.089  71.913  1.00  0.00    -0.195 C  
BRANCH   6   7
HETATM    7  C   UNL     2     -10.716   6.829  73.028  1.00  0.00    -0.315 C  
BRANCH   7   8
HETATM    8  C   UNL     2     -11.089   8.240  72.579  1.00  0.00    -0.439 C  
BRANCH   8   9
HETATM    9  C   UNL     2      -9.959   8.871  71.775  1.00  0.00    -0.397 C  
BRANCH   9  10
HETATM   10  C   UNL     2     -10.502   9.583  70.538  1.00  0.00    -0.358 C  
BRANCH  10  11
HETATM   11  C   UNL     2     -11.973   9.938  70.727  1.00  0.00    -0.410 C  
BRANCH  11  12
HETATM   12  C   UNL     2     -12.423  10.984  69.712  1.00  0.00    -0.251 C  
BRANCH  12  13
HETATM   13  C   UNL     2     -11.487  11.008  68.508  1.00  0.00    -0.309 C  
BRANCH  13  14
HETATM   14  O   UNL     2     -12.045  11.805  67.459  1.00  0.00    -0.599 OA 
BRANCH  14  15
HETATM   15  C   UNL     2     -11.223  12.030  66.388  1.00  0.00    -0.337 C  
HETATM   16  O   UNL     2     -10.203  11.384  66.167  1.00  0.00    -0.224 OA 
BRANCH  15  17
HETATM   17  C   UNL     2     -11.635  13.250  65.646  1.00  0.00    -0.335 C  
HETATM   18  S   UNL     2     -12.243  12.828  64.054  1.00  0.00    -0.449 S  
HETATM   19  O   UNL     2     -11.117  12.165  63.401  1.00  0.00    -0.431 OA 
HETATM   20  O   UNL     2     -12.582  14.135  63.494  1.00  0.00    -0.834 OA 
HETATM   21  O   UNL     2     -13.396  11.969  64.321  1.00  0.00    -0.709 OA 
ENDBRANCH  15  17
ENDBRANCH  14  15
ENDBRANCH  13  14
ENDBRANCH  12  13
ENDBRANCH  11  12
ENDBRANCH  10  11
ENDBRANCH   9  10
ENDBRANCH   8   9
ENDBRANCH   7   8
ENDBRANCH   6   7
ENDBRANCH   5   6
ENDBRANCH   4   5
ENDBRANCH   3   4
TORSDOF 13
ENDMDL
MODEL       26
REMARK 921   NORMALIZED FREE ENERGY PREDICTED BY IDOCK:   -4.50 KCAL/MOL
REMARK 922        TOTAL FREE ENERGY PREDICTED BY IDOCK:   -9.47 KCAL/MOL
REMARK 923 INTER-LIGAND FREE ENERGY PREDICTED BY IDOCK:   -8.17 KCAL/MOL
REMARK 924 INTRA-LIGAND FREE ENERGY PREDICTED BY IDOCK:   -1.30 KCAL/MOL
REMARK 927      BINDING AFFINITY PREDICTED BY RF-SCORE:    0.00 PKD
ROOT
HETATM    1 NA   UNL     1      -9.638   7.916  74.514  1.00  0.00    -0.396 Na 
HETATM    2  C   UNL     2      -8.931   8.646  71.611  1.00  0.00    -0.305 C  
HETATM    3  C   UNL     2      -9.155   7.412  70.754  1.00  0.00    -0.151 C  
ENDROOT
BRANCH   3   4
HETATM    4  C   UNL     2     -10.146   7.708  69.633  1.00  0.00    -0.194 C  
BRANCH   4   5
HETATM    5  C   UNL     2     -11.312   6.723  69.639  1.00  0.00    -0.326 C  
BRANCH   5   6
HETATM    6  C   UNL     2     -11.737   6.413  71.072  1.00  0.00    -0.358 C  
BRANCH   6   7
HETATM    7  C   UNL     2     -12.986   7.196  71.461  1.00  0.00    -0.431 C  
BRANCH   7   8
HETATM    8  C   UNL     2     -12.609   8.454  72.238  1.00  0.00    -0.401 C  
BRANCH   8   9
HETATM    9  C   UNL     2     -13.617   9.570  71.986  1.00  0.00    -0.492 C  
BRANCH   9  10
HETATM   10  C   UNL     2     -12.907  10.888  71.685  1.00  0.00    -0.554 C  
BRANCH  10  11
HETATM   11  C   UNL     2     -11.782  10.674  70.679  1.00  0.00    -0.454 C  
BRANCH  11  12
HETATM   12  C   UNL     2     -12.258  10.936  69.254  1.00  0.00    -0.240 C  
BRANCH  12  13
HETATM   13  C   UNL     2     -11.812  12.315  68.779  1.00  0.00    -0.306 C  
BRANCH  13  14
HETATM   14  O   UNL     2     -12.380  12.609  67.499  1.00  0.00    -0.304 OA 
BRANCH  14  15
HETATM   15  C   UNL     2     -11.788  13.634  66.812  1.00  0.00    -0.413 C  
HETATM   16  O   UNL     2     -11.874  14.813  67.142  1.00  0.00    -0.374 OA 
BRANCH  15  17
HETATM   17  C   UNL     2     -11.185  13.147  65.544  1.00  0.00    -0.281 C  
HETATM   18  S   UNL     2     -12.336  13.276  64.224  1.00  0.00    -0.310 S  
HETATM   19  O   UNL     2     -13.456  12.435  64.636  1.00  0.00    -0.671 OA 
HETATM   20  O   UNL     2     -11.571  12.754  63.092  1.00  0.00    -0.445 OA 
HETATM   21  O   UNL     2     -12.633  14.706  64.141  1.00  0.00    -0.766 OA 
ENDBRANCH  15  17
ENDBRANCH  14  15
ENDBRANCH  13  14
ENDBRANCH  12  13
ENDBRANCH  11  12
ENDBRANCH  10  11
ENDBRANCH   9  10
ENDBRANCH   8   9
ENDBRANCH   7   8
ENDBRANCH   6   7
ENDBRANCH   5   6
ENDBRANCH   4   5
ENDBRANCH   3   4
TORSDOF 13
ENDMDL
MODEL       27
REMARK 921   NORMALIZED FREE ENERGY PREDICTED BY IDOCK:   -4.49 KCAL/MOL
REMARK 922        TOTAL FREE ENERGY PREDICTED BY IDOCK:   -9.47 KCAL/MOL
REMARK 923 INTER-LIGAND FREE ENERGY PREDICTED BY IDOCK:   -7.91 KCAL/MOL
REMARK 924 INTRA-LIGAND FREE ENERGY PREDICTED BY IDOCK:   -1.57 KCAL/MOL
REMARK 927      BINDING AFFINITY PREDICTED BY RF-SCORE:    0.00 PKD
ROOT
HETATM    1 NA   UNL     1     -12.087  11.200  62.443  1.00  0.00    -0.815 Na 
HETATM    2  C   UNL     2      -9.714  10.411  64.233  1.00  0.00    -0.389 C  
HETATM    3  C   UNL     2     -10.235  10.254  65.651  1.00  0.00    -0.301 C  
ENDROOT
BRANCH   3   4
HETATM    4  C   UNL     2      -9.934   8.857  66.184  1.00  0.00    -0.290 C  
BRANCH   4   5
HETATM    5  C   UNL     2      -9.152   8.911  67.493  1.00  0.00    -0.146 C  
BRANCH   5   6
HETATM    6  C   UNL     2     -10.063   8.574  68.670  1.00  0.00    -0.207 C  
BRANCH   6   7
HETATM    7  C   UNL     2      -9.558   9.207  69.961  1.00  0.00    -0.218 C  
BRANCH   7   8
HETATM    8  C   UNL     2     -10.710   9.848  70.730  1.00  0.00    -0.350 C  
BRANCH   8   9
HETATM    9  C   UNL     2     -11.812  10.301  69.780  1.00  0.00    -0.217 C  
BRANCH   9  10
HETATM   10  C   UNL     2     -11.978  11.818  69.822  1.00  0.00    -0.392 C  
BRANCH  10  11
HETATM   11  C   UNL     2     -11.762  12.419  68.437  1.00  0.00    -0.386 C  
BRANCH  11  12
HETATM   12  C   UNL     2     -10.278  12.590  68.134  1.00  0.00    -0.231 C  
BRANCH  12  13
HETATM   13  C   UNL     2      -9.944  14.053  67.863  1.00  0.00    -0.237 C  
BRANCH  13  14
HETATM   14  O   UNL     2     -10.941  14.645  67.026  1.00  0.00    -0.302 OA 
BRANCH  14  15
HETATM   15  C   UNL     2     -10.497  15.118  65.821  1.00  0.00    -0.339 C  
HETATM   16  O   UNL     2     -10.016  16.237  65.666  1.00  0.00    -0.436 OA 
BRANCH  15  17
HETATM   17  C   UNL     2     -10.828  14.174  64.722  1.00  0.00    -0.413 C  
HETATM   18  S   UNL     2     -12.531  14.283  64.308  1.00  0.00    -0.130 S  
HETATM   19  O   UNL     2     -13.227  13.928  65.542  1.00  0.00    -0.698 OA 
HETATM   20  O   UNL     2     -12.655  13.296  63.237  1.00  0.00    -0.711 OA 
HETATM   21  O   UNL     2     -12.710  15.668  63.873  1.00  0.00    -0.697 OA 
ENDBRANCH  15  17
ENDBRANCH  14  15
ENDBRANCH  13  14
ENDBRANCH  12  13
ENDBRANCH  11  12
ENDBRANCH  10  11
ENDBRANCH   9  10
ENDBRANCH   8   9
ENDBRANCH   7   8
ENDBRANCH   6   7
ENDBRANCH   5   6
ENDBRANCH   4   5
ENDBRANCH   3   4
TORSDOF 13
ENDMDL
MODEL       28
REMARK 921   NORMALIZED FREE ENERGY PREDICTED BY IDOCK:   -4.49 KCAL/MOL
REMARK 922        TOTAL FREE ENERGY PREDICTED BY IDOCK:   -9.47 KCAL/MOL
REMARK 923 INTER-LIGAND FREE ENERGY PREDICTED BY IDOCK:   -7.84 KCAL/MOL
REMARK 924 INTRA-LIGAND FREE ENERGY PREDICTED BY IDOCK:   -1.62 KCAL/MOL
REMARK 927      BINDING AFFINITY PREDICTED BY RF-SCORE:    0.00 PKD
ROOT
HETATM    1 NA   UNL     1      -9.603   8.867  64.035  1.00  0.00    -0.429 Na 
HETATM    2  C   UNL     2      -9.416   7.804  66.915  1.00  0.00    -0.238 C  
HETATM    3  C   UNL     2     -10.832   7.569  67.416  1.00  0.00    -0.272 C  
ENDROOT
BRANCH   3   4
HETATM    4  C   UNL     2     -11.014   6.120  67.854  1.00  0.00    -0.399 C  
BRANCH   4   5
HETATM    5  C   UNL     2     -10.776   5.952  69.352  1.00  0.00    -0.406 C  
BRANCH   5   6
HETATM    6  C   UNL     2     -11.851   6.691  70.146  1.00  0.00    -0.347 C  
BRANCH   6   7
HETATM    7  C   UNL     2     -11.233   7.600  71.202  1.00  0.00    -0.280 C  
BRANCH   7   8
HETATM    8  C   UNL     2     -12.075   8.860  71.384  1.00  0.00    -0.381 C  
BRANCH   8   9
HETATM    9  C   UNL     2     -11.431  10.049  70.680  1.00  0.00    -0.425 C  
BRANCH   9  10
HETATM   10  C   UNL     2      -9.984   9.742  70.304  1.00  0.00    -0.309 C  
BRANCH  10  11
HETATM   11  C   UNL     2      -9.539  10.607  69.129  1.00  0.00    -0.193 C  
BRANCH  11  12
HETATM   12  C   UNL     2     -10.737  11.217  68.409  1.00  0.00    -0.234 C  
BRANCH  12  13
HETATM   13  C   UNL     2     -10.429  11.432  66.931  1.00  0.00    -0.240 C  
BRANCH  13  14
HETATM   14  O   UNL     2     -10.260  12.825  66.654  1.00  0.00    -0.233 OA 
BRANCH  14  15
HETATM   15  C   UNL     2     -11.402  13.505  66.328  1.00  0.00    -0.309 C  
HETATM   16  O   UNL     2     -11.675  14.621  66.761  1.00  0.00    -0.373 OA 
BRANCH  15  17
HETATM   17  C   UNL     2     -12.322  12.652  65.533  1.00  0.00    -0.391 C  
HETATM   18  S   UNL     2     -12.176  13.013  63.821  1.00  0.00    -0.444 S  
HETATM   19  O   UNL     2     -12.537  14.424  63.717  1.00  0.00    -0.829 OA 
HETATM   20  O   UNL     2     -13.145  12.094  63.225  1.00  0.00    -0.693 OA 
HETATM   21  O   UNL     2     -10.781  12.706  63.505  1.00  0.00    -0.417 OA 
ENDBRANCH  15  17
ENDBRANCH  14  15
ENDBRANCH  13  14
ENDBRANCH  12  13
ENDBRANCH  11  12
ENDBRANCH  10  11
ENDBRANCH   9  10
ENDBRANCH   8   9
ENDBRANCH   7   8
ENDBRANCH   6   7
ENDBRANCH   5   6
ENDBRANCH   4   5
ENDBRANCH   3   4
TORSDOF 13
ENDMDL
MODEL       29
REMARK 921   NORMALIZED FREE ENERGY PREDICTED BY IDOCK:   -4.47 KCAL/MOL
REMARK 922        TOTAL FREE ENERGY PREDICTED BY IDOCK:   -9.43 KCAL/MOL
REMARK 923 INTER-LIGAND FREE ENERGY PREDICTED BY IDOCK:   -7.58 KCAL/MOL
REMARK 924 INTRA-LIGAND FREE ENERGY PREDICTED BY IDOCK:   -1.85 KCAL/MOL
REMARK 927      BINDING AFFINITY PREDICTED BY RF-SCORE:    0.00 PKD
ROOT
HETATM    1 NA   UNL     1     -14.144  14.002  65.350  1.00  0.00    -0.748 Na 
HETATM    2  C   UNL     2     -12.548  11.874  63.806  1.00  0.00    -0.509 C  
HETATM    3  C   UNL     2     -11.228  12.499  63.385  1.00  0.00    -0.460 C  
ENDROOT
BRANCH   3   4
HETATM    4  C   UNL     2     -10.054  11.688  63.923  1.00  0.00    -0.395 C  
BRANCH   4   5
HETATM    5  C   UNL     2     -10.503  10.673  64.970  1.00  0.00    -0.278 C  
BRANCH   5   6
HETATM    6  C   UNL     2      -9.526  10.653  66.143  1.00  0.00    -0.218 C  
BRANCH   6   7
HETATM    7  C   UNL     2     -10.205  10.175  67.421  1.00  0.00    -0.267 C  
BRANCH   7   8
HETATM    8  C   UNL     2     -11.372  11.089  67.782  1.00  0.00    -0.365 C  
BRANCH   8   9
HETATM    9  C   UNL     2     -10.882  12.497  68.100  1.00  0.00    -0.248 C  
BRANCH   9  10
HETATM   10  C   UNL     2     -11.901  13.543  67.653  1.00  0.00    -0.399 C  
BRANCH  10  11
HETATM   11  C   UNL     2     -11.346  14.373  66.500  1.00  0.00    -0.353 C  
BRANCH  11  12
HETATM   12  C   UNL     2      -9.824  14.437  66.549  1.00  0.00    -0.298 C  
BRANCH  12  13
HETATM   13  C   UNL     2      -9.332  15.860  66.299  1.00  0.00    -0.322 C  
BRANCH  13  14
HETATM   14  O   UNL     2      -8.890  16.456  67.522  1.00  0.00    -0.179 OA 
BRANCH  14  15
HETATM   15  C   UNL     2      -9.582  17.567  67.921  1.00  0.00    -0.277 C  
HETATM   16  O   UNL     2     -10.807  17.650  67.895  1.00  0.00    -0.374 OA 
BRANCH  15  17
HETATM   17  C   UNL     2      -8.659  18.692  68.220  1.00  0.00    -0.321 C  
HETATM   18  S   UNL     2      -8.639  19.843  66.894  1.00  0.00    -0.347 S  
HETATM   19  O   UNL     2      -8.175  19.066  65.748  1.00  0.00    -0.449 OA 
HETATM   20  O   UNL     2      -7.688  20.848  67.369  1.00  0.00    -0.335 OA 
HETATM   21  O   UNL     2     -10.020  20.316  66.803  1.00  0.00    -0.442 OA 
ENDBRANCH  15  17
ENDBRANCH  14  15
ENDBRANCH  13  14
ENDBRANCH  12  13
ENDBRANCH  11  12
ENDBRANCH  10  11
ENDBRANCH   9  10
ENDBRANCH   8   9
ENDBRANCH   7   8
ENDBRANCH   6   7
ENDBRANCH   5   6
ENDBRANCH   4   5
ENDBRANCH   3   4
TORSDOF 13
ENDMDL
MODEL       30
REMARK 921   NORMALIZED FREE ENERGY PREDICTED BY IDOCK:   -4.46 KCAL/MOL
REMARK 922        TOTAL FREE ENERGY PREDICTED BY IDOCK:   -9.42 KCAL/MOL
REMARK 923 INTER-LIGAND FREE ENERGY PREDICTED BY IDOCK:   -7.74 KCAL/MOL
REMARK 924 INTRA-LIGAND FREE ENERGY PREDICTED BY IDOCK:   -1.68 KCAL/MOL
REMARK 927      BINDING AFFINITY PREDICTED BY RF-SCORE:    0.00 PKD
ROOT
HETATM    1 NA   UNL     1      -8.102  12.642  66.006  1.00  0.00    -0.376 Na 
HETATM    2  C   UNL     2      -7.536  14.892  68.026  1.00  0.00    -0.133 C  
HETATM    3  C   UNL     2      -6.565  15.864  67.377  1.00  0.00    -0.222 C  
ENDROOT
BRANCH   3   4
HETATM    4  C   UNL     2      -7.153  17.271  67.346  1.00  0.00    -0.184 C  
BRANCH   4   5
HETATM    5  C   UNL     2      -7.034  17.900  65.961  1.00  0.00    -0.346 C  
BRANCH   5   6
HETATM    6  C   UNL     2      -7.342  19.394  66.028  1.00  0.00    -0.306 C  
BRANCH   6   7
HETATM    7  C   UNL     2      -7.986  19.767  67.358  1.00  0.00    -0.318 C  
BRANCH   7   8
HETATM    8  C   UNL     2      -9.341  20.432  67.130  1.00  0.00    -0.537 C  
BRANCH   8   9
HETATM    9  C   UNL     2     -10.342  19.440  66.549  1.00  0.00    -0.564 C  
BRANCH   9  10
HETATM   10  C   UNL     2     -10.887  18.516  67.636  1.00  0.00    -0.319 C  
BRANCH  10  11
HETATM   11  C   UNL     2     -10.628  17.056  67.278  1.00  0.00    -0.267 C  
BRANCH  11  12
HETATM   12  C   UNL     2     -11.061  16.127  68.406  1.00  0.00    -0.359 C  
BRANCH  12  13
HETATM   13  C   UNL     2     -11.647  14.833  67.849  1.00  0.00    -0.351 C  
BRANCH  13  14
HETATM   14  O   UNL     2     -11.465  14.773  66.432  1.00  0.00    -0.350 OA 
BRANCH  14  15
HETATM   15  C   UNL     2     -12.291  13.908  65.767  1.00  0.00    -0.486 C  
HETATM   16  O   UNL     2     -13.415  14.209  65.374  1.00  0.00    -0.648 OA 
BRANCH  15  17
HETATM   17  C   UNL     2     -11.719  12.538  65.740  1.00  0.00    -0.426 C  
HETATM   18  S   UNL     2     -10.987  12.204  64.180  1.00  0.00    -0.400 S  
HETATM   19  O   UNL     2     -12.087  12.338  63.228  1.00  0.00    -0.485 OA 
HETATM   20  O   UNL     2     -10.498  10.837  64.351  1.00  0.00    -0.365 OA 
HETATM   21  O   UNL     2      -9.932  13.209  64.052  1.00  0.00    -0.304 OA 
ENDBRANCH  15  17
ENDBRANCH  14  15
ENDBRANCH  13  14
ENDBRANCH  12  13
ENDBRANCH  11  12
ENDBRANCH  10  11
ENDBRANCH   9  10
ENDBRANCH   8   9
ENDBRANCH   7   8
ENDBRANCH   6   7
ENDBRANCH   5   6
ENDBRANCH   4   5
ENDBRANCH   3   4
TORSDOF 13
ENDMDL
MODEL       31
REMARK 921   NORMALIZED FREE ENERGY PREDICTED BY IDOCK:   -4.45 KCAL/MOL
REMARK 922        TOTAL FREE ENERGY PREDICTED BY IDOCK:   -9.40 KCAL/MOL
REMARK 923 INTER-LIGAND FREE ENERGY PREDICTED BY IDOCK:   -7.74 KCAL/MOL
REMARK 924 INTRA-LIGAND FREE ENERGY PREDICTED BY IDOCK:   -1.66 KCAL/MOL
REMARK 927      BINDING AFFINITY PREDICTED BY RF-SCORE:    0.00 PKD
ROOT
HETATM    1 NA   UNL     1      -9.092  11.868  69.357  1.00  0.00    -0.369 Na 
HETATM    2  C   UNL     2      -9.057   9.330  67.619  1.00  0.00    -0.136 C  
HETATM    3  C   UNL     2      -9.482   8.163  68.494  1.00  0.00    -0.144 C  
ENDROOT
BRANCH   3   4
HETATM    4  C   UNL     2     -10.699   7.461  67.900  1.00  0.00    -0.217 C  
BRANCH   4   5
HETATM    5  C   UNL     2     -11.130   6.270  68.751  1.00  0.00    -0.424 C  
BRANCH   5   6
HETATM    6  C   UNL     2     -10.483   6.342  70.132  1.00  0.00    -0.278 C  
BRANCH   6   7
HETATM    7  C   UNL     2     -11.513   6.141  71.237  1.00  0.00    -0.311 C  
BRANCH   7   8
HETATM    8  C   UNL     2     -12.500   7.305  71.268  1.00  0.00    -0.402 C  
BRANCH   8   9
HETATM    9  C   UNL     2     -11.976   8.439  72.141  1.00  0.00    -0.438 C  
BRANCH   9  10
HETATM   10  C   UNL     2     -12.673   9.754  71.803  1.00  0.00    -0.519 C  
BRANCH  10  11
HETATM   11  C   UNL     2     -11.767  10.638  70.952  1.00  0.00    -0.387 C  
BRANCH  11  12
HETATM   12  C   UNL     2     -12.211  10.642  69.493  1.00  0.00    -0.230 C  
BRANCH  12  13
HETATM   13  C   UNL     2     -11.936  11.995  68.846  1.00  0.00    -0.246 C  
BRANCH  13  14
HETATM   14  O   UNL     2     -12.028  11.894  67.422  1.00  0.00    -0.603 OA 
BRANCH  14  15
HETATM   15  C   UNL     2     -11.058  12.558  66.720  1.00  0.00    -0.279 C  
HETATM   16  O   UNL     2     -10.154  13.198  67.249  1.00  0.00    -0.229 OA 
BRANCH  15  17
HETATM   17  C   UNL     2     -11.347  12.539  65.263  1.00  0.00    -0.324 C  
HETATM   18  S   UNL     2     -12.165  14.014  64.776  1.00  0.00    -0.426 S  
HETATM   19  O   UNL     2     -13.396  14.021  65.561  1.00  0.00    -0.673 OA 
HETATM   20  O   UNL     2     -12.362  13.802  63.342  1.00  0.00    -0.750 OA 
HETATM   21  O   UNL     2     -11.216  15.079  65.102  1.00  0.00    -0.356 OA 
ENDBRANCH  15  17
ENDBRANCH  14  15
ENDBRANCH  13  14
ENDBRANCH  12  13
ENDBRANCH  11  12
ENDBRANCH  10  11
ENDBRANCH   9  10
ENDBRANCH   8   9
ENDBRANCH   7   8
ENDBRANCH   6   7
ENDBRANCH   5   6
ENDBRANCH   4   5
ENDBRANCH   3   4
TORSDOF 13
ENDMDL
MODEL       32
REMARK 921   NORMALIZED FREE ENERGY PREDICTED BY IDOCK:   -4.45 KCAL/MOL
REMARK 922        TOTAL FREE ENERGY PREDICTED BY IDOCK:   -9.40 KCAL/MOL
REMARK 923 INTER-LIGAND FREE ENERGY PREDICTED BY IDOCK:   -8.23 KCAL/MOL
REMARK 924 INTRA-LIGAND FREE ENERGY PREDICTED BY IDOCK:   -1.17 KCAL/MOL
REMARK 927      BINDING AFFINITY PREDICTED BY RF-SCORE:    0.00 PKD
ROOT
HETATM    1 NA   UNL     1     -13.955  10.650  70.808  1.00  0.00    -0.221 Na 
HETATM    2  C   UNL     2     -11.265   9.352  71.542  1.00  0.00    -0.457 C  
HETATM    3  C   UNL     2     -11.459   7.845  71.530  1.00  0.00    -0.301 C  
ENDROOT
BRANCH   3   4
HETATM    4  C   UNL     2     -10.483   7.185  70.561  1.00  0.00    -0.228 C  
BRANCH   4   5
HETATM    5  C   UNL     2     -11.201   6.254  69.588  1.00  0.00    -0.506 C  
BRANCH   5   6
HETATM    6  C   UNL     2     -11.004   6.734  68.152  1.00  0.00    -0.277 C  
BRANCH   6   7
HETATM    7  C   UNL     2     -10.276   8.072  68.111  1.00  0.00    -0.251 C  
BRANCH   7   8
HETATM    8  C   UNL     2     -10.438   8.727  66.742  1.00  0.00    -0.283 C  
BRANCH   8   9
HETATM    9  C   UNL     2     -10.514  10.244  66.871  1.00  0.00    -0.291 C  
BRANCH   9  10
HETATM   10  C   UNL     2     -11.365  10.646  68.073  1.00  0.00    -0.350 C  
BRANCH  10  11
HETATM   11  C   UNL     2     -10.787  11.885  68.750  1.00  0.00    -0.270 C  
BRANCH  11  12
HETATM   12  C   UNL     2     -11.512  13.149  68.300  1.00  0.00    -0.349 C  
BRANCH  12  13
HETATM   13  C   UNL     2     -10.617  13.997  67.401  1.00  0.00    -0.278 C  
BRANCH  13  14
HETATM   14  O   UNL     2     -11.409  14.847  66.568  1.00  0.00    -0.348 OA 
BRANCH  14  15
HETATM   15  C   UNL     2     -10.951  15.014  65.289  1.00  0.00    -0.382 C  
HETATM   16  O   UNL     2     -10.951  16.093  64.703  1.00  0.00    -0.642 OA 
BRANCH  15  17
HETATM   17  C   UNL     2     -10.623  13.707  64.665  1.00  0.00    -0.430 C  
HETATM   18  S   UNL     2     -12.072  12.944  64.031  1.00  0.00    -0.474 S  
HETATM   19  O   UNL     2     -12.932  12.774  65.200  1.00  0.00    -0.768 OA 
HETATM   20  O   UNL     2     -11.550  11.696  63.477  1.00  0.00    -0.428 OA 
HETATM   21  O   UNL     2     -12.569  13.887  63.030  1.00  0.00    -0.694 OA 
ENDBRANCH  15  17
ENDBRANCH  14  15
ENDBRANCH  13  14
ENDBRANCH  12  13
ENDBRANCH  11  12
ENDBRANCH  10  11
ENDBRANCH   9  10
ENDBRANCH   8   9
ENDBRANCH   7   8
ENDBRANCH   6   7
ENDBRANCH   5   6
ENDBRANCH   4   5
ENDBRANCH   3   4
TORSDOF 13
ENDMDL
MODEL       33
REMARK 921   NORMALIZED FREE ENERGY PREDICTED BY IDOCK:   -4.44 KCAL/MOL
REMARK 922        TOTAL FREE ENERGY PREDICTED BY IDOCK:   -9.38 KCAL/MOL
REMARK 923 INTER-LIGAND FREE ENERGY PREDICTED BY IDOCK:   -8.18 KCAL/MOL
REMARK 924 INTRA-LIGAND FREE ENERGY PREDICTED BY IDOCK:   -1.20 KCAL/MOL
REMARK 927      BINDING AFFINITY PREDICTED BY RF-SCORE:    0.00 PKD
ROOT
HETATM    1 NA   UNL     1     -14.193  14.543  65.482  1.00  0.00    -0.708 Na 
HETATM    2  C   UNL     2     -12.596  12.124  64.454  1.00  0.00    -0.377 C  
HETATM    3  C   UNL     2     -11.485  12.648  63.560  1.00  0.00    -0.557 C  
ENDROOT
BRANCH   3   4
HETATM    4  C   UNL     2     -10.123  12.186  64.067  1.00  0.00    -0.357 C  
BRANCH   4   5
HETATM    5  C   UNL     2      -9.790  10.778  63.583  1.00  0.00    -0.406 C  
BRANCH   5   6
HETATM    6  C   UNL     2      -9.326   9.911  64.750  1.00  0.00    -0.339 C  
BRANCH   6   7
HETATM    7  C   UNL     2      -9.342  10.691  66.060  1.00  0.00    -0.219 C  
BRANCH   7   8
HETATM    8  C   UNL     2     -10.402  10.131  67.004  1.00  0.00    -0.303 C  
BRANCH   8   9
HETATM    9  C   UNL     2     -11.103  11.253  67.761  1.00  0.00    -0.328 C  
BRANCH   9  10
HETATM   10  C   UNL     2     -10.254  12.522  67.762  1.00  0.00    -0.217 C  
BRANCH  10  11
HETATM   11  C   UNL     2     -11.131  13.755  67.571  1.00  0.00    -0.295 C  
BRANCH  11  12
HETATM   12  C   UNL     2     -10.400  15.024  67.994  1.00  0.00    -0.236 C  
BRANCH  12  13
HETATM   13  C   UNL     2     -10.109  15.010  69.491  1.00  0.00    -0.166 C  
BRANCH  13  14
HETATM   14  O   UNL     2     -10.719  16.136  70.129  1.00  0.00    -0.321 OA 
BRANCH  14  15
HETATM   15  C   UNL     2     -11.888  15.877  70.791  1.00  0.00    -0.391 C  
HETATM   16  O   UNL     2     -12.909  15.479  70.237  1.00  0.00    -0.361 OA 
BRANCH  15  17
HETATM   17  C   UNL     2     -11.802  16.302  72.212  1.00  0.00    -0.511 C  
HETATM   18  S   UNL     2     -13.014  15.477  73.178  1.00  0.00    -0.575 S  
HETATM   19  O   UNL     2     -14.286  15.875  72.581  1.00  0.00    -0.525 OA 
HETATM   20  O   UNL     2     -12.774  16.024  74.512  1.00  0.00    -0.683 OA 
HETATM   21  O   UNL     2     -12.683  14.059  73.040  1.00  0.00    -0.308 OA 
ENDBRANCH  15  17
ENDBRANCH  14  15
ENDBRANCH  13  14
ENDBRANCH  12  13
ENDBRANCH  11  12
ENDBRANCH  10  11
ENDBRANCH   9  10
ENDBRANCH   8   9
ENDBRANCH   7   8
ENDBRANCH   6   7
ENDBRANCH   5   6
ENDBRANCH   4   5
ENDBRANCH   3   4
TORSDOF 13
ENDMDL
MODEL       34
REMARK 921   NORMALIZED FREE ENERGY PREDICTED BY IDOCK:   -4.43 KCAL/MOL
REMARK 922        TOTAL FREE ENERGY PREDICTED BY IDOCK:   -9.36 KCAL/MOL
REMARK 923 INTER-LIGAND FREE ENERGY PREDICTED BY IDOCK:   -8.71 KCAL/MOL
REMARK 924 INTRA-LIGAND FREE ENERGY PREDICTED BY IDOCK:   -0.65 KCAL/MOL
REMARK 927      BINDING AFFINITY PREDICTED BY RF-SCORE:    0.00 PKD
ROOT
HETATM    1 NA   UNL     1     -13.833  11.022  72.681  1.00  0.00    -0.600 Na 
HETATM    2  C   UNL     2     -14.365  14.027  72.294  1.00  0.00    -0.520 C  
HETATM    3  C   UNL     2     -13.071  14.768  72.587  1.00  0.00    -0.534 C  
ENDROOT
BRANCH   3   4
HETATM    4  C   UNL     2     -12.650  15.610  71.387  1.00  0.00    -0.519 C  
BRANCH   4   5
HETATM    5  C   UNL     2     -11.482  14.975  70.638  1.00  0.00    -0.338 C  
BRANCH   5   6
HETATM    6  C   UNL     2     -11.994  14.155  69.457  1.00  0.00    -0.389 C  
BRANCH   6   7
HETATM    7  C   UNL     2     -11.797  12.662  69.693  1.00  0.00    -0.379 C  
BRANCH   7   8
HETATM    8  C   UNL     2     -11.903  11.893  68.379  1.00  0.00    -0.352 C  
BRANCH   8   9
HETATM    9  C   UNL     2     -11.171  12.626  67.260  1.00  0.00    -0.346 C  
BRANCH   9  10
HETATM   10  C   UNL     2     -12.018  12.666  65.990  1.00  0.00    -0.478 C  
BRANCH  10  11
HETATM   11  C   UNL     2     -12.595  14.062  65.775  1.00  0.00    -0.512 C  
BRANCH  11  12
HETATM   12  C   UNL     2     -11.784  14.841  64.746  1.00  0.00    -0.422 C  
BRANCH  12  13
HETATM   13  C   UNL     2     -10.785  15.768  65.431  1.00  0.00    -0.404 C  
BRANCH  13  14
HETATM   14  O   UNL     2     -10.918  17.102  64.931  1.00  0.00    -0.743 OA 
BRANCH  14  15
HETATM   15  C   UNL     2     -10.412  18.087  65.735  1.00  0.00    -0.198 C  
HETATM   16  O   UNL     2     -10.772  19.259  65.682  1.00  0.00    -0.458 OA 
BRANCH  15  17
HETATM   17  C   UNL     2      -9.270  17.583  66.541  1.00  0.00    -0.267 C  
HETATM   18  S   UNL     2      -8.925  18.675  67.872  1.00  0.00    -0.293 S  
HETATM   19  O   UNL     2      -8.599  19.943  67.225  1.00  0.00    -0.301 OA 
HETATM   20  O   UNL     2      -7.792  18.020  68.526  1.00  0.00    -0.288 OA 
HETATM   21  O   UNL     2     -10.155  18.682  68.664  1.00  0.00    -0.369 OA 
ENDBRANCH  15  17
ENDBRANCH  14  15
ENDBRANCH  13  14
ENDBRANCH  12  13
ENDBRANCH  11  12
ENDBRANCH  10  11
ENDBRANCH   9  10
ENDBRANCH   8   9
ENDBRANCH   7   8
ENDBRANCH   6   7
ENDBRANCH   5   6
ENDBRANCH   4   5
ENDBRANCH   3   4
TORSDOF 13
ENDMDL
MODEL       35
REMARK 921   NORMALIZED FREE ENERGY PREDICTED BY IDOCK:   -4.42 KCAL/MOL
REMARK 922        TOTAL FREE ENERGY PREDICTED BY IDOCK:   -9.35 KCAL/MOL
REMARK 923 INTER-LIGAND FREE ENERGY PREDICTED BY IDOCK:   -7.93 KCAL/MOL
REMARK 924 INTRA-LIGAND FREE ENERGY PREDICTED BY IDOCK:   -1.42 KCAL/MOL
REMARK 927      BINDING AFFINITY PREDICTED BY RF-SCORE:    0.00 PKD
ROOT
HETATM    1 NA   UNL     1     -10.755  14.213  71.106  1.00  0.00    -0.459 Na 
HETATM    2  C   UNL     2     -11.976  11.709  69.804  1.00  0.00    -0.402 C  
HETATM    3  C   UNL     2     -11.751  11.809  68.304  1.00  0.00    -0.377 C  
ENDROOT
BRANCH   3   4
HETATM    4  C   UNL     2     -10.984  10.595  67.793  1.00  0.00    -0.364 C  
BRANCH   4   5
HETATM    5  C   UNL     2      -9.493  10.889  67.657  1.00  0.00    -0.170 C  
BRANCH   5   6
HETATM    6  C   UNL     2      -9.205  11.564  66.318  1.00  0.00    -0.222 C  
BRANCH   6   7
HETATM    7  C   UNL     2      -8.825  10.542  65.253  1.00  0.00    -0.205 C  
BRANCH   7   8
HETATM    8  C   UNL     2      -9.890  10.485  64.161  1.00  0.00    -0.401 C  
BRANCH   8   9
HETATM    9  C   UNL     2     -10.167  11.874  63.599  1.00  0.00    -0.466 C  
BRANCH   9  10
HETATM   10  C   UNL     2     -11.662  12.080  63.369  1.00  0.00    -0.519 C  
BRANCH  10  11
HETATM   11  C   UNL     2     -12.375  12.360  64.689  1.00  0.00    -0.518 C  
BRANCH  11  12
HETATM   12  C   UNL     2     -12.687  13.844  64.844  1.00  0.00    -0.315 C  
BRANCH  12  13
HETATM   13  C   UNL     2     -11.872  14.454  65.980  1.00  0.00    -0.372 C  
BRANCH  13  14
HETATM   14  O   UNL     2     -10.602  14.903  65.498  1.00  0.00    -0.309 OA 
BRANCH  14  15
HETATM   15  C   UNL     2     -10.529  16.230  65.176  1.00  0.00    -0.227 C  
HETATM   16  O   UNL     2     -11.179  16.747  64.271  1.00  0.00    -1.163 OA 
BRANCH  15  17
HETATM   17  C   UNL     2      -9.450  16.907  65.941  1.00  0.00    -0.113 C  
HETATM   18  S   UNL     2     -10.129  18.071  67.067  1.00  0.00    -0.363 S  
HETATM   19  O   UNL     2     -10.851  19.016  66.220  1.00  0.00    -0.343 OA 
HETATM   20  O   UNL     2      -8.933  18.620  67.705  1.00  0.00    -0.272 OA 
HETATM   21  O   UNL     2     -10.969  17.268  67.955  1.00  0.00    -0.350 OA 
ENDBRANCH  15  17
ENDBRANCH  14  15
ENDBRANCH  13  14
ENDBRANCH  12  13
ENDBRANCH  11  12
ENDBRANCH  10  11
ENDBRANCH   9  10
ENDBRANCH   8   9
ENDBRANCH   7   8
ENDBRANCH   6   7
ENDBRANCH   5   6
ENDBRANCH   4   5
ENDBRANCH   3   4
TORSDOF 13
ENDMDL
MODEL       36
REMARK 921   NORMALIZED FREE ENERGY PREDICTED BY IDOCK:   -4.42 KCAL/MOL
REMARK 922        TOTAL FREE ENERGY PREDICTED BY IDOCK:   -9.34 KCAL/MOL
REMARK 923 INTER-LIGAND FREE ENERGY PREDICTED BY IDOCK:   -8.50 KCAL/MOL
REMARK 924 INTRA-LIGAND FREE ENERGY PREDICTED BY IDOCK:   -0.84 KCAL/MOL
REMARK 927      BINDING AFFINITY PREDICTED BY RF-SCORE:    0.00 PKD
ROOT
HETATM    1 NA   UNL     1     -10.230   2.989  67.562  1.00  0.00    -0.312 Na 
HETATM    2  C   UNL     2      -9.991   5.422  69.429  1.00  0.00    -0.280 C  
HETATM    3  C   UNL     2     -11.131   6.372  69.102  1.00  0.00    -0.428 C  
ENDROOT
BRANCH   3   4
HETATM    4  C   UNL     2     -11.978   6.643  70.340  1.00  0.00    -0.342 C  
BRANCH   4   5
HETATM    5  C   UNL     2     -11.121   6.728  71.600  1.00  0.00    -0.282 C  
BRANCH   5   6
HETATM    6  C   UNL     2     -11.324   8.075  72.289  1.00  0.00    -0.413 C  
BRANCH   6   7
HETATM    7  C   UNL     2     -12.689   8.667  71.959  1.00  0.00    -0.427 C  
BRANCH   7   8
HETATM    8  C   UNL     2     -12.550  10.121  71.518  1.00  0.00    -0.537 C  
BRANCH   8   9
HETATM    9  C   UNL     2     -11.342  10.299  70.604  1.00  0.00    -0.431 C  
BRANCH   9  10
HETATM   10  C   UNL     2     -11.625  11.341  69.524  1.00  0.00    -0.398 C  
BRANCH  10  11
HETATM   11  C   UNL     2     -11.324  10.774  68.141  1.00  0.00    -0.377 C  
BRANCH  11  12
HETATM   12  C   UNL     2     -11.759  11.738  67.043  1.00  0.00    -0.247 C  
BRANCH  12  13
HETATM   13  C   UNL     2     -11.399  13.174  67.409  1.00  0.00    -0.306 C  
BRANCH  13  14
HETATM   14  O   UNL     2     -12.240  14.094  66.706  1.00  0.00    -0.447 OA 
BRANCH  14  15
HETATM   15  C   UNL     2     -11.852  14.389  65.427  1.00  0.00    -0.366 C  
HETATM   16  O   UNL     2     -12.582  14.258  64.449  1.00  0.00    -0.665 OA 
BRANCH  15  17
HETATM   17  C   UNL     2     -10.405  14.718  65.371  1.00  0.00    -0.386 C  
HETATM   18  S   UNL     2     -10.133  16.391  65.830  1.00  0.00    -0.332 S  
HETATM   19  O   UNL     2     -10.891  17.163  64.850  1.00  0.00    -0.751 OA 
HETATM   20  O   UNL     2      -8.681  16.516  65.708  1.00  0.00    -0.460 OA 
HETATM   21  O   UNL     2     -10.631  16.475  67.203  1.00  0.00    -0.314 OA 
ENDBRANCH  15  17
ENDBRANCH  14  15
ENDBRANCH  13  14
ENDBRANCH  12  13
ENDBRANCH  11  12
ENDBRANCH  10  11
ENDBRANCH   9  10
ENDBRANCH   8   9
ENDBRANCH   7   8
ENDBRANCH   6   7
ENDBRANCH   5   6
ENDBRANCH   4   5
ENDBRANCH   3   4
TORSDOF 13
ENDMDL
MODEL       37
REMARK 921   NORMALIZED FREE ENERGY PREDICTED BY IDOCK:   -4.41 KCAL/MOL
REMARK 922        TOTAL FREE ENERGY PREDICTED BY IDOCK:   -9.33 KCAL/MOL
REMARK 923 INTER-LIGAND FREE ENERGY PREDICTED BY IDOCK:   -7.55 KCAL/MOL
REMARK 924 INTRA-LIGAND FREE ENERGY PREDICTED BY IDOCK:   -1.78 KCAL/MOL
REMARK 927      BINDING AFFINITY PREDICTED BY RF-SCORE:    0.00 PKD
ROOT
HETATM    1 NA   UNL     1     -12.781  10.337  68.914  1.00  0.00    -0.524 Na 
HETATM    2  C   UNL     2      -9.954  10.726  67.768  1.00  0.00    -0.195 C  
HETATM    3  C   UNL     2      -9.912  10.063  66.401  1.00  0.00    -0.300 C  
ENDROOT
BRANCH   3   4
HETATM    4  C   UNL     2      -9.506  11.067  65.328  1.00  0.00    -0.259 C  
BRANCH   4   5
HETATM    5  C   UNL     2     -10.403  10.969  64.098  1.00  0.00    -0.434 C  
BRANCH   5   6
HETATM    6  C   UNL     2     -10.552  12.338  63.438  1.00  0.00    -0.427 C  
BRANCH   6   7
HETATM    7  C   UNL     2     -12.016  12.747  63.334  1.00  0.00    -0.613 C  
BRANCH   7   8
HETATM    8  C   UNL     2     -12.713  12.591  64.683  1.00  0.00    -0.434 C  
BRANCH   8   9
HETATM    9  C   UNL     2     -12.595  13.869  65.506  1.00  0.00    -0.560 C  
BRANCH   9  10
HETATM   10  C   UNL     2     -12.047  13.571  66.900  1.00  0.00    -0.417 C  
BRANCH  10  11
HETATM   11  C   UNL     2     -10.969  14.580  67.280  1.00  0.00    -0.307 C  
BRANCH  11  12
HETATM   12  C   UNL     2      -9.969  14.773  66.145  1.00  0.00    -0.324 C  
BRANCH  12  13
HETATM   13  C   UNL     2      -9.829  16.249  65.791  1.00  0.00    -0.299 C  
BRANCH  13  14
HETATM   14  O   UNL     2     -10.712  17.041  66.591  1.00  0.00    -0.228 OA 
BRANCH  14  15
HETATM   15  C   UNL     2     -10.208  18.239  67.017  1.00  0.00    -0.378 C  
HETATM   16  O   UNL     2     -10.904  19.154  67.450  1.00  0.00    -0.483 OA 
BRANCH  15  17
HETATM   17  C   UNL     2      -8.754  18.340  66.728  1.00  0.00    -0.272 C  
HETATM   18  S   UNL     2      -7.825  18.314  68.218  1.00  0.00    -0.305 S  
HETATM   19  O   UNL     2      -8.300  19.478  68.961  1.00  0.00    -0.339 OA 
HETATM   20  O   UNL     2      -6.451  18.427  67.730  1.00  0.00    -0.199 OA 
HETATM   21  O   UNL     2      -8.145  17.021  68.823  1.00  0.00    -0.252 OA 
ENDBRANCH  15  17
ENDBRANCH  14  15
ENDBRANCH  13  14
ENDBRANCH  12  13
ENDBRANCH  11  12
ENDBRANCH  10  11
ENDBRANCH   9  10
ENDBRANCH   8   9
ENDBRANCH   7   8
ENDBRANCH   6   7
ENDBRANCH   5   6
ENDBRANCH   4   5
ENDBRANCH   3   4
TORSDOF 13
ENDMDL
MODEL       38
REMARK 921   NORMALIZED FREE ENERGY PREDICTED BY IDOCK:   -4.41 KCAL/MOL
REMARK 922        TOTAL FREE ENERGY PREDICTED BY IDOCK:   -9.32 KCAL/MOL
REMARK 923 INTER-LIGAND FREE ENERGY PREDICTED BY IDOCK:   -7.79 KCAL/MOL
REMARK 924 INTRA-LIGAND FREE ENERGY PREDICTED BY IDOCK:   -1.52 KCAL/MOL
REMARK 927      BINDING AFFINITY PREDICTED BY RF-SCORE:    0.00 PKD
ROOT
HETATM    1 NA   UNL     1     -14.209  14.547  65.407  1.00  0.00    -0.739 Na 
HETATM    2  C   UNL     2     -12.645  12.154  64.273  1.00  0.00    -0.432 C  
HETATM    3  C   UNL     2     -11.508  12.702  63.426  1.00  0.00    -0.499 C  
ENDROOT
BRANCH   3   4
HETATM    4  C   UNL     2     -10.164  12.185  63.929  1.00  0.00    -0.426 C  
BRANCH   4   5
HETATM    5  C   UNL     2     -10.032  10.678  63.730  1.00  0.00    -0.379 C  
BRANCH   5   6
HETATM    6  C   UNL     2      -9.537  10.015  65.013  1.00  0.00    -0.362 C  
BRANCH   6   7
HETATM    7  C   UNL     2      -9.562  10.989  66.185  1.00  0.00    -0.240 C  
BRANCH   7   8
HETATM    8  C   UNL     2     -10.160  10.323  67.422  1.00  0.00    -0.246 C  
BRANCH   8   9
HETATM    9  C   UNL     2     -11.403  11.069  67.893  1.00  0.00    -0.381 C  
BRANCH   9  10
HETATM   10  C   UNL     2     -11.030  12.420  68.501  1.00  0.00    -0.277 C  
BRANCH  10  11
HETATM   11  C   UNL     2     -11.968  13.512  67.996  1.00  0.00    -0.372 C  
BRANCH  11  12
HETATM   12  C   UNL     2     -11.218  14.819  67.765  1.00  0.00    -0.323 C  
BRANCH  12  13
HETATM   13  C   UNL     2     -10.212  14.674  66.627  1.00  0.00    -0.274 C  
BRANCH  13  14
HETATM   14  O   UNL     2      -9.283  15.762  66.641  1.00  0.00    -0.216 OA 
BRANCH  14  15
HETATM   15  C   UNL     2      -9.718  16.917  66.051  1.00  0.00    -0.233 C  
HETATM   16  O   UNL     2     -10.576  16.951  65.173  1.00  0.00    -0.679 OA 
BRANCH  15  17
HETATM   17  C   UNL     2      -8.902  18.079  66.488  1.00  0.00    -0.258 C  
HETATM   18  S   UNL     2      -9.822  19.105  67.577  1.00  0.00    -0.348 S  
HETATM   19  O   UNL     2     -10.972  19.532  66.785  1.00  0.00    -0.436 OA 
HETATM   20  O   UNL     2      -8.867  20.170  67.881  1.00  0.00    -0.294 OA 
HETATM   21  O   UNL     2     -10.138  18.237  68.711  1.00  0.00    -0.378 OA 
ENDBRANCH  15  17
ENDBRANCH  14  15
ENDBRANCH  13  14
ENDBRANCH  12  13
ENDBRANCH  11  12
ENDBRANCH  10  11
ENDBRANCH   9  10
ENDBRANCH   8   9
ENDBRANCH   7   8
ENDBRANCH   6   7
ENDBRANCH   5   6
ENDBRANCH   4   5
ENDBRANCH   3   4
TORSDOF 13
ENDMDL
MODEL       39
REMARK 921   NORMALIZED FREE ENERGY PREDICTED BY IDOCK:   -4.41 KCAL/MOL
REMARK 922        TOTAL FREE ENERGY PREDICTED BY IDOCK:   -9.32 KCAL/MOL
REMARK 923 INTER-LIGAND FREE ENERGY PREDICTED BY IDOCK:   -8.44 KCAL/MOL
REMARK 924 INTRA-LIGAND FREE ENERGY PREDICTED BY IDOCK:   -0.87 KCAL/MOL
REMARK 927      BINDING AFFINITY PREDICTED BY RF-SCORE:    0.00 PKD
ROOT
HETATM    1 NA   UNL     1     -12.243   5.168  65.068  1.00  0.00    -0.734 Na 
HETATM    2  C   UNL     2     -10.271   5.600  67.387  1.00  0.00    -0.249 C  
HETATM    3  C   UNL     2     -10.911   6.570  68.366  1.00  0.00    -0.357 C  
ENDROOT
BRANCH   3   4
HETATM    4  C   UNL     2     -11.005   5.949  69.756  1.00  0.00    -0.452 C  
BRANCH   4   5
HETATM    5  C   UNL     2     -11.982   6.711  70.647  1.00  0.00    -0.404 C  
BRANCH   5   6
HETATM    6  C   UNL     2     -11.341   7.014  71.999  1.00  0.00    -0.300 C  
BRANCH   6   7
HETATM    7  C   UNL     2     -11.106   8.509  72.179  1.00  0.00    -0.436 C  
BRANCH   7   8
HETATM    8  C   UNL     2     -12.396   9.206  72.604  1.00  0.00    -0.063 C  
BRANCH   8   9
HETATM    9  C   UNL     2     -13.014   9.964  71.435  1.00  0.00    -0.504 C  
BRANCH   9  10
HETATM   10  C   UNL     2     -12.359  11.332  71.264  1.00  0.00    -0.375 C  
BRANCH  10  11
HETATM   11  C   UNL     2     -12.103  11.624  69.789  1.00  0.00    -0.357 C  
BRANCH  11  12
HETATM   12  C   UNL     2     -11.442  10.436  69.098  1.00  0.00    -0.261 C  
BRANCH  12  13
HETATM   13  C   UNL     2     -11.256  10.709  67.610  1.00  0.00    -0.290 C  
BRANCH  13  14
HETATM   14  O   UNL     2     -11.851  11.961  67.254  1.00  0.00    -0.576 OA 
BRANCH  14  15
HETATM   15  C   UNL     2     -11.058  12.806  66.527  1.00  0.00    -0.286 C  
HETATM   16  O   UNL     2     -10.251  13.582  67.031  1.00  0.00    -0.245 OA 
BRANCH  15  17
HETATM   17  C   UNL     2     -11.426  12.778  65.088  1.00  0.00    -0.321 C  
HETATM   18  S   UNL     2     -12.223  14.273  64.625  1.00  0.00    -0.433 S  
HETATM   19  O   UNL     2     -13.409  14.330  65.475  1.00  0.00    -0.608 OA 
HETATM   20  O   UNL     2     -12.504  14.049  63.207  1.00  0.00    -0.795 OA 
HETATM   21  O   UNL     2     -11.225  15.310  64.884  1.00  0.00    -0.398 OA 
ENDBRANCH  15  17
ENDBRANCH  14  15
ENDBRANCH  13  14
ENDBRANCH  12  13
ENDBRANCH  11  12
ENDBRANCH  10  11
ENDBRANCH   9  10
ENDBRANCH   8   9
ENDBRANCH   7   8
ENDBRANCH   6   7
ENDBRANCH   5   6
ENDBRANCH   4   5
ENDBRANCH   3   4
TORSDOF 13
ENDMDL
MODEL       40
REMARK 921   NORMALIZED FREE ENERGY PREDICTED BY IDOCK:   -4.40 KCAL/MOL
REMARK 922        TOTAL FREE ENERGY PREDICTED BY IDOCK:   -9.31 KCAL/MOL
REMARK 923 INTER-LIGAND FREE ENERGY PREDICTED BY IDOCK:   -8.94 KCAL/MOL
REMARK 924 INTRA-LIGAND FREE ENERGY PREDICTED BY IDOCK:   -0.37 KCAL/MOL
REMARK 927      BINDING AFFINITY PREDICTED BY RF-SCORE:    0.00 PKD
ROOT
HETATM    1 NA   UNL     1     -13.852   5.923  72.358  1.00  0.00    -0.438 Na 
HETATM    2  C   UNL     2     -12.688   8.746  72.722  1.00  0.00    -0.141 C  
HETATM    3  C   UNL     2     -11.407   8.828  71.908  1.00  0.00    -0.431 C  
ENDROOT
BRANCH   3   4
HETATM    4  C   UNL     2     -11.482   9.970  70.900  1.00  0.00    -0.452 C  
BRANCH   4   5
HETATM    5  C   UNL     2     -12.831  10.683  70.958  1.00  0.00    -0.496 C  
BRANCH   5   6
HETATM    6  C   UNL     2     -12.631  12.197  70.954  1.00  0.00    -0.340 C  
BRANCH   6   7
HETATM    7  C   UNL     2     -13.078  12.817  72.273  1.00  0.00    -0.400 C  
BRANCH   7   8
HETATM    8  C   UNL     2     -14.177  13.849  72.034  1.00  0.00    -0.536 C  
BRANCH   8   9
HETATM    9  C   UNL     2     -13.627  15.266  72.154  1.00  0.00    -0.576 C  
BRANCH   9  10
HETATM   10  C   UNL     2     -12.141  15.246  72.502  1.00  0.00    -0.505 C  
BRANCH  10  11
HETATM   11  C   UNL     2     -11.308  15.743  71.325  1.00  0.00    -0.437 C  
BRANCH  11  12
HETATM   12  C   UNL     2     -12.138  15.803  70.047  1.00  0.00    -0.344 C  
BRANCH  12  13
HETATM   13  C   UNL     2     -11.650  14.772  69.035  1.00  0.00    -0.297 C  
BRANCH  13  14
HETATM   14  O   UNL     2     -12.028  15.157  67.709  1.00  0.00    -0.250 OA 
BRANCH  14  15
HETATM   15  C   UNL     2     -11.315  14.571  66.699  1.00  0.00    -0.356 C  
HETATM   16  O   UNL     2     -10.292  15.054  66.221  1.00  0.00    -0.275 OA 
BRANCH  15  17
HETATM   17  C   UNL     2     -12.030  13.387  66.158  1.00  0.00    -0.413 C  
HETATM   18  S   UNL     2     -11.963  13.373  64.403  1.00  0.00    -0.428 S  
HETATM   19  O   UNL     2     -12.619  14.616  64.007  1.00  0.00    -0.819 OA 
HETATM   20  O   UNL     2     -12.712  12.161  64.073  1.00  0.00    -0.587 OA 
HETATM   21  O   UNL     2     -10.535  13.302  64.096  1.00  0.00    -0.414 OA 
ENDBRANCH  15  17
ENDBRANCH  14  15
ENDBRANCH  13  14
ENDBRANCH  12  13
ENDBRANCH  11  12
ENDBRANCH  10  11
ENDBRANCH   9  10
ENDBRANCH   8   9
ENDBRANCH   7   8
ENDBRANCH   6   7
ENDBRANCH   5   6
ENDBRANCH   4   5
ENDBRANCH   3   4
TORSDOF 13
ENDMDL
MODEL       41
REMARK 921   NORMALIZED FREE ENERGY PREDICTED BY IDOCK:   -4.38 KCAL/MOL
REMARK 922        TOTAL FREE ENERGY PREDICTED BY IDOCK:   -9.26 KCAL/MOL
REMARK 923 INTER-LIGAND FREE ENERGY PREDICTED BY IDOCK:   -8.23 KCAL/MOL
REMARK 924 INTRA-LIGAND FREE ENERGY PREDICTED BY IDOCK:   -1.03 KCAL/MOL
REMARK 927      BINDING AFFINITY PREDICTED BY RF-SCORE:    0.00 PKD
ROOT
HETATM    1 NA   UNL     1     -11.230   5.990  71.208  1.00  0.00    -0.229 Na 
HETATM    2  C   UNL     2     -10.506   8.961  71.536  1.00  0.00    -0.393 C  
HETATM    3  C   UNL     2     -10.560   9.607  70.161  1.00  0.00    -0.320 C  
ENDROOT
BRANCH   3   4
HETATM    4  C   UNL     2     -11.537  10.778  70.154  1.00  0.00    -0.424 C  
BRANCH   4   5
HETATM    5  C   UNL     2     -12.892  10.383  70.736  1.00  0.00    -0.450 C  
BRANCH   5   6
HETATM    6  C   UNL     2     -13.276  11.326  71.872  1.00  0.00    -0.491 C  
BRANCH   6   7
HETATM    7  C   UNL     2     -13.055  12.783  71.482  1.00  0.00    -0.380 C  
BRANCH   7   8
HETATM    8  C   UNL     2     -13.818  13.711  72.423  1.00  0.00    -0.691 C  
BRANCH   8   9
HETATM    9  C   UNL     2     -13.905  15.119  71.844  1.00  0.00    -0.607 C  
BRANCH   9  10
HETATM   10  C   UNL     2     -12.980  15.271  70.639  1.00  0.00    -0.442 C  
BRANCH  10  11
HETATM   11  C   UNL     2     -11.690  15.979  71.039  1.00  0.00    -0.458 C  
BRANCH  11  12
HETATM   12  C   UNL     2     -10.573  15.695  70.041  1.00  0.00    -0.342 C  
BRANCH  12  13
HETATM   13  C   UNL     2     -10.879  16.331  68.689  1.00  0.00    -0.322 C  
BRANCH  13  14
HETATM   14  O   UNL     2     -10.086  15.728  67.663  1.00  0.00    -0.241 OA 
BRANCH  14  15
HETATM   15  C   UNL     2     -10.766  15.354  66.535  1.00  0.00    -0.308 C  
HETATM   16  O   UNL     2     -10.701  15.961  65.470  1.00  0.00    -0.361 OA 
BRANCH  15  17
HETATM   17  C   UNL     2     -11.705  14.239  66.823  1.00  0.00    -0.405 C  
HETATM   18  S   UNL     2     -10.933  12.690  66.528  1.00  0.00    -0.279 S  
HETATM   19  O   UNL     2     -10.574  12.729  65.113  1.00  0.00    -0.287 OA 
HETATM   20  O   UNL     2     -11.999  11.744  66.856  1.00  0.00    -0.605 OA 
HETATM   21  O   UNL     2      -9.801  12.666  67.454  1.00  0.00    -0.201 OA 
ENDBRANCH  15  17
ENDBRANCH  14  15
ENDBRANCH  13  14
ENDBRANCH  12  13
ENDBRANCH  11  12
ENDBRANCH  10  11
ENDBRANCH   9  10
ENDBRANCH   8   9
ENDBRANCH   7   8
ENDBRANCH   6   7
ENDBRANCH   5   6
ENDBRANCH   4   5
ENDBRANCH   3   4
TORSDOF 13
ENDMDL
MODEL       42
REMARK 921   NORMALIZED FREE ENERGY PREDICTED BY IDOCK:   -4.37 KCAL/MOL
REMARK 922        TOTAL FREE ENERGY PREDICTED BY IDOCK:   -9.25 KCAL/MOL
REMARK 923 INTER-LIGAND FREE ENERGY PREDICTED BY IDOCK:   -8.52 KCAL/MOL
REMARK 924 INTRA-LIGAND FREE ENERGY PREDICTED BY IDOCK:   -0.73 KCAL/MOL
REMARK 927      BINDING AFFINITY PREDICTED BY RF-SCORE:    0.00 PKD
ROOT
HETATM    1 NA   UNL     1     -13.854   9.878  73.131  1.00  0.00    -0.635 Na 
HETATM    2  C   UNL     2     -13.071  12.424  71.594  1.00  0.00    -0.408 C  
HETATM    3  C   UNL     2     -13.916  13.568  72.131  1.00  0.00    -0.575 C  
ENDROOT
BRANCH   3   4
HETATM    4  C   UNL     2     -13.029  14.695  72.648  1.00  0.00    -0.534 C  
BRANCH   4   5
HETATM    5  C   UNL     2     -12.646  15.665  71.534  1.00  0.00    -0.511 C  
BRANCH   5   6
HETATM    6  C   UNL     2     -11.168  15.514  71.184  1.00  0.00    -0.423 C  
BRANCH   6   7
HETATM    7  C   UNL     2     -10.929  15.710  69.692  1.00  0.00    -0.288 C  
BRANCH   7   8
HETATM    8  C   UNL     2     -10.515  17.150  69.400  1.00  0.00    -0.203 C  
BRANCH   8   9
HETATM    9  C   UNL     2      -9.133  17.198  68.759  1.00  0.00    -0.244 C  
BRANCH   9  10
HETATM   10  C   UNL     2      -9.198  17.822  67.368  1.00  0.00    -0.248 C  
BRANCH  10  11
HETATM   11  C   UNL     2      -8.664  16.852  66.319  1.00  0.00    -0.321 C  
BRANCH  11  12
HETATM   12  C   UNL     2      -8.593  15.431  66.867  1.00  0.00    -0.291 C  
BRANCH  12  13
HETATM   13  C   UNL     2      -9.547  14.511  66.112  1.00  0.00    -0.297 C  
BRANCH  13  14
HETATM   14  O   UNL     2     -10.710  15.232  65.695  1.00  0.00    -0.325 OA 
BRANCH  14  15
HETATM   15  C   UNL     2     -11.386  14.697  64.632  1.00  0.00    -0.369 C  
HETATM   16  O   UNL     2     -12.433  15.162  64.189  1.00  0.00    -0.718 OA 
BRANCH  15  17
HETATM   17  C   UNL     2     -10.781  13.408  64.209  1.00  0.00    -0.355 C  
HETATM   18  S   UNL     2     -11.778  12.059  64.728  1.00  0.00    -0.230 S  
HETATM   19  O   UNL     2     -11.815  12.176  66.183  1.00  0.00    -0.543 OA 
HETATM   20  O   UNL     2     -11.026  10.907  64.232  1.00  0.00    -0.235 OA 
HETATM   21  O   UNL     2     -13.059  12.275  64.057  1.00  0.00    -0.764 OA 
ENDBRANCH  15  17
ENDBRANCH  14  15
ENDBRANCH  13  14
ENDBRANCH  12  13
ENDBRANCH  11  12
ENDBRANCH  10  11
ENDBRANCH   9  10
ENDBRANCH   8   9
ENDBRANCH   7   8
ENDBRANCH   6   7
ENDBRANCH   5   6
ENDBRANCH   4   5
ENDBRANCH   3   4
TORSDOF 13
ENDMDL
MODEL       43
REMARK 921   NORMALIZED FREE ENERGY PREDICTED BY IDOCK:   -4.35 KCAL/MOL
REMARK 922        TOTAL FREE ENERGY PREDICTED BY IDOCK:   -9.22 KCAL/MOL
REMARK 923 INTER-LIGAND FREE ENERGY PREDICTED BY IDOCK:   -7.45 KCAL/MOL
REMARK 924 INTRA-LIGAND FREE ENERGY PREDICTED BY IDOCK:   -1.77 KCAL/MOL
REMARK 927      BINDING AFFINITY PREDICTED BY RF-SCORE:    0.00 PKD
ROOT
HETATM    1 NA   UNL     1     -13.928  14.222  65.307  1.00  0.00    -0.785 Na 
HETATM    2  C   UNL     2     -12.660  12.034  63.558  1.00  0.00    -0.625 C  
HETATM    3  C   UNL     2     -11.155  12.248  63.564  1.00  0.00    -0.533 C  
ENDROOT
BRANCH   3   4
HETATM    4  C   UNL     2     -10.436  11.000  64.064  1.00  0.00    -0.433 C  
BRANCH   4   5
HETATM    5  C   UNL     2      -9.388  11.340  65.120  1.00  0.00    -0.211 C  
BRANCH   5   6
HETATM    6  C   UNL     2      -9.636  10.534  66.392  1.00  0.00    -0.220 C  
BRANCH   6   7
HETATM    7  C   UNL     2     -10.010  11.440  67.559  1.00  0.00    -0.201 C  
BRANCH   7   8
HETATM    8  C   UNL     2     -11.519  11.669  67.598  1.00  0.00    -0.373 C  
BRANCH   8   9
HETATM    9  C   UNL     2     -11.841  13.122  67.925  1.00  0.00    -0.390 C  
BRANCH   9  10
HETATM   10  C   UNL     2     -10.750  14.053  67.400  1.00  0.00    -0.285 C  
BRANCH  10  11
HETATM   11  C   UNL     2     -11.270  14.885  66.233  1.00  0.00    -0.331 C  
BRANCH  11  12
HETATM   12  C   UNL     2     -10.139  15.281  65.290  1.00  0.00    -0.362 C  
BRANCH  12  13
HETATM   13  C   UNL     2      -9.037  16.018  66.044  1.00  0.00    -0.326 C  
BRANCH  13  14
HETATM   14  O   UNL     2      -9.276  17.429  66.022  1.00  0.00    -0.483 OA 
BRANCH  14  15
HETATM   15  C   UNL     2      -9.436  18.019  67.246  1.00  0.00    -0.260 C  
HETATM   16  O   UNL     2     -10.045  19.072  67.418  1.00  0.00    -0.332 OA 
BRANCH  15  17
HETATM   17  C   UNL     2      -8.642  17.315  68.286  1.00  0.00    -0.247 C  
HETATM   18  S   UNL     2      -7.152  18.184  68.618  1.00  0.00    -0.273 S  
HETATM   19  O   UNL     2      -6.451  18.202  67.337  1.00  0.00    -0.173 OA 
HETATM   20  O   UNL     2      -6.525  17.346  69.639  1.00  0.00    -0.242 OA 
HETATM   21  O   UNL     2      -7.595  19.491  69.101  1.00  0.00    -0.361 OA 
ENDBRANCH  15  17
ENDBRANCH  14  15
ENDBRANCH  13  14
ENDBRANCH  12  13
ENDBRANCH  11  12
ENDBRANCH  10  11
ENDBRANCH   9  10
ENDBRANCH   8   9
ENDBRANCH   7   8
ENDBRANCH   6   7
ENDBRANCH   5   6
ENDBRANCH   4   5
ENDBRANCH   3   4
TORSDOF 13
ENDMDL
MODEL       44
REMARK 921   NORMALIZED FREE ENERGY PREDICTED BY IDOCK:   -4.34 KCAL/MOL
REMARK 922        TOTAL FREE ENERGY PREDICTED BY IDOCK:   -9.21 KCAL/MOL
REMARK 923 INTER-LIGAND FREE ENERGY PREDICTED BY IDOCK:   -8.17 KCAL/MOL
REMARK 924 INTRA-LIGAND FREE ENERGY PREDICTED BY IDOCK:   -1.03 KCAL/MOL
REMARK 927      BINDING AFFINITY PREDICTED BY RF-SCORE:    0.00 PKD
ROOT
HETATM    1 NA   UNL     1     -14.088  16.052  69.961  1.00  0.00    -0.809 Na 
HETATM    2  C   UNL     2     -12.509  14.190  71.831  1.00  0.00    -0.333 C  
HETATM    3  C   UNL     2     -13.462  13.118  72.331  1.00  0.00    -0.643 C  
ENDROOT
BRANCH   3   4
HETATM    4  C   UNL     2     -12.939  11.728  71.986  1.00  0.00    -0.370 C  
BRANCH   4   5
HETATM    5  C   UNL     2     -12.269  11.704  70.615  1.00  0.00    -0.461 C  
BRANCH   5   6
HETATM    6  C   UNL     2     -11.599  10.354  70.375  1.00  0.00    -0.423 C  
BRANCH   6   7
HETATM    7  C   UNL     2     -10.547  10.445  69.276  1.00  0.00    -0.259 C  
BRANCH   7   8
HETATM    8  C   UNL     2     -11.206  10.706  67.924  1.00  0.00    -0.376 C  
BRANCH   8   9
HETATM    9  C   UNL     2     -10.693  12.004  67.310  1.00  0.00    -0.269 C  
BRANCH   9  10
HETATM   10  C   UNL     2     -11.817  12.751  66.597  1.00  0.00    -0.462 C  
BRANCH  10  11
HETATM   11  C   UNL     2     -11.797  14.230  66.967  1.00  0.00    -0.455 C  
BRANCH  11  12
HETATM   12  C   UNL     2     -10.847  14.495  68.130  1.00  0.00    -0.246 C  
BRANCH  12  13
HETATM   13  C   UNL     2      -9.930  15.674  67.823  1.00  0.00    -0.223 C  
BRANCH  13  14
HETATM   14  O   UNL     2     -10.695  16.869  67.644  1.00  0.00    -0.333 OA 
BRANCH  14  15
HETATM   15  C   UNL     2     -10.383  17.610  66.537  1.00  0.00    -0.337 C  
HETATM   16  O   UNL     2      -9.987  17.122  65.483  1.00  0.00    -0.565 OA 
BRANCH  15  17
HETATM   17  C   UNL     2     -10.424  19.064  66.840  1.00  0.00    -0.426 C  
HETATM   18  S   UNL     2      -8.798  19.722  66.931  1.00  0.00    -0.353 S  
HETATM   19  O   UNL     2      -8.165  18.973  68.013  1.00  0.00    -0.282 OA 
HETATM   20  O   UNL     2      -9.050  21.130  67.236  1.00  0.00    -0.154 OA 
HETATM   21  O   UNL     2      -8.236  19.485  65.602  1.00  0.00    -0.396 OA 
ENDBRANCH  15  17
ENDBRANCH  14  15
ENDBRANCH  13  14
ENDBRANCH  12  13
ENDBRANCH  11  12
ENDBRANCH  10  11
ENDBRANCH   9  10
ENDBRANCH   8   9
ENDBRANCH   7   8
ENDBRANCH   6   7
ENDBRANCH   5   6
ENDBRANCH   4   5
ENDBRANCH   3   4
TORSDOF 13
ENDMDL
MODEL       45
REMARK 921   NORMALIZED FREE ENERGY PREDICTED BY IDOCK:   -4.33 KCAL/MOL
REMARK 922        TOTAL FREE ENERGY PREDICTED BY IDOCK:   -9.19 KCAL/MOL
REMARK 923 INTER-LIGAND FREE ENERGY PREDICTED BY IDOCK:   -8.38 KCAL/MOL
REMARK 924 INTRA-LIGAND FREE ENERGY PREDICTED BY IDOCK:   -0.81 KCAL/MOL
REMARK 927      BINDING AFFINITY PREDICTED BY RF-SCORE:    0.00 PKD
ROOT
HETATM    1 NA   UNL     1      -9.725  11.773  69.536  1.00  0.00    -0.382 Na 
HETATM    2  C   UNL     2      -9.214   9.001  70.767  1.00  0.00    -0.299 C  
HETATM    3  C   UNL     2     -10.040   8.899  72.038  1.00  0.00    -0.351 C  
ENDROOT
BRANCH   3   4
HETATM    4  C   UNL     2     -10.979   7.698  71.975  1.00  0.00    -0.291 C  
BRANCH   4   5
HETATM    5  C   UNL     2     -12.442   8.123  72.063  1.00  0.00    -0.375 C  
BRANCH   5   6
HETATM    6  C   UNL     2     -12.680   9.381  71.231  1.00  0.00    -0.391 C  
BRANCH   6   7
HETATM    7  C   UNL     2     -13.297  10.493  72.072  1.00  0.00    -0.420 C  
BRANCH   7   8
HETATM    8  C   UNL     2     -12.906  11.861  71.521  1.00  0.00    -0.421 C  
BRANCH   8   9
HETATM    9  C   UNL     2     -13.461  12.978  72.397  1.00  0.00    -0.615 C  
BRANCH   9  10
HETATM   10  C   UNL     2     -13.398  14.321  71.673  1.00  0.00    -0.442 C  
BRANCH  10  11
HETATM   11  C   UNL     2     -12.533  14.215  70.421  1.00  0.00    -0.424 C  
BRANCH  11  12
HETATM   12  C   UNL     2     -11.673  15.460  70.237  1.00  0.00    -0.355 C  
BRANCH  12  13
HETATM   13  C   UNL     2     -11.007  15.462  68.865  1.00  0.00    -0.261 C  
BRANCH  13  14
HETATM   14  O   UNL     2     -11.930  15.027  67.862  1.00  0.00    -0.291 OA 
BRANCH  14  15
HETATM   15  C   UNL     2     -11.570  13.897  67.179  1.00  0.00    -0.364 C  
HETATM   16  O   UNL     2     -10.586  13.218  67.460  1.00  0.00    -0.242 OA 
BRANCH  15  17
HETATM   17  C   UNL     2     -12.418  13.710  65.973  1.00  0.00    -0.426 C  
HETATM   18  S   UNL     2     -11.567  14.242  64.532  1.00  0.00    -0.366 S  
HETATM   19  O   UNL     2     -11.294  15.656  64.774  1.00  0.00    -0.409 OA 
HETATM   20  O   UNL     2     -12.550  13.987  63.479  1.00  0.00    -0.842 OA 
HETATM   21  O   UNL     2     -10.384  13.384  64.472  1.00  0.00    -0.413 OA 
ENDBRANCH  15  17
ENDBRANCH  14  15
ENDBRANCH  13  14
ENDBRANCH  12  13
ENDBRANCH  11  12
ENDBRANCH  10  11
ENDBRANCH   9  10
ENDBRANCH   8   9
ENDBRANCH   7   8
ENDBRANCH   6   7
ENDBRANCH   5   6
ENDBRANCH   4   5
ENDBRANCH   3   4
TORSDOF 13
ENDMDL
MODEL       46
REMARK 921   NORMALIZED FREE ENERGY PREDICTED BY IDOCK:   -4.33 KCAL/MOL
REMARK 922        TOTAL FREE ENERGY PREDICTED BY IDOCK:   -9.19 KCAL/MOL
REMARK 923 INTER-LIGAND FREE ENERGY PREDICTED BY IDOCK:   -7.66 KCAL/MOL
REMARK 924 INTRA-LIGAND FREE ENERGY PREDICTED BY IDOCK:   -1.53 KCAL/MOL
REMARK 927      BINDING AFFINITY PREDICTED BY RF-SCORE:    0.00 PKD
ROOT
HETATM    1 NA   UNL     1     -13.129  14.516  67.057  1.00  0.00    -0.637 Na 
HETATM    2  C   UNL     2     -11.632  12.831  69.149  1.00  0.00    -0.373 C  
HETATM    3  C   UNL     2     -11.926  13.422  70.518  1.00  0.00    -0.332 C  
ENDROOT
BRANCH   3   4
HETATM    4  C   UNL     2     -12.542  12.373  71.437  1.00  0.00    -0.299 C  
BRANCH   4   5
HETATM    5  C   UNL     2     -12.398  10.967  70.861  1.00  0.00    -0.503 C  
BRANCH   5   6
HETATM    6  C   UNL     2     -12.620   9.922  71.951  1.00  0.00    -0.471 C  
BRANCH   6   7
HETATM    7  C   UNL     2     -11.651   8.754  71.805  1.00  0.00    -0.416 C  
BRANCH   7   8
HETATM    8  C   UNL     2     -10.334   9.225  71.193  1.00  0.00    -0.392 C  
BRANCH   8   9
HETATM    9  C   UNL     2      -9.742   8.151  70.287  1.00  0.00    -0.175 C  
BRANCH   9  10
HETATM   10  C   UNL     2     -10.605   7.952  69.043  1.00  0.00    -0.177 C  
BRANCH  10  11
HETATM   11  C   UNL     2     -10.607   9.213  68.184  1.00  0.00    -0.235 C  
BRANCH  11  12
HETATM   12  C   UNL     2     -10.233   8.897  66.740  1.00  0.00    -0.348 C  
BRANCH  12  13
HETATM   13  C   UNL     2      -9.381  10.013  66.145  1.00  0.00    -0.173 C  
BRANCH  13  14
HETATM   14  O   UNL     2     -10.087  11.257  66.186  1.00  0.00    -0.220 OA 
BRANCH  14  15
HETATM   15  C   UNL     2     -10.413  11.790  64.969  1.00  0.00    -0.285 C  
HETATM   16  O   UNL     2     -10.402  11.150  63.921  1.00  0.00    -0.324 OA 
BRANCH  15  17
HETATM   17  C   UNL     2     -10.611  13.260  65.066  1.00  0.00    -0.346 C  
HETATM   18  S   UNL     2     -12.213  13.706  64.502  1.00  0.00    -0.385 S  
HETATM   19  O   UNL     2     -12.245  13.257  63.112  1.00  0.00    -0.628 OA 
HETATM   20  O   UNL     2     -12.207  15.159  64.669  1.00  0.00    -0.333 OA 
HETATM   21  O   UNL     2     -13.124  13.000  65.402  1.00  0.00    -0.607 OA 
ENDBRANCH  15  17
ENDBRANCH  14  15
ENDBRANCH  13  14
ENDBRANCH  12  13
ENDBRANCH  11  12
ENDBRANCH  10  11
ENDBRANCH   9  10
ENDBRANCH   8   9
ENDBRANCH   7   8
ENDBRANCH   6   7
ENDBRANCH   5   6
ENDBRANCH   4   5
ENDBRANCH   3   4
TORSDOF 13
ENDMDL
MODEL       47
REMARK 921   NORMALIZED FREE ENERGY PREDICTED BY IDOCK:   -4.33 KCAL/MOL
REMARK 922        TOTAL FREE ENERGY PREDICTED BY IDOCK:   -9.19 KCAL/MOL
REMARK 923 INTER-LIGAND FREE ENERGY PREDICTED BY IDOCK:   -8.28 KCAL/MOL
REMARK 924 INTRA-LIGAND FREE ENERGY PREDICTED BY IDOCK:   -0.91 KCAL/MOL
REMARK 927      BINDING AFFINITY PREDICTED BY RF-SCORE:    0.00 PKD
ROOT
HETATM    1 NA   UNL     1     -14.350  16.681  73.938  1.00  0.00    -0.966 Na 
HETATM    2  C   UNL     2     -14.300  14.501  71.769  1.00  0.00    -0.609 C  
HETATM    3  C   UNL     2     -13.005  13.721  71.925  1.00  0.00    -0.439 C  
ENDROOT
BRANCH   3   4
HETATM    4  C   UNL     2     -13.291  12.238  72.133  1.00  0.00    -0.473 C  
BRANCH   4   5
HETATM    5  C   UNL     2     -12.556  11.375  71.111  1.00  0.00    -0.490 C  
BRANCH   5   6
HETATM    6  C   UNL     2     -11.955  12.249  70.013  1.00  0.00    -0.379 C  
BRANCH   6   7
HETATM    7  C   UNL     2     -11.595  11.424  68.783  1.00  0.00    -0.378 C  
BRANCH   7   8
HETATM    8  C   UNL     2     -10.080  11.339  68.620  1.00  0.00    -0.216 C  
BRANCH   8   9
HETATM    9  C   UNL     2      -9.679  10.029  67.950  1.00  0.00    -0.168 C  
BRANCH   9  10
HETATM   10  C   UNL     2     -10.368   9.876  66.597  1.00  0.00    -0.275 C  
BRANCH  10  11
HETATM   11  C   UNL     2      -9.337   9.716  65.485  1.00  0.00    -0.309 C  
BRANCH  11  12
HETATM   12  C   UNL     2      -9.628  10.658  64.322  1.00  0.00    -0.350 C  
BRANCH  12  13
HETATM   13  C   UNL     2     -10.944  11.398  64.540  1.00  0.00    -0.277 C  
BRANCH  13  14
HETATM   14  O   UNL     2     -11.027  12.533  63.674  1.00  0.00    -0.421 OA 
BRANCH  14  15
HETATM   15  C   UNL     2     -11.987  13.453  63.996  1.00  0.00    -0.464 C  
HETATM   16  O   UNL     2     -12.571  14.146  63.167  1.00  0.00    -0.686 OA 
BRANCH  15  17
HETATM   17  C   UNL     2     -12.099  13.614  65.469  1.00  0.00    -0.411 C  
HETATM   18  S   UNL     2     -10.971  14.831  66.044  1.00  0.00    -0.333 S  
HETATM   19  O   UNL     2      -9.658  14.317  65.664  1.00  0.00    -0.231 OA 
HETATM   20  O   UNL     2     -11.226  14.836  67.484  1.00  0.00    -0.307 OA 
HETATM   21  O   UNL     2     -11.379  16.056  65.356  1.00  0.00    -0.098 OA 
ENDBRANCH  15  17
ENDBRANCH  14  15
ENDBRANCH  13  14
ENDBRANCH  12  13
ENDBRANCH  11  12
ENDBRANCH  10  11
ENDBRANCH   9  10
ENDBRANCH   8   9
ENDBRANCH   7   8
ENDBRANCH   6   7
ENDBRANCH   5   6
ENDBRANCH   4   5
ENDBRANCH   3   4
TORSDOF 13
ENDMDL
MODEL       48
REMARK 921   NORMALIZED FREE ENERGY PREDICTED BY IDOCK:   -4.32 KCAL/MOL
REMARK 922        TOTAL FREE ENERGY PREDICTED BY IDOCK:   -9.17 KCAL/MOL
REMARK 923 INTER-LIGAND FREE ENERGY PREDICTED BY IDOCK:   -8.20 KCAL/MOL
REMARK 924 INTRA-LIGAND FREE ENERGY PREDICTED BY IDOCK:   -0.97 KCAL/MOL
REMARK 927      BINDING AFFINITY PREDICTED BY RF-SCORE:    0.00 PKD
ROOT
HETATM    1 NA   UNL     1      -7.162  20.948  72.199  1.00  0.00    -0.862 Na 
HETATM    2  C   UNL     2      -6.841  19.756  69.382  1.00  0.00    -0.364 C  
HETATM    3  C   UNL     2      -8.185  19.181  68.965  1.00  0.00    -0.256 C  
ENDROOT
BRANCH   3   4
HETATM    4  C   UNL     2      -8.659  19.812  67.661  1.00  0.00    -0.376 C  
BRANCH   4   5
HETATM    5  C   UNL     2     -10.126  20.224  67.737  1.00  0.00    -0.505 C  
BRANCH   5   6
HETATM    6  C   UNL     2     -11.010  19.163  67.087  1.00  0.00    -0.389 C  
BRANCH   6   7
HETATM    7  C   UNL     2     -10.453  18.732  65.735  1.00  0.00    -0.317 C  
BRANCH   7   8
HETATM    8  C   UNL     2     -10.786  17.267  65.461  1.00  0.00    -0.105 C  
BRANCH   8   9
HETATM    9  C   UNL     2     -10.007  16.350  66.396  1.00  0.00    -0.318 C  
BRANCH   9  10
HETATM   10  C   UNL     2     -10.140  14.891  65.964  1.00  0.00    -0.331 C  
BRANCH  10  11
HETATM   11  C   UNL     2     -11.588  14.428  66.079  1.00  0.00    -0.364 C  
BRANCH  11  12
HETATM   12  C   UNL     2     -11.668  12.967  66.508  1.00  0.00    -0.453 C  
BRANCH  12  13
HETATM   13  C   UNL     2     -11.437  12.829  68.010  1.00  0.00    -0.318 C  
BRANCH  13  14
HETATM   14  O   UNL     2     -12.386  13.616  68.735  1.00  0.00    -0.261 OA 
BRANCH  14  15
HETATM   15  C   UNL     2     -11.864  14.415  69.716  1.00  0.00    -0.320 C  
HETATM   16  O   UNL     2     -11.046  15.304  69.503  1.00  0.00    -0.248 OA 
BRANCH  15  17
HETATM   17  C   UNL     2     -12.287  13.951  71.063  1.00  0.00    -0.376 C  
HETATM   18  S   UNL     2     -12.970  15.278  71.987  1.00  0.00    -0.407 S  
HETATM   19  O   UNL     2     -11.886  16.252  72.077  1.00  0.00    -0.505 OA 
HETATM   20  O   UNL     2     -13.311  14.632  73.254  1.00  0.00    -0.585 OA 
HETATM   21  O   UNL     2     -14.126  15.709  71.201  1.00  0.00    -0.539 OA 
ENDBRANCH  15  17
ENDBRANCH  14  15
ENDBRANCH  13  14
ENDBRANCH  12  13
ENDBRANCH  11  12
ENDBRANCH  10  11
ENDBRANCH   9  10
ENDBRANCH   8   9
ENDBRANCH   7   8
ENDBRANCH   6   7
ENDBRANCH   5   6
ENDBRANCH   4   5
ENDBRANCH   3   4
TORSDOF 13
ENDMDL
MODEL       49
REMARK 921   NORMALIZED FREE ENERGY PREDICTED BY IDOCK:   -4.32 KCAL/MOL
REMARK 922        TOTAL FREE ENERGY PREDICTED BY IDOCK:   -9.16 KCAL/MOL
REMARK 923 INTER-LIGAND FREE ENERGY PREDICTED BY IDOCK:   -7.06 KCAL/MOL
REMARK 924 INTRA-LIGAND FREE ENERGY PREDICTED BY IDOCK:   -2.11 KCAL/MOL
REMARK 927      BINDING AFFINITY PREDICTED BY RF-SCORE:    0.00 PKD
ROOT
HETATM    1 NA   UNL     1      -9.559  11.072  69.755  1.00  0.00    -0.332 Na 
HETATM    2  C   UNL     2     -11.862  12.289  68.121  1.00  0.00    -0.372 C  
HETATM    3  C   UNL     2     -11.669  13.796  68.097  1.00  0.00    -0.392 C  
ENDROOT
BRANCH   3   4
HETATM    4  C   UNL     2     -11.584  14.305  66.662  1.00  0.00    -0.397 C  
BRANCH   4   5
HETATM    5  C   UNL     2     -12.525  13.539  65.737  1.00  0.00    -0.514 C  
BRANCH   5   6
HETATM    6  C   UNL     2     -12.086  13.697  64.284  1.00  0.00    -0.480 C  
BRANCH   6   7
HETATM    7  C   UNL     2     -12.042  12.352  63.569  1.00  0.00    -0.651 C  
BRANCH   7   8
HETATM    8  C   UNL     2     -10.603  11.862  63.436  1.00  0.00    -0.485 C  
BRANCH   8   9
HETATM    9  C   UNL     2     -10.294  10.793  64.478  1.00  0.00    -0.401 C  
BRANCH   9  10
HETATM   10  C   UNL     2      -9.441  11.364  65.608  1.00  0.00    -0.253 C  
BRANCH  10  11
HETATM   11  C   UNL     2      -9.102  10.278  66.625  1.00  0.00    -0.163 C  
BRANCH  11  12
HETATM   12  C   UNL     2      -9.937   9.024  66.392  1.00  0.00    -0.370 C  
BRANCH  12  13
HETATM   13  C   UNL     2     -10.436   8.452  67.715  1.00  0.00    -0.220 C  
BRANCH  13  14
HETATM   14  O   UNL     2      -9.524   8.766  68.771  1.00  0.00    -0.141 OA 
BRANCH  14  15
HETATM   15  C   UNL     2      -9.653   8.013  69.906  1.00  0.00    -0.171 C  
HETATM   16  O   UNL     2      -8.705   7.496  70.490  1.00  0.00    -0.143 OA 
BRANCH  15  17
HETATM   17  C   UNL     2     -11.084   7.772  70.226  1.00  0.00    -0.234 C  
HETATM   18  S   UNL     2     -11.591   8.769  71.580  1.00  0.00    -0.329 S  
HETATM   19  O   UNL     2     -10.724   8.353  72.679  1.00  0.00    -0.339 OA 
HETATM   20  O   UNL     2     -12.994   8.388  71.738  1.00  0.00    -0.323 OA 
HETATM   21  O   UNL     2     -11.388  10.141  71.115  1.00  0.00    -0.346 OA 
ENDBRANCH  15  17
ENDBRANCH  14  15
ENDBRANCH  13  14
ENDBRANCH  12  13
ENDBRANCH  11  12
ENDBRANCH  10  11
ENDBRANCH   9  10
ENDBRANCH   8   9
ENDBRANCH   7   8
ENDBRANCH   6   7
ENDBRANCH   5   6
ENDBRANCH   4   5
ENDBRANCH   3   4
TORSDOF 13
ENDMDL
MODEL       50
REMARK 921   NORMALIZED FREE ENERGY PREDICTED BY IDOCK:   -4.32 KCAL/MOL
REMARK 922        TOTAL FREE ENERGY PREDICTED BY IDOCK:   -9.16 KCAL/MOL
REMARK 923 INTER-LIGAND FREE ENERGY PREDICTED BY IDOCK:   -7.88 KCAL/MOL
REMARK 924 INTRA-LIGAND FREE ENERGY PREDICTED BY IDOCK:   -1.28 KCAL/MOL
REMARK 927      BINDING AFFINITY PREDICTED BY RF-SCORE:    0.00 PKD
ROOT
HETATM    1 NA   UNL     1      -8.684  13.974  69.605  1.00  0.00    -0.348 Na 
HETATM    2  C   UNL     2     -10.743  11.924  68.597  1.00  0.00    -0.266 C  
HETATM    3  C   UNL     2     -10.072  10.560  68.586  1.00  0.00    -0.190 C  
ENDROOT
BRANCH   3   4
HETATM    4  C   UNL     2     -10.852   9.570  69.444  1.00  0.00    -0.226 C  
BRANCH   4   5
HETATM    5  C   UNL     2     -11.195  10.158  70.810  1.00  0.00    -0.414 C  
BRANCH   5   6
HETATM    6  C   UNL     2     -12.559   9.656  71.277  1.00  0.00    -0.443 C  
BRANCH   6   7
HETATM    7  C   UNL     2     -13.322  10.742  72.025  1.00  0.00    -0.403 C  
BRANCH   7   8
HETATM    8  C   UNL     2     -12.984  12.120  71.463  1.00  0.00    -0.398 C  
BRANCH   8   9
HETATM    9  C   UNL     2     -13.534  13.223  72.360  1.00  0.00    -0.670 C  
BRANCH   9  10
HETATM   10  C   UNL     2     -14.059  14.390  71.528  1.00  0.00    -0.450 C  
BRANCH  10  11
HETATM   11  C   UNL     2     -13.174  15.619  71.710  1.00  0.00    -0.548 C  
BRANCH  11  12
HETATM   12  C   UNL     2     -11.757  15.357  71.214  1.00  0.00    -0.433 C  
BRANCH  12  13
HETATM   13  C   UNL     2     -11.611  15.762  69.750  1.00  0.00    -0.355 C  
BRANCH  13  14
HETATM   14  O   UNL     2     -10.234  15.736  69.361  1.00  0.00    -0.225 OA 
BRANCH  14  15
HETATM   15  C   UNL     2      -9.847  16.724  68.497  1.00  0.00    -0.257 C  
HETATM   16  O   UNL     2      -8.986  17.558  68.762  1.00  0.00    -0.272 OA 
BRANCH  15  17
HETATM   17  C   UNL     2     -10.714  16.750  67.292  1.00  0.00    -0.213 C  
HETATM   18  S   UNL     2      -9.850  16.129  65.895  1.00  0.00    -0.339 S  
HETATM   19  O   UNL     2      -8.708  17.028  65.747  1.00  0.00    -0.522 OA 
HETATM   20  O   UNL     2     -10.850  16.241  64.835  1.00  0.00    -0.625 OA 
HETATM   21  O   UNL     2      -9.511  14.754  66.261  1.00  0.00    -0.283 OA 
ENDBRANCH  15  17
ENDBRANCH  14  15
ENDBRANCH  13  14
ENDBRANCH  12  13
ENDBRANCH  11  12
ENDBRANCH  10  11
ENDBRANCH   9  10
ENDBRANCH   8   9
ENDBRANCH   7   8
ENDBRANCH   6   7
ENDBRANCH   5   6
ENDBRANCH   4   5
ENDBRANCH   3   4
TORSDOF 13
ENDMDL
MODEL       51
REMARK 921   NORMALIZED FREE ENERGY PREDICTED BY IDOCK:   -4.31 KCAL/MOL
REMARK 922        TOTAL FREE ENERGY PREDICTED BY IDOCK:   -9.15 KCAL/MOL
REMARK 923 INTER-LIGAND FREE ENERGY PREDICTED BY IDOCK:   -7.30 KCAL/MOL
REMARK 924 INTRA-LIGAND FREE ENERGY PREDICTED BY IDOCK:   -1.85 KCAL/MOL
REMARK 927      BINDING AFFINITY PREDICTED BY RF-SCORE:    0.00 PKD
ROOT
HETATM    1 NA   UNL     1      -9.507  12.044  69.504  1.00  0.00    -0.383 Na 
HETATM    2  C   UNL     2     -11.881  13.000  67.799  1.00  0.00    -0.395 C  
HETATM    3  C   UNL     2     -11.649  14.462  67.458  1.00  0.00    -0.398 C  
ENDROOT
BRANCH   3   4
HETATM    4  C   UNL     2     -11.647  14.670  65.948  1.00  0.00    -0.327 C  
BRANCH   4   5
HETATM    5  C   UNL     2     -12.595  13.701  65.246  1.00  0.00    -0.512 C  
BRANCH   5   6
HETATM    6  C   UNL     2     -12.140  13.462  63.808  1.00  0.00    -0.516 C  
BRANCH   6   7
HETATM    7  C   UNL     2     -12.044  11.973  63.498  1.00  0.00    -0.628 C  
BRANCH   7   8
HETATM    8  C   UNL     2     -10.584  11.529  63.446  1.00  0.00    -0.460 C  
BRANCH   8   9
HETATM    9  C   UNL     2     -10.228  10.689  64.666  1.00  0.00    -0.404 C  
BRANCH   9  10
HETATM   10  C   UNL     2      -9.330  11.470  65.622  1.00  0.00    -0.221 C  
BRANCH  10  11
HETATM   11  C   UNL     2      -8.981  10.624  66.842  1.00  0.00    -0.147 C  
BRANCH  11  12
HETATM   12  C   UNL     2      -9.891   9.405  66.947  1.00  0.00    -0.261 C  
BRANCH  12  13
HETATM   13  C   UNL     2     -10.804   9.514  68.164  1.00  0.00    -0.156 C  
BRANCH  13  14
HETATM   14  O   UNL     2     -10.031   9.556  69.367  1.00  0.00    -0.174 OA 
BRANCH  14  15
HETATM   15  C   UNL     2     -10.718   9.902  70.499  1.00  0.00    -0.317 C  
HETATM   16  O   UNL     2     -11.439  10.892  70.580  1.00  0.00    -0.312 OA 
BRANCH  15  17
HETATM   17  C   UNL     2     -10.341   9.028  71.639  1.00  0.00    -0.350 C  
HETATM   18  S   UNL     2     -11.661   7.944  72.049  1.00  0.00    -0.330 S  
HETATM   19  O   UNL     2     -12.763   8.834  72.403  1.00  0.00    -0.386 OA 
HETATM   20  O   UNL     2     -11.107   7.189  73.172  1.00  0.00    -0.307 OA 
HETATM   21  O   UNL     2     -11.870   7.153  70.836  1.00  0.00    -0.317 OA 
ENDBRANCH  15  17
ENDBRANCH  14  15
ENDBRANCH  13  14
ENDBRANCH  12  13
ENDBRANCH  11  12
ENDBRANCH  10  11
ENDBRANCH   9  10
ENDBRANCH   8   9
ENDBRANCH   7   8
ENDBRANCH   6   7
ENDBRANCH   5   6
ENDBRANCH   4   5
ENDBRANCH   3   4
TORSDOF 13
ENDMDL
MODEL       52
REMARK 921   NORMALIZED FREE ENERGY PREDICTED BY IDOCK:   -4.30 KCAL/MOL
REMARK 922        TOTAL FREE ENERGY PREDICTED BY IDOCK:   -9.13 KCAL/MOL
REMARK 923 INTER-LIGAND FREE ENERGY PREDICTED BY IDOCK:   -7.90 KCAL/MOL
REMARK 924 INTRA-LIGAND FREE ENERGY PREDICTED BY IDOCK:   -1.23 KCAL/MOL
REMARK 927      BINDING AFFINITY PREDICTED BY RF-SCORE:    0.00 PKD
ROOT
HETATM    1 NA   UNL     1     -11.110  14.097  63.667  1.00  0.00    -0.566 Na 
HETATM    2  C   UNL     2     -10.615  11.236  64.681  1.00  0.00    -0.392 C  
HETATM    3  C   UNL     2     -10.012  11.334  66.072  1.00  0.00    -0.273 C  
ENDROOT
BRANCH   3   4
HETATM    4  C   UNL     2     -10.866  10.576  67.083  1.00  0.00    -0.319 C  
BRANCH   4   5
HETATM    5  C   UNL     2     -10.454  10.896  68.518  1.00  0.00    -0.209 C  
BRANCH   5   6
HETATM    6  C   UNL     2     -11.660  11.373  69.322  1.00  0.00    -0.384 C  
BRANCH   6   7
HETATM    7  C   UNL     2     -11.937  10.452  70.505  1.00  0.00    -0.427 C  
BRANCH   7   8
HETATM    8  C   UNL     2     -12.853  11.137  71.515  1.00  0.00    -0.542 C  
BRANCH   8   9
HETATM    9  C   UNL     2     -12.825  12.651  71.335  1.00  0.00    -0.358 C  
BRANCH   9  10
HETATM   10  C   UNL     2     -13.813  13.331  72.280  1.00  0.00    -0.637 C  
BRANCH  10  11
HETATM   11  C   UNL     2     -13.682  14.848  72.192  1.00  0.00    -0.550 C  
BRANCH  11  12
HETATM   12  C   UNL     2     -12.302  15.310  72.644  1.00  0.00    -0.482 C  
BRANCH  12  13
HETATM   13  C   UNL     2     -11.729  16.337  71.673  1.00  0.00    -0.420 C  
BRANCH  13  14
HETATM   14  O   UNL     2     -11.852  15.873  70.326  1.00  0.00    -0.344 OA 
BRANCH  14  15
HETATM   15  C   UNL     2     -10.694  15.860  69.597  1.00  0.00    -0.304 C  
HETATM   16  O   UNL     2      -9.593  15.605  70.077  1.00  0.00    -0.205 OA 
BRANCH  15  17
HETATM   17  C   UNL     2     -10.926  16.356  68.216  1.00  0.00    -0.355 C  
HETATM   18  S   UNL     2     -10.804  15.040  67.060  1.00  0.00    -0.315 S  
HETATM   19  O   UNL     2      -9.442  14.540  67.222  1.00  0.00    -0.206 OA 
HETATM   20  O   UNL     2     -11.052  15.719  65.789  1.00  0.00    -0.248 OA 
HETATM   21  O   UNL     2     -11.857  14.107  67.460  1.00  0.00    -0.366 OA 
ENDBRANCH  15  17
ENDBRANCH  14  15
ENDBRANCH  13  14
ENDBRANCH  12  13
ENDBRANCH  11  12
ENDBRANCH  10  11
ENDBRANCH   9  10
ENDBRANCH   8   9
ENDBRANCH   7   8
ENDBRANCH   6   7
ENDBRANCH   5   6
ENDBRANCH   4   5
ENDBRANCH   3   4
TORSDOF 13
ENDMDL
MODEL       53
REMARK 921   NORMALIZED FREE ENERGY PREDICTED BY IDOCK:   -4.30 KCAL/MOL
REMARK 922        TOTAL FREE ENERGY PREDICTED BY IDOCK:   -9.13 KCAL/MOL
REMARK 923 INTER-LIGAND FREE ENERGY PREDICTED BY IDOCK:   -8.02 KCAL/MOL
REMARK 924 INTRA-LIGAND FREE ENERGY PREDICTED BY IDOCK:   -1.11 KCAL/MOL
REMARK 927      BINDING AFFINITY PREDICTED BY RF-SCORE:    0.00 PKD
ROOT
HETATM    1 NA   UNL     1     -12.128   6.601  67.095  1.00  0.00    -0.705 Na 
HETATM    2  C   UNL     2     -11.320   5.933  69.986  1.00  0.00    -0.219 C  
HETATM    3  C   UNL     2     -10.976   7.238  70.685  1.00  0.00    -0.278 C  
ENDROOT
BRANCH   3   4
HETATM    4  C   UNL     2     -11.839   7.428  71.927  1.00  0.00    -0.332 C  
BRANCH   4   5
HETATM    5  C   UNL     2     -12.286   8.878  72.085  1.00  0.00    -0.437 C  
BRANCH   5   6
HETATM    6  C   UNL     2     -11.293   9.816  71.403  1.00  0.00    -0.407 C  
BRANCH   6   7
HETATM    7  C   UNL     2     -12.011  10.890  70.595  1.00  0.00    -0.467 C  
BRANCH   7   8
HETATM    8  C   UNL     2     -11.201  11.261  69.356  1.00  0.00    -0.345 C  
BRANCH   8   9
HETATM    9  C   UNL     2     -10.923  10.030  68.501  1.00  0.00    -0.255 C  
BRANCH   9  10
HETATM   10  C   UNL     2      -9.429   9.883  68.227  1.00  0.00    -0.147 C  
BRANCH  10  11
HETATM   11  C   UNL     2      -9.058  10.542  66.902  1.00  0.00    -0.161 C  
BRANCH  11  12
HETATM   12  C   UNL     2      -9.265   9.585  65.733  1.00  0.00    -0.267 C  
BRANCH  12  13
HETATM   13  C   UNL     2     -10.005  10.276  64.592  1.00  0.00    -0.307 C  
BRANCH  13  14
HETATM   14  O   UNL     2     -10.909  11.258  65.106  1.00  0.00    -0.270 OA 
BRANCH  14  15
HETATM   15  C   UNL     2     -11.359  12.178  64.198  1.00  0.00    -0.380 C  
HETATM   16  O   UNL     2     -12.220  11.937  63.357  1.00  0.00    -0.531 OA 
BRANCH  15  17
HETATM   17  C   UNL     2     -10.556  13.426  64.260  1.00  0.00    -0.341 C  
HETATM   18  S   UNL     2     -11.517  14.748  64.903  1.00  0.00    -0.412 S  
HETATM   19  O   UNL     2     -12.628  14.878  63.965  1.00  0.00    -0.832 OA 
HETATM   20  O   UNL     2     -10.570  15.862  64.878  1.00  0.00    -0.546 OA 
HETATM   21  O   UNL     2     -11.890  14.304  66.246  1.00  0.00    -0.380 OA 
ENDBRANCH  15  17
ENDBRANCH  14  15
ENDBRANCH  13  14
ENDBRANCH  12  13
ENDBRANCH  11  12
ENDBRANCH  10  11
ENDBRANCH   9  10
ENDBRANCH   8   9
ENDBRANCH   7   8
ENDBRANCH   6   7
ENDBRANCH   5   6
ENDBRANCH   4   5
ENDBRANCH   3   4
TORSDOF 13
ENDMDL
MODEL       54
REMARK 921   NORMALIZED FREE ENERGY PREDICTED BY IDOCK:   -4.30 KCAL/MOL
REMARK 922        TOTAL FREE ENERGY PREDICTED BY IDOCK:   -9.13 KCAL/MOL
REMARK 923 INTER-LIGAND FREE ENERGY PREDICTED BY IDOCK:   -7.82 KCAL/MOL
REMARK 924 INTRA-LIGAND FREE ENERGY PREDICTED BY IDOCK:   -1.31 KCAL/MOL
REMARK 927      BINDING AFFINITY PREDICTED BY RF-SCORE:    0.00 PKD
ROOT
HETATM    1 NA   UNL     1     -12.992  14.943  63.195  1.00  0.00    -0.763 Na 
HETATM    2  C   UNL     2     -12.516  11.938  63.645  1.00  0.00    -0.583 C  
HETATM    3  C   UNL     2     -11.016  11.716  63.744  1.00  0.00    -0.495 C  
ENDROOT
BRANCH   3   4
HETATM    4  C   UNL     2     -10.656  11.049  65.067  1.00  0.00    -0.315 C  
BRANCH   4   5
HETATM    5  C   UNL     2      -9.544  10.019  64.894  1.00  0.00    -0.375 C  
BRANCH   5   6
HETATM    6  C   UNL     2      -9.188   9.392  66.239  1.00  0.00    -0.229 C  
BRANCH   6   7
HETATM    7  C   UNL     2     -10.273   8.429  66.706  1.00  0.00    -0.376 C  
BRANCH   7   8
HETATM    8  C   UNL     2     -10.492   8.558  68.211  1.00  0.00    -0.222 C  
BRANCH   8   9
HETATM    9  C   UNL     2     -10.444  10.018  68.644  1.00  0.00    -0.228 C  
BRANCH   9  10
HETATM   10  C   UNL     2     -11.246  10.233  69.925  1.00  0.00    -0.360 C  
BRANCH  10  11
HETATM   11  C   UNL     2     -11.911  11.606  69.918  1.00  0.00    -0.434 C  
BRANCH  11  12
HETATM   12  C   UNL     2     -11.887  12.223  68.524  1.00  0.00    -0.359 C  
BRANCH  12  13
HETATM   13  C   UNL     2     -11.802  13.744  68.606  1.00  0.00    -0.374 C  
BRANCH  13  14
HETATM   14  O   UNL     2     -10.436  14.167  68.613  1.00  0.00    -0.240 OA 
BRANCH  14  15
HETATM   15  C   UNL     2     -10.230  15.501  68.387  1.00  0.00    -0.215 C  
HETATM   16  O   UNL     2      -9.612  16.233  69.155  1.00  0.00    -0.244 OA 
BRANCH  15  17
HETATM   17  C   UNL     2     -10.988  15.964  67.196  1.00  0.00    -0.214 C  
HETATM   18  S   UNL     2      -9.996  15.856  65.751  1.00  0.00    -0.351 S  
HETATM   19  O   UNL     2      -8.858  16.729  66.028  1.00  0.00    -0.447 OA 
HETATM   20  O   UNL     2     -10.901  16.351  64.715  1.00  0.00    -0.697 OA 
HETATM   21  O   UNL     2      -9.672  14.434  65.639  1.00  0.00    -0.300 OA 
ENDBRANCH  15  17
ENDBRANCH  14  15
ENDBRANCH  13  14
ENDBRANCH  12  13
ENDBRANCH  11  12
ENDBRANCH  10  11
ENDBRANCH   9  10
ENDBRANCH   8   9
ENDBRANCH   7   8
ENDBRANCH   6   7
ENDBRANCH   5   6
ENDBRANCH   4   5
ENDBRANCH   3   4
TORSDOF 13
ENDMDL
MODEL       55
REMARK 921   NORMALIZED FREE ENERGY PREDICTED BY IDOCK:   -4.29 KCAL/MOL
REMARK 922        TOTAL FREE ENERGY PREDICTED BY IDOCK:   -9.12 KCAL/MOL
REMARK 923 INTER-LIGAND FREE ENERGY PREDICTED BY IDOCK:   -8.21 KCAL/MOL
REMARK 924 INTRA-LIGAND FREE ENERGY PREDICTED BY IDOCK:   -0.91 KCAL/MOL
REMARK 927      BINDING AFFINITY PREDICTED BY RF-SCORE:    0.00 PKD
ROOT
HETATM    1 NA   UNL     1     -11.690   6.703  67.003  1.00  0.00    -0.395 Na 
HETATM    2  C   UNL     2      -9.655   8.952  66.496  1.00  0.00    -0.297 C  
HETATM    3  C   UNL     2      -8.845   8.577  65.266  1.00  0.00    -0.144 C  
ENDROOT
BRANCH   3   4
HETATM    4  C   UNL     2      -8.950   9.663  64.201  1.00  0.00    -0.269 C  
BRANCH   4   5
HETATM    5  C   UNL     2     -10.045  10.672  64.533  1.00  0.00    -0.421 C  
BRANCH   5   6
HETATM    6  C   UNL     2     -10.509  11.388  63.267  1.00  0.00    -0.397 C  
BRANCH   6   7
HETATM    7  C   UNL     2     -11.928  11.921  63.420  1.00  0.00    -0.528 C  
BRANCH   7   8
HETATM    8  C   UNL     2     -11.923  13.445  63.497  1.00  0.00    -0.467 C  
BRANCH   8   9
HETATM    9  C   UNL     2     -12.391  13.921  64.868  1.00  0.00    -0.445 C  
BRANCH   9  10
HETATM   10  C   UNL     2     -11.956  12.947  65.960  1.00  0.00    -0.505 C  
BRANCH  10  11
HETATM   11  C   UNL     2     -10.991  13.624  66.929  1.00  0.00    -0.296 C  
BRANCH  11  12
HETATM   12  C   UNL     2      -9.747  14.128  66.207  1.00  0.00    -0.315 C  
BRANCH  12  13
HETATM   13  C   UNL     2      -9.350  15.511  66.712  1.00  0.00    -0.245 C  
BRANCH  13  14
HETATM   14  O   UNL     2      -9.379  16.460  65.642  1.00  0.00    -0.476 OA 
BRANCH  14  15
HETATM   15  C   UNL     2     -10.522  17.208  65.546  1.00  0.00    -0.144 C  
HETATM   16  O   UNL     2     -11.263  17.192  64.568  1.00  0.00    -1.104 OA 
BRANCH  15  17
HETATM   17  C   UNL     2     -10.643  18.146  66.691  1.00  0.00    -0.278 C  
HETATM   18  S   UNL     2      -9.952  19.709  66.285  1.00  0.00    -0.489 S  
HETATM   19  O   UNL     2      -8.553  19.418  65.982  1.00  0.00    -0.411 OA 
HETATM   20  O   UNL     2     -10.160  20.470  67.516  1.00  0.00    -0.401 OA 
HETATM   21  O   UNL     2     -10.748  20.172  65.148  1.00  0.00    -0.186 OA 
ENDBRANCH  15  17
ENDBRANCH  14  15
ENDBRANCH  13  14
ENDBRANCH  12  13
ENDBRANCH  11  12
ENDBRANCH  10  11
ENDBRANCH   9  10
ENDBRANCH   8   9
ENDBRANCH   7   8
ENDBRANCH   6   7
ENDBRANCH   5   6
ENDBRANCH   4   5
ENDBRANCH   3   4
TORSDOF 13
ENDMDL
MODEL       56
REMARK 921   NORMALIZED FREE ENERGY PREDICTED BY IDOCK:   -4.29 KCAL/MOL
REMARK 922        TOTAL FREE ENERGY PREDICTED BY IDOCK:   -9.12 KCAL/MOL
REMARK 923 INTER-LIGAND FREE ENERGY PREDICTED BY IDOCK:   -7.88 KCAL/MOL
REMARK 924 INTRA-LIGAND FREE ENERGY PREDICTED BY IDOCK:   -1.24 KCAL/MOL
REMARK 927      BINDING AFFINITY PREDICTED BY RF-SCORE:    0.00 PKD
ROOT
HETATM    1 NA   UNL     1     -12.221  14.856  62.937  1.00  0.00    -0.835 Na 
HETATM    2  C   UNL     2     -11.938  11.816  63.303  1.00  0.00    -0.354 C  
HETATM    3  C   UNL     2     -10.506  11.531  63.724  1.00  0.00    -0.459 C  
ENDROOT
BRANCH   3   4
HETATM    4  C   UNL     2     -10.475  10.783  65.053  1.00  0.00    -0.307 C  
BRANCH   4   5
HETATM    5  C   UNL     2      -9.498   9.611  65.014  1.00  0.00    -0.312 C  
BRANCH   5   6
HETATM    6  C   UNL     2      -9.497   8.877  66.353  1.00  0.00    -0.283 C  
BRANCH   6   7
HETATM    7  C   UNL     2      -8.425   9.428  67.286  1.00  0.00    -0.125 C  
BRANCH   7   8
HETATM    8  C   UNL     2      -8.985   9.622  68.692  1.00  0.00    -0.129 C  
BRANCH   8   9
HETATM    9  C   UNL     2     -10.478   9.924  68.645  1.00  0.00    -0.231 C  
BRANCH   9  10
HETATM   10  C   UNL     2     -10.984  10.388  70.009  1.00  0.00    -0.370 C  
BRANCH  10  11
HETATM   11  C   UNL     2     -11.913  11.588  69.857  1.00  0.00    -0.426 C  
BRANCH  11  12
HETATM   12  C   UNL     2     -11.261  12.690  69.029  1.00  0.00    -0.322 C  
BRANCH  12  13
HETATM   13  C   UNL     2     -12.078  12.981  67.774  1.00  0.00    -0.193 C  
BRANCH  13  14
HETATM   14  O   UNL     2     -11.925  14.349  67.386  1.00  0.00    -0.398 OA 
BRANCH  14  15
HETATM   15  C   UNL     2     -11.633  14.558  66.065  1.00  0.00    -0.356 C  
HETATM   16  O   UNL     2     -12.401  14.282  65.148  1.00  0.00    -0.414 OA 
BRANCH  15  17
HETATM   17  C   UNL     2     -10.224  14.995  65.893  1.00  0.00    -0.315 C  
HETATM   18  S   UNL     2     -10.121  16.747  65.847  1.00  0.00    -0.264 S  
HETATM   19  O   UNL     2     -10.939  17.127  64.698  1.00  0.00    -1.005 OA 
HETATM   20  O   UNL     2      -8.687  16.970  65.669  1.00  0.00    -0.468 OA 
HETATM   21  O   UNL     2     -10.641  17.175  67.145  1.00  0.00    -0.313 OA 
ENDBRANCH  15  17
ENDBRANCH  14  15
ENDBRANCH  13  14
ENDBRANCH  12  13
ENDBRANCH  11  12
ENDBRANCH  10  11
ENDBRANCH   9  10
ENDBRANCH   8   9
ENDBRANCH   7   8
ENDBRANCH   6   7
ENDBRANCH   5   6
ENDBRANCH   4   5
ENDBRANCH   3   4
TORSDOF 13
ENDMDL
MODEL       57
REMARK 921   NORMALIZED FREE ENERGY PREDICTED BY IDOCK:   -4.29 KCAL/MOL
REMARK 922        TOTAL FREE ENERGY PREDICTED BY IDOCK:   -9.12 KCAL/MOL
REMARK 923 INTER-LIGAND FREE ENERGY PREDICTED BY IDOCK:   -7.47 KCAL/MOL
REMARK 924 INTRA-LIGAND FREE ENERGY PREDICTED BY IDOCK:   -1.64 KCAL/MOL
REMARK 927      BINDING AFFINITY PREDICTED BY RF-SCORE:    0.00 PKD
ROOT
HETATM    1 NA   UNL     1     -12.577  11.390  68.060  1.00  0.00    -0.178 Na 
HETATM    2  C   UNL     2     -12.037  10.920  71.051  1.00  0.00    -0.425 C  
HETATM    3  C   UNL     2     -12.396   9.478  71.366  1.00  0.00    -0.451 C  
ENDROOT
BRANCH   3   4
HETATM    4  C   UNL     2     -11.199   8.743  71.961  1.00  0.00    -0.443 C  
BRANCH   4   5
HETATM    5  C   UNL     2     -11.570   7.331  72.406  1.00  0.00    -0.307 C  
BRANCH   5   6
HETATM    6  C   UNL     2     -10.425   6.365  72.116  1.00  0.00    -0.234 C  
BRANCH   6   7
HETATM    7  C   UNL     2     -10.008   6.423  70.652  1.00  0.00    -0.213 C  
BRANCH   7   8
HETATM    8  C   UNL     2     -11.145   5.947  69.752  1.00  0.00    -0.422 C  
BRANCH   8   9
HETATM    9  C   UNL     2     -11.151   6.713  68.433  1.00  0.00    -0.281 C  
BRANCH   9  10
HETATM   10  C   UNL     2     -10.230   7.928  68.505  1.00  0.00    -0.229 C  
BRANCH  10  11
HETATM   11  C   UNL     2     -10.708   9.020  67.553  1.00  0.00    -0.239 C  
BRANCH  11  12
HETATM   12  C   UNL     2      -9.622  10.065  67.321  1.00  0.00    -0.188 C  
BRANCH  12  13
HETATM   13  C   UNL     2      -9.300  10.192  65.836  1.00  0.00    -0.175 C  
BRANCH  13  14
HETATM   14  O   UNL     2      -9.421  11.554  65.414  1.00  0.00    -0.224 OA 
BRANCH  14  15
HETATM   15  C   UNL     2     -10.110  11.751  64.248  1.00  0.00    -0.290 C  
HETATM   16  O   UNL     2     -10.096  10.961  63.309  1.00  0.00    -0.332 OA 
BRANCH  15  17
HETATM   17  C   UNL     2     -10.724  13.103  64.213  1.00  0.00    -0.409 C  
HETATM   18  S   UNL     2     -12.375  13.048  64.808  1.00  0.00    -0.431 S  
HETATM   19  O   UNL     2     -13.057  12.133  63.897  1.00  0.00    -0.749 OA 
HETATM   20  O   UNL     2     -12.795  14.444  64.689  1.00  0.00    -0.643 OA 
HETATM   21  O   UNL     2     -12.249  12.572  66.185  1.00  0.00    -0.609 OA 
ENDBRANCH  15  17
ENDBRANCH  14  15
ENDBRANCH  13  14
ENDBRANCH  12  13
ENDBRANCH  11  12
ENDBRANCH  10  11
ENDBRANCH   9  10
ENDBRANCH   8   9
ENDBRANCH   7   8
ENDBRANCH   6   7
ENDBRANCH   5   6
ENDBRANCH   4   5
ENDBRANCH   3   4
TORSDOF 13
ENDMDL
MODEL       58
REMARK 921   NORMALIZED FREE ENERGY PREDICTED BY IDOCK:   -4.29 KCAL/MOL
REMARK 922        TOTAL FREE ENERGY PREDICTED BY IDOCK:   -9.11 KCAL/MOL
REMARK 923 INTER-LIGAND FREE ENERGY PREDICTED BY IDOCK:   -7.60 KCAL/MOL
REMARK 924 INTRA-LIGAND FREE ENERGY PREDICTED BY IDOCK:   -1.51 KCAL/MOL
REMARK 927      BINDING AFFINITY PREDICTED BY RF-SCORE:    0.00 PKD
ROOT
HETATM    1 NA   UNL     1     -12.648  10.466  68.668  1.00  0.00    -0.496 Na 
HETATM    2  C   UNL     2      -9.855  10.242  67.401  1.00  0.00    -0.214 C  
HETATM    3  C   UNL     2     -10.033   9.786  65.962  1.00  0.00    -0.342 C  
ENDROOT
BRANCH   3   4
HETATM    4  C   UNL     2      -9.398  10.784  64.999  1.00  0.00    -0.261 C  
BRANCH   4   5
HETATM    5  C   UNL     2     -10.176  10.873  63.689  1.00  0.00    -0.395 C  
BRANCH   5   6
HETATM    6  C   UNL     2     -10.753  12.274  63.508  1.00  0.00    -0.497 C  
BRANCH   6   7
HETATM    7  C   UNL     2     -12.277  12.252  63.521  1.00  0.00    -0.669 C  
BRANCH   7   8
HETATM    8  C   UNL     2     -12.809  12.732  64.868  1.00  0.00    -0.357 C  
BRANCH   8   9
HETATM    9  C   UNL     2     -11.782  13.606  65.578  1.00  0.00    -0.352 C  
BRANCH   9  10
HETATM   10  C   UNL     2     -11.874  13.435  67.092  1.00  0.00    -0.429 C  
BRANCH  10  11
HETATM   11  C   UNL     2     -10.809  14.272  67.792  1.00  0.00    -0.259 C  
BRANCH  11  12
HETATM   12  C   UNL     2     -11.435  15.245  68.786  1.00  0.00    -0.345 C  
BRANCH  12  13
HETATM   13  C   UNL     2     -11.029  16.680  68.469  1.00  0.00    -0.339 C  
BRANCH  13  14
HETATM   14  O   UNL     2     -10.862  16.852  67.059  1.00  0.00    -0.204 OA 
BRANCH  14  15
HETATM   15  C   UNL     2     -10.171  17.970  66.678  1.00  0.00    -0.373 C  
HETATM   16  O   UNL     2     -10.467  18.652  65.701  1.00  0.00    -0.603 OA 
BRANCH  15  17
HETATM   17  C   UNL     2      -8.940  18.139  67.492  1.00  0.00    -0.257 C  
HETATM   18  S   UNL     2      -7.560  17.416  66.682  1.00  0.00    -0.284 S  
HETATM   19  O   UNL     2      -7.918  16.006  66.547  1.00  0.00    -0.266 OA 
HETATM   20  O   UNL     2      -6.473  17.677  67.625  1.00  0.00    -0.160 OA 
HETATM   21  O   UNL     2      -7.453  18.151  65.422  1.00  0.00    -0.499 OA 
ENDBRANCH  15  17
ENDBRANCH  14  15
ENDBRANCH  13  14
ENDBRANCH  12  13
ENDBRANCH  11  12
ENDBRANCH  10  11
ENDBRANCH   9  10
ENDBRANCH   8   9
ENDBRANCH   7   8
ENDBRANCH   6   7
ENDBRANCH   5   6
ENDBRANCH   4   5
ENDBRANCH   3   4
TORSDOF 13
ENDMDL
MODEL       59
REMARK 921   NORMALIZED FREE ENERGY PREDICTED BY IDOCK:   -4.28 KCAL/MOL
REMARK 922        TOTAL FREE ENERGY PREDICTED BY IDOCK:   -9.09 KCAL/MOL
REMARK 923 INTER-LIGAND FREE ENERGY PREDICTED BY IDOCK:   -7.07 KCAL/MOL
REMARK 924 INTRA-LIGAND FREE ENERGY PREDICTED BY IDOCK:   -2.02 KCAL/MOL
REMARK 927      BINDING AFFINITY PREDICTED BY RF-SCORE:    0.00 PKD
ROOT
HETATM    1 NA   UNL     1     -10.912  16.086  66.177  1.00  0.00    -0.307 Na 
HETATM    2  C   UNL     2     -12.714  13.805  65.173  1.00  0.00    -0.439 C  
HETATM    3  C   UNL     2     -12.267  13.445  63.767  1.00  0.00    -0.482 C  
ENDROOT
BRANCH   3   4
HETATM    4  C   UNL     2     -11.890  11.969  63.683  1.00  0.00    -0.602 C  
BRANCH   4   5
HETATM    5  C   UNL     2     -10.392  11.784  63.458  1.00  0.00    -0.490 C  
BRANCH   5   6
HETATM    6  C   UNL     2      -9.691  11.477  64.779  1.00  0.00    -0.250 C  
BRANCH   6   7
HETATM    7  C   UNL     2     -10.532  10.551  65.650  1.00  0.00    -0.213 C  
BRANCH   7   8
HETATM    8  C   UNL     2     -10.822  11.202  67.000  1.00  0.00    -0.338 C  
BRANCH   8   9
HETATM    9  C   UNL     2      -9.842  12.336  67.277  1.00  0.00    -0.208 C  
BRANCH   9  10
HETATM   10  C   UNL     2     -10.431  13.334  68.271  1.00  0.00    -0.257 C  
BRANCH  10  11
HETATM   11  C   UNL     2      -9.546  14.572  68.376  1.00  0.00    -0.213 C  
BRANCH  11  12
HETATM   12  C   UNL     2      -8.131  14.282  67.888  1.00  0.00    -0.152 C  
BRANCH  12  13
HETATM   13  C   UNL     2      -7.540  15.498  67.184  1.00  0.00    -0.218 C  
BRANCH  13  14
HETATM   14  O   UNL     2      -8.582  16.344  66.689  1.00  0.00    -0.206 OA 
BRANCH  14  15
HETATM   15  C   UNL     2      -8.230  17.648  66.469  1.00  0.00    -0.273 C  
HETATM   16  O   UNL     2      -7.614  18.027  65.477  1.00  0.00    -0.530 OA 
BRANCH  15  17
HETATM   17  C   UNL     2      -8.539  18.491  67.653  1.00  0.00    -0.264 C  
HETATM   18  S   UNL     2     -10.170  19.132  67.546  1.00  0.00    -0.432 S  
HETATM   19  O   UNL     2     -10.169  19.922  66.318  1.00  0.00    -0.446 OA 
HETATM   20  O   UNL     2     -10.275  19.921  68.773  1.00  0.00    -0.451 OA 
HETATM   21  O   UNL     2     -11.024  17.945  67.518  1.00  0.00    -0.304 OA 
ENDBRANCH  15  17
ENDBRANCH  14  15
ENDBRANCH  13  14
ENDBRANCH  12  13
ENDBRANCH  11  12
ENDBRANCH  10  11
ENDBRANCH   9  10
ENDBRANCH   8   9
ENDBRANCH   7   8
ENDBRANCH   6   7
ENDBRANCH   5   6
ENDBRANCH   4   5
ENDBRANCH   3   4
TORSDOF 13
ENDMDL
MODEL       60
REMARK 921   NORMALIZED FREE ENERGY PREDICTED BY IDOCK:   -4.28 KCAL/MOL
REMARK 922        TOTAL FREE ENERGY PREDICTED BY IDOCK:   -9.09 KCAL/MOL
REMARK 923 INTER-LIGAND FREE ENERGY PREDICTED BY IDOCK:   -8.20 KCAL/MOL
REMARK 924 INTRA-LIGAND FREE ENERGY PREDICTED BY IDOCK:   -0.89 KCAL/MOL
REMARK 927      BINDING AFFINITY PREDICTED BY RF-SCORE:    0.00 PKD
ROOT
HETATM    1 NA   UNL     1      -9.332   7.696  67.953  1.00  0.00    -0.134 Na 
HETATM    2  C   UNL     2     -11.186   6.272  69.951  1.00  0.00    -0.498 C  
HETATM    3  C   UNL     2     -10.506   6.291  71.310  1.00  0.00    -0.264 C  
ENDROOT
BRANCH   3   4
HETATM    4  C   UNL     2     -11.397   6.964  72.348  1.00  0.00    -0.308 C  
BRANCH   4   5
HETATM    5  C   UNL     2     -12.171   8.136  71.751  1.00  0.00    -0.358 C  
BRANCH   5   6
HETATM    6  C   UNL     2     -11.301   9.390  71.729  1.00  0.00    -0.387 C  
BRANCH   6   7
HETATM    7  C   UNL     2     -11.880  10.450  70.800  1.00  0.00    -0.466 C  
BRANCH   7   8
HETATM    8  C   UNL     2     -11.523  10.142  69.348  1.00  0.00    -0.202 C  
BRANCH   8   9
HETATM    9  C   UNL     2     -11.671  11.385  68.477  1.00  0.00    -0.386 C  
BRANCH   9  10
HETATM   10  C   UNL     2     -11.806  12.639  69.337  1.00  0.00    -0.356 C  
BRANCH  10  11
HETATM   11  C   UNL     2     -11.982  13.874  68.459  1.00  0.00    -0.394 C  
BRANCH  11  12
HETATM   12  C   UNL     2     -10.665  14.624  68.292  1.00  0.00    -0.240 C  
BRANCH  12  13
HETATM   13  C   UNL     2     -10.300  14.758  66.818  1.00  0.00    -0.268 C  
BRANCH  13  14
HETATM   14  O   UNL     2     -11.232  15.612  66.148  1.00  0.00    -0.200 OA 
BRANCH  14  15
HETATM   15  C   UNL     2     -11.370  15.397  64.804  1.00  0.00    -0.376 C  
HETATM   16  O   UNL     2     -12.000  16.141  64.058  1.00  0.00    -0.897 OA 
BRANCH  15  17
HETATM   17  C   UNL     2     -10.812  14.076  64.415  1.00  0.00    -0.249 C  
HETATM   18  S   UNL     2     -12.100  12.964  63.982  1.00  0.00    -0.474 S  
HETATM   19  O   UNL     2     -12.911  12.861  65.191  1.00  0.00    -0.758 OA 
HETATM   20  O   UNL     2     -11.360  11.749  63.644  1.00  0.00    -0.408 OA 
HETATM   21  O   UNL     2     -12.762  13.602  62.844  1.00  0.00    -0.577 OA 
ENDBRANCH  15  17
ENDBRANCH  14  15
ENDBRANCH  13  14
ENDBRANCH  12  13
ENDBRANCH  11  12
ENDBRANCH  10  11
ENDBRANCH   9  10
ENDBRANCH   8   9
ENDBRANCH   7   8
ENDBRANCH   6   7
ENDBRANCH   5   6
ENDBRANCH   4   5
ENDBRANCH   3   4
TORSDOF 13
ENDMDL
MODEL       61
REMARK 921   NORMALIZED FREE ENERGY PREDICTED BY IDOCK:   -4.27 KCAL/MOL
REMARK 922        TOTAL FREE ENERGY PREDICTED BY IDOCK:   -9.08 KCAL/MOL
REMARK 923 INTER-LIGAND FREE ENERGY PREDICTED BY IDOCK:   -7.67 KCAL/MOL
REMARK 924 INTRA-LIGAND FREE ENERGY PREDICTED BY IDOCK:   -1.41 KCAL/MOL
REMARK 927      BINDING AFFINITY PREDICTED BY RF-SCORE:    0.00 PKD
ROOT
HETATM    1 NA   UNL     1     -12.164  16.040  63.256  1.00  0.00    -0.904 Na 
HETATM    2  C   UNL     2     -12.772  14.080  65.546  1.00  0.00    -0.517 C  
HETATM    3  C   UNL     2     -12.313  12.699  65.109  1.00  0.00    -0.547 C  
ENDROOT
BRANCH   3   4
HETATM    4  C   UNL     2     -11.303  12.129  66.099  1.00  0.00    -0.414 C  
BRANCH   4   5
HETATM    5  C   UNL     2     -11.746  12.347  67.543  1.00  0.00    -0.425 C  
BRANCH   5   6
HETATM    6  C   UNL     2     -10.629  13.010  68.346  1.00  0.00    -0.264 C  
BRANCH   6   7
HETATM    7  C   UNL     2      -9.369  13.179  67.506  1.00  0.00    -0.207 C  
BRANCH   7   8
HETATM    8  C   UNL     2      -9.006  14.656  67.375  1.00  0.00    -0.202 C  
BRANCH   8   9
HETATM    9  C   UNL     2     -10.072  15.536  68.017  1.00  0.00    -0.223 C  
BRANCH   9  10
HETATM   10  C   UNL     2     -10.481  16.668  67.079  1.00  0.00    -0.283 C  
BRANCH  10  11
HETATM   11  C   UNL     2     -10.564  17.990  67.837  1.00  0.00    -0.387 C  
BRANCH  11  12
HETATM   12  C   UNL     2     -10.697  19.168  66.878  1.00  0.00    -0.515 C  
BRANCH  12  13
HETATM   13  C   UNL     2      -9.621  20.214  67.153  1.00  0.00    -0.420 C  
BRANCH  13  14
HETATM   14  O   UNL     2      -8.696  19.733  68.133  1.00  0.00    -0.314 OA 
BRANCH  14  15
HETATM   15  C   UNL     2      -7.376  19.791  67.777  1.00  0.00    -0.279 C  
HETATM   16  O   UNL     2      -6.847  20.785  67.288  1.00  0.00    -0.296 OA 
BRANCH  15  17
HETATM   17  C   UNL     2      -6.731  18.458  67.901  1.00  0.00    -0.216 C  
HETATM   18  S   UNL     2      -6.267  17.847  66.322  1.00  0.00    -0.248 S  
HETATM   19  O   UNL     2      -7.524  17.762  65.583  1.00  0.00    -0.533 OA 
HETATM   20  O   UNL     2      -5.669  16.554  66.652  1.00  0.00    -0.338 OA 
HETATM   21  O   UNL     2      -5.317  18.838  65.815  1.00  0.00    -0.141 OA 
ENDBRANCH  15  17
ENDBRANCH  14  15
ENDBRANCH  13  14
ENDBRANCH  12  13
ENDBRANCH  11  12
ENDBRANCH  10  11
ENDBRANCH   9  10
ENDBRANCH   8   9
ENDBRANCH   7   8
ENDBRANCH   6   7
ENDBRANCH   5   6
ENDBRANCH   4   5
ENDBRANCH   3   4
TORSDOF 13
ENDMDL
MODEL       62
REMARK 921   NORMALIZED FREE ENERGY PREDICTED BY IDOCK:   -4.27 KCAL/MOL
REMARK 922        TOTAL FREE ENERGY PREDICTED BY IDOCK:   -9.08 KCAL/MOL
REMARK 923 INTER-LIGAND FREE ENERGY PREDICTED BY IDOCK:   -7.85 KCAL/MOL
REMARK 924 INTRA-LIGAND FREE ENERGY PREDICTED BY IDOCK:   -1.22 KCAL/MOL
REMARK 927      BINDING AFFINITY PREDICTED BY RF-SCORE:    0.00 PKD
ROOT
HETATM    1 NA   UNL     1     -11.961  15.977  63.404  1.00  0.00    -0.907 Na 
HETATM    2  C   UNL     2     -12.776  13.898  65.518  1.00  0.00    -0.536 C  
HETATM    3  C   UNL     2     -12.178  12.562  65.110  1.00  0.00    -0.509 C  
ENDROOT
BRANCH   3   4
HETATM    4  C   UNL     2     -11.289  12.009  66.218  1.00  0.00    -0.415 C  
BRANCH   4   5
HETATM    5  C   UNL     2     -10.291  13.052  66.712  1.00  0.00    -0.256 C  
BRANCH   5   6
HETATM    6  C   UNL     2     -10.176  12.999  68.233  1.00  0.00    -0.246 C  
BRANCH   6   7
HETATM    7  C   UNL     2     -11.491  12.568  68.873  1.00  0.00    -0.355 C  
BRANCH   7   8
HETATM    8  C   UNL     2     -12.126  13.733  69.627  1.00  0.00    -0.392 C  
BRANCH   8   9
HETATM    9  C   UNL     2     -11.131  14.874  69.804  1.00  0.00    -0.300 C  
BRANCH   9  10
HETATM   10  C   UNL     2     -11.566  16.105  69.013  1.00  0.00    -0.298 C  
BRANCH  10  11
HETATM   11  C   UNL     2     -10.362  16.976  68.671  1.00  0.00    -0.351 C  
BRANCH  11  12
HETATM   12  C   UNL     2     -10.750  18.108  67.726  1.00  0.00    -0.355 C  
BRANCH  12  13
HETATM   13  C   UNL     2     -10.059  17.949  66.376  1.00  0.00    -0.369 C  
BRANCH  13  14
HETATM   14  O   UNL     2      -9.335  19.138  66.044  1.00  0.00    -0.439 OA 
BRANCH  14  15
HETATM   15  C   UNL     2      -7.973  19.009  66.007  1.00  0.00    -0.193 C  
HETATM   16  O   UNL     2      -7.398  17.973  65.686  1.00  0.00    -0.532 OA 
BRANCH  15  17
HETATM   17  C   UNL     2      -7.308  20.215  66.564  1.00  0.00    -0.273 C  
HETATM   18  S   UNL     2      -6.663  19.882  68.163  1.00  0.00    -0.287 S  
HETATM   19  O   UNL     2      -7.832  19.508  68.954  1.00  0.00    -0.356 OA 
HETATM   20  O   UNL     2      -6.068  21.166  68.532  1.00  0.00    -0.301 OA 
HETATM   21  O   UNL     2      -5.693  18.809  67.946  1.00  0.00    -0.186 OA 
ENDBRANCH  15  17
ENDBRANCH  14  15
ENDBRANCH  13  14
ENDBRANCH  12  13
ENDBRANCH  11  12
ENDBRANCH  10  11
ENDBRANCH   9  10
ENDBRANCH   8   9
ENDBRANCH   7   8
ENDBRANCH   6   7
ENDBRANCH   5   6
ENDBRANCH   4   5
ENDBRANCH   3   4
TORSDOF 13
ENDMDL
MODEL       63
REMARK 921   NORMALIZED FREE ENERGY PREDICTED BY IDOCK:   -4.27 KCAL/MOL
REMARK 922        TOTAL FREE ENERGY PREDICTED BY IDOCK:   -9.07 KCAL/MOL
REMARK 923 INTER-LIGAND FREE ENERGY PREDICTED BY IDOCK:   -8.44 KCAL/MOL
REMARK 924 INTRA-LIGAND FREE ENERGY PREDICTED BY IDOCK:   -0.64 KCAL/MOL
REMARK 927      BINDING AFFINITY PREDICTED BY RF-SCORE:    0.00 PKD
ROOT
HETATM    1 NA   UNL     1     -14.397   6.142  72.096  1.00  0.00    -0.332 Na 
HETATM    2  C   UNL     2     -13.163   8.896  72.693  1.00  0.00    -0.363 C  
HETATM    3  C   UNL     2     -11.767   8.919  72.092  1.00  0.00    -0.411 C  
ENDROOT
BRANCH   3   4
HETATM    4  C   UNL     2     -11.624  10.074  71.107  1.00  0.00    -0.460 C  
BRANCH   4   5
HETATM    5  C   UNL     2     -12.938  10.829  70.932  1.00  0.00    -0.385 C  
BRANCH   5   6
HETATM    6  C   UNL     2     -12.697  12.335  70.997  1.00  0.00    -0.319 C  
BRANCH   6   7
HETATM    7  C   UNL     2     -13.303  12.939  72.258  1.00  0.00    -0.597 C  
BRANCH   7   8
HETATM    8  C   UNL     2     -14.388  13.951  71.900  1.00  0.00    -0.377 C  
BRANCH   8   9
HETATM    9  C   UNL     2     -13.937  15.370  72.227  1.00  0.00    -0.661 C  
BRANCH   9  10
HETATM   10  C   UNL     2     -12.559  15.365  72.885  1.00  0.00    -0.524 C  
BRANCH  10  11
HETATM   11  C   UNL     2     -11.541  16.080  72.003  1.00  0.00    -0.512 C  
BRANCH  11  12
HETATM   12  C   UNL     2     -11.798  15.801  70.526  1.00  0.00    -0.402 C  
BRANCH  12  13
HETATM   13  C   UNL     2     -10.549  15.241  69.854  1.00  0.00    -0.276 C  
BRANCH  13  14
HETATM   14  O   UNL     2     -10.897  14.182  68.958  1.00  0.00    -0.249 OA 
BRANCH  14  15
HETATM   15  C   UNL     2     -11.442  14.572  67.765  1.00  0.00    -0.340 C  
HETATM   16  O   UNL     2     -12.175  13.857  67.087  1.00  0.00    -0.406 OA 
BRANCH  15  17
HETATM   17  C   UNL     2     -10.896  15.884  67.333  1.00  0.00    -0.291 C  
HETATM   18  S   UNL     2      -9.754  15.674  66.016  1.00  0.00    -0.367 S  
HETATM   19  O   UNL     2      -8.708  14.823  66.576  1.00  0.00    -0.232 OA 
HETATM   20  O   UNL     2      -9.335  17.049  65.745  1.00  0.00    -0.524 OA 
HETATM   21  O   UNL     2     -10.543  15.064  64.946  1.00  0.00    -0.409 OA 
ENDBRANCH  15  17
ENDBRANCH  14  15
ENDBRANCH  13  14
ENDBRANCH  12  13
ENDBRANCH  11  12
ENDBRANCH  10  11
ENDBRANCH   9  10
ENDBRANCH   8   9
ENDBRANCH   7   8
ENDBRANCH   6   7
ENDBRANCH   5   6
ENDBRANCH   4   5
ENDBRANCH   3   4
TORSDOF 13
ENDMDL
MODEL       64
REMARK 921   NORMALIZED FREE ENERGY PREDICTED BY IDOCK:   -4.27 KCAL/MOL
REMARK 922        TOTAL FREE ENERGY PREDICTED BY IDOCK:   -9.07 KCAL/MOL
REMARK 923 INTER-LIGAND FREE ENERGY PREDICTED BY IDOCK:   -8.14 KCAL/MOL
REMARK 924 INTRA-LIGAND FREE ENERGY PREDICTED BY IDOCK:   -0.93 KCAL/MOL
REMARK 927      BINDING AFFINITY PREDICTED BY RF-SCORE:    0.00 PKD
ROOT
HETATM    1 NA   UNL     1      -9.294   8.585  67.866  1.00  0.00    -0.130 Na 
HETATM    2  C   UNL     2     -11.100   6.440  69.130  1.00  0.00    -0.428 C  
HETATM    3  C   UNL     2     -10.382   5.890  70.351  1.00  0.00    -0.294 C  
ENDROOT
BRANCH   3   4
HETATM    4  C   UNL     2     -11.241   6.058  71.600  1.00  0.00    -0.328 C  
BRANCH   4   5
HETATM    5  C   UNL     2     -12.267   7.175  71.431  1.00  0.00    -0.399 C  
BRANCH   5   6
HETATM    6  C   UNL     2     -11.881   8.382  72.282  1.00  0.00    -0.456 C  
BRANCH   6   7
HETATM    7  C   UNL     2     -12.955   9.463  72.229  1.00  0.00    -0.479 C  
BRANCH   7   8
HETATM    8  C   UNL     2     -12.811  10.300  70.961  1.00  0.00    -0.490 C  
BRANCH   8   9
HETATM    9  C   UNL     2     -12.713  11.783  71.298  1.00  0.00    -0.420 C  
BRANCH   9  10
HETATM   10  C   UNL     2     -12.184  12.579  70.108  1.00  0.00    -0.307 C  
BRANCH  10  11
HETATM   11  C   UNL     2     -11.921  11.657  68.921  1.00  0.00    -0.355 C  
BRANCH  11  12
HETATM   12  C   UNL     2     -10.506  11.842  68.382  1.00  0.00    -0.231 C  
BRANCH  12  13
HETATM   13  C   UNL     2     -10.483  11.706  66.863  1.00  0.00    -0.227 C  
BRANCH  13  14
HETATM   14  O   UNL     2     -11.816  11.616  66.350  1.00  0.00    -0.470 OA 
BRANCH  14  15
HETATM   15  C   UNL     2     -12.062  12.343  65.217  1.00  0.00    -0.391 C  
HETATM   16  O   UNL     2     -13.036  12.162  64.492  1.00  0.00    -0.720 OA 
BRANCH  15  17
HETATM   17  C   UNL     2     -10.922  13.243  64.902  1.00  0.00    -0.330 C  
HETATM   18  S   UNL     2     -11.388  14.924  65.105  1.00  0.00    -0.376 S  
HETATM   19  O   UNL     2     -12.488  15.110  64.162  1.00  0.00    -0.718 OA 
HETATM   20  O   UNL     2     -10.159  15.632  64.749  1.00  0.00    -0.326 OA 
HETATM   21  O   UNL     2     -11.757  15.030  66.516  1.00  0.00    -0.266 OA 
ENDBRANCH  15  17
ENDBRANCH  14  15
ENDBRANCH  13  14
ENDBRANCH  12  13
ENDBRANCH  11  12
ENDBRANCH  10  11
ENDBRANCH   9  10
ENDBRANCH   8   9
ENDBRANCH   7   8
ENDBRANCH   6   7
ENDBRANCH   5   6
ENDBRANCH   4   5
ENDBRANCH   3   4
TORSDOF 13
ENDMDL
MODEL       65
REMARK 921   NORMALIZED FREE ENERGY PREDICTED BY IDOCK:   -4.26 KCAL/MOL
REMARK 922        TOTAL FREE ENERGY PREDICTED BY IDOCK:   -9.05 KCAL/MOL
REMARK 923 INTER-LIGAND FREE ENERGY PREDICTED BY IDOCK:   -8.30 KCAL/MOL
REMARK 924 INTRA-LIGAND FREE ENERGY PREDICTED BY IDOCK:   -0.76 KCAL/MOL
REMARK 927      BINDING AFFINITY PREDICTED BY RF-SCORE:    0.00 PKD
ROOT
HETATM    1 NA   UNL     1     -11.715   5.781  65.927  1.00  0.00    -0.646 Na 
HETATM    2  C   UNL     2     -10.295   6.220  68.619  1.00  0.00    -0.243 C  
HETATM    3  C   UNL     2     -11.183   7.111  69.472  1.00  0.00    -0.121 C  
ENDROOT
BRANCH   3   4
HETATM    4  C   UNL     2     -11.524   6.427  70.792  1.00  0.00    -0.415 C  
BRANCH   4   5
HETATM    5  C   UNL     2     -12.575   7.209  71.575  1.00  0.00    -0.427 C  
BRANCH   5   6
HETATM    6  C   UNL     2     -12.053   8.602  71.918  1.00  0.00    -0.422 C  
BRANCH   6   7
HETATM    7  C   UNL     2     -13.198   9.567  72.205  1.00  0.00    -0.507 C  
BRANCH   7   8
HETATM    8  C   UNL     2     -12.977  10.892  71.481  1.00  0.00    -0.556 C  
BRANCH   8   9
HETATM    9  C   UNL     2     -11.874  10.762  70.437  1.00  0.00    -0.450 C  
BRANCH   9  10
HETATM   10  C   UNL     2     -11.699  12.068  69.665  1.00  0.00    -0.405 C  
BRANCH  10  11
HETATM   11  C   UNL     2     -11.748  11.813  68.162  1.00  0.00    -0.377 C  
BRANCH  11  12
HETATM   12  C   UNL     2     -11.866  13.120  67.384  1.00  0.00    -0.412 C  
BRANCH  12  13
HETATM   13  C   UNL     2     -11.159  14.254  68.120  1.00  0.00    -0.258 C  
BRANCH  13  14
HETATM   14  O   UNL     2     -11.253  15.469  67.370  1.00  0.00    -0.315 OA 
BRANCH  14  15
HETATM   15  C   UNL     2     -10.241  16.367  67.573  1.00  0.00    -0.273 C  
HETATM   16  O   UNL     2      -9.098  16.044  67.886  1.00  0.00    -0.186 OA 
BRANCH  15  17
HETATM   17  C   UNL     2     -10.750  17.762  67.533  1.00  0.00    -0.307 C  
HETATM   18  S   UNL     2     -10.288  18.546  66.031  1.00  0.00    -0.301 S  
HETATM   19  O   UNL     2      -8.828  18.514  66.041  1.00  0.00    -0.493 OA 
HETATM   20  O   UNL     2     -10.865  19.880  66.186  1.00  0.00    -0.397 OA 
HETATM   21  O   UNL     2     -10.918  17.734  64.991  1.00  0.00    -0.784 OA 
ENDBRANCH  15  17
ENDBRANCH  14  15
ENDBRANCH  13  14
ENDBRANCH  12  13
ENDBRANCH  11  12
ENDBRANCH  10  11
ENDBRANCH   9  10
ENDBRANCH   8   9
ENDBRANCH   7   8
ENDBRANCH   6   7
ENDBRANCH   5   6
ENDBRANCH   4   5
ENDBRANCH   3   4
TORSDOF 13
ENDMDL
MODEL       66
REMARK 921   NORMALIZED FREE ENERGY PREDICTED BY IDOCK:   -4.22 KCAL/MOL
REMARK 922        TOTAL FREE ENERGY PREDICTED BY IDOCK:   -9.00 KCAL/MOL
REMARK 923 INTER-LIGAND FREE ENERGY PREDICTED BY IDOCK:   -7.63 KCAL/MOL
REMARK 924 INTRA-LIGAND FREE ENERGY PREDICTED BY IDOCK:   -1.37 KCAL/MOL
REMARK 927      BINDING AFFINITY PREDICTED BY RF-SCORE:    0.00 PKD
ROOT
HETATM    1 NA   UNL     1     -11.667  16.162  63.408  1.00  0.00    -0.869 Na 
HETATM    2  C   UNL     2     -12.061  13.527  64.944  1.00  0.00    -0.431 C  
HETATM    3  C   UNL     2     -10.816  12.680  64.740  1.00  0.00    -0.332 C  
ENDROOT
BRANCH   3   4
HETATM    4  C   UNL     2     -10.186  12.316  66.080  1.00  0.00    -0.263 C  
BRANCH   4   5
HETATM    5  C   UNL     2      -9.728  10.861  66.109  1.00  0.00    -0.252 C  
BRANCH   5   6
HETATM    6  C   UNL     2     -10.355  10.130  67.294  1.00  0.00    -0.291 C  
BRANCH   6   7
HETATM    7  C   UNL     2      -9.588  10.404  68.582  1.00  0.00    -0.166 C  
BRANCH   7   8
HETATM    8  C   UNL     2     -10.480  10.165  69.797  1.00  0.00    -0.301 C  
BRANCH   8   9
HETATM    9  C   UNL     2     -11.861  10.775  69.586  1.00  0.00    -0.392 C  
BRANCH   9  10
HETATM   10  C   UNL     2     -11.987  12.108  70.319  1.00  0.00    -0.389 C  
BRANCH  10  11
HETATM   11  C   UNL     2     -11.852  13.272  69.342  1.00  0.00    -0.386 C  
BRANCH  11  12
HETATM   12  C   UNL     2     -12.310  14.580  69.977  1.00  0.00    -0.376 C  
BRANCH  12  13
HETATM   13  C   UNL     2     -11.123  15.356  70.537  1.00  0.00    -0.335 C  
BRANCH  13  14
HETATM   14  O   UNL     2     -10.858  16.511  69.735  1.00  0.00    -0.331 OA 
BRANCH  14  15
HETATM   15  C   UNL     2      -9.868  16.366  68.802  1.00  0.00    -0.250 C  
HETATM   16  O   UNL     2      -8.671  16.451  69.062  1.00  0.00    -0.248 OA 
BRANCH  15  17
HETATM   17  C   UNL     2     -10.436  16.267  67.433  1.00  0.00    -0.304 C  
HETATM   18  S   UNL     2     -10.145  17.748  66.535  1.00  0.00    -0.370 S  
HETATM   19  O   UNL     2     -10.819  18.782  67.315  1.00  0.00    -0.443 OA 
HETATM   20  O   UNL     2     -10.772  17.458  65.246  1.00  0.00    -0.646 OA 
HETATM   21  O   UNL     2      -8.688  17.861  66.484  1.00  0.00    -0.255 OA 
ENDBRANCH  15  17
ENDBRANCH  14  15
ENDBRANCH  13  14
ENDBRANCH  12  13
ENDBRANCH  11  12
ENDBRANCH  10  11
ENDBRANCH   9  10
ENDBRANCH   8   9
ENDBRANCH   7   8
ENDBRANCH   6   7
ENDBRANCH   5   6
ENDBRANCH   4   5
ENDBRANCH   3   4
TORSDOF 13
ENDMDL
MODEL       67
REMARK 921   NORMALIZED FREE ENERGY PREDICTED BY IDOCK:   -4.21 KCAL/MOL
REMARK 922        TOTAL FREE ENERGY PREDICTED BY IDOCK:   -8.98 KCAL/MOL
REMARK 923 INTER-LIGAND FREE ENERGY PREDICTED BY IDOCK:   -8.25 KCAL/MOL
REMARK 924 INTRA-LIGAND FREE ENERGY PREDICTED BY IDOCK:   -0.73 KCAL/MOL
REMARK 927      BINDING AFFINITY PREDICTED BY RF-SCORE:    0.00 PKD
ROOT
HETATM    1 NA   UNL     1      -8.699  11.947  63.877  1.00  0.00    -0.395 Na 
HETATM    2  C   UNL     2      -9.406   9.429  65.494  1.00  0.00    -0.315 C  
HETATM    3  C   UNL     2      -9.322   9.785  66.969  1.00  0.00    -0.178 C  
ENDROOT
BRANCH   3   4
HETATM    4  C   UNL     2     -10.648   9.507  67.667  1.00  0.00    -0.329 C  
BRANCH   4   5
HETATM    5  C   UNL     2     -10.672  10.086  69.079  1.00  0.00    -0.244 C  
BRANCH   5   6
HETATM    6  C   UNL     2     -12.035  10.708  69.374  1.00  0.00    -0.298 C  
BRANCH   6   7
HETATM    7  C   UNL     2     -12.399  10.572  70.848  1.00  0.00    -0.490 C  
BRANCH   7   8
HETATM    8  C   UNL     2     -12.808  11.925  71.425  1.00  0.00    -0.411 C  
BRANCH   8   9
HETATM    9  C   UNL     2     -12.201  13.066  70.618  1.00  0.00    -0.390 C  
BRANCH   9  10
HETATM   10  C   UNL     2     -12.848  14.399  70.986  1.00  0.00    -0.423 C  
BRANCH  10  11
HETATM   11  C   UNL     2     -12.386  15.500  70.038  1.00  0.00    -0.345 C  
BRANCH  11  12
HETATM   12  C   UNL     2     -10.984  15.220  69.509  1.00  0.00    -0.280 C  
BRANCH  12  13
HETATM   13  C   UNL     2     -10.749  15.943  68.187  1.00  0.00    -0.302 C  
BRANCH  13  14
HETATM   14  O   UNL     2     -10.985  15.060  67.087  1.00  0.00    -0.315 OA 
BRANCH  14  15
HETATM   15  C   UNL     2     -10.638  15.546  65.855  1.00  0.00    -0.339 C  
HETATM   16  O   UNL     2     -10.409  16.731  65.632  1.00  0.00    -0.500 OA 
BRANCH  15  17
HETATM   17  C   UNL     2     -10.742  14.489  64.816  1.00  0.00    -0.393 C  
HETATM   18  S   UNL     2     -12.407  14.300  64.293  1.00  0.00    -0.267 S  
HETATM   19  O   UNL     2     -13.128  13.924  65.507  1.00  0.00    -0.699 OA 
HETATM   20  O   UNL     2     -12.302  13.234  63.297  1.00  0.00    -0.721 OA 
HETATM   21  O   UNL     2     -12.764  15.606  63.741  1.00  0.00    -0.611 OA 
ENDBRANCH  15  17
ENDBRANCH  14  15
ENDBRANCH  13  14
ENDBRANCH  12  13
ENDBRANCH  11  12
ENDBRANCH  10  11
ENDBRANCH   9  10
ENDBRANCH   8   9
ENDBRANCH   7   8
ENDBRANCH   6   7
ENDBRANCH   5   6
ENDBRANCH   4   5
ENDBRANCH   3   4
TORSDOF 13
ENDMDL
MODEL       68
REMARK 921   NORMALIZED FREE ENERGY PREDICTED BY IDOCK:   -4.21 KCAL/MOL
REMARK 922        TOTAL FREE ENERGY PREDICTED BY IDOCK:   -8.98 KCAL/MOL
REMARK 923 INTER-LIGAND FREE ENERGY PREDICTED BY IDOCK:   -7.91 KCAL/MOL
REMARK 924 INTRA-LIGAND FREE ENERGY PREDICTED BY IDOCK:   -1.07 KCAL/MOL
REMARK 927      BINDING AFFINITY PREDICTED BY RF-SCORE:    0.00 PKD
ROOT
HETATM    1 NA   UNL     1     -14.108   8.901  73.675  1.00  0.00    -0.817 Na 
HETATM    2  C   UNL     2     -11.347   8.391  72.420  1.00  0.00    -0.448 C  
HETATM    3  C   UNL     2     -11.485   8.548  70.915  1.00  0.00    -0.302 C  
ENDROOT
BRANCH   3   4
HETATM    4  C   UNL     2     -10.523   9.610  70.393  1.00  0.00    -0.352 C  
BRANCH   4   5
HETATM    5  C   UNL     2     -10.882  10.046  68.975  1.00  0.00    -0.253 C  
BRANCH   5   6
HETATM    6  C   UNL     2     -11.865  11.213  69.012  1.00  0.00    -0.418 C  
BRANCH   6   7
HETATM    7  C   UNL     2     -11.702  12.036  70.285  1.00  0.00    -0.267 C  
BRANCH   7   8
HETATM    8  C   UNL     2     -12.993  12.782  70.609  1.00  0.00     0.100 C  
BRANCH   8   9
HETATM    9  C   UNL     2     -13.185  12.905  72.117  1.00  0.00    -0.552 C  
BRANCH   9  10
HETATM   10  C   UNL     2     -13.818  14.247  72.478  1.00  0.00    -0.575 C  
BRANCH  10  11
HETATM   11  C   UNL     2     -13.431  15.314  71.460  1.00  0.00    -0.577 C  
BRANCH  11  12
HETATM   12  C   UNL     2     -12.069  15.917  71.783  1.00  0.00    -0.567 C  
BRANCH  12  13
HETATM   13  C   UNL     2     -11.198  15.992  70.534  1.00  0.00    -0.378 C  
BRANCH  13  14
HETATM   14  O   UNL     2     -12.007  15.909  69.356  1.00  0.00    -0.354 OA 
BRANCH  14  15
HETATM   15  C   UNL     2     -11.322  15.781  68.178  1.00  0.00    -0.337 C  
HETATM   16  O   UNL     2     -10.539  16.625  67.752  1.00  0.00    -0.325 OA 
BRANCH  15  17
HETATM   17  C   UNL     2     -11.780  14.587  67.422  1.00  0.00    -0.400 C  
HETATM   18  S   UNL     2     -10.439  13.850  66.560  1.00  0.00    -0.285 S  
HETATM   19  O   UNL     2      -9.968  14.899  65.660  1.00  0.00    -0.319 OA 
HETATM   20  O   UNL     2     -11.083  12.722  65.889  1.00  0.00    -0.276 OA 
HETATM   21  O   UNL     2      -9.498  13.468  67.613  1.00  0.00    -0.208 OA 
ENDBRANCH  15  17
ENDBRANCH  14  15
ENDBRANCH  13  14
ENDBRANCH  12  13
ENDBRANCH  11  12
ENDBRANCH  10  11
ENDBRANCH   9  10
ENDBRANCH   8   9
ENDBRANCH   7   8
ENDBRANCH   6   7
ENDBRANCH   5   6
ENDBRANCH   4   5
ENDBRANCH   3   4
TORSDOF 13
ENDMDL
MODEL       69
REMARK 921   NORMALIZED FREE ENERGY PREDICTED BY IDOCK:   -4.21 KCAL/MOL
REMARK 922        TOTAL FREE ENERGY PREDICTED BY IDOCK:   -8.97 KCAL/MOL
REMARK 923 INTER-LIGAND FREE ENERGY PREDICTED BY IDOCK:   -7.54 KCAL/MOL
REMARK 924 INTRA-LIGAND FREE ENERGY PREDICTED BY IDOCK:   -1.42 KCAL/MOL
REMARK 927      BINDING AFFINITY PREDICTED BY RF-SCORE:    0.00 PKD
ROOT
HETATM    1 NA   UNL     1     -12.219  15.215  63.190  1.00  0.00    -0.837 Na 
HETATM    2  C   UNL     2     -12.247  12.191  63.751  1.00  0.00    -0.630 C  
HETATM    3  C   UNL     2     -10.814  11.693  63.680  1.00  0.00    -0.503 C  
ENDROOT
BRANCH   3   4
HETATM    4  C   UNL     2     -10.414  11.015  64.986  1.00  0.00    -0.344 C  
BRANCH   4   5
HETATM    5  C   UNL     2      -9.748  11.996  65.947  1.00  0.00    -0.256 C  
BRANCH   5   6
HETATM    6  C   UNL     2     -10.257  11.773  67.369  1.00  0.00    -0.220 C  
BRANCH   6   7
HETATM    7  C   UNL     2     -11.732  12.135  67.493  1.00  0.00    -0.385 C  
BRANCH   7   8
HETATM    8  C   UNL     2     -11.961  13.594  67.106  1.00  0.00    -0.434 C  
BRANCH   8   9
HETATM    9  C   UNL     2     -11.886  14.499  68.331  1.00  0.00    -0.351 C  
BRANCH   9  10
HETATM   10  C   UNL     2     -10.746  15.505  68.196  1.00  0.00    -0.282 C  
BRANCH  10  11
HETATM   11  C   UNL     2      -9.696  15.274  69.278  1.00  0.00    -0.254 C  
BRANCH  11  12
HETATM   12  C   UNL     2      -8.293  15.219  68.683  1.00  0.00    -0.162 C  
BRANCH  12  13
HETATM   13  C   UNL     2      -7.425  16.345  69.236  1.00  0.00    -0.202 C  
BRANCH  13  14
HETATM   14  O   UNL     2      -7.265  17.377  68.258  1.00  0.00    -0.198 OA 
BRANCH  14  15
HETATM   15  C   UNL     2      -7.617  18.635  68.665  1.00  0.00    -0.314 C  
HETATM   16  O   UNL     2      -6.818  19.451  69.118  1.00  0.00    -0.314 OA 
BRANCH  15  17
HETATM   17  C   UNL     2      -9.092  18.810  68.644  1.00  0.00    -0.330 C  
HETATM   18  S   UNL     2      -9.639  19.251  67.035  1.00  0.00    -0.341 S  
HETATM   19  O   UNL     2      -8.951  20.508  66.751  1.00  0.00    -0.253 OA 
HETATM   20  O   UNL     2     -11.083  19.380  67.222  1.00  0.00    -0.458 OA 
HETATM   21  O   UNL     2      -9.238  18.123  66.194  1.00  0.00    -0.477 OA 
ENDBRANCH  15  17
ENDBRANCH  14  15
ENDBRANCH  13  14
ENDBRANCH  12  13
ENDBRANCH  11  12
ENDBRANCH  10  11
ENDBRANCH   9  10
ENDBRANCH   8   9
ENDBRANCH   7   8
ENDBRANCH   6   7
ENDBRANCH   5   6
ENDBRANCH   4   5
ENDBRANCH   3   4
TORSDOF 13
ENDMDL
MODEL       70
REMARK 921   NORMALIZED FREE ENERGY PREDICTED BY IDOCK:   -4.20 KCAL/MOL
REMARK 922        TOTAL FREE ENERGY PREDICTED BY IDOCK:   -8.95 KCAL/MOL
REMARK 923 INTER-LIGAND FREE ENERGY PREDICTED BY IDOCK:   -7.54 KCAL/MOL
REMARK 924 INTRA-LIGAND FREE ENERGY PREDICTED BY IDOCK:   -1.41 KCAL/MOL
REMARK 927      BINDING AFFINITY PREDICTED BY RF-SCORE:    0.00 PKD
ROOT
HETATM    1 NA   UNL     1     -12.901  12.122  64.664  1.00  0.00    -0.417 Na 
HETATM    2  C   UNL     2     -10.436  11.077  66.177  1.00  0.00    -0.301 C  
HETATM    3  C   UNL     2     -10.909  10.532  67.515  1.00  0.00    -0.357 C  
ENDROOT
BRANCH   3   4
HETATM    4  C   UNL     2     -10.504   9.071  67.676  1.00  0.00    -0.324 C  
BRANCH   4   5
HETATM    5  C   UNL     2      -9.632   8.862  68.910  1.00  0.00    -0.160 C  
BRANCH   5   6
HETATM    6  C   UNL     2     -10.443   8.214  70.029  1.00  0.00    -0.231 C  
BRANCH   6   7
HETATM    7  C   UNL     2     -10.572   9.142  71.231  1.00  0.00    -0.399 C  
BRANCH   7   8
HETATM    8  C   UNL     2     -11.984   9.081  71.807  1.00  0.00    -0.438 C  
BRANCH   8   9
HETATM    9  C   UNL     2     -12.923  10.009  71.045  1.00  0.00    -0.445 C  
BRANCH   9  10
HETATM   10  C   UNL     2     -12.678  11.466  71.429  1.00  0.00    -0.489 C  
BRANCH  10  11
HETATM   11  C   UNL     2     -12.270  12.282  70.207  1.00  0.00    -0.342 C  
BRANCH  11  12
HETATM   12  C   UNL     2     -12.268  13.775  70.515  1.00  0.00    -0.440 C  
BRANCH  12  13
HETATM   13  C   UNL     2     -11.294  14.516  69.605  1.00  0.00    -0.273 C  
BRANCH  13  14
HETATM   14  O   UNL     2     -11.206  13.864  68.334  1.00  0.00    -0.240 OA 
BRANCH  14  15
HETATM   15  C   UNL     2     -11.694  14.575  67.271  1.00  0.00    -0.406 C  
HETATM   16  O   UNL     2     -12.380  14.081  66.381  1.00  0.00    -0.460 OA 
BRANCH  15  17
HETATM   17  C   UNL     2     -11.145  15.956  67.256  1.00  0.00    -0.172 C  
HETATM   18  S   UNL     2     -10.043  16.167  65.905  1.00  0.00    -0.361 S  
HETATM   19  O   UNL     2      -8.991  15.181  66.139  1.00  0.00    -0.279 OA 
HETATM   20  O   UNL     2      -9.616  17.556  66.067  1.00  0.00    -0.473 OA 
HETATM   21  O   UNL     2     -10.868  15.924  64.723  1.00  0.00    -0.533 OA 
ENDBRANCH  15  17
ENDBRANCH  14  15
ENDBRANCH  13  14
ENDBRANCH  12  13
ENDBRANCH  11  12
ENDBRANCH  10  11
ENDBRANCH   9  10
ENDBRANCH   8   9
ENDBRANCH   7   8
ENDBRANCH   6   7
ENDBRANCH   5   6
ENDBRANCH   4   5
ENDBRANCH   3   4
TORSDOF 13
ENDMDL
MODEL       71
REMARK 921   NORMALIZED FREE ENERGY PREDICTED BY IDOCK:   -4.19 KCAL/MOL
REMARK 922        TOTAL FREE ENERGY PREDICTED BY IDOCK:   -8.94 KCAL/MOL
REMARK 923 INTER-LIGAND FREE ENERGY PREDICTED BY IDOCK:   -7.49 KCAL/MOL
REMARK 924 INTRA-LIGAND FREE ENERGY PREDICTED BY IDOCK:   -1.44 KCAL/MOL
REMARK 927      BINDING AFFINITY PREDICTED BY RF-SCORE:    0.00 PKD
ROOT
HETATM    1 NA   UNL     1     -11.159  14.318  71.528  1.00  0.00    -0.492 Na 
HETATM    2  C   UNL     2     -11.999  11.712  70.128  1.00  0.00    -0.441 C  
HETATM    3  C   UNL     2     -11.671  10.558  71.060  1.00  0.00    -0.384 C  
ENDROOT
BRANCH   3   4
HETATM    4  C   UNL     2     -12.920   9.736  71.360  1.00  0.00    -0.490 C  
BRANCH   4   5
HETATM    5  C   UNL     2     -12.571   8.397  72.003  1.00  0.00    -0.400 C  
BRANCH   5   6
HETATM    6  C   UNL     2     -11.057   8.243  72.119  1.00  0.00    -0.397 C  
BRANCH   6   7
HETATM    7  C   UNL     2     -10.578   6.957  71.455  1.00  0.00    -0.239 C  
BRANCH   7   8
HETATM    8  C   UNL     2      -9.548   7.265  70.372  1.00  0.00    -0.165 C  
BRANCH   8   9
HETATM    9  C   UNL     2     -10.231   7.566  69.043  1.00  0.00    -0.208 C  
BRANCH   9  10
HETATM   10  C   UNL     2      -9.573   8.757  68.350  1.00  0.00    -0.157 C  
BRANCH  10  11
HETATM   11  C   UNL     2     -10.580   9.486  67.466  1.00  0.00    -0.338 C  
BRANCH  11  12
HETATM   12  C   UNL     2     -10.020   9.717  66.067  1.00  0.00    -0.344 C  
BRANCH  12  13
HETATM   13  C   UNL     2     -10.604  10.984  65.451  1.00  0.00    -0.202 C  
BRANCH  13  14
HETATM   14  O   UNL     2     -11.254  11.772  66.453  1.00  0.00    -0.316 OA 
BRANCH  14  15
HETATM   15  C   UNL     2     -12.114  12.728  65.986  1.00  0.00    -0.395 C  
HETATM   16  O   UNL     2     -12.794  12.593  64.973  1.00  0.00    -0.765 OA 
BRANCH  15  17
HETATM   17  C   UNL     2     -11.985  13.988  66.763  1.00  0.00    -0.444 C  
HETATM   18  S   UNL     2     -10.801  15.051  66.022  1.00  0.00    -0.341 S  
HETATM   19  O   UNL     2      -9.559  14.283  66.046  1.00  0.00    -0.295 OA 
HETATM   20  O   UNL     2     -10.816  16.206  66.919  1.00  0.00    -0.282 OA 
HETATM   21  O   UNL     2     -11.338  15.318  64.688  1.00  0.00    -0.398 OA 
ENDBRANCH  15  17
ENDBRANCH  14  15
ENDBRANCH  13  14
ENDBRANCH  12  13
ENDBRANCH  11  12
ENDBRANCH  10  11
ENDBRANCH   9  10
ENDBRANCH   8   9
ENDBRANCH   7   8
ENDBRANCH   6   7
ENDBRANCH   5   6
ENDBRANCH   4   5
ENDBRANCH   3   4
TORSDOF 13
ENDMDL
MODEL       72
REMARK 921   NORMALIZED FREE ENERGY PREDICTED BY IDOCK:   -4.19 KCAL/MOL
REMARK 922        TOTAL FREE ENERGY PREDICTED BY IDOCK:   -8.93 KCAL/MOL
REMARK 923 INTER-LIGAND FREE ENERGY PREDICTED BY IDOCK:   -7.33 KCAL/MOL
REMARK 924 INTRA-LIGAND FREE ENERGY PREDICTED BY IDOCK:   -1.61 KCAL/MOL
REMARK 927      BINDING AFFINITY PREDICTED BY RF-SCORE:    0.00 PKD
ROOT
HETATM    1 NA   UNL     1      -9.971   9.875  64.010  1.00  0.00    -0.287 Na 
HETATM    2  C   UNL     2      -9.336   8.144  66.472  1.00  0.00    -0.262 C  
HETATM    3  C   UNL     2     -10.648   7.840  67.176  1.00  0.00    -0.401 C  
ENDROOT
BRANCH   3   4
HETATM    4  C   UNL     2     -10.858   6.334  67.297  1.00  0.00    -0.457 C  
BRANCH   4   5
HETATM    5  C   UNL     2     -10.401   5.811  68.656  1.00  0.00    -0.283 C  
BRANCH   5   6
HETATM    6  C   UNL     2     -11.372   6.252  69.748  1.00  0.00    -0.506 C  
BRANCH   6   7
HETATM    7  C   UNL     2     -10.676   6.352  71.100  1.00  0.00    -0.293 C  
BRANCH   7   8
HETATM    8  C   UNL     2      -9.400   7.181  70.986  1.00  0.00    -0.158 C  
BRANCH   8   9
HETATM    9  C   UNL     2      -9.714   8.672  71.032  1.00  0.00    -0.266 C  
BRANCH   9  10
HETATM   10  C   UNL     2     -11.040   8.927  71.745  1.00  0.00    -0.433 C  
BRANCH  10  11
HETATM   11  C   UNL     2     -11.867   9.960  70.986  1.00  0.00    -0.463 C  
BRANCH  11  12
HETATM   12  C   UNL     2     -11.122  10.467  69.756  1.00  0.00    -0.354 C  
BRANCH  12  13
HETATM   13  C   UNL     2     -12.009  11.390  68.927  1.00  0.00    -0.304 C  
BRANCH  13  14
HETATM   14  O   UNL     2     -11.947  11.031  67.543  1.00  0.00    -0.529 OA 
BRANCH  14  15
HETATM   15  C   UNL     2     -11.069  11.756  66.784  1.00  0.00    -0.306 C  
HETATM   16  O   UNL     2     -10.420  11.281  65.857  1.00  0.00    -0.249 OA 
BRANCH  15  17
HETATM   17  C   UNL     2     -10.888  13.123  67.337  1.00  0.00    -0.255 C  
HETATM   18  S   UNL     2     -11.393  14.333  66.170  1.00  0.00    -0.350 S  
HETATM   19  O   UNL     2     -10.524  14.108  65.017  1.00  0.00    -0.378 OA 
HETATM   20  O   UNL     2     -11.136  15.582  66.886  1.00  0.00    -0.306 OA 
HETATM   21  O   UNL     2     -12.809  14.049  65.942  1.00  0.00    -0.484 OA 
ENDBRANCH  15  17
ENDBRANCH  14  15
ENDBRANCH  13  14
ENDBRANCH  12  13
ENDBRANCH  11  12
ENDBRANCH  10  11
ENDBRANCH   9  10
ENDBRANCH   8   9
ENDBRANCH   7   8
ENDBRANCH   6   7
ENDBRANCH   5   6
ENDBRANCH   4   5
ENDBRANCH   3   4
TORSDOF 13
ENDMDL
MODEL       73
REMARK 921   NORMALIZED FREE ENERGY PREDICTED BY IDOCK:   -4.18 KCAL/MOL
REMARK 922        TOTAL FREE ENERGY PREDICTED BY IDOCK:   -8.91 KCAL/MOL
REMARK 923 INTER-LIGAND FREE ENERGY PREDICTED BY IDOCK:   -7.30 KCAL/MOL
REMARK 924 INTRA-LIGAND FREE ENERGY PREDICTED BY IDOCK:   -1.61 KCAL/MOL
REMARK 927      BINDING AFFINITY PREDICTED BY RF-SCORE:    0.00 PKD
ROOT
HETATM    1 NA   UNL     1      -8.324  12.459  69.342  1.00  0.00    -0.334 Na 
HETATM    2  C   UNL     2      -8.736   9.477  69.968  1.00  0.00    -0.242 C  
HETATM    3  C   UNL     2     -10.053   9.337  70.713  1.00  0.00    -0.358 C  
ENDROOT
BRANCH   3   4
HETATM    4  C   UNL     2     -10.989   8.383  69.977  1.00  0.00    -0.194 C  
BRANCH   4   5
HETATM    5  C   UNL     2     -10.305   7.056  69.663  1.00  0.00    -0.222 C  
BRANCH   5   6
HETATM    6  C   UNL     2     -11.030   6.341  68.526  1.00  0.00    -0.421 C  
BRANCH   6   7
HETATM    7  C   UNL     2     -10.581   6.866  67.167  1.00  0.00    -0.408 C  
BRANCH   7   8
HETATM    8  C   UNL     2      -9.068   7.064  67.142  1.00  0.00    -0.137 C  
BRANCH   8   9
HETATM    9  C   UNL     2      -8.672   8.093  66.089  1.00  0.00    -0.179 C  
BRANCH   9  10
HETATM   10  C   UNL     2      -9.715   9.204  65.994  1.00  0.00    -0.358 C  
BRANCH  10  11
HETATM   11  C   UNL     2      -9.182  10.370  65.168  1.00  0.00    -0.250 C  
BRANCH  11  12
HETATM   12  C   UNL     2      -9.952  10.517  63.860  1.00  0.00    -0.348 C  
BRANCH  12  13
HETATM   13  C   UNL     2     -10.070  11.984  63.462  1.00  0.00    -0.424 C  
BRANCH  13  14
HETATM   14  O   UNL     2     -11.436  12.406  63.511  1.00  0.00    -0.441 OA 
BRANCH  14  15
HETATM   15  C   UNL     2     -11.681  13.528  64.256  1.00  0.00    -0.416 C  
HETATM   16  O   UNL     2     -12.567  14.337  63.994  1.00  0.00    -0.724 OA 
BRANCH  15  17
HETATM   17  C   UNL     2     -10.640  13.713  65.299  1.00  0.00    -0.346 C  
HETATM   18  S   UNL     2     -11.316  13.457  66.899  1.00  0.00    -0.338 S  
HETATM   19  O   UNL     2     -12.368  14.464  67.013  1.00  0.00    -0.353 OA 
HETATM   20  O   UNL     2     -10.161  13.687  67.765  1.00  0.00    -0.234 OA 
HETATM   21  O   UNL     2     -11.786  12.072  66.876  1.00  0.00    -0.580 OA 
ENDBRANCH  15  17
ENDBRANCH  14  15
ENDBRANCH  13  14
ENDBRANCH  12  13
ENDBRANCH  11  12
ENDBRANCH  10  11
ENDBRANCH   9  10
ENDBRANCH   8   9
ENDBRANCH   7   8
ENDBRANCH   6   7
ENDBRANCH   5   6
ENDBRANCH   4   5
ENDBRANCH   3   4
TORSDOF 13
ENDMDL
MODEL       74
REMARK 921   NORMALIZED FREE ENERGY PREDICTED BY IDOCK:   -4.17 KCAL/MOL
REMARK 922        TOTAL FREE ENERGY PREDICTED BY IDOCK:   -8.90 KCAL/MOL
REMARK 923 INTER-LIGAND FREE ENERGY PREDICTED BY IDOCK:   -7.32 KCAL/MOL
REMARK 924 INTRA-LIGAND FREE ENERGY PREDICTED BY IDOCK:   -1.58 KCAL/MOL
REMARK 927      BINDING AFFINITY PREDICTED BY RF-SCORE:    0.00 PKD
ROOT
HETATM    1 NA   UNL     1     -13.043  13.953  68.826  1.00  0.00    -0.410 Na 
HETATM    2  C   UNL     2     -12.555  11.965  71.121  1.00  0.00    -0.390 C  
HETATM    3  C   UNL     2     -12.679  10.561  70.553  1.00  0.00    -0.385 C  
ENDROOT
BRANCH   3   4
HETATM    4  C   UNL     2     -11.402   9.765  70.799  1.00  0.00    -0.416 C  
BRANCH   4   5
HETATM    5  C   UNL     2     -11.593   8.284  70.486  1.00  0.00    -0.133 C  
BRANCH   5   6
HETATM    6  C   UNL     2     -10.352   7.722  69.797  1.00  0.00    -0.221 C  
BRANCH   6   7
HETATM    7  C   UNL     2     -10.339   8.066  68.313  1.00  0.00    -0.240 C  
BRANCH   7   8
HETATM    8  C   UNL     2      -9.056   8.808  67.946  1.00  0.00    -0.145 C  
BRANCH   8   9
HETATM    9  C   UNL     2      -9.330  10.291  67.725  1.00  0.00    -0.156 C  
BRANCH   9  10
HETATM   10  C   UNL     2     -10.690  10.501  67.064  1.00  0.00    -0.310 C  
BRANCH  10  11
HETATM   11  C   UNL     2     -11.225  11.897  67.369  1.00  0.00    -0.366 C  
BRANCH  11  12
HETATM   12  C   UNL     2     -11.631  12.623  66.091  1.00  0.00    -0.445 C  
BRANCH  12  13
HETATM   13  C   UNL     2     -10.728  13.827  65.841  1.00  0.00    -0.285 C  
BRANCH  13  14
HETATM   14  O   UNL     2     -11.471  14.892  65.240  1.00  0.00    -0.347 OA 
BRANCH  14  15
HETATM   15  C   UNL     2     -10.864  16.118  65.258  1.00  0.00    -0.336 C  
HETATM   16  O   UNL     2     -11.058  16.984  64.410  1.00  0.00    -1.144 OA 
BRANCH  15  17
HETATM   17  C   UNL     2      -9.832  16.187  66.325  1.00  0.00    -0.307 C  
HETATM   18  S   UNL     2     -10.458  17.024  67.736  1.00  0.00    -0.350 S  
HETATM   19  O   UNL     2     -10.802  18.355  67.244  1.00  0.00    -0.389 OA 
HETATM   20  O   UNL     2      -9.315  16.993  68.648  1.00  0.00    -0.256 OA 
HETATM   21  O   UNL     2     -11.594  16.210  68.166  1.00  0.00    -0.285 OA 
ENDBRANCH  15  17
ENDBRANCH  14  15
ENDBRANCH  13  14
ENDBRANCH  12  13
ENDBRANCH  11  12
ENDBRANCH  10  11
ENDBRANCH   9  10
ENDBRANCH   8   9
ENDBRANCH   7   8
ENDBRANCH   6   7
ENDBRANCH   5   6
ENDBRANCH   4   5
ENDBRANCH   3   4
TORSDOF 13
ENDMDL
MODEL       75
REMARK 921   NORMALIZED FREE ENERGY PREDICTED BY IDOCK:   -4.16 KCAL/MOL
REMARK 922        TOTAL FREE ENERGY PREDICTED BY IDOCK:   -8.89 KCAL/MOL
REMARK 923 INTER-LIGAND FREE ENERGY PREDICTED BY IDOCK:   -7.40 KCAL/MOL
REMARK 924 INTRA-LIGAND FREE ENERGY PREDICTED BY IDOCK:   -1.49 KCAL/MOL
REMARK 927      BINDING AFFINITY PREDICTED BY RF-SCORE:    0.00 PKD
ROOT
HETATM    1 NA   UNL     1      -9.454  12.283  68.016  1.00  0.00    -0.160 Na 
HETATM    2  C   UNL     2      -9.358  15.212  68.948  1.00  0.00    -0.207 C  
HETATM    3  C   UNL     2      -7.915  15.542  69.294  1.00  0.00    -0.238 C  
ENDROOT
BRANCH   3   4
HETATM    4  C   UNL     2      -7.424  16.731  68.476  1.00  0.00    -0.213 C  
BRANCH   4   5
HETATM    5  C   UNL     2      -7.115  16.334  67.036  1.00  0.00    -0.259 C  
BRANCH   5   6
HETATM    6  C   UNL     2      -6.512  17.514  66.278  1.00  0.00    -0.284 C  
BRANCH   6   7
HETATM    7  C   UNL     2      -5.753  18.445  67.216  1.00  0.00    -0.141 C  
BRANCH   7   8
HETATM    8  C   UNL     2      -5.831  19.886  66.719  1.00  0.00    -0.178 C  
BRANCH   8   9
HETATM    9  C   UNL     2      -7.217  20.195  66.163  1.00  0.00    -0.313 C  
BRANCH   9  10
HETATM   10  C   UNL     2      -8.219  20.421  67.293  1.00  0.00    -0.390 C  
BRANCH  10  11
HETATM   11  C   UNL     2      -9.620  20.003  66.859  1.00  0.00    -0.541 C  
BRANCH  11  12
HETATM   12  C   UNL     2      -9.985  18.632  67.416  1.00  0.00    -0.364 C  
BRANCH  12  13
HETATM   13  C   UNL     2     -10.886  17.874  66.447  1.00  0.00     0.049 C  
BRANCH  13  14
HETATM   14  O   UNL     2     -10.133  16.889  65.732  1.00  0.00    -0.502 OA 
BRANCH  14  15
HETATM   15  C   UNL     2     -10.851  16.112  64.865  1.00  0.00    -0.334 C  
HETATM   16  O   UNL     2     -11.711  16.554  64.109  1.00  0.00    -0.998 OA 
BRANCH  15  17
HETATM   17  C   UNL     2     -10.573  14.669  65.087  1.00  0.00    -0.421 C  
HETATM   18  S   UNL     2     -11.917  13.902  65.917  1.00  0.00    -0.432 S  
HETATM   19  O   UNL     2     -12.019  14.623  67.183  1.00  0.00    -0.391 OA 
HETATM   20  O   UNL     2     -11.456  12.520  66.044  1.00  0.00    -0.336 OA 
HETATM   21  O   UNL     2     -13.051  14.078  65.012  1.00  0.00    -0.742 OA 
ENDBRANCH  15  17
ENDBRANCH  14  15
ENDBRANCH  13  14
ENDBRANCH  12  13
ENDBRANCH  11  12
ENDBRANCH  10  11
ENDBRANCH   9  10
ENDBRANCH   8   9
ENDBRANCH   7   8
ENDBRANCH   6   7
ENDBRANCH   5   6
ENDBRANCH   4   5
ENDBRANCH   3   4
TORSDOF 13
ENDMDL
MODEL       76
REMARK 921   NORMALIZED FREE ENERGY PREDICTED BY IDOCK:   -4.16 KCAL/MOL
REMARK 922        TOTAL FREE ENERGY PREDICTED BY IDOCK:   -8.89 KCAL/MOL
REMARK 923 INTER-LIGAND FREE ENERGY PREDICTED BY IDOCK:   -8.00 KCAL/MOL
REMARK 924 INTRA-LIGAND FREE ENERGY PREDICTED BY IDOCK:   -0.89 KCAL/MOL
REMARK 927      BINDING AFFINITY PREDICTED BY RF-SCORE:    0.00 PKD
ROOT
HETATM    1 NA   UNL     1     -12.153  20.996  63.506  1.00  0.00    -0.805 Na 
HETATM    2  C   UNL     2     -10.499  20.082  65.932  1.00  0.00    -0.511 C  
HETATM    3  C   UNL     2     -10.677  18.579  66.075  1.00  0.00    -0.252 C  
ENDROOT
BRANCH   3   4
HETATM    4  C   UNL     2      -9.327  17.871  66.030  1.00  0.00    -0.051 C  
BRANCH   4   5
HETATM    5  C   UNL     2      -8.438  18.280  67.200  1.00  0.00    -0.253 C  
BRANCH   5   6
HETATM    6  C   UNL     2      -9.182  18.099  68.521  1.00  0.00    -0.326 C  
BRANCH   6   7
HETATM    7  C   UNL     2      -9.326  16.625  68.878  1.00  0.00    -0.244 C  
BRANCH   7   8
HETATM    8  C   UNL     2     -10.798  16.223  68.912  1.00  0.00    -0.317 C  
BRANCH   8   9
HETATM    9  C   UNL     2     -11.326  16.213  70.342  1.00  0.00    -0.377 C  
BRANCH   9  10
HETATM   10  C   UNL     2     -11.739  14.804  70.761  1.00  0.00    -0.355 C  
BRANCH  10  11
HETATM   11  C   UNL     2     -12.350  14.052  69.583  1.00  0.00    -0.309 C  
BRANCH  11  12
HETATM   12  C   UNL     2     -11.580  12.770  69.288  1.00  0.00    -0.372 C  
BRANCH  12  13
HETATM   13  C   UNL     2     -11.694  12.396  67.813  1.00  0.00    -0.350 C  
BRANCH  13  14
HETATM   14  O   UNL     2     -10.854  13.239  67.018  1.00  0.00    -0.265 OA 
BRANCH  14  15
HETATM   15  C   UNL     2     -11.428  13.739  65.881  1.00  0.00    -0.322 C  
HETATM   16  O   UNL     2     -11.227  14.875  65.462  1.00  0.00    -0.335 OA 
BRANCH  15  17
HETATM   17  C   UNL     2     -12.437  12.796  65.333  1.00  0.00    -0.416 C  
HETATM   18  S   UNL     2     -12.264  12.650  63.592  1.00  0.00    -0.536 S  
HETATM   19  O   UNL     2     -12.478  14.006  63.092  1.00  0.00    -0.733 OA 
HETATM   20  O   UNL     2     -13.328  11.705  63.252  1.00  0.00    -0.445 OA 
HETATM   21  O   UNL     2     -10.911  12.128  63.404  1.00  0.00    -0.426 OA 
ENDBRANCH  15  17
ENDBRANCH  14  15
ENDBRANCH  13  14
ENDBRANCH  12  13
ENDBRANCH  11  12
ENDBRANCH  10  11
ENDBRANCH   9  10
ENDBRANCH   8   9
ENDBRANCH   7   8
ENDBRANCH   6   7
ENDBRANCH   5   6
ENDBRANCH   4   5
ENDBRANCH   3   4
TORSDOF 13
ENDMDL
MODEL       77
REMARK 921   NORMALIZED FREE ENERGY PREDICTED BY IDOCK:   -4.16 KCAL/MOL
REMARK 922        TOTAL FREE ENERGY PREDICTED BY IDOCK:   -8.89 KCAL/MOL
REMARK 923 INTER-LIGAND FREE ENERGY PREDICTED BY IDOCK:   -7.51 KCAL/MOL
REMARK 924 INTRA-LIGAND FREE ENERGY PREDICTED BY IDOCK:   -1.37 KCAL/MOL
REMARK 927      BINDING AFFINITY PREDICTED BY RF-SCORE:    0.00 PKD
ROOT
HETATM    1 NA   UNL     1     -11.338  17.809  64.872  1.00  0.00    -0.473 Na 
HETATM    2  C   UNL     2     -10.778  14.788  64.736  1.00  0.00    -0.380 C  
HETATM    3  C   UNL     2     -12.114  14.073  64.614  1.00  0.00    -0.462 C  
ENDROOT
BRANCH   3   4
HETATM    4  C   UNL     2     -12.149  13.207  63.360  1.00  0.00    -0.558 C  
BRANCH   4   5
HETATM    5  C   UNL     2     -12.034  11.723  63.699  1.00  0.00    -0.490 C  
BRANCH   5   6
HETATM    6  C   UNL     2     -10.609  11.232  63.453  1.00  0.00    -0.393 C  
BRANCH   6   7
HETATM    7  C   UNL     2     -10.025  10.582  64.702  1.00  0.00    -0.415 C  
BRANCH   7   8
HETATM    8  C   UNL     2      -9.540  11.645  65.683  1.00  0.00    -0.252 C  
BRANCH   8   9
HETATM    9  C   UNL     2     -10.286  11.542  67.009  1.00  0.00    -0.244 C  
BRANCH   9  10
HETATM   10  C   UNL     2      -9.875  12.668  67.954  1.00  0.00    -0.218 C  
BRANCH  10  11
HETATM   11  C   UNL     2     -11.061  13.116  68.802  1.00  0.00    -0.309 C  
BRANCH  11  12
HETATM   12  C   UNL     2     -11.982  14.043  68.016  1.00  0.00    -0.386 C  
BRANCH  12  13
HETATM   13  C   UNL     2     -11.738  15.500  68.395  1.00  0.00    -0.309 C  
BRANCH  13  14
HETATM   14  O   UNL     2     -10.477  15.639  69.056  1.00  0.00    -0.209 OA 
BRANCH  14  15
HETATM   15  C   UNL     2      -9.651  16.608  68.555  1.00  0.00    -0.241 C  
HETATM   16  O   UNL     2      -8.449  16.667  68.795  1.00  0.00    -0.238 OA 
BRANCH  15  17
HETATM   17  C   UNL     2     -10.428  17.651  67.836  1.00  0.00    -0.392 C  
HETATM   18  S   UNL     2      -9.389  18.551  66.743  1.00  0.00    -0.306 S  
HETATM   19  O   UNL     2      -8.378  19.146  67.613  1.00  0.00    -0.281 OA 
HETATM   20  O   UNL     2     -10.319  19.511  66.150  1.00  0.00    -0.445 OA 
HETATM   21  O   UNL     2      -8.887  17.543  65.809  1.00  0.00    -0.514 OA 
ENDBRANCH  15  17
ENDBRANCH  14  15
ENDBRANCH  13  14
ENDBRANCH  12  13
ENDBRANCH  11  12
ENDBRANCH  10  11
ENDBRANCH   9  10
ENDBRANCH   8   9
ENDBRANCH   7   8
ENDBRANCH   6   7
ENDBRANCH   5   6
ENDBRANCH   4   5
ENDBRANCH   3   4
TORSDOF 13
ENDMDL
MODEL       78
REMARK 921   NORMALIZED FREE ENERGY PREDICTED BY IDOCK:   -4.16 KCAL/MOL
REMARK 922        TOTAL FREE ENERGY PREDICTED BY IDOCK:   -8.88 KCAL/MOL
REMARK 923 INTER-LIGAND FREE ENERGY PREDICTED BY IDOCK:   -7.59 KCAL/MOL
REMARK 924 INTRA-LIGAND FREE ENERGY PREDICTED BY IDOCK:   -1.29 KCAL/MOL
REMARK 927      BINDING AFFINITY PREDICTED BY RF-SCORE:    0.00 PKD
ROOT
HETATM    1 NA   UNL     1     -10.826  20.728  70.258  1.00  0.00    -0.816 Na 
HETATM    2  C   UNL     2     -10.582  19.531  67.435  1.00  0.00    -0.607 C  
HETATM    3  C   UNL     2      -9.650  20.423  66.632  1.00  0.00    -0.480 C  
ENDROOT
BRANCH   3   4
HETATM    4  C   UNL     2      -8.470  19.621  66.093  1.00  0.00    -0.354 C  
BRANCH   4   5
HETATM    5  C   UNL     2      -7.156  20.382  66.247  1.00  0.00    -0.283 C  
BRANCH   5   6
HETATM    6  C   UNL     2      -7.011  20.906  67.673  1.00  0.00    -0.368 C  
BRANCH   6   7
HETATM    7  C   UNL     2      -6.135  19.985  68.516  1.00  0.00    -0.303 C  
BRANCH   7   8
HETATM    8  C   UNL     2      -6.997  19.079  69.390  1.00  0.00    -0.244 C  
BRANCH   8   9
HETATM    9  C   UNL     2      -6.416  17.671  69.452  1.00  0.00    -0.231 C  
BRANCH   9  10
HETATM   10  C   UNL     2      -5.966  17.206  68.069  1.00  0.00    -0.127 C  
BRANCH  10  11
HETATM   11  C   UNL     2      -6.134  15.697  67.929  1.00  0.00    -0.163 C  
BRANCH  11  12
HETATM   12  C   UNL     2      -7.561  15.335  67.535  1.00  0.00    -0.212 C  
BRANCH  12  13
HETATM   13  C   UNL     2      -8.074  16.264  66.440  1.00  0.00    -0.299 C  
BRANCH  13  14
HETATM   14  O   UNL     2      -9.043  15.593  65.630  1.00  0.00    -0.238 OA 
BRANCH  14  15
HETATM   15  C   UNL     2     -10.329  16.046  65.751  1.00  0.00    -0.378 C  
HETATM   16  O   UNL     2     -10.865  16.793  64.937  1.00  0.00    -0.707 OA 
BRANCH  15  17
HETATM   17  C   UNL     2     -10.911  15.656  67.061  1.00  0.00    -0.261 C  
HETATM   18  S   UNL     2     -11.581  14.035  66.981  1.00  0.00    -0.391 S  
HETATM   19  O   UNL     2     -12.609  14.119  65.947  1.00  0.00    -0.486 OA 
HETATM   20  O   UNL     2     -12.099  13.846  68.335  1.00  0.00    -0.365 OA 
HETATM   21  O   UNL     2     -10.438  13.186  66.649  1.00  0.00    -0.271 OA 
ENDBRANCH  15  17
ENDBRANCH  14  15
ENDBRANCH  13  14
ENDBRANCH  12  13
ENDBRANCH  11  12
ENDBRANCH  10  11
ENDBRANCH   9  10
ENDBRANCH   8   9
ENDBRANCH   7   8
ENDBRANCH   6   7
ENDBRANCH   5   6
ENDBRANCH   4   5
ENDBRANCH   3   4
TORSDOF 13
ENDMDL
MODEL       79
REMARK 921   NORMALIZED FREE ENERGY PREDICTED BY IDOCK:   -4.15 KCAL/MOL
REMARK 922        TOTAL FREE ENERGY PREDICTED BY IDOCK:   -8.86 KCAL/MOL
REMARK 923 INTER-LIGAND FREE ENERGY PREDICTED BY IDOCK:   -7.84 KCAL/MOL
REMARK 924 INTRA-LIGAND FREE ENERGY PREDICTED BY IDOCK:   -1.02 KCAL/MOL
REMARK 927      BINDING AFFINITY PREDICTED BY RF-SCORE:    0.00 PKD
ROOT
HETATM    1 NA   UNL     1     -11.278  21.022  70.262  1.00  0.00    -0.907 Na 
HETATM    2  C   UNL     2     -10.673  19.272  67.807  1.00  0.00    -0.478 C  
HETATM    3  C   UNL     2     -10.016  17.993  68.299  1.00  0.00    -0.374 C  
ENDROOT
BRANCH   3   4
HETATM    4  C   UNL     2     -10.810  16.771  67.846  1.00  0.00    -0.311 C  
BRANCH   4   5
HETATM    5  C   UNL     2     -11.474  16.064  69.024  1.00  0.00    -0.360 C  
BRANCH   5   6
HETATM    6  C   UNL     2     -11.968  14.683  68.603  1.00  0.00    -0.305 C  
BRANCH   6   7
HETATM    7  C   UNL     2     -10.882  13.628  68.781  1.00  0.00    -0.279 C  
BRANCH   7   8
HETATM    8  C   UNL     2     -11.501  12.240  68.919  1.00  0.00    -0.355 C  
BRANCH   8   9
HETATM    9  C   UNL     2     -11.103  11.349  67.747  1.00  0.00    -0.323 C  
BRANCH   9  10
HETATM   10  C   UNL     2      -9.631  10.954  67.838  1.00  0.00    -0.175 C  
BRANCH  10  11
HETATM   11  C   UNL     2      -9.207  10.174  66.597  1.00  0.00    -0.181 C  
BRANCH  11  12
HETATM   12  C   UNL     2      -9.223  11.061  65.357  1.00  0.00    -0.232 C  
BRANCH  12  13
HETATM   13  C   UNL     2     -10.254  10.564  64.349  1.00  0.00    -0.267 C  
BRANCH  13  14
HETATM   14  O   UNL     2     -10.633  11.621  63.462  1.00  0.00    -0.372 OA 
BRANCH  14  15
HETATM   15  C   UNL     2     -11.885  12.137  63.660  1.00  0.00    -0.516 C  
HETATM   16  O   UNL     2     -12.846  11.468  64.029  1.00  0.00    -0.064 OA 
BRANCH  15  17
HETATM   17  C   UNL     2     -11.956  13.552  63.210  1.00  0.00    -0.123 C  
HETATM   18  S   UNL     2     -11.957  14.639  64.589  1.00  0.00    -0.436 S  
HETATM   19  O   UNL     2     -13.148  14.262  65.346  1.00  0.00    -0.685 OA 
HETATM   20  O   UNL     2     -12.036  15.952  63.950  1.00  0.00    -0.768 OA 
HETATM   21  O   UNL     2     -10.686  14.372  65.262  1.00  0.00    -0.327 OA 
ENDBRANCH  15  17
ENDBRANCH  14  15
ENDBRANCH  13  14
ENDBRANCH  12  13
ENDBRANCH  11  12
ENDBRANCH  10  11
ENDBRANCH   9  10
ENDBRANCH   8   9
ENDBRANCH   7   8
ENDBRANCH   6   7
ENDBRANCH   5   6
ENDBRANCH   4   5
ENDBRANCH   3   4
TORSDOF 13
ENDMDL
MODEL       80
REMARK 921   NORMALIZED FREE ENERGY PREDICTED BY IDOCK:   -4.14 KCAL/MOL
REMARK 922        TOTAL FREE ENERGY PREDICTED BY IDOCK:   -8.86 KCAL/MOL
REMARK 923 INTER-LIGAND FREE ENERGY PREDICTED BY IDOCK:   -7.77 KCAL/MOL
REMARK 924 INTRA-LIGAND FREE ENERGY PREDICTED BY IDOCK:   -1.08 KCAL/MOL
REMARK 927      BINDING AFFINITY PREDICTED BY RF-SCORE:    0.00 PKD
ROOT
HETATM    1 NA   UNL     1     -11.955  16.026  63.204  1.00  0.00    -0.889 Na 
HETATM    2  C   UNL     2     -11.689  13.032  63.854  1.00  0.00    -0.531 C  
HETATM    3  C   UNL     2     -10.843  12.903  65.110  1.00  0.00    -0.320 C  
ENDROOT
BRANCH   3   4
HETATM    4  C   UNL     2     -11.601  12.147  66.195  1.00  0.00    -0.418 C  
BRANCH   4   5
HETATM    5  C   UNL     2     -10.992  12.382  67.574  1.00  0.00    -0.293 C  
BRANCH   5   6
HETATM    6  C   UNL     2     -11.852  11.728  68.653  1.00  0.00    -0.369 C  
BRANCH   6   7
HETATM    7  C   UNL     2     -11.423  12.170  70.047  1.00  0.00    -0.156 C  
BRANCH   7   8
HETATM    8  C   UNL     2     -12.638  12.569  70.880  1.00  0.00    -0.331 C  
BRANCH   8   9
HETATM    9  C   UNL     2     -12.899  14.067  70.779  1.00  0.00    -0.355 C  
BRANCH   9  10
HETATM   10  C   UNL     2     -11.813  14.859  71.502  1.00  0.00    -0.419 C  
BRANCH  10  11
HETATM   11  C   UNL     2     -11.259  15.957  70.600  1.00  0.00    -0.402 C  
BRANCH  11  12
HETATM   12  C   UNL     2     -11.653  15.728  69.146  1.00  0.00    -0.399 C  
BRANCH  12  13
HETATM   13  C   UNL     2     -10.791  16.569  68.211  1.00  0.00    -0.352 C  
BRANCH  13  14
HETATM   14  O   UNL     2     -10.366  17.767  68.867  1.00  0.00    -0.368 OA 
BRANCH  14  15
HETATM   15  C   UNL     2     -10.227  18.864  68.061  1.00  0.00    -0.388 C  
HETATM   16  O   UNL     2     -10.720  19.960  68.313  1.00  0.00    -0.284 OA 
BRANCH  15  17
HETATM   17  C   UNL     2      -9.558  18.506  66.783  1.00  0.00    -0.321 C  
HETATM   18  S   UNL     2      -7.978  19.266  66.680  1.00  0.00    -0.291 S  
HETATM   19  O   UNL     2      -8.259  20.697  66.748  1.00  0.00    -0.200 OA 
HETATM   20  O   UNL     2      -7.496  18.805  65.378  1.00  0.00    -0.459 OA 
HETATM   21  O   UNL     2      -7.240  18.725  67.821  1.00  0.00    -0.228 OA 
ENDBRANCH  15  17
ENDBRANCH  14  15
ENDBRANCH  13  14
ENDBRANCH  12  13
ENDBRANCH  11  12
ENDBRANCH  10  11
ENDBRANCH   9  10
ENDBRANCH   8   9
ENDBRANCH   7   8
ENDBRANCH   6   7
ENDBRANCH   5   6
ENDBRANCH   4   5
ENDBRANCH   3   4
TORSDOF 13
ENDMDL
MODEL       81
REMARK 921   NORMALIZED FREE ENERGY PREDICTED BY IDOCK:   -4.13 KCAL/MOL
REMARK 922        TOTAL FREE ENERGY PREDICTED BY IDOCK:   -8.84 KCAL/MOL
REMARK 923 INTER-LIGAND FREE ENERGY PREDICTED BY IDOCK:   -8.04 KCAL/MOL
REMARK 924 INTRA-LIGAND FREE ENERGY PREDICTED BY IDOCK:   -0.80 KCAL/MOL
REMARK 927      BINDING AFFINITY PREDICTED BY RF-SCORE:    0.00 PKD
ROOT
HETATM    1 NA   UNL     1     -13.599   5.633  73.016  1.00  0.00    -0.566 Na 
HETATM    2  C   UNL     2     -11.307   6.616  71.215  1.00  0.00    -0.346 C  
HETATM    3  C   UNL     2     -10.481   5.406  70.813  1.00  0.00    -0.317 C  
ENDROOT
BRANCH   3   4
HETATM    4  C   UNL     2     -10.412   5.281  69.295  1.00  0.00    -0.255 C  
BRANCH   4   5
HETATM    5  C   UNL     2     -11.175   6.408  68.603  1.00  0.00    -0.338 C  
BRANCH   5   6
HETATM    6  C   UNL     2     -10.838   6.441  67.115  1.00  0.00    -0.467 C  
BRANCH   6   7
HETATM    7  C   UNL     2     -10.045   7.692  66.755  1.00  0.00    -0.325 C  
BRANCH   7   8
HETATM    8  C   UNL     2     -10.440   8.856  67.659  1.00  0.00    -0.320 C  
BRANCH   8   9
HETATM    9  C   UNL     2     -10.641  10.130  66.847  1.00  0.00    -0.267 C  
BRANCH   9  10
HETATM   10  C   UNL     2      -9.684  10.176  65.659  1.00  0.00    -0.322 C  
BRANCH  10  11
HETATM   11  C   UNL     2     -10.156  11.197  64.628  1.00  0.00    -0.358 C  
BRANCH  11  12
HETATM   12  C   UNL     2     -11.054  12.251  65.267  1.00  0.00    -0.359 C  
BRANCH  12  13
HETATM   13  C   UNL     2     -11.223  13.451  64.342  1.00  0.00    -0.384 C  
BRANCH  13  14
HETATM   14  O   UNL     2     -11.740  14.571  65.068  1.00  0.00    -0.362 OA 
BRANCH  14  15
HETATM   15  C   UNL     2     -11.031  15.734  64.941  1.00  0.00    -0.427 C  
HETATM   16  O   UNL     2     -11.292  16.602  64.113  1.00  0.00    -1.141 OA 
BRANCH  15  17
HETATM   17  C   UNL     2      -9.826  15.722  65.810  1.00  0.00    -0.348 C  
HETATM   18  S   UNL     2     -10.179  16.454  67.367  1.00  0.00    -0.285 S  
HETATM   19  O   UNL     2     -10.585  17.818  67.041  1.00  0.00    -0.333 OA 
HETATM   20  O   UNL     2      -8.894  16.352  68.057  1.00  0.00    -0.181 OA 
HETATM   21  O   UNL     2     -11.234  15.613  67.931  1.00  0.00    -0.336 OA 
ENDBRANCH  15  17
ENDBRANCH  14  15
ENDBRANCH  13  14
ENDBRANCH  12  13
ENDBRANCH  11  12
ENDBRANCH  10  11
ENDBRANCH   9  10
ENDBRANCH   8   9
ENDBRANCH   7   8
ENDBRANCH   6   7
ENDBRANCH   5   6
ENDBRANCH   4   5
ENDBRANCH   3   4
TORSDOF 13
ENDMDL
MODEL       82
REMARK 921   NORMALIZED FREE ENERGY PREDICTED BY IDOCK:   -4.13 KCAL/MOL
REMARK 922        TOTAL FREE ENERGY PREDICTED BY IDOCK:   -8.84 KCAL/MOL
REMARK 923 INTER-LIGAND FREE ENERGY PREDICTED BY IDOCK:   -7.91 KCAL/MOL
REMARK 924 INTRA-LIGAND FREE ENERGY PREDICTED BY IDOCK:   -0.92 KCAL/MOL
REMARK 927      BINDING AFFINITY PREDICTED BY RF-SCORE:    0.00 PKD
ROOT
HETATM    1 NA   UNL     1     -12.095  16.691  72.311  1.00  0.00    -0.403 Na 
HETATM    2  C   UNL     2     -13.669  14.224  71.365  1.00  0.00    -0.382 C  
HETATM    3  C   UNL     2     -12.670  13.114  71.087  1.00  0.00    -0.386 C  
ENDROOT
BRANCH   3   4
HETATM    4  C   UNL     2     -12.992  11.878  71.919  1.00  0.00    -0.434 C  
BRANCH   4   5
HETATM    5  C   UNL     2     -13.096  10.627  71.051  1.00  0.00    -0.376 C  
BRANCH   5   6
HETATM    6  C   UNL     2     -12.036   9.608  71.460  1.00  0.00    -0.482 C  
BRANCH   6   7
HETATM    7  C   UNL     2     -10.744   9.807  70.677  1.00  0.00    -0.394 C  
BRANCH   7   8
HETATM    8  C   UNL     2     -10.058   8.467  70.426  1.00  0.00    -0.208 C  
BRANCH   8   9
HETATM    9  C   UNL     2      -9.485   8.407  69.014  1.00  0.00    -0.151 C  
BRANCH   9  10
HETATM   10  C   UNL     2     -10.563   8.013  68.006  1.00  0.00    -0.190 C  
BRANCH  10  11
HETATM   11  C   UNL     2     -10.508   8.920  66.781  1.00  0.00    -0.269 C  
BRANCH  11  12
HETATM   12  C   UNL     2     -10.534  10.391  67.182  1.00  0.00    -0.311 C  
BRANCH  12  13
HETATM   13  C   UNL     2     -10.498  11.289  65.950  1.00  0.00    -0.259 C  
BRANCH  13  14
HETATM   14  O   UNL     2     -11.826  11.653  65.559  1.00  0.00    -0.246 OA 
BRANCH  14  15
HETATM   15  C   UNL     2     -11.927  12.342  64.382  1.00  0.00    -0.407 C  
HETATM   16  O   UNL     2     -12.684  12.022  63.470  1.00  0.00    -0.688 OA 
BRANCH  15  17
HETATM   17  C   UNL     2     -10.892  13.405  64.295  1.00  0.00    -0.363 C  
HETATM   18  S   UNL     2     -11.516  14.926  64.911  1.00  0.00    -0.391 S  
HETATM   19  O   UNL     2     -12.657  15.224  64.049  1.00  0.00    -0.750 OA 
HETATM   20  O   UNL     2     -10.375  15.823  64.737  1.00  0.00    -0.461 OA 
HETATM   21  O   UNL     2     -11.852  14.642  66.306  1.00  0.00    -0.364 OA 
ENDBRANCH  15  17
ENDBRANCH  14  15
ENDBRANCH  13  14
ENDBRANCH  12  13
ENDBRANCH  11  12
ENDBRANCH  10  11
ENDBRANCH   9  10
ENDBRANCH   8   9
ENDBRANCH   7   8
ENDBRANCH   6   7
ENDBRANCH   5   6
ENDBRANCH   4   5
ENDBRANCH   3   4
TORSDOF 13
ENDMDL
MODEL       83
REMARK 921   NORMALIZED FREE ENERGY PREDICTED BY IDOCK:   -4.13 KCAL/MOL
REMARK 922        TOTAL FREE ENERGY PREDICTED BY IDOCK:   -8.83 KCAL/MOL
REMARK 923 INTER-LIGAND FREE ENERGY PREDICTED BY IDOCK:   -7.37 KCAL/MOL
REMARK 924 INTRA-LIGAND FREE ENERGY PREDICTED BY IDOCK:   -1.46 KCAL/MOL
REMARK 927      BINDING AFFINITY PREDICTED BY RF-SCORE:    0.00 PKD
ROOT
HETATM    1 NA   UNL     1     -11.993   5.105  64.885  1.00  0.00    -0.739 Na 
HETATM    2  C   UNL     2     -10.629   6.453  67.290  1.00  0.00    -0.382 C  
HETATM    3  C   UNL     2      -9.127   6.398  67.062  1.00  0.00    -0.130 C  
ENDROOT
BRANCH   3   4
HETATM    4  C   UNL     2      -8.528   7.800  67.088  1.00  0.00    -0.124 C  
BRANCH   4   5
HETATM    5  C   UNL     2      -7.496   7.950  68.203  1.00  0.00    -0.107 C  
BRANCH   5   6
HETATM    6  C   UNL     2      -7.714   9.260  68.955  1.00  0.00    -0.079 C  
BRANCH   6   7
HETATM    7  C   UNL     2      -7.912   9.017  70.446  1.00  0.00    -0.134 C  
BRANCH   7   8
HETATM    8  C   UNL     2      -8.829   7.818  70.676  1.00  0.00    -0.144 C  
BRANCH   8   9
HETATM    9  C   UNL     2     -10.150   8.256  71.299  1.00  0.00    -0.249 C  
BRANCH   9  10
HETATM   10  C   UNL     2     -11.126   8.734  70.227  1.00  0.00    -0.240 C  
BRANCH  10  11
HETATM   11  C   UNL     2     -11.848   9.998  70.683  1.00  0.00    -0.411 C  
BRANCH  11  12
HETATM   12  C   UNL     2     -11.601  11.152  69.718  1.00  0.00    -0.409 C  
BRANCH  12  13
HETATM   13  C   UNL     2     -11.281  10.632  68.320  1.00  0.00    -0.301 C  
BRANCH  13  14
HETATM   14  O   UNL     2     -11.893  11.460  67.327  1.00  0.00    -0.594 OA 
BRANCH  14  15
HETATM   15  C   UNL     2     -11.037  12.031  66.425  1.00  0.00    -0.318 C  
HETATM   16  O   UNL     2      -9.933  11.569  66.150  1.00  0.00    -0.210 OA 
BRANCH  15  17
HETATM   17  C   UNL     2     -11.546  13.349  65.966  1.00  0.00    -0.344 C  
HETATM   18  S   UNL     2     -12.145  13.240  64.320  1.00  0.00    -0.417 S  
HETATM   19  O   UNL     2     -10.985  12.818  63.539  1.00  0.00    -0.412 OA 
HETATM   20  O   UNL     2     -12.585  14.610  64.057  1.00  0.00    -0.819 OA 
HETATM   21  O   UNL     2     -13.230  12.262  64.393  1.00  0.00    -0.806 OA 
ENDBRANCH  15  17
ENDBRANCH  14  15
ENDBRANCH  13  14
ENDBRANCH  12  13
ENDBRANCH  11  12
ENDBRANCH  10  11
ENDBRANCH   9  10
ENDBRANCH   8   9
ENDBRANCH   7   8
ENDBRANCH   6   7
ENDBRANCH   5   6
ENDBRANCH   4   5
ENDBRANCH   3   4
TORSDOF 13
ENDMDL
MODEL       84
REMARK 921   NORMALIZED FREE ENERGY PREDICTED BY IDOCK:   -4.12 KCAL/MOL
REMARK 922        TOTAL FREE ENERGY PREDICTED BY IDOCK:   -8.82 KCAL/MOL
REMARK 923 INTER-LIGAND FREE ENERGY PREDICTED BY IDOCK:   -7.21 KCAL/MOL
REMARK 924 INTRA-LIGAND FREE ENERGY PREDICTED BY IDOCK:   -1.62 KCAL/MOL
REMARK 927      BINDING AFFINITY PREDICTED BY RF-SCORE:    0.00 PKD
ROOT
HETATM    1 NA   UNL     1     -12.631  10.071  69.224  1.00  0.00    -0.505 Na 
HETATM    2  C   UNL     2     -10.428   8.560  67.701  1.00  0.00    -0.308 C  
HETATM    3  C   UNL     2     -10.269   9.218  66.341  1.00  0.00    -0.298 C  
ENDROOT
BRANCH   3   4
HETATM    4  C   UNL     2      -8.833   9.688  66.134  1.00  0.00    -0.173 C  
BRANCH   4   5
HETATM    5  C   UNL     2      -8.618  10.233  64.725  1.00  0.00    -0.193 C  
BRANCH   5   6
HETATM    6  C   UNL     2      -9.960  10.481  64.041  1.00  0.00    -0.363 C  
BRANCH   6   7
HETATM    7  C   UNL     2      -9.965  11.809  63.293  1.00  0.00    -0.435 C  
BRANCH   7   8
HETATM    8  C   UNL     2     -10.672  12.884  64.114  1.00  0.00    -0.443 C  
BRANCH   8   9
HETATM    9  C   UNL     2     -11.910  12.317  64.799  1.00  0.00    -0.428 C  
BRANCH   9  10
HETATM   10  C   UNL     2     -12.108  12.949  66.175  1.00  0.00    -0.458 C  
BRANCH  10  11
HETATM   11  C   UNL     2     -10.879  12.724  67.050  1.00  0.00    -0.282 C  
BRANCH  11  12
HETATM   12  C   UNL     2     -11.126  13.193  68.480  1.00  0.00    -0.296 C  
BRANCH  12  13
HETATM   13  C   UNL     2     -11.784  14.569  68.493  1.00  0.00    -0.318 C  
BRANCH  13  14
HETATM   14  O   UNL     2     -10.944  15.518  69.156  1.00  0.00    -0.231 OA 
BRANCH  14  15
HETATM   15  C   UNL     2      -9.989  16.109  68.374  1.00  0.00    -0.230 C  
HETATM   16  O   UNL     2      -8.815  15.752  68.348  1.00  0.00    -0.176 OA 
BRANCH  15  17
HETATM   17  C   UNL     2     -10.524  17.325  67.708  1.00  0.00    -0.371 C  
HETATM   18  S   UNL     2     -10.188  17.283  65.985  1.00  0.00    -0.245 S  
HETATM   19  O   UNL     2      -8.731  17.230  65.902  1.00  0.00    -0.528 OA 
HETATM   20  O   UNL     2     -10.774  18.541  65.523  1.00  0.00    -0.586 OA 
HETATM   21  O   UNL     2     -10.879  16.085  65.510  1.00  0.00    -0.339 OA 
ENDBRANCH  15  17
ENDBRANCH  14  15
ENDBRANCH  13  14
ENDBRANCH  12  13
ENDBRANCH  11  12
ENDBRANCH  10  11
ENDBRANCH   9  10
ENDBRANCH   8   9
ENDBRANCH   7   8
ENDBRANCH   6   7
ENDBRANCH   5   6
ENDBRANCH   4   5
ENDBRANCH   3   4
TORSDOF 13
ENDMDL
MODEL       85
REMARK 921   NORMALIZED FREE ENERGY PREDICTED BY IDOCK:   -4.12 KCAL/MOL
REMARK 922        TOTAL FREE ENERGY PREDICTED BY IDOCK:   -8.81 KCAL/MOL
REMARK 923 INTER-LIGAND FREE ENERGY PREDICTED BY IDOCK:   -7.63 KCAL/MOL
REMARK 924 INTRA-LIGAND FREE ENERGY PREDICTED BY IDOCK:   -1.18 KCAL/MOL
REMARK 927      BINDING AFFINITY PREDICTED BY RF-SCORE:    0.00 PKD
ROOT
HETATM    1 NA   UNL     1      -9.681   9.102  63.538  1.00  0.00    -0.411 Na 
HETATM    2  C   UNL     2      -9.272   8.072  66.407  1.00  0.00    -0.245 C  
HETATM    3  C   UNL     2     -10.639   7.973  67.063  1.00  0.00    -0.364 C  
ENDROOT
BRANCH   3   4
HETATM    4  C   UNL     2     -10.898   6.553  67.556  1.00  0.00    -0.433 C  
BRANCH   4   5
HETATM    5  C   UNL     2     -10.375   6.346  68.974  1.00  0.00    -0.238 C  
BRANCH   5   6
HETATM    6  C   UNL     2     -11.535   6.293  69.965  1.00  0.00    -0.460 C  
BRANCH   6   7
HETATM    7  C   UNL     2     -11.057   6.539  71.391  1.00  0.00    -0.315 C  
BRANCH   7   8
HETATM    8  C   UNL     2      -9.838   7.457  71.397  1.00  0.00    -0.194 C  
BRANCH   8   9
HETATM    9  C   UNL     2     -10.237   8.887  71.740  1.00  0.00    -0.414 C  
BRANCH   9  10
HETATM   10  C   UNL     2     -11.748   9.002  71.924  1.00  0.00    -0.445 C  
BRANCH  10  11
HETATM   11  C   UNL     2     -12.350   9.913  70.860  1.00  0.00    -0.403 C  
BRANCH  11  12
HETATM   12  C   UNL     2     -11.275  10.460  69.928  1.00  0.00    -0.371 C  
BRANCH  12  13
HETATM   13  C   UNL     2     -11.902  11.139  68.715  1.00  0.00    -0.320 C  
BRANCH  13  14
HETATM   14  O   UNL     2     -10.888  11.551  67.794  1.00  0.00    -0.199 OA 
BRANCH  14  15
HETATM   15  C   UNL     2     -11.335  11.963  66.568  1.00  0.00    -0.341 C  
HETATM   16  O   UNL     2     -12.396  12.558  66.397  1.00  0.00    -0.537 OA 
BRANCH  15  17
HETATM   17  C   UNL     2     -10.464  11.447  65.481  1.00  0.00    -0.268 C  
HETATM   18  S   UNL     2     -10.846  12.234  63.958  1.00  0.00    -0.432 S  
HETATM   19  O   UNL     2     -12.247  11.899  63.719  1.00  0.00    -0.458 OA 
HETATM   20  O   UNL     2      -9.905  11.599  63.035  1.00  0.00    -0.393 OA 
HETATM   21  O   UNL     2     -10.582  13.651  64.206  1.00  0.00    -0.394 OA 
ENDBRANCH  15  17
ENDBRANCH  14  15
ENDBRANCH  13  14
ENDBRANCH  12  13
ENDBRANCH  11  12
ENDBRANCH  10  11
ENDBRANCH   9  10
ENDBRANCH   8   9
ENDBRANCH   7   8
ENDBRANCH   6   7
ENDBRANCH   5   6
ENDBRANCH   4   5
ENDBRANCH   3   4
TORSDOF 13
ENDMDL
MODEL       86
REMARK 921   NORMALIZED FREE ENERGY PREDICTED BY IDOCK:   -4.11 KCAL/MOL
REMARK 922        TOTAL FREE ENERGY PREDICTED BY IDOCK:   -8.79 KCAL/MOL
REMARK 923 INTER-LIGAND FREE ENERGY PREDICTED BY IDOCK:   -8.15 KCAL/MOL
REMARK 924 INTRA-LIGAND FREE ENERGY PREDICTED BY IDOCK:   -0.64 KCAL/MOL
REMARK 927      BINDING AFFINITY PREDICTED BY RF-SCORE:    0.00 PKD
ROOT
HETATM    1 NA   UNL     1     -12.382  10.787  62.531  1.00  0.00    -0.771 Na 
HETATM    2  C   UNL     2      -9.781  10.684  64.169  1.00  0.00    -0.378 C  
HETATM    3  C   UNL     2     -10.104  10.049  65.512  1.00  0.00    -0.325 C  
ENDROOT
BRANCH   3   4
HETATM    4  C   UNL     2      -9.236   8.818  65.748  1.00  0.00    -0.269 C  
BRANCH   4   5
HETATM    5  C   UNL     2      -9.890   7.848  66.728  1.00  0.00    -0.318 C  
BRANCH   5   6
HETATM    6  C   UNL     2     -10.493   8.611  67.905  1.00  0.00    -0.269 C  
BRANCH   6   7
HETATM    7  C   UNL     2      -9.741   8.318  69.198  1.00  0.00    -0.171 C  
BRANCH   7   8
HETATM    8  C   UNL     2     -10.720   8.073  70.344  1.00  0.00    -0.233 C  
BRANCH   8   9
HETATM    9  C   UNL     2     -10.768   9.274  71.282  1.00  0.00    -0.422 C  
BRANCH   9  10
HETATM   10  C   UNL     2     -12.201   9.563  71.723  1.00  0.00    -0.465 C  
BRANCH  10  11
HETATM   11  C   UNL     2     -12.831  10.629  70.833  1.00  0.00    -0.473 C  
BRANCH  11  12
HETATM   12  C   UNL     2     -11.765  11.450  70.115  1.00  0.00    -0.414 C  
BRANCH  12  13
HETATM   13  C   UNL     2     -12.114  11.620  68.640  1.00  0.00    -0.119 C  
BRANCH  13  14
HETATM   14  O   UNL     2     -11.355  12.690  68.069  1.00  0.00    -0.251 OA 
BRANCH  14  15
HETATM   15  C   UNL     2     -11.832  13.186  66.886  1.00  0.00    -0.386 C  
HETATM   16  O   UNL     2     -12.445  12.511  66.064  1.00  0.00    -0.565 OA 
BRANCH  15  17
HETATM   17  C   UNL     2     -11.364  14.579  66.665  1.00  0.00    -0.356 C  
HETATM   18  S   UNL     2     -11.355  14.961  64.951  1.00  0.00    -0.406 S  
HETATM   19  O   UNL     2     -10.430  13.992  64.369  1.00  0.00    -0.368 OA 
HETATM   20  O   UNL     2     -10.870  16.341  64.943  1.00  0.00    -0.625 OA 
HETATM   21  O   UNL     2     -12.750  14.811  64.538  1.00  0.00    -0.569 OA 
ENDBRANCH  15  17
ENDBRANCH  14  15
ENDBRANCH  13  14
ENDBRANCH  12  13
ENDBRANCH  11  12
ENDBRANCH  10  11
ENDBRANCH   9  10
ENDBRANCH   8   9
ENDBRANCH   7   8
ENDBRANCH   6   7
ENDBRANCH   5   6
ENDBRANCH   4   5
ENDBRANCH   3   4
TORSDOF 13
ENDMDL
MODEL       87
REMARK 921   NORMALIZED FREE ENERGY PREDICTED BY IDOCK:   -4.10 KCAL/MOL
REMARK 922        TOTAL FREE ENERGY PREDICTED BY IDOCK:   -8.78 KCAL/MOL
REMARK 923 INTER-LIGAND FREE ENERGY PREDICTED BY IDOCK:   -7.67 KCAL/MOL
REMARK 924 INTRA-LIGAND FREE ENERGY PREDICTED BY IDOCK:   -1.11 KCAL/MOL
REMARK 927      BINDING AFFINITY PREDICTED BY RF-SCORE:    0.00 PKD
ROOT
HETATM    1 NA   UNL     1     -14.173  10.153  70.024  1.00  0.00    -0.486 Na 
HETATM    2  C   UNL     2     -11.110  10.089  70.298  1.00  0.00    -0.381 C  
HETATM    3  C   UNL     2     -10.759   9.028  71.328  1.00  0.00    -0.379 C  
ENDROOT
BRANCH   3   4
HETATM    4  C   UNL     2      -9.823   7.984  70.729  1.00  0.00    -0.197 C  
BRANCH   4   5
HETATM    5  C   UNL     2     -10.522   6.640  70.549  1.00  0.00    -0.240 C  
BRANCH   5   6
HETATM    6  C   UNL     2     -11.159   6.555  69.164  1.00  0.00    -0.387 C  
BRANCH   6   7
HETATM    7  C   UNL     2     -10.182   5.992  68.138  1.00  0.00    -0.214 C  
BRANCH   7   8
HETATM    8  C   UNL     2     -10.165   6.858  66.882  1.00  0.00    -0.310 C  
BRANCH   8   9
HETATM    9  C   UNL     2     -10.630   8.276  67.194  1.00  0.00    -0.340 C  
BRANCH   9  10
HETATM   10  C   UNL     2      -9.477   9.268  67.067  1.00  0.00    -0.205 C  
BRANCH  10  11
HETATM   11  C   UNL     2      -9.955  10.569  66.430  1.00  0.00    -0.271 C  
BRANCH  11  12
HETATM   12  C   UNL     2     -10.048  10.439  64.914  1.00  0.00    -0.382 C  
BRANCH  12  13
HETATM   13  C   UNL     2     -10.552  11.736  64.288  1.00  0.00    -0.335 C  
BRANCH  13  14
HETATM   14  O   UNL     2     -11.809  12.110  64.861  1.00  0.00    -0.350 OA 
BRANCH  14  15
HETATM   15  C   UNL     2     -12.194  13.405  64.643  1.00  0.00    -0.407 C  
HETATM   16  O   UNL     2     -12.449  13.859  63.531  1.00  0.00    -0.810 OA 
BRANCH  15  17
HETATM   17  C   UNL     2     -12.096  14.208  65.889  1.00  0.00    -0.426 C  
HETATM   18  S   UNL     2     -10.757  15.339  65.790  1.00  0.00    -0.365 S  
HETATM   19  O   UNL     2      -9.581  14.492  65.610  1.00  0.00    -0.275 OA 
HETATM   20  O   UNL     2     -10.824  16.015  67.085  1.00  0.00    -0.310 OA 
HETATM   21  O   UNL     2     -11.086  16.192  64.648  1.00  0.00    -0.598 OA 
ENDBRANCH  15  17
ENDBRANCH  14  15
ENDBRANCH  13  14
ENDBRANCH  12  13
ENDBRANCH  11  12
ENDBRANCH  10  11
ENDBRANCH   9  10
ENDBRANCH   8   9
ENDBRANCH   7   8
ENDBRANCH   6   7
ENDBRANCH   5   6
ENDBRANCH   4   5
ENDBRANCH   3   4
TORSDOF 13
ENDMDL
MODEL       88
REMARK 921   NORMALIZED FREE ENERGY PREDICTED BY IDOCK:   -4.10 KCAL/MOL
REMARK 922        TOTAL FREE ENERGY PREDICTED BY IDOCK:   -8.77 KCAL/MOL
REMARK 923 INTER-LIGAND FREE ENERGY PREDICTED BY IDOCK:   -7.79 KCAL/MOL
REMARK 924 INTRA-LIGAND FREE ENERGY PREDICTED BY IDOCK:   -0.99 KCAL/MOL
REMARK 927      BINDING AFFINITY PREDICTED BY RF-SCORE:    0.00 PKD
ROOT
HETATM    1 NA   UNL     1     -10.168   3.210  68.642  1.00  0.00    -0.100 Na 
HETATM    2  C   UNL     2     -10.117   5.577  66.679  1.00  0.00    -0.245 C  
HETATM    3  C   UNL     2     -10.748   6.771  67.375  1.00  0.00    -0.405 C  
ENDROOT
BRANCH   3   4
HETATM    4  C   UNL     2      -9.779   7.948  67.408  1.00  0.00    -0.210 C  
BRANCH   4   5
HETATM    5  C   UNL     2     -10.214   9.061  66.459  1.00  0.00    -0.318 C  
BRANCH   5   6
HETATM    6  C   UNL     2     -10.330  10.384  67.210  1.00  0.00    -0.278 C  
BRANCH   6   7
HETATM    7  C   UNL     2     -10.599  10.157  68.694  1.00  0.00    -0.236 C  
BRANCH   7   8
HETATM    8  C   UNL     2     -11.416  11.309  69.273  1.00  0.00    -0.369 C  
BRANCH   8   9
HETATM    9  C   UNL     2     -11.680  12.374  68.214  1.00  0.00    -0.398 C  
BRANCH   9  10
HETATM   10  C   UNL     2     -11.540  13.775  68.804  1.00  0.00    -0.363 C  
BRANCH  10  11
HETATM   11  C   UNL     2     -10.079  14.213  68.806  1.00  0.00    -0.199 C  
BRANCH  11  12
HETATM   12  C   UNL     2      -9.950  15.708  68.535  1.00  0.00    -0.211 C  
BRANCH  12  13
HETATM   13  C   UNL     2     -10.894  16.139  67.417  1.00  0.00    -0.265 C  
BRANCH  13  14
HETATM   14  O   UNL     2     -10.169  16.328  66.198  1.00  0.00    -0.311 OA 
BRANCH  14  15
HETATM   15  C   UNL     2     -10.773  15.841  65.071  1.00  0.00    -0.421 C  
HETATM   16  O   UNL     2     -11.340  16.549  64.243  1.00  0.00    -1.020 OA 
BRANCH  15  17
HETATM   17  C   UNL     2     -10.797  14.355  65.077  1.00  0.00    -0.407 C  
HETATM   18  S   UNL     2     -12.388  13.761  64.632  1.00  0.00    -0.344 S  
HETATM   19  O   UNL     2     -13.278  14.311  65.652  1.00  0.00    -0.558 OA 
HETATM   20  O   UNL     2     -12.210  12.312  64.702  1.00  0.00    -0.411 OA 
HETATM   21  O   UNL     2     -12.603  14.277  63.280  1.00  0.00    -0.716 OA 
ENDBRANCH  15  17
ENDBRANCH  14  15
ENDBRANCH  13  14
ENDBRANCH  12  13
ENDBRANCH  11  12
ENDBRANCH  10  11
ENDBRANCH   9  10
ENDBRANCH   8   9
ENDBRANCH   7   8
ENDBRANCH   6   7
ENDBRANCH   5   6
ENDBRANCH   4   5
ENDBRANCH   3   4
TORSDOF 13
ENDMDL
MODEL       89
REMARK 921   NORMALIZED FREE ENERGY PREDICTED BY IDOCK:   -4.09 KCAL/MOL
REMARK 922        TOTAL FREE ENERGY PREDICTED BY IDOCK:   -8.76 KCAL/MOL
REMARK 923 INTER-LIGAND FREE ENERGY PREDICTED BY IDOCK:   -7.04 KCAL/MOL
REMARK 924 INTRA-LIGAND FREE ENERGY PREDICTED BY IDOCK:   -1.72 KCAL/MOL
REMARK 927      BINDING AFFINITY PREDICTED BY RF-SCORE:    0.00 PKD
ROOT
HETATM    1 NA   UNL     1      -8.087  15.030  69.854  1.00  0.00    -0.187 Na 
HETATM    2  C   UNL     2      -7.748  13.042  67.532  1.00  0.00    -0.168 C  
HETATM    3  C   UNL     2      -8.124  11.662  68.045  1.00  0.00    -0.139 C  
ENDROOT
BRANCH   3   4
HETATM    4  C   UNL     2      -9.244  11.061  67.203  1.00  0.00    -0.162 C  
BRANCH   4   5
HETATM    5  C   UNL     2      -9.108  11.441  65.732  1.00  0.00    -0.195 C  
BRANCH   5   6
HETATM    6  C   UNL     2     -10.062  10.610  64.878  1.00  0.00    -0.402 C  
BRANCH   6   7
HETATM    7  C   UNL     2     -10.889  11.493  63.951  1.00  0.00    -0.469 C  
BRANCH   7   8
HETATM    8  C   UNL     2     -10.979  12.913  64.504  1.00  0.00    -0.377 C  
BRANCH   8   9
HETATM    9  C   UNL     2     -12.389  13.216  64.996  1.00  0.00    -0.511 C  
BRANCH   9  10
HETATM   10  C   UNL     2     -12.368  14.288  66.083  1.00  0.00    -0.411 C  
BRANCH  10  11
HETATM   11  C   UNL     2     -11.390  13.910  67.191  1.00  0.00    -0.346 C  
BRANCH  11  12
HETATM   12  C   UNL     2     -11.902  14.358  68.555  1.00  0.00    -0.369 C  
BRANCH  12  13
HETATM   13  C   UNL     2     -10.962  15.385  69.177  1.00  0.00    -0.252 C  
BRANCH  13  14
HETATM   14  O   UNL     2     -11.243  16.692  68.667  1.00  0.00    -0.328 OA 
BRANCH  14  15
HETATM   15  C   UNL     2     -10.149  17.453  68.358  1.00  0.00    -0.347 C  
HETATM   16  O   UNL     2      -9.010  17.188  68.731  1.00  0.00    -0.264 OA 
BRANCH  15  17
HETATM   17  C   UNL     2     -10.549  18.708  67.670  1.00  0.00    -0.409 C  
HETATM   18  S   UNL     2     -10.126  18.641  65.967  1.00  0.00    -0.210 S  
HETATM   19  O   UNL     2      -8.676  18.471  65.961  1.00  0.00    -0.497 OA 
HETATM   20  O   UNL     2     -10.586  19.941  65.481  1.00  0.00    -0.464 OA 
HETATM   21  O   UNL     2     -10.885  17.502  65.450  1.00  0.00    -0.528 OA 
ENDBRANCH  15  17
ENDBRANCH  14  15
ENDBRANCH  13  14
ENDBRANCH  12  13
ENDBRANCH  11  12
ENDBRANCH  10  11
ENDBRANCH   9  10
ENDBRANCH   8   9
ENDBRANCH   7   8
ENDBRANCH   6   7
ENDBRANCH   5   6
ENDBRANCH   4   5
ENDBRANCH   3   4
TORSDOF 13
ENDMDL
MODEL       90
REMARK 921   NORMALIZED FREE ENERGY PREDICTED BY IDOCK:   -4.08 KCAL/MOL
REMARK 922        TOTAL FREE ENERGY PREDICTED BY IDOCK:   -8.74 KCAL/MOL
REMARK 923 INTER-LIGAND FREE ENERGY PREDICTED BY IDOCK:   -7.63 KCAL/MOL
REMARK 924 INTRA-LIGAND FREE ENERGY PREDICTED BY IDOCK:   -1.12 KCAL/MOL
REMARK 927      BINDING AFFINITY PREDICTED BY RF-SCORE:    0.00 PKD
ROOT
HETATM    1 NA   UNL     1      -9.241  12.948  65.233  1.00  0.00    -0.414 Na 
HETATM    2  C   UNL     2     -11.546  13.465  67.203  1.00  0.00    -0.399 C  
HETATM    3  C   UNL     2     -10.946  14.014  68.486  1.00  0.00    -0.274 C  
ENDROOT
BRANCH   3   4
HETATM    4  C   UNL     2     -11.552  15.371  68.827  1.00  0.00    -0.382 C  
BRANCH   4   5
HETATM    5  C   UNL     2     -10.751  16.089  69.909  1.00  0.00    -0.334 C  
BRANCH   5   6
HETATM    6  C   UNL     2     -11.617  16.321  71.145  1.00  0.00    -0.376 C  
BRANCH   6   7
HETATM    7  C   UNL     2     -11.629  15.096  72.051  1.00  0.00    -0.496 C  
BRANCH   7   8
HETATM    8  C   UNL     2     -12.936  15.022  72.835  1.00  0.00    -0.561 C  
BRANCH   8   9
HETATM    9  C   UNL     2     -13.681  13.727  72.528  1.00  0.00    -0.667 C  
BRANCH   9  10
HETATM   10  C   UNL     2     -13.039  12.996  71.351  1.00  0.00    -0.336 C  
BRANCH  10  11
HETATM   11  C   UNL     2     -13.009  11.492  71.607  1.00  0.00    -0.499 C  
BRANCH  11  12
HETATM   12  C   UNL     2     -11.966  10.805  70.732  1.00  0.00    -0.464 C  
BRANCH  12  13
HETATM   13  C   UNL     2     -12.060   9.289  70.867  1.00  0.00    -0.233 C  
BRANCH  13  14
HETATM   14  O   UNL     2     -10.752   8.708  70.879  1.00  0.00    -0.204 OA 
BRANCH  14  15
HETATM   15  C   UNL     2     -10.263   8.380  72.115  1.00  0.00    -0.320 C  
HETATM   16  O   UNL     2      -9.175   8.761  72.537  1.00  0.00    -0.347 OA 
BRANCH  15  17
HETATM   17  C   UNL     2     -11.136   7.383  72.787  1.00  0.00    -0.346 C  
HETATM   18  S   UNL     2     -10.668   5.751  72.339  1.00  0.00    -0.248 S  
HETATM   19  O   UNL     2     -10.836   5.712  70.889  1.00  0.00    -0.265 OA 
HETATM   20  O   UNL     2     -11.629   4.937  73.083  1.00  0.00    -0.324 OA 
HETATM   21  O   UNL     2      -9.287   5.630  72.806  1.00  0.00    -0.139 OA 
ENDBRANCH  15  17
ENDBRANCH  14  15
ENDBRANCH  13  14
ENDBRANCH  12  13
ENDBRANCH  11  12
ENDBRANCH  10  11
ENDBRANCH   9  10
ENDBRANCH   8   9
ENDBRANCH   7   8
ENDBRANCH   6   7
ENDBRANCH   5   6
ENDBRANCH   4   5
ENDBRANCH   3   4
TORSDOF 13
ENDMDL
MODEL       91
REMARK 921   NORMALIZED FREE ENERGY PREDICTED BY IDOCK:   -4.07 KCAL/MOL
REMARK 922        TOTAL FREE ENERGY PREDICTED BY IDOCK:   -8.73 KCAL/MOL
REMARK 923 INTER-LIGAND FREE ENERGY PREDICTED BY IDOCK:   -8.16 KCAL/MOL
REMARK 924 INTRA-LIGAND FREE ENERGY PREDICTED BY IDOCK:   -0.57 KCAL/MOL
REMARK 927      BINDING AFFINITY PREDICTED BY RF-SCORE:    0.00 PKD
ROOT
HETATM    1 NA   UNL     1     -14.367   8.057  73.217  1.00  0.00    -0.562 Na 
HETATM    2  C   UNL     2     -11.850   6.613  72.198  1.00  0.00    -0.337 C  
HETATM    3  C   UNL     2     -11.844   6.705  70.681  1.00  0.00    -0.443 C  
ENDROOT
BRANCH   3   4
HETATM    4  C   UNL     2     -10.563   7.369  70.187  1.00  0.00    -0.240 C  
BRANCH   4   5
HETATM    5  C   UNL     2     -10.818   8.795  69.706  1.00  0.00    -0.196 C  
BRANCH   5   6
HETATM    6  C   UNL     2     -10.906   9.747  70.896  1.00  0.00    -0.399 C  
BRANCH   6   7
HETATM    7  C   UNL     2     -12.340  10.206  71.132  1.00  0.00    -0.488 C  
BRANCH   7   8
HETATM    8  C   UNL     2     -12.489  11.690  70.806  1.00  0.00    -0.425 C  
BRANCH   8   9
HETATM    9  C   UNL     2     -13.084  12.449  71.986  1.00  0.00    -0.470 C  
BRANCH   9  10
HETATM   10  C   UNL     2     -13.165  13.944  71.688  1.00  0.00    -0.446 C  
BRANCH  10  11
HETATM   11  C   UNL     2     -12.721  14.230  70.257  1.00  0.00    -0.305 C  
BRANCH  11  12
HETATM   12  C   UNL     2     -11.714  15.374  70.210  1.00  0.00    -0.355 C  
BRANCH  12  13
HETATM   13  C   UNL     2     -11.429  15.787  68.769  1.00  0.00    -0.388 C  
BRANCH  13  14
HETATM   14  O   UNL     2     -10.135  15.329  68.365  1.00  0.00    -0.214 OA 
BRANCH  14  15
HETATM   15  C   UNL     2     -10.114  14.515  67.266  1.00  0.00    -0.247 C  
HETATM   16  O   UNL     2      -9.087  14.032  66.798  1.00  0.00    -0.248 OA 
BRANCH  15  17
HETATM   17  C   UNL     2     -11.455  14.440  66.631  1.00  0.00    -0.363 C  
HETATM   18  S   UNL     2     -11.347  14.795  64.915  1.00  0.00    -0.411 S  
HETATM   19  O   UNL     2     -10.809  16.152  64.860  1.00  0.00    -0.582 OA 
HETATM   20  O   UNL     2     -12.740  14.679  64.485  1.00  0.00    -0.619 OA 
HETATM   21  O   UNL     2     -10.464  13.757  64.385  1.00  0.00    -0.422 OA 
ENDBRANCH  15  17
ENDBRANCH  14  15
ENDBRANCH  13  14
ENDBRANCH  12  13
ENDBRANCH  11  12
ENDBRANCH  10  11
ENDBRANCH   9  10
ENDBRANCH   8   9
ENDBRANCH   7   8
ENDBRANCH   6   7
ENDBRANCH   5   6
ENDBRANCH   4   5
ENDBRANCH   3   4
TORSDOF 13
ENDMDL
MODEL       92
REMARK 921   NORMALIZED FREE ENERGY PREDICTED BY IDOCK:   -4.06 KCAL/MOL
REMARK 922        TOTAL FREE ENERGY PREDICTED BY IDOCK:   -8.71 KCAL/MOL
REMARK 923 INTER-LIGAND FREE ENERGY PREDICTED BY IDOCK:   -7.35 KCAL/MOL
REMARK 924 INTRA-LIGAND FREE ENERGY PREDICTED BY IDOCK:   -1.36 KCAL/MOL
REMARK 927      BINDING AFFINITY PREDICTED BY RF-SCORE:    0.00 PKD
ROOT
HETATM    1 NA   UNL     1     -11.641  13.135  70.638  1.00  0.00    -0.355 Na 
HETATM    2  C   UNL     2     -12.903  10.528  71.671  1.00  0.00    -0.581 C  
HETATM    3  C   UNL     2     -12.058   9.371  71.164  1.00  0.00    -0.406 C  
ENDROOT
BRANCH   3   4
HETATM    4  C   UNL     2     -11.552   8.524  72.327  1.00  0.00    -0.444 C  
BRANCH   4   5
HETATM    5  C   UNL     2     -11.725   7.033  72.054  1.00  0.00    -0.332 C  
BRANCH   5   6
HETATM    6  C   UNL     2     -10.376   6.391  71.741  1.00  0.00    -0.231 C  
BRANCH   6   7
HETATM    7  C   UNL     2     -10.459   5.500  70.507  1.00  0.00    -0.347 C  
BRANCH   7   8
HETATM    8  C   UNL     2     -11.206   6.211  69.382  1.00  0.00    -0.466 C  
BRANCH   8   9
HETATM    9  C   UNL     2     -10.498   6.009  68.047  1.00  0.00    -0.291 C  
BRANCH   9  10
HETATM   10  C   UNL     2     -10.577   7.272  67.193  1.00  0.00    -0.416 C  
BRANCH  10  11
HETATM   11  C   UNL     2     -10.370   8.515  68.052  1.00  0.00    -0.272 C  
BRANCH  11  12
HETATM   12  C   UNL     2     -10.746   9.781  67.291  1.00  0.00    -0.296 C  
BRANCH  12  13
HETATM   13  C   UNL     2     -11.143  10.895  68.253  1.00  0.00    -0.266 C  
BRANCH  13  14
HETATM   14  O   UNL     2     -12.079  11.781  67.632  1.00  0.00    -0.598 OA 
BRANCH  14  15
HETATM   15  C   UNL     2     -11.540  12.897  67.051  1.00  0.00    -0.362 C  
HETATM   16  O   UNL     2     -11.823  13.277  65.918  1.00  0.00    -0.355 OA 
BRANCH  15  17
HETATM   17  C   UNL     2     -10.462  13.471  67.897  1.00  0.00    -0.250 C  
HETATM   18  S   UNL     2     -10.872  15.105  68.393  1.00  0.00    -0.265 S  
HETATM   19  O   UNL     2     -11.011  15.840  67.139  1.00  0.00    -0.314 OA 
HETATM   20  O   UNL     2      -9.709  15.487  69.193  1.00  0.00    -0.217 OA 
HETATM   21  O   UNL     2     -12.107  14.952  69.161  1.00  0.00    -0.291 OA 
ENDBRANCH  15  17
ENDBRANCH  14  15
ENDBRANCH  13  14
ENDBRANCH  12  13
ENDBRANCH  11  12
ENDBRANCH  10  11
ENDBRANCH   9  10
ENDBRANCH   8   9
ENDBRANCH   7   8
ENDBRANCH   6   7
ENDBRANCH   5   6
ENDBRANCH   4   5
ENDBRANCH   3   4
TORSDOF 13
ENDMDL
MODEL       93
REMARK 921   NORMALIZED FREE ENERGY PREDICTED BY IDOCK:   -4.06 KCAL/MOL
REMARK 922        TOTAL FREE ENERGY PREDICTED BY IDOCK:   -8.71 KCAL/MOL
REMARK 923 INTER-LIGAND FREE ENERGY PREDICTED BY IDOCK:   -8.05 KCAL/MOL
REMARK 924 INTRA-LIGAND FREE ENERGY PREDICTED BY IDOCK:   -0.66 KCAL/MOL
REMARK 927      BINDING AFFINITY PREDICTED BY RF-SCORE:    0.00 PKD
ROOT
HETATM    1 NA   UNL     1      -7.998   6.794  72.211  1.00  0.00    -0.090 Na 
HETATM    2  C   UNL     2     -10.594   6.629  70.572  1.00  0.00    -0.270 C  
HETATM    3  C   UNL     2     -11.757   6.566  71.548  1.00  0.00    -0.376 C  
ENDROOT
BRANCH   3   4
HETATM    4  C   UNL     2     -12.736   7.707  71.295  1.00  0.00    -0.306 C  
BRANCH   4   5
HETATM    5  C   UNL     2     -12.131   9.059  71.663  1.00  0.00    -0.422 C  
BRANCH   5   6
HETATM    6  C   UNL     2     -13.227  10.113  71.792  1.00  0.00    -0.542 C  
BRANCH   6   7
HETATM    7  C   UNL     2     -12.813  11.426  71.136  1.00  0.00    -0.440 C  
BRANCH   7   8
HETATM    8  C   UNL     2     -11.743  11.181  70.075  1.00  0.00    -0.438 C  
BRANCH   8   9
HETATM    9  C   UNL     2     -11.868  12.186  68.936  1.00  0.00    -0.358 C  
BRANCH   9  10
HETATM   10  C   UNL     2     -11.554  11.530  67.594  1.00  0.00    -0.320 C  
BRANCH  10  11
HETATM   11  C   UNL     2     -11.073  12.571  66.588  1.00  0.00    -0.327 C  
BRANCH  11  12
HETATM   12  C   UNL     2     -11.996  12.636  65.376  1.00  0.00    -0.496 C  
BRANCH  12  13
HETATM   13  C   UNL     2     -11.840  13.965  64.646  1.00  0.00    -0.407 C  
BRANCH  13  14
HETATM   14  O   UNL     2     -11.568  15.017  65.577  1.00  0.00    -0.311 OA 
BRANCH  14  15
HETATM   15  C   UNL     2     -10.814  16.052  65.095  1.00  0.00    -0.395 C  
HETATM   16  O   UNL     2     -11.176  16.789  64.181  1.00  0.00    -1.155 OA 
BRANCH  15  17
HETATM   17  C   UNL     2      -9.456  16.050  65.699  1.00  0.00    -0.140 C  
HETATM   18  S   UNL     2      -9.288  17.374  66.841  1.00  0.00    -0.272 S  
HETATM   19  O   UNL     2      -9.510  18.574  66.039  1.00  0.00    -0.492 OA 
HETATM   20  O   UNL     2      -7.913  17.206  67.310  1.00  0.00    -0.172 OA 
HETATM   21  O   UNL     2     -10.307  17.109  67.855  1.00  0.00    -0.318 OA 
ENDBRANCH  15  17
ENDBRANCH  14  15
ENDBRANCH  13  14
ENDBRANCH  12  13
ENDBRANCH  11  12
ENDBRANCH  10  11
ENDBRANCH   9  10
ENDBRANCH   8   9
ENDBRANCH   7   8
ENDBRANCH   6   7
ENDBRANCH   5   6
ENDBRANCH   4   5
ENDBRANCH   3   4
TORSDOF 13
ENDMDL
MODEL       94
REMARK 921   NORMALIZED FREE ENERGY PREDICTED BY IDOCK:   -4.06 KCAL/MOL
REMARK 922        TOTAL FREE ENERGY PREDICTED BY IDOCK:   -8.70 KCAL/MOL
REMARK 923 INTER-LIGAND FREE ENERGY PREDICTED BY IDOCK:   -7.88 KCAL/MOL
REMARK 924 INTRA-LIGAND FREE ENERGY PREDICTED BY IDOCK:   -0.83 KCAL/MOL
REMARK 927      BINDING AFFINITY PREDICTED BY RF-SCORE:    0.00 PKD
ROOT
HETATM    1 NA   UNL     1     -12.260  14.038  62.516  1.00  0.00    -0.925 Na 
HETATM    2  C   UNL     2     -12.635  14.078  65.568  1.00  0.00    -0.543 C  
HETATM    3  C   UNL     2     -11.256  14.040  66.206  1.00  0.00    -0.320 C  
ENDROOT
BRANCH   3   4
HETATM    4  C   UNL     2     -11.053  15.242  67.122  1.00  0.00    -0.323 C  
BRANCH   4   5
HETATM    5  C   UNL     2     -11.214  14.861  68.591  1.00  0.00    -0.288 C  
BRANCH   5   6
HETATM    6  C   UNL     2     -11.391  16.113  69.447  1.00  0.00    -0.323 C  
BRANCH   6   7
HETATM    7  C   UNL     2     -12.093  15.792  70.761  1.00  0.00    -0.448 C  
BRANCH   7   8
HETATM    8  C   UNL     2     -12.171  14.282  70.971  1.00  0.00    -0.428 C  
BRANCH   8   9
HETATM    9  C   UNL     2     -13.137  13.940  72.100  1.00  0.00    -0.497 C  
BRANCH   9  10
HETATM   10  C   UNL     2     -13.391  12.436  72.163  1.00  0.00    -0.508 C  
BRANCH  10  11
HETATM   11  C   UNL     2     -12.766  11.736  70.960  1.00  0.00    -0.372 C  
BRANCH  11  12
HETATM   12  C   UNL     2     -12.469  10.272  71.267  1.00  0.00    -0.514 C  
BRANCH  12  13
HETATM   13  C   UNL     2     -11.035   9.918  70.884  1.00  0.00    -0.322 C  
BRANCH  13  14
HETATM   14  O   UNL     2     -10.488   8.981  71.816  1.00  0.00    -0.332 OA 
BRANCH  14  15
HETATM   15  C   UNL     2      -9.707   7.997  71.274  1.00  0.00    -0.163 C  
HETATM   16  O   UNL     2      -8.766   7.474  71.863  1.00  0.00    -0.112 OA 
BRANCH  15  17
HETATM   17  C   UNL     2     -10.042   7.778  69.843  1.00  0.00    -0.203 C  
HETATM   18  S   UNL     2     -10.998   6.318  69.649  1.00  0.00    -0.406 S  
HETATM   19  O   UNL     2     -10.140   5.253  70.162  1.00  0.00    -0.218 OA 
HETATM   20  O   UNL     2     -11.214   6.277  68.203  1.00  0.00    -0.327 OA 
HETATM   21  O   UNL     2     -12.207   6.570  70.432  1.00  0.00    -0.306 OA 
ENDBRANCH  15  17
ENDBRANCH  14  15
ENDBRANCH  13  14
ENDBRANCH  12  13
ENDBRANCH  11  12
ENDBRANCH  10  11
ENDBRANCH   9  10
ENDBRANCH   8   9
ENDBRANCH   7   8
ENDBRANCH   6   7
ENDBRANCH   5   6
ENDBRANCH   4   5
ENDBRANCH   3   4
TORSDOF 13
ENDMDL
MODEL       95
REMARK 921   NORMALIZED FREE ENERGY PREDICTED BY IDOCK:   -4.03 KCAL/MOL
REMARK 922        TOTAL FREE ENERGY PREDICTED BY IDOCK:   -8.66 KCAL/MOL
REMARK 923 INTER-LIGAND FREE ENERGY PREDICTED BY IDOCK:   -7.46 KCAL/MOL
REMARK 924 INTRA-LIGAND FREE ENERGY PREDICTED BY IDOCK:   -1.20 KCAL/MOL
REMARK 927      BINDING AFFINITY PREDICTED BY RF-SCORE:    0.00 PKD
ROOT
HETATM    1 NA   UNL     1     -11.779  16.666  68.136  1.00  0.00    -0.337 Na 
HETATM    2  C   UNL     2     -12.148  13.942  66.756  1.00  0.00    -0.476 C  
HETATM    3  C   UNL     2     -12.656  14.200  65.348  1.00  0.00    -0.485 C  
ENDROOT
BRANCH   3   4
HETATM    4  C   UNL     2     -11.720  13.580  64.316  1.00  0.00    -0.455 C  
BRANCH   4   5
HETATM    5  C   UNL     2     -12.397  12.442  63.556  1.00  0.00    -0.648 C  
BRANCH   5   6
HETATM    6  C   UNL     2     -11.382  11.355  63.213  1.00  0.00    -0.094 C  
BRANCH   6   7
HETATM    7  C   UNL     2      -9.956  11.829  63.469  1.00  0.00    -0.430 C  
BRANCH   7   8
HETATM    8  C   UNL     2      -9.143  10.734  64.155  1.00  0.00    -0.215 C  
BRANCH   8   9
HETATM    9  C   UNL     2      -9.914  10.137  65.326  1.00  0.00    -0.381 C  
BRANCH   9  10
HETATM   10  C   UNL     2      -9.857  11.057  66.543  1.00  0.00    -0.241 C  
BRANCH  10  11
HETATM   11  C   UNL     2     -10.919  10.664  67.564  1.00  0.00    -0.371 C  
BRANCH  11  12
HETATM   12  C   UNL     2     -10.817  11.517  68.823  1.00  0.00    -0.258 C  
BRANCH  12  13
HETATM   13  C   UNL     2     -11.798  11.035  69.886  1.00  0.00    -0.353 C  
BRANCH  13  14
HETATM   14  O   UNL     2     -11.229   9.961  70.641  1.00  0.00    -0.292 OA 
BRANCH  14  15
HETATM   15  C   UNL     2     -12.014   9.463  71.645  1.00  0.00    -0.393 C  
HETATM   16  O   UNL     2     -13.026  10.023  72.056  1.00  0.00    -0.419 OA 
BRANCH  15  17
HETATM   17  C   UNL     2     -11.389   8.269  72.269  1.00  0.00    -0.378 C  
HETATM   18  S   UNL     2     -11.955   6.799  71.492  1.00  0.00    -0.364 S  
HETATM   19  O   UNL     2     -13.400   6.812  71.701  1.00  0.00    -0.293 OA 
HETATM   20  O   UNL     2     -11.245   5.760  72.237  1.00  0.00    -0.263 OA 
HETATM   21  O   UNL     2     -11.529   6.939  70.099  1.00  0.00    -0.312 OA 
ENDBRANCH  15  17
ENDBRANCH  14  15
ENDBRANCH  13  14
ENDBRANCH  12  13
ENDBRANCH  11  12
ENDBRANCH  10  11
ENDBRANCH   9  10
ENDBRANCH   8   9
ENDBRANCH   7   8
ENDBRANCH   6   7
ENDBRANCH   5   6
ENDBRANCH   4   5
ENDBRANCH   3   4
TORSDOF 13
ENDMDL
MODEL       96
REMARK 921   NORMALIZED FREE ENERGY PREDICTED BY IDOCK:   -4.01 KCAL/MOL
REMARK 922        TOTAL FREE ENERGY PREDICTED BY IDOCK:   -8.62 KCAL/MOL
REMARK 923 INTER-LIGAND FREE ENERGY PREDICTED BY IDOCK:   -6.44 KCAL/MOL
REMARK 924 INTRA-LIGAND FREE ENERGY PREDICTED BY IDOCK:   -2.18 KCAL/MOL
REMARK 927      BINDING AFFINITY PREDICTED BY RF-SCORE:    0.00 PKD
ROOT
HETATM    1 NA   UNL     1      -7.940  16.468  65.532  1.00  0.00    -0.270 Na 
HETATM    2  C   UNL     2     -10.935  15.777  65.416  1.00  0.00    -0.317 C  
HETATM    3  C   UNL     2     -11.090  14.528  64.564  1.00  0.00    -0.280 C  
ENDROOT
BRANCH   3   4
HETATM    4  C   UNL     2     -11.791  13.425  65.350  1.00  0.00    -0.381 C  
BRANCH   4   5
HETATM    5  C   UNL     2     -11.322  12.039  64.914  1.00  0.00    -0.366 C  
BRANCH   5   6
HETATM    6  C   UNL     2     -10.843  11.237  66.121  1.00  0.00    -0.281 C  
BRANCH   6   7
HETATM    7  C   UNL     2      -9.646  11.903  66.789  1.00  0.00    -0.214 C  
BRANCH   7   8
HETATM    8  C   UNL     2      -9.800  11.884  68.307  1.00  0.00    -0.199 C  
BRANCH   8   9
HETATM    9  C   UNL     2     -11.271  11.926  68.704  1.00  0.00    -0.311 C  
BRANCH   9  10
HETATM   10  C   UNL     2     -11.567  13.145  69.575  1.00  0.00    -0.347 C  
BRANCH  10  11
HETATM   11  C   UNL     2     -12.242  14.239  68.754  1.00  0.00    -0.226 C  
BRANCH  11  12
HETATM   12  C   UNL     2     -11.699  15.616  69.119  1.00  0.00    -0.402 C  
BRANCH  12  13
HETATM   13  C   UNL     2     -10.174  15.625  69.083  1.00  0.00    -0.233 C  
BRANCH  13  14
HETATM   14  O   UNL     2      -9.677  16.948  69.307  1.00  0.00    -0.215 OA 
BRANCH  14  15
HETATM   15  C   UNL     2      -8.666  17.347  68.476  1.00  0.00    -0.277 C  
HETATM   16  O   UNL     2      -7.864  16.574  67.962  1.00  0.00    -0.152 OA 
BRANCH  15  17
HETATM   17  C   UNL     2      -8.573  18.829  68.423  1.00  0.00    -0.341 C  
HETATM   18  S   UNL     2      -9.555  19.463  67.113  1.00  0.00    -0.345 S  
HETATM   19  O   UNL     2      -8.991  18.853  65.911  1.00  0.00    -0.455 OA 
HETATM   20  O   UNL     2      -9.328  20.904  67.223  1.00  0.00    -0.369 OA 
HETATM   21  O   UNL     2     -10.915  19.041  67.442  1.00  0.00    -0.459 OA 
ENDBRANCH  15  17
ENDBRANCH  14  15
ENDBRANCH  13  14
ENDBRANCH  12  13
ENDBRANCH  11  12
ENDBRANCH  10  11
ENDBRANCH   9  10
ENDBRANCH   8   9
ENDBRANCH   7   8
ENDBRANCH   6   7
ENDBRANCH   5   6
ENDBRANCH   4   5
ENDBRANCH   3   4
TORSDOF 13
ENDMDL
MODEL       97
REMARK 921   NORMALIZED FREE ENERGY PREDICTED BY IDOCK:   -4.00 KCAL/MOL
REMARK 922        TOTAL FREE ENERGY PREDICTED BY IDOCK:   -8.61 KCAL/MOL
REMARK 923 INTER-LIGAND FREE ENERGY PREDICTED BY IDOCK:   -8.06 KCAL/MOL
REMARK 924 INTRA-LIGAND FREE ENERGY PREDICTED BY IDOCK:   -0.55 KCAL/MOL
REMARK 927      BINDING AFFINITY PREDICTED BY RF-SCORE:    0.00 PKD
ROOT
HETATM    1 NA   UNL     1     -11.588  10.695  62.660  1.00  0.00    -0.694 Na 
HETATM    2  C   UNL     2      -9.573  10.523  64.977  1.00  0.00    -0.331 C  
HETATM    3  C   UNL     2      -9.980   9.355  65.861  1.00  0.00    -0.327 C  
ENDROOT
BRANCH   3   4
HETATM    4  C   UNL     2      -8.839   8.352  65.989  1.00  0.00    -0.202 C  
BRANCH   4   5
HETATM    5  C   UNL     2      -9.307   7.047  66.625  1.00  0.00    -0.203 C  
BRANCH   5   6
HETATM    6  C   UNL     2     -10.749   7.179  67.108  1.00  0.00    -0.422 C  
BRANCH   6   7
HETATM    7  C   UNL     2     -10.889   6.738  68.560  1.00  0.00    -0.280 C  
BRANCH   7   8
HETATM    8  C   UNL     2      -9.936   7.527  69.454  1.00  0.00    -0.178 C  
BRANCH   8   9
HETATM    9  C   UNL     2     -10.614   7.915  70.763  1.00  0.00    -0.222 C  
BRANCH   9  10
HETATM   10  C   UNL     2     -12.013   7.312  70.851  1.00  0.00    -0.342 C  
BRANCH  10  11
HETATM   11  C   UNL     2     -12.943   8.227  71.641  1.00  0.00    -0.357 C  
BRANCH  11  12
HETATM   12  C   UNL     2     -13.106   9.577  70.951  1.00  0.00    -0.169 C  
BRANCH  12  13
HETATM   13  C   UNL     2     -13.180  10.705  71.975  1.00  0.00    -0.368 C  
BRANCH  13  14
HETATM   14  O   UNL     2     -12.797  11.947  71.378  1.00  0.00    -0.389 OA 
BRANCH  14  15
HETATM   15  C   UNL     2     -13.303  13.070  71.975  1.00  0.00    -0.492 C  
HETATM   16  O   UNL     2     -14.369  13.093  72.586  1.00  0.00    -0.636 OA 
BRANCH  15  17
HETATM   17  C   UNL     2     -12.488  14.266  71.641  1.00  0.00    -0.339 C  
HETATM   18  S   UNL     2     -12.727  15.530  72.836  1.00  0.00    -0.498 S  
HETATM   19  O   UNL     2     -14.156  15.826  72.768  1.00  0.00    -0.576 OA 
HETATM   20  O   UNL     2     -11.863  16.598  72.336  1.00  0.00    -0.491 OA 
HETATM   21  O   UNL     2     -12.279  14.931  74.093  1.00  0.00    -0.546 OA 
ENDBRANCH  15  17
ENDBRANCH  14  15
ENDBRANCH  13  14
ENDBRANCH  12  13
ENDBRANCH  11  12
ENDBRANCH  10  11
ENDBRANCH   9  10
ENDBRANCH   8   9
ENDBRANCH   7   8
ENDBRANCH   6   7
ENDBRANCH   5   6
ENDBRANCH   4   5
ENDBRANCH   3   4
TORSDOF 13
ENDMDL
MODEL       98
REMARK 921   NORMALIZED FREE ENERGY PREDICTED BY IDOCK:   -4.00 KCAL/MOL
REMARK 922        TOTAL FREE ENERGY PREDICTED BY IDOCK:   -8.61 KCAL/MOL
REMARK 923 INTER-LIGAND FREE ENERGY PREDICTED BY IDOCK:   -7.26 KCAL/MOL
REMARK 924 INTRA-LIGAND FREE ENERGY PREDICTED BY IDOCK:   -1.35 KCAL/MOL
REMARK 927      BINDING AFFINITY PREDICTED BY RF-SCORE:    0.00 PKD
ROOT
HETATM    1 NA   UNL     1     -14.225   7.545  70.433  1.00  0.00    -0.625 Na 
HETATM    2  C   UNL     2     -12.148   9.742  70.994  1.00  0.00    -0.434 C  
HETATM    3  C   UNL     2     -10.949   9.088  71.659  1.00  0.00    -0.435 C  
ENDROOT
BRANCH   3   4
HETATM    4  C   UNL     2      -9.678   9.352  70.858  1.00  0.00    -0.320 C  
BRANCH   4   5
HETATM    5  C   UNL     2      -8.625   8.276  71.104  1.00  0.00    -0.168 C  
BRANCH   5   6
HETATM    6  C   UNL     2      -9.295   6.932  71.382  1.00  0.00    -0.156 C  
BRANCH   6   7
HETATM    7  C   UNL     2      -8.950   5.909  70.306  1.00  0.00    -0.152 C  
BRANCH   7   8
HETATM    8  C   UNL     2     -10.220   5.270  69.748  1.00  0.00    -0.364 C  
BRANCH   8   9
HETATM    9  C   UNL     2     -11.194   6.336  69.260  1.00  0.00    -0.458 C  
BRANCH   9  10
HETATM   10  C   UNL     2     -10.892   6.731  67.817  1.00  0.00    -0.339 C  
BRANCH  10  11
HETATM   11  C   UNL     2     -10.776   8.247  67.689  1.00  0.00    -0.195 C  
BRANCH  11  12
HETATM   12  C   UNL     2      -9.818   8.634  66.568  1.00  0.00    -0.348 C  
BRANCH  12  13
HETATM   13  C   UNL     2      -9.356  10.079  66.724  1.00  0.00    -0.160 C  
BRANCH  13  14
HETATM   14  O   UNL     2      -9.310  10.729  65.451  1.00  0.00    -0.187 OA 
BRANCH  14  15
HETATM   15  C   UNL     2     -10.512  11.173  64.970  1.00  0.00    -0.293 C  
HETATM   16  O   UNL     2     -10.891  10.992  63.816  1.00  0.00    -0.339 OA 
BRANCH  15  17
HETATM   17  C   UNL     2     -11.201  12.031  65.968  1.00  0.00    -0.335 C  
HETATM   18  S   UNL     2     -12.000  13.379  65.176  1.00  0.00    -0.404 S  
HETATM   19  O   UNL     2     -10.918  14.101  64.511  1.00  0.00    -0.385 OA 
HETATM   20  O   UNL     2     -12.600  14.091  66.303  1.00  0.00    -0.451 OA 
HETATM   21  O   UNL     2     -12.967  12.750  64.277  1.00  0.00    -0.708 OA 
ENDBRANCH  15  17
ENDBRANCH  14  15
ENDBRANCH  13  14
ENDBRANCH  12  13
ENDBRANCH  11  12
ENDBRANCH  10  11
ENDBRANCH   9  10
ENDBRANCH   8   9
ENDBRANCH   7   8
ENDBRANCH   6   7
ENDBRANCH   5   6
ENDBRANCH   4   5
ENDBRANCH   3   4
TORSDOF 13
ENDMDL
MODEL       99
REMARK 921   NORMALIZED FREE ENERGY PREDICTED BY IDOCK:   -4.00 KCAL/MOL
REMARK 922        TOTAL FREE ENERGY PREDICTED BY IDOCK:   -8.61 KCAL/MOL
REMARK 923 INTER-LIGAND FREE ENERGY PREDICTED BY IDOCK:   -7.82 KCAL/MOL
REMARK 924 INTRA-LIGAND FREE ENERGY PREDICTED BY IDOCK:   -0.78 KCAL/MOL
REMARK 927      BINDING AFFINITY PREDICTED BY RF-SCORE:    0.00 PKD
ROOT
HETATM    1 NA   UNL     1     -10.170   3.163  67.848  1.00  0.00    -0.151 Na 
HETATM    2  C   UNL     2     -10.264   5.087  70.245  1.00  0.00    -0.328 C  
HETATM    3  C   UNL     2     -10.968   6.356  69.794  1.00  0.00    -0.417 C  
ENDROOT
BRANCH   3   4
HETATM    4  C   UNL     2     -12.181   6.640  70.673  1.00  0.00    -0.262 C  
BRANCH   4   5
HETATM    5  C   UNL     2     -11.786   6.816  72.137  1.00  0.00    -0.326 C  
BRANCH   5   6
HETATM    6  C   UNL     2     -11.210   8.210  72.367  1.00  0.00    -0.452 C  
BRANCH   6   7
HETATM    7  C   UNL     2     -12.172   9.292  71.889  1.00  0.00    -0.448 C  
BRANCH   7   8
HETATM    8  C   UNL     2     -11.469  10.246  70.926  1.00  0.00    -0.425 C  
BRANCH   8   9
HETATM    9  C   UNL     2     -12.476  11.156  70.232  1.00  0.00    -0.354 C  
BRANCH   9  10
HETATM   10  C   UNL     2     -12.447  12.559  70.834  1.00  0.00    -0.361 C  
BRANCH  10  11
HETATM   11  C   UNL     2     -12.380  13.614  69.734  1.00  0.00    -0.285 C  
BRANCH  11  12
HETATM   12  C   UNL     2     -10.988  13.680  69.117  1.00  0.00    -0.235 C  
BRANCH  12  13
HETATM   13  C   UNL     2     -10.766  15.019  68.422  1.00  0.00    -0.245 C  
BRANCH  13  14
HETATM   14  O   UNL     2     -11.454  15.050  67.168  1.00  0.00    -0.347 OA 
BRANCH  14  15
HETATM   15  C   UNL     2     -10.663  14.932  66.057  1.00  0.00    -0.323 C  
HETATM   16  O   UNL     2      -9.435  14.939  66.094  1.00  0.00    -0.284 OA 
BRANCH  15  17
HETATM   17  C   UNL     2     -11.477  14.966  64.815  1.00  0.00    -0.410 C  
HETATM   18  S   UNL     2     -11.831  13.337  64.264  1.00  0.00    -0.441 S  
HETATM   19  O   UNL     2     -10.519  12.744  64.021  1.00  0.00    -0.406 OA 
HETATM   20  O   UNL     2     -12.618  13.583  63.055  1.00  0.00    -0.716 OA 
HETATM   21  O   UNL     2     -12.588  12.739  65.363  1.00  0.00    -0.607 OA 
ENDBRANCH  15  17
ENDBRANCH  14  15
ENDBRANCH  13  14
ENDBRANCH  12  13
ENDBRANCH  11  12
ENDBRANCH  10  11
ENDBRANCH   9  10
ENDBRANCH   8   9
ENDBRANCH   7   8
ENDBRANCH   6   7
ENDBRANCH   5   6
ENDBRANCH   4   5
ENDBRANCH   3   4
TORSDOF 13
ENDMDL
MODEL      100
REMARK 921   NORMALIZED FREE ENERGY PREDICTED BY IDOCK:   -4.00 KCAL/MOL
REMARK 922        TOTAL FREE ENERGY PREDICTED BY IDOCK:   -8.60 KCAL/MOL
REMARK 923 INTER-LIGAND FREE ENERGY PREDICTED BY IDOCK:   -7.48 KCAL/MOL
REMARK 924 INTRA-LIGAND FREE ENERGY PREDICTED BY IDOCK:   -1.11 KCAL/MOL
REMARK 927      BINDING AFFINITY PREDICTED BY RF-SCORE:    0.00 PKD
ROOT
HETATM    1 NA   UNL     1     -13.420   8.765  73.414  1.00  0.00    -0.620 Na 
HETATM    2  C   UNL     2     -10.539   8.360  72.414  1.00  0.00    -0.405 C  
HETATM    3  C   UNL     2     -10.612   7.733  71.032  1.00  0.00    -0.226 C  
ENDROOT
BRANCH   3   4
HETATM    4  C   UNL     2      -9.884   8.599  70.009  1.00  0.00    -0.185 C  
BRANCH   4   5
HETATM    5  C   UNL     2     -10.447   8.403  68.604  1.00  0.00    -0.197 C  
BRANCH   5   6
HETATM    6  C   UNL     2     -10.790   9.752  67.977  1.00  0.00    -0.276 C  
BRANCH   6   7
HETATM    7  C   UNL     2     -10.657  10.883  68.990  1.00  0.00    -0.248 C  
BRANCH   7   8
HETATM    8  C   UNL     2     -12.026  11.476  69.314  1.00  0.00    -0.397 C  
BRANCH   8   9
HETATM    9  C   UNL     2     -12.380  11.255  70.780  1.00  0.00    -0.495 C  
BRANCH   9  10
HETATM   10  C   UNL     2     -12.831  12.559  71.434  1.00  0.00    -0.359 C  
BRANCH  10  11
HETATM   11  C   UNL     2     -12.456  13.753  70.563  1.00  0.00    -0.409 C  
BRANCH  11  12
HETATM   12  C   UNL     2     -11.827  14.866  71.394  1.00  0.00    -0.404 C  
BRANCH  12  13
HETATM   13  C   UNL     2     -11.324  15.993  70.498  1.00  0.00    -0.401 C  
BRANCH  13  14
HETATM   14  O   UNL     2     -11.044  15.500  69.185  1.00  0.00    -0.238 OA 
BRANCH  14  15
HETATM   15  C   UNL     2     -10.111  16.206  68.475  1.00  0.00    -0.241 C  
HETATM   16  O   UNL     2      -8.926  16.276  68.791  1.00  0.00    -0.220 OA 
BRANCH  15  17
HETATM   17  C   UNL     2     -10.751  16.999  67.394  1.00  0.00    -0.240 C  
HETATM   18  S   UNL     2     -10.244  16.416  65.817  1.00  0.00    -0.322 S  
HETATM   19  O   UNL     2      -8.794  16.590  65.816  1.00  0.00    -0.474 OA 
HETATM   20  O   UNL     2     -10.962  17.309  64.909  1.00  0.00    -0.815 OA 
HETATM   21  O   UNL     2     -10.700  15.027  65.781  1.00  0.00    -0.311 OA 
ENDBRANCH  15  17
ENDBRANCH  14  15
ENDBRANCH  13  14
ENDBRANCH  12  13
ENDBRANCH  11  12
ENDBRANCH  10  11
ENDBRANCH   9  10
ENDBRANCH   8   9
ENDBRANCH   7   8
ENDBRANCH   6   7
ENDBRANCH   5   6
ENDBRANCH   4   5
ENDBRANCH   3   4
TORSDOF 13
ENDMDL
MODEL      101
REMARK 921   NORMALIZED FREE ENERGY PREDICTED BY IDOCK:   -3.99 KCAL/MOL
REMARK 922        TOTAL FREE ENERGY PREDICTED BY IDOCK:   -8.59 KCAL/MOL
REMARK 923 INTER-LIGAND FREE ENERGY PREDICTED BY IDOCK:   -7.85 KCAL/MOL
REMARK 924 INTRA-LIGAND FREE ENERGY PREDICTED BY IDOCK:   -0.74 KCAL/MOL
REMARK 927      BINDING AFFINITY PREDICTED BY RF-SCORE:    0.00 PKD
ROOT
HETATM    1 NA   UNL     1     -12.155   6.362  67.709  1.00  0.00    -0.580 Na 
HETATM    2  C   UNL     2     -12.215   6.618  70.773  1.00  0.00    -0.302 C  
HETATM    3  C   UNL     2     -10.777   6.671  71.263  1.00  0.00    -0.269 C  
ENDROOT
BRANCH   3   4
HETATM    4  C   UNL     2     -10.528   7.943  72.065  1.00  0.00    -0.289 C  
BRANCH   4   5
HETATM    5  C   UNL     2      -9.756   8.978  71.252  1.00  0.00    -0.371 C  
BRANCH   5   6
HETATM    6  C   UNL     2     -10.721   9.862  70.466  1.00  0.00    -0.382 C  
BRANCH   6   7
HETATM    7  C   UNL     2     -11.983  10.155  71.268  1.00  0.00    -0.473 C  
BRANCH   7   8
HETATM    8  C   UNL     2     -12.557  11.517  70.886  1.00  0.00    -0.438 C  
BRANCH   8   9
HETATM    9  C   UNL     2     -13.396  12.090  72.022  1.00  0.00    -0.447 C  
BRANCH   9  10
HETATM   10  C   UNL     2     -13.328  13.615  72.034  1.00  0.00    -0.548 C  
BRANCH  10  11
HETATM   11  C   UNL     2     -12.183  14.108  71.155  1.00  0.00    -0.435 C  
BRANCH  11  12
HETATM   12  C   UNL     2     -12.411  15.548  70.708  1.00  0.00    -0.463 C  
BRANCH  12  13
HETATM   13  C   UNL     2     -11.798  15.791  69.332  1.00  0.00    -0.349 C  
BRANCH  13  14
HETATM   14  O   UNL     2     -10.678  16.675  69.434  1.00  0.00    -0.321 OA 
BRANCH  14  15
HETATM   15  C   UNL     2      -9.582  16.327  68.692  1.00  0.00    -0.237 C  
HETATM   16  O   UNL     2      -9.216  15.168  68.523  1.00  0.00    -0.179 OA 
BRANCH  15  17
HETATM   17  C   UNL     2      -8.817  17.530  68.274  1.00  0.00    -0.274 C  
HETATM   18  S   UNL     2      -9.329  18.065  66.682  1.00  0.00    -0.294 S  
HETATM   19  O   UNL     2      -9.047  16.928  65.811  1.00  0.00    -0.523 OA 
HETATM   20  O   UNL     2      -8.473  19.229  66.455  1.00  0.00    -0.311 OA 
HETATM   21  O   UNL     2     -10.747  18.384  66.845  1.00  0.00    -0.370 OA 
ENDBRANCH  15  17
ENDBRANCH  14  15
ENDBRANCH  13  14
ENDBRANCH  12  13
ENDBRANCH  11  12
ENDBRANCH  10  11
ENDBRANCH   9  10
ENDBRANCH   8   9
ENDBRANCH   7   8
ENDBRANCH   6   7
ENDBRANCH   5   6
ENDBRANCH   4   5
ENDBRANCH   3   4
TORSDOF 13
ENDMDL
MODEL      102
REMARK 921   NORMALIZED FREE ENERGY PREDICTED BY IDOCK:   -3.99 KCAL/MOL
REMARK 922        TOTAL FREE ENERGY PREDICTED BY IDOCK:   -8.59 KCAL/MOL
REMARK 923 INTER-LIGAND FREE ENERGY PREDICTED BY IDOCK:   -6.99 KCAL/MOL
REMARK 924 INTRA-LIGAND FREE ENERGY PREDICTED BY IDOCK:   -1.61 KCAL/MOL
REMARK 927      BINDING AFFINITY PREDICTED BY RF-SCORE:    0.00 PKD
ROOT
HETATM    1 NA   UNL     1      -8.842  15.617  69.633  1.00  0.00    -0.188 Na 
HETATM    2  C   UNL     2      -8.199  13.347  67.660  1.00  0.00    -0.177 C  
HETATM    3  C   UNL     2      -8.735  12.053  68.251  1.00  0.00    -0.178 C  
ENDROOT
BRANCH   3   4
HETATM    4  C   UNL     2      -9.717  11.389  67.291  1.00  0.00    -0.201 C  
BRANCH   4   5
HETATM    5  C   UNL     2      -9.055  11.044  65.960  1.00  0.00    -0.212 C  
BRANCH   5   6
HETATM    6  C   UNL     2     -10.077  10.438  65.001  1.00  0.00    -0.379 C  
BRANCH   6   7
HETATM    7  C   UNL     2     -10.066  11.155  63.656  1.00  0.00    -0.432 C  
BRANCH   7   8
HETATM    8  C   UNL     2     -10.751  12.514  63.767  1.00  0.00    -0.483 C  
BRANCH   8   9
HETATM    9  C   UNL     2     -12.141  12.373  64.375  1.00  0.00    -0.505 C  
BRANCH   9  10
HETATM   10  C   UNL     2     -12.425  13.509  65.355  1.00  0.00    -0.540 C  
BRANCH  10  11
HETATM   11  C   UNL     2     -11.181  14.368  65.554  1.00  0.00    -0.330 C  
BRANCH  11  12
HETATM   12  C   UNL     2     -11.263  15.167  66.851  1.00  0.00    -0.292 C  
BRANCH  12  13
HETATM   13  C   UNL     2     -10.479  16.470  66.736  1.00  0.00    -0.269 C  
BRANCH  13  14
HETATM   14  O   UNL     2     -10.629  17.249  67.927  1.00  0.00    -0.365 OA 
BRANCH  14  15
HETATM   15  C   UNL     2     -10.449  18.597  67.777  1.00  0.00    -0.411 C  
HETATM   16  O   UNL     2     -10.877  19.237  66.821  1.00  0.00    -0.438 OA 
BRANCH  15  17
HETATM   17  C   UNL     2      -9.536  19.132  68.820  1.00  0.00    -0.416 C  
HETATM   18  S   UNL     2      -7.934  19.408  68.157  1.00  0.00    -0.326 S  
HETATM   19  O   UNL     2      -7.501  18.091  67.698  1.00  0.00    -0.208 OA 
HETATM   20  O   UNL     2      -7.201  19.917  69.315  1.00  0.00    -0.309 OA 
HETATM   21  O   UNL     2      -8.145  20.394  67.097  1.00  0.00    -0.329 OA 
ENDBRANCH  15  17
ENDBRANCH  14  15
ENDBRANCH  13  14
ENDBRANCH  12  13
ENDBRANCH  11  12
ENDBRANCH  10  11
ENDBRANCH   9  10
ENDBRANCH   8   9
ENDBRANCH   7   8
ENDBRANCH   6   7
ENDBRANCH   5   6
ENDBRANCH   4   5
ENDBRANCH   3   4
TORSDOF 13
ENDMDL
MODEL      103
REMARK 921   NORMALIZED FREE ENERGY PREDICTED BY IDOCK:   -3.99 KCAL/MOL
REMARK 922        TOTAL FREE ENERGY PREDICTED BY IDOCK:   -8.59 KCAL/MOL
REMARK 923 INTER-LIGAND FREE ENERGY PREDICTED BY IDOCK:   -7.60 KCAL/MOL
REMARK 924 INTRA-LIGAND FREE ENERGY PREDICTED BY IDOCK:   -0.99 KCAL/MOL
REMARK 927      BINDING AFFINITY PREDICTED BY RF-SCORE:    0.00 PKD
ROOT
HETATM    1 NA   UNL     1     -10.441   9.196  72.412  1.00  0.00    -0.293 Na 
HETATM    2  C   UNL     2     -12.673  10.749  70.974  1.00  0.00    -0.513 C  
HETATM    3  C   UNL     2     -13.127  11.869  71.896  1.00  0.00    -0.474 C  
ENDROOT
BRANCH   3   4
HETATM    4  C   UNL     2     -12.983  13.223  71.209  1.00  0.00    -0.353 C  
BRANCH   4   5
HETATM    5  C   UNL     2     -12.060  13.143  69.996  1.00  0.00    -0.375 C  
BRANCH   5   6
HETATM    6  C   UNL     2     -11.943  14.510  69.328  1.00  0.00    -0.355 C  
BRANCH   6   7
HETATM    7  C   UNL     2     -10.610  15.174  69.652  1.00  0.00    -0.274 C  
BRANCH   7   8
HETATM    8  C   UNL     2     -10.716  16.689  69.508  1.00  0.00    -0.306 C  
BRANCH   8   9
HETATM    9  C   UNL     2      -9.746  17.203  68.450  1.00  0.00    -0.284 C  
BRANCH   9  10
HETATM   10  C   UNL     2     -10.328  18.411  67.719  1.00  0.00    -0.428 C  
BRANCH  10  11
HETATM   11  C   UNL     2     -10.517  18.101  66.237  1.00  0.00    -0.374 C  
BRANCH  11  12
HETATM   12  C   UNL     2      -9.847  16.785  65.859  1.00  0.00    -0.276 C  
BRANCH  12  13
HETATM   13  C   UNL     2     -10.788  15.917  65.029  1.00  0.00    -0.426 C  
BRANCH  13  14
HETATM   14  O   UNL     2     -11.532  15.037  65.876  1.00  0.00    -0.321 OA 
BRANCH  14  15
HETATM   15  C   UNL     2     -12.100  13.959  65.253  1.00  0.00    -0.410 C  
HETATM   16  O   UNL     2     -13.309  13.745  65.232  1.00  0.00    -0.710 OA 
BRANCH  15  17
HETATM   17  C   UNL     2     -11.061  13.015  64.768  1.00  0.00    -0.322 C  
HETATM   18  S   UNL     2     -10.371  12.113  66.107  1.00  0.00    -0.242 S  
HETATM   19  O   UNL     2      -9.795  13.137  66.974  1.00  0.00    -0.233 OA 
HETATM   20  O   UNL     2      -9.388  11.263  65.437  1.00  0.00    -0.216 OA 
HETATM   21  O   UNL     2     -11.506  11.386  66.677  1.00  0.00    -0.408 OA 
ENDBRANCH  15  17
ENDBRANCH  14  15
ENDBRANCH  13  14
ENDBRANCH  12  13
ENDBRANCH  11  12
ENDBRANCH  10  11
ENDBRANCH   9  10
ENDBRANCH   8   9
ENDBRANCH   7   8
ENDBRANCH   6   7
ENDBRANCH   5   6
ENDBRANCH   4   5
ENDBRANCH   3   4
TORSDOF 13
ENDMDL
MODEL      104
REMARK 921   NORMALIZED FREE ENERGY PREDICTED BY IDOCK:   -3.98 KCAL/MOL
REMARK 922        TOTAL FREE ENERGY PREDICTED BY IDOCK:   -8.57 KCAL/MOL
REMARK 923 INTER-LIGAND FREE ENERGY PREDICTED BY IDOCK:   -7.34 KCAL/MOL
REMARK 924 INTRA-LIGAND FREE ENERGY PREDICTED BY IDOCK:   -1.22 KCAL/MOL
REMARK 927      BINDING AFFINITY PREDICTED BY RF-SCORE:    0.00 PKD
ROOT
HETATM    1 NA   UNL     1     -11.935  16.330  74.060  1.00  0.00    -0.383 Na 
HETATM    2  C   UNL     2     -13.661  14.582  72.209  1.00  0.00    -0.540 C  
HETATM    3  C   UNL     2     -12.760  13.520  71.601  1.00  0.00    -0.380 C  
ENDROOT
BRANCH   3   4
HETATM    4  C   UNL     2     -13.287  12.123  71.915  1.00  0.00    -0.421 C  
BRANCH   4   5
HETATM    5  C   UNL     2     -12.584  11.057  71.080  1.00  0.00    -0.512 C  
BRANCH   5   6
HETATM    6  C   UNL     2     -12.726   9.688  71.739  1.00  0.00    -0.510 C  
BRANCH   6   7
HETATM    7  C   UNL     2     -11.519   8.804  71.446  1.00  0.00    -0.366 C  
BRANCH   7   8
HETATM    8  C   UNL     2     -10.366   9.637  70.893  1.00  0.00    -0.334 C  
BRANCH   8   9
HETATM    9  C   UNL     2      -9.709   8.938  69.709  1.00  0.00    -0.180 C  
BRANCH   9  10
HETATM   10  C   UNL     2     -10.732   8.641  68.615  1.00  0.00    -0.092 C  
BRANCH  10  11
HETATM   11  C   UNL     2     -10.779   9.779  67.601  1.00  0.00    -0.334 C  
BRANCH  11  12
HETATM   12  C   UNL     2      -9.456   9.909  66.856  1.00  0.00    -0.202 C  
BRANCH  12  13
HETATM   13  C   UNL     2      -9.145  11.372  66.554  1.00  0.00    -0.186 C  
BRANCH  13  14
HETATM   14  O   UNL     2      -9.931  12.231  67.385  1.00  0.00    -0.198 OA 
BRANCH  14  15
HETATM   15  C   UNL     2     -10.152  13.488  66.892  1.00  0.00    -0.256 C  
HETATM   16  O   UNL     2      -9.253  14.283  66.631  1.00  0.00    -0.260 OA 
BRANCH  15  17
HETATM   17  C   UNL     2     -11.602  13.810  66.881  1.00  0.00    -0.370 C  
HETATM   18  S   UNL     2     -12.252  13.675  65.255  1.00  0.00    -0.469 S  
HETATM   19  O   UNL     2     -11.486  14.647  64.478  1.00  0.00    -0.377 OA 
HETATM   20  O   UNL     2     -13.657  14.029  65.451  1.00  0.00    -0.593 OA 
HETATM   21  O   UNL     2     -12.028  12.277  64.890  1.00  0.00    -0.381 OA 
ENDBRANCH  15  17
ENDBRANCH  14  15
ENDBRANCH  13  14
ENDBRANCH  12  13
ENDBRANCH  11  12
ENDBRANCH  10  11
ENDBRANCH   9  10
ENDBRANCH   8   9
ENDBRANCH   7   8
ENDBRANCH   6   7
ENDBRANCH   5   6
ENDBRANCH   4   5
ENDBRANCH   3   4
TORSDOF 13
ENDMDL
MODEL      105
REMARK 921   NORMALIZED FREE ENERGY PREDICTED BY IDOCK:   -3.97 KCAL/MOL
REMARK 922        TOTAL FREE ENERGY PREDICTED BY IDOCK:   -8.56 KCAL/MOL
REMARK 923 INTER-LIGAND FREE ENERGY PREDICTED BY IDOCK:   -7.12 KCAL/MOL
REMARK 924 INTRA-LIGAND FREE ENERGY PREDICTED BY IDOCK:   -1.44 KCAL/MOL
REMARK 927      BINDING AFFINITY PREDICTED BY RF-SCORE:    0.00 PKD
ROOT
HETATM    1 NA   UNL     1      -9.092  13.833  69.224  1.00  0.00    -0.328 Na 
HETATM    2  C   UNL     2      -6.638  15.684  69.333  1.00  0.00    -0.166 C  
HETATM    3  C   UNL     2      -5.916  15.576  68.000  1.00  0.00    -0.151 C  
ENDROOT
BRANCH   3   4
HETATM    4  C   UNL     2      -5.792  16.947  67.343  1.00  0.00    -0.181 C  
BRANCH   4   5
HETATM    5  C   UNL     2      -6.804  17.122  66.214  1.00  0.00    -0.237 C  
BRANCH   5   6
HETATM    6  C   UNL     2      -7.015  18.605  65.917  1.00  0.00    -0.305 C  
BRANCH   6   7
HETATM    7  C   UNL     2      -6.557  19.474  67.082  1.00  0.00    -0.209 C  
BRANCH   7   8
HETATM    8  C   UNL     2      -7.722  20.295  67.628  1.00  0.00    -0.328 C  
BRANCH   8   9
HETATM    9  C   UNL     2      -9.048  19.797  67.066  1.00  0.00    -0.428 C  
BRANCH   9  10
HETATM   10  C   UNL     2      -9.988  19.366  68.189  1.00  0.00    -0.510 C  
BRANCH  10  11
HETATM   11  C   UNL     2     -10.785  18.132  67.777  1.00  0.00    -0.355 C  
BRANCH  11  12
HETATM   12  C   UNL     2      -9.884  16.908  67.656  1.00  0.00    -0.259 C  
BRANCH  12  13
HETATM   13  C   UNL     2     -10.664  15.710  67.125  1.00  0.00    -0.314 C  
BRANCH  13  14
HETATM   14  O   UNL     2      -9.864  14.525  67.190  1.00  0.00    -0.238 OA 
BRANCH  14  15
HETATM   15  C   UNL     2     -10.057  13.627  66.175  1.00  0.00    -0.306 C  
HETATM   16  O   UNL     2      -9.559  12.505  66.158  1.00  0.00    -0.249 OA 
BRANCH  15  17
HETATM   17  C   UNL     2     -10.792  14.249  65.044  1.00  0.00    -0.403 C  
HETATM   18  S   UNL     2     -11.876  13.086  64.298  1.00  0.00    -0.427 S  
HETATM   19  O   UNL     2     -10.995  12.017  63.835  1.00  0.00    -0.329 OA 
HETATM   20  O   UNL     2     -12.488  13.873  63.228  1.00  0.00    -0.817 OA 
HETATM   21  O   UNL     2     -12.796  12.709  65.370  1.00  0.00    -0.582 OA 
ENDBRANCH  15  17
ENDBRANCH  14  15
ENDBRANCH  13  14
ENDBRANCH  12  13
ENDBRANCH  11  12
ENDBRANCH  10  11
ENDBRANCH   9  10
ENDBRANCH   8   9
ENDBRANCH   7   8
ENDBRANCH   6   7
ENDBRANCH   5   6
ENDBRANCH   4   5
ENDBRANCH   3   4
TORSDOF 13
ENDMDL
MODEL      106
REMARK 921   NORMALIZED FREE ENERGY PREDICTED BY IDOCK:   -3.97 KCAL/MOL
REMARK 922        TOTAL FREE ENERGY PREDICTED BY IDOCK:   -8.55 KCAL/MOL
REMARK 923 INTER-LIGAND FREE ENERGY PREDICTED BY IDOCK:   -7.24 KCAL/MOL
REMARK 924 INTRA-LIGAND FREE ENERGY PREDICTED BY IDOCK:   -1.31 KCAL/MOL
REMARK 927      BINDING AFFINITY PREDICTED BY RF-SCORE:    0.00 PKD
ROOT
HETATM    1 NA   UNL     1     -11.305   9.812  67.640  1.00  0.00    -0.276 Na 
HETATM    2  C   UNL     2      -9.718  10.676  65.151  1.00  0.00    -0.327 C  
HETATM    3  C   UNL     2     -10.717  10.985  64.048  1.00  0.00    -0.331 C  
ENDROOT
BRANCH   3   4
HETATM    4  C   UNL     2     -10.539  12.414  63.545  1.00  0.00    -0.451 C  
BRANCH   4   5
HETATM    5  C   UNL     2     -11.882  13.107  63.333  1.00  0.00    -0.490 C  
BRANCH   5   6
HETATM    6  C   UNL     2     -12.078  14.211  64.368  1.00  0.00    -0.486 C  
BRANCH   6   7
HETATM    7  C   UNL     2     -12.784  13.684  65.612  1.00  0.00    -0.505 C  
BRANCH   7   8
HETATM    8  C   UNL     2     -12.082  14.174  66.875  1.00  0.00    -0.466 C  
BRANCH   8   9
HETATM    9  C   UNL     2     -10.785  14.897  66.530  1.00  0.00    -0.309 C  
BRANCH   9  10
HETATM   10  C   UNL     2      -9.574  14.013  66.819  1.00  0.00    -0.293 C  
BRANCH  10  11
HETATM   11  C   UNL     2      -8.322  14.863  67.005  1.00  0.00    -0.246 C  
BRANCH  11  12
HETATM   12  C   UNL     2      -7.996  15.050  68.483  1.00  0.00    -0.144 C  
BRANCH  12  13
HETATM   13  C   UNL     2      -7.290  16.381  68.719  1.00  0.00    -0.203 C  
BRANCH  13  14
HETATM   14  O   UNL     2      -8.245  17.409  68.999  1.00  0.00    -0.206 OA 
BRANCH  14  15
HETATM   15  C   UNL     2      -7.885  18.671  68.611  1.00  0.00    -0.321 C  
HETATM   16  O   UNL     2      -6.753  19.126  68.748  1.00  0.00    -0.270 OA 
BRANCH  15  17
HETATM   17  C   UNL     2      -9.069  19.452  68.170  1.00  0.00    -0.333 C  
HETATM   18  S   UNL     2      -9.233  19.392  66.423  1.00  0.00    -0.359 S  
HETATM   19  O   UNL     2      -7.994  19.979  65.923  1.00  0.00    -0.336 OA 
HETATM   20  O   UNL     2     -10.425  20.208  66.195  1.00  0.00    -0.417 OA 
HETATM   21  O   UNL     2      -9.410  17.971  66.125  1.00  0.00    -0.468 OA 
ENDBRANCH  15  17
ENDBRANCH  14  15
ENDBRANCH  13  14
ENDBRANCH  12  13
ENDBRANCH  11  12
ENDBRANCH  10  11
ENDBRANCH   9  10
ENDBRANCH   8   9
ENDBRANCH   7   8
ENDBRANCH   6   7
ENDBRANCH   5   6
ENDBRANCH   4   5
ENDBRANCH   3   4
TORSDOF 13
ENDMDL
MODEL      107
REMARK 921   NORMALIZED FREE ENERGY PREDICTED BY IDOCK:   -3.97 KCAL/MOL
REMARK 922        TOTAL FREE ENERGY PREDICTED BY IDOCK:   -8.55 KCAL/MOL
REMARK 923 INTER-LIGAND FREE ENERGY PREDICTED BY IDOCK:   -7.77 KCAL/MOL
REMARK 924 INTRA-LIGAND FREE ENERGY PREDICTED BY IDOCK:   -0.77 KCAL/MOL
REMARK 927      BINDING AFFINITY PREDICTED BY RF-SCORE:    0.00 PKD
ROOT
HETATM    1 NA   UNL     1     -12.132   6.559  68.078  1.00  0.00    -0.527 Na 
HETATM    2  C   UNL     2     -12.267   6.496  71.150  1.00  0.00    -0.263 C  
HETATM    3  C   UNL     2     -10.843   6.527  71.678  1.00  0.00    -0.281 C  
ENDROOT
BRANCH   3   4
HETATM    4  C   UNL     2     -10.641   7.714  72.613  1.00  0.00    -0.354 C  
BRANCH   4   5
HETATM    5  C   UNL     2      -9.635   8.712  72.046  1.00  0.00    -0.385 C  
BRANCH   5   6
HETATM    6  C   UNL     2     -10.256   9.493  70.891  1.00  0.00    -0.356 C  
BRANCH   6   7
HETATM    7  C   UNL     2     -11.603  10.088  71.286  1.00  0.00    -0.430 C  
BRANCH   7   8
HETATM    8  C   UNL     2     -12.199  10.881  70.127  1.00  0.00    -0.423 C  
BRANCH   8   9
HETATM    9  C   UNL     2     -12.391  12.344  70.511  1.00  0.00    -0.346 C  
BRANCH   9  10
HETATM   10  C   UNL     2     -12.220  13.254  69.297  1.00  0.00    -0.194 C  
BRANCH  10  11
HETATM   11  C   UNL     2     -11.595  12.487  68.136  1.00  0.00    -0.390 C  
BRANCH  11  12
HETATM   12  C   UNL     2     -11.747  13.251  66.825  1.00  0.00    -0.434 C  
BRANCH  12  13
HETATM   13  C   UNL     2     -10.510  14.099  66.546  1.00  0.00    -0.280 C  
BRANCH  13  14
HETATM   14  O   UNL     2     -10.868  15.480  66.432  1.00  0.00    -0.308 OA 
BRANCH  14  15
HETATM   15  C   UNL     2     -10.421  16.291  67.440  1.00  0.00    -0.304 C  
HETATM   16  O   UNL     2     -10.919  16.317  68.562  1.00  0.00    -0.311 OA 
BRANCH  15  17
HETATM   17  C   UNL     2      -9.387  17.235  66.945  1.00  0.00    -0.255 C  
HETATM   18  S   UNL     2     -10.135  18.672  66.267  1.00  0.00    -0.387 S  
HETATM   19  O   UNL     2     -10.960  18.167  65.172  1.00  0.00    -0.637 OA 
HETATM   20  O   UNL     2      -8.976  19.454  65.840  1.00  0.00    -0.422 OA 
HETATM   21  O   UNL     2     -10.878  19.255  67.384  1.00  0.00    -0.486 OA 
ENDBRANCH  15  17
ENDBRANCH  14  15
ENDBRANCH  13  14
ENDBRANCH  12  13
ENDBRANCH  11  12
ENDBRANCH  10  11
ENDBRANCH   9  10
ENDBRANCH   8   9
ENDBRANCH   7   8
ENDBRANCH   6   7
ENDBRANCH   5   6
ENDBRANCH   4   5
ENDBRANCH   3   4
TORSDOF 13
ENDMDL
MODEL      108
REMARK 921   NORMALIZED FREE ENERGY PREDICTED BY IDOCK:   -3.97 KCAL/MOL
REMARK 922        TOTAL FREE ENERGY PREDICTED BY IDOCK:   -8.54 KCAL/MOL
REMARK 923 INTER-LIGAND FREE ENERGY PREDICTED BY IDOCK:   -7.20 KCAL/MOL
REMARK 924 INTRA-LIGAND FREE ENERGY PREDICTED BY IDOCK:   -1.34 KCAL/MOL
REMARK 927      BINDING AFFINITY PREDICTED BY RF-SCORE:    0.00 PKD
ROOT
HETATM    1 NA   UNL     1     -11.791  20.805  63.875  1.00  0.00    -0.653 Na 
HETATM    2  C   UNL     2     -10.529  19.911  66.534  1.00  0.00    -0.589 C  
HETATM    3  C   UNL     2      -9.138  19.379  66.232  1.00  0.00    -0.380 C  
ENDROOT
BRANCH   3   4
HETATM    4  C   UNL     2      -8.085  20.141  67.029  1.00  0.00    -0.368 C  
BRANCH   4   5
HETATM    5  C   UNL     2      -7.708  19.403  68.311  1.00  0.00    -0.356 C  
BRANCH   5   6
HETATM    6  C   UNL     2      -8.271  17.984  68.290  1.00  0.00    -0.298 C  
BRANCH   6   7
HETATM    7  C   UNL     2      -7.159  16.949  68.160  1.00  0.00    -0.166 C  
BRANCH   7   8
HETATM    8  C   UNL     2      -7.568  15.842  67.193  1.00  0.00    -0.259 C  
BRANCH   8   9
HETATM    9  C   UNL     2      -9.077  15.840  66.976  1.00  0.00    -0.240 C  
BRANCH   9  10
HETATM   10  C   UNL     2      -9.426  15.328  65.581  1.00  0.00    -0.240 C  
BRANCH  10  11
HETATM   11  C   UNL     2     -10.853  15.718  65.208  1.00  0.00    -0.409 C  
BRANCH  11  12
HETATM   12  C   UNL     2     -11.767  14.499  65.172  1.00  0.00    -0.376 C  
BRANCH  12  13
HETATM   13  C   UNL     2     -11.221  13.385  66.061  1.00  0.00    -0.296 C  
BRANCH  13  14
HETATM   14  O   UNL     2     -11.965  13.310  67.280  1.00  0.00    -0.367 OA 
BRANCH  14  15
HETATM   15  C   UNL     2     -11.218  13.265  68.426  1.00  0.00    -0.280 C  
HETATM   16  O   UNL     2     -10.124  12.712  68.501  1.00  0.00    -0.222 OA 
BRANCH  15  17
HETATM   17  C   UNL     2     -11.976  13.813  69.580  1.00  0.00    -0.345 C  
HETATM   18  S   UNL     2     -11.527  15.485  69.874  1.00  0.00    -0.359 S  
HETATM   19  O   UNL     2     -10.095  15.431  70.157  1.00  0.00    -0.281 OA 
HETATM   20  O   UNL     2     -12.359  15.832  71.026  1.00  0.00    -0.398 OA 
HETATM   21  O   UNL     2     -11.888  16.180  68.639  1.00  0.00    -0.321 OA 
ENDBRANCH  15  17
ENDBRANCH  14  15
ENDBRANCH  13  14
ENDBRANCH  12  13
ENDBRANCH  11  12
ENDBRANCH  10  11
ENDBRANCH   9  10
ENDBRANCH   8   9
ENDBRANCH   7   8
ENDBRANCH   6   7
ENDBRANCH   5   6
ENDBRANCH   4   5
ENDBRANCH   3   4
TORSDOF 13
ENDMDL
MODEL      109
REMARK 921   NORMALIZED FREE ENERGY PREDICTED BY IDOCK:   -3.96 KCAL/MOL
REMARK 922        TOTAL FREE ENERGY PREDICTED BY IDOCK:   -8.54 KCAL/MOL
REMARK 923 INTER-LIGAND FREE ENERGY PREDICTED BY IDOCK:   -7.43 KCAL/MOL
REMARK 924 INTRA-LIGAND FREE ENERGY PREDICTED BY IDOCK:   -1.11 KCAL/MOL
REMARK 927      BINDING AFFINITY PREDICTED BY RF-SCORE:    0.00 PKD
ROOT
HETATM    1 NA   UNL     1      -6.825  20.715  71.223  1.00  0.00    -0.536 Na 
HETATM    2  C   UNL     2      -6.639  20.851  68.156  1.00  0.00    -0.260 C  
HETATM    3  C   UNL     2      -7.371  19.645  67.593  1.00  0.00    -0.289 C  
ENDROOT
BRANCH   3   4
HETATM    4  C   UNL     2      -8.480  20.083  66.642  1.00  0.00    -0.370 C  
BRANCH   4   5
HETATM    5  C   UNL     2      -9.671  20.666  67.398  1.00  0.00    -0.552 C  
BRANCH   5   6
HETATM    6  C   UNL     2     -10.775  19.621  67.535  1.00  0.00    -0.537 C  
BRANCH   6   7
HETATM    7  C   UNL     2     -10.490  18.397  66.672  1.00  0.00    -0.415 C  
BRANCH   7   8
HETATM    8  C   UNL     2     -10.643  17.117  67.490  1.00  0.00    -0.323 C  
BRANCH   8   9
HETATM    9  C   UNL     2      -9.683  17.111  68.673  1.00  0.00    -0.293 C  
BRANCH   9  10
HETATM   10  C   UNL     2      -9.997  15.958  69.624  1.00  0.00    -0.255 C  
BRANCH  10  11
HETATM   11  C   UNL     2     -11.416  16.083  70.168  1.00  0.00    -0.350 C  
BRANCH  11  12
HETATM   12  C   UNL     2     -12.037  14.712  70.410  1.00  0.00    -0.383 C  
BRANCH  12  13
HETATM   13  C   UNL     2     -12.380  14.032  69.088  1.00  0.00    -0.134 C  
BRANCH  13  14
HETATM   14  O   UNL     2     -11.702  12.776  68.982  1.00  0.00    -0.288 OA 
BRANCH  14  15
HETATM   15  C   UNL     2     -11.726  12.195  67.744  1.00  0.00    -0.320 C  
HETATM   16  O   UNL     2     -11.589  10.989  67.557  1.00  0.00    -0.529 OA 
BRANCH  15  17
HETATM   17  C   UNL     2     -11.766  13.223  66.672  1.00  0.00    -0.377 C  
HETATM   18  S   UNL     2     -10.272  13.213  65.750  1.00  0.00    -0.285 S  
HETATM   19  O   UNL     2      -9.237  13.513  66.735  1.00  0.00    -0.246 OA 
HETATM   20  O   UNL     2     -10.503  14.275  64.772  1.00  0.00    -0.431 OA 
HETATM   21  O   UNL     2     -10.210  11.869  65.177  1.00  0.00    -0.259 OA 
ENDBRANCH  15  17
ENDBRANCH  14  15
ENDBRANCH  13  14
ENDBRANCH  12  13
ENDBRANCH  11  12
ENDBRANCH  10  11
ENDBRANCH   9  10
ENDBRANCH   8   9
ENDBRANCH   7   8
ENDBRANCH   6   7
ENDBRANCH   5   6
ENDBRANCH   4   5
ENDBRANCH   3   4
TORSDOF 13
ENDMDL
MODEL      110
REMARK 921   NORMALIZED FREE ENERGY PREDICTED BY IDOCK:   -3.96 KCAL/MOL
REMARK 922        TOTAL FREE ENERGY PREDICTED BY IDOCK:   -8.54 KCAL/MOL
REMARK 923 INTER-LIGAND FREE ENERGY PREDICTED BY IDOCK:   -7.52 KCAL/MOL
REMARK 924 INTRA-LIGAND FREE ENERGY PREDICTED BY IDOCK:   -1.02 KCAL/MOL
REMARK 927      BINDING AFFINITY PREDICTED BY RF-SCORE:    0.00 PKD
ROOT
HETATM    1 NA   UNL     1      -9.011  11.161  70.004  1.00  0.00    -0.371 Na 
HETATM    2  C   UNL     2      -9.194   8.588  68.329  1.00  0.00    -0.140 C  
HETATM    3  C   UNL     2      -8.502   7.479  69.104  1.00  0.00    -0.136 C  
ENDROOT
BRANCH   3   4
HETATM    4  C   UNL     2      -9.456   6.314  69.345  1.00  0.00    -0.148 C  
BRANCH   4   5
HETATM    5  C   UNL     2     -10.875   6.799  69.626  1.00  0.00    -0.314 C  
BRANCH   5   6
HETATM    6  C   UNL     2     -11.350   6.287  70.984  1.00  0.00    -0.378 C  
BRANCH   6   7
HETATM    7  C   UNL     2     -12.569   7.061  71.471  1.00  0.00    -0.426 C  
BRANCH   7   8
HETATM    8  C   UNL     2     -12.145   8.372  72.128  1.00  0.00    -0.435 C  
BRANCH   8   9
HETATM    9  C   UNL     2     -13.328   9.325  72.253  1.00  0.00    -0.547 C  
BRANCH   9  10
HETATM   10  C   UNL     2     -13.016  10.669  71.599  1.00  0.00    -0.582 C  
BRANCH  10  11
HETATM   11  C   UNL     2     -11.773  10.563  70.721  1.00  0.00    -0.454 C  
BRANCH  11  12
HETATM   12  C   UNL     2     -12.020  11.165  69.342  1.00  0.00    -0.420 C  
BRANCH  12  13
HETATM   13  C   UNL     2     -11.322  12.514  69.206  1.00  0.00    -0.245 C  
BRANCH  13  14
HETATM   14  O   UNL     2     -11.362  13.223  70.449  1.00  0.00     0.099 OA 
BRANCH  14  15
HETATM   15  C   UNL     2     -11.922  14.470  70.399  1.00  0.00    -0.318 C  
HETATM   16  O   UNL     2     -12.388  14.966  69.376  1.00  0.00    -0.233 OA 
BRANCH  15  17
HETATM   17  C   UNL     2     -11.737  15.190  71.685  1.00  0.00    -0.398 C  
HETATM   18  S   UNL     2     -13.175  15.050  72.684  1.00  0.00    -0.478 S  
HETATM   19  O   UNL     2     -14.233  15.660  71.882  1.00  0.00    -0.471 OA 
HETATM   20  O   UNL     2     -12.802  15.813  73.874  1.00  0.00    -0.536 OA 
HETATM   21  O   UNL     2     -13.321  13.613  72.910  1.00  0.00    -0.587 OA 
ENDBRANCH  15  17
ENDBRANCH  14  15
ENDBRANCH  13  14
ENDBRANCH  12  13
ENDBRANCH  11  12
ENDBRANCH  10  11
ENDBRANCH   9  10
ENDBRANCH   8   9
ENDBRANCH   7   8
ENDBRANCH   6   7
ENDBRANCH   5   6
ENDBRANCH   4   5
ENDBRANCH   3   4
TORSDOF 13
ENDMDL
MODEL      111
REMARK 921   NORMALIZED FREE ENERGY PREDICTED BY IDOCK:   -3.96 KCAL/MOL
REMARK 922        TOTAL FREE ENERGY PREDICTED BY IDOCK:   -8.53 KCAL/MOL
REMARK 923 INTER-LIGAND FREE ENERGY PREDICTED BY IDOCK:   -6.63 KCAL/MOL
REMARK 924 INTRA-LIGAND FREE ENERGY PREDICTED BY IDOCK:   -1.90 KCAL/MOL
REMARK 927      BINDING AFFINITY PREDICTED BY RF-SCORE:    0.00 PKD
ROOT
HETATM    1 NA   UNL     1      -9.301  10.458  70.507  1.00  0.00    -0.332 Na 
HETATM    2  C   UNL     2      -8.351   7.982  72.063  1.00  0.00    -0.179 C  
HETATM    3  C   UNL     2      -8.748   8.167  73.518  1.00  0.00    -0.317 C  
ENDROOT
BRANCH   3   4
HETATM    4  C   UNL     2      -9.621   7.010  73.990  1.00  0.00    -0.308 C  
BRANCH   4   5
HETATM    5  C   UNL     2      -9.085   5.667  73.504  1.00  0.00    -0.131 C  
BRANCH   5   6
HETATM    6  C   UNL     2     -10.223   4.804  72.965  1.00  0.00    -0.218 C  
BRANCH   6   7
HETATM    7  C   UNL     2     -11.310   5.659  72.324  1.00  0.00    -0.300 C  
BRANCH   7   8
HETATM    8  C   UNL     2     -11.055   5.817  70.827  1.00  0.00    -0.272 C  
BRANCH   8   9
HETATM    9  C   UNL     2     -11.447   7.212  70.353  1.00  0.00    -0.317 C  
BRANCH   9  10
HETATM   10  C   UNL     2     -12.208   7.964  71.443  1.00  0.00    -0.337 C  
BRANCH  10  11
HETATM   11  C   UNL     2     -11.761   9.421  71.501  1.00  0.00    -0.465 C  
BRANCH  11  12
HETATM   12  C   UNL     2     -12.952  10.368  71.398  1.00  0.00    -0.545 C  
BRANCH  12  13
HETATM   13  C   UNL     2     -12.521  11.724  70.850  1.00  0.00    -0.318 C  
BRANCH  13  14
HETATM   14  O   UNL     2     -11.306  11.597  70.104  1.00  0.00    -0.187 OA 
BRANCH  14  15
HETATM   15  C   UNL     2     -11.420  11.789  68.754  1.00  0.00    -0.291 C  
HETATM   16  O   UNL     2     -12.043  11.036  68.011  1.00  0.00    -0.615 OA 
BRANCH  15  17
HETATM   17  C   UNL     2     -10.561  12.913  68.300  1.00  0.00    -0.246 C  
HETATM   18  S   UNL     2     -11.544  14.279  67.800  1.00  0.00    -0.373 S  
HETATM   19  O   UNL     2     -12.357  13.757  66.704  1.00  0.00    -0.418 OA 
HETATM   20  O   UNL     2     -10.535  15.256  67.392  1.00  0.00    -0.260 OA 
HETATM   21  O   UNL     2     -12.289  14.649  69.002  1.00  0.00    -0.203 OA 
ENDBRANCH  15  17
ENDBRANCH  14  15
ENDBRANCH  13  14
ENDBRANCH  12  13
ENDBRANCH  11  12
ENDBRANCH  10  11
ENDBRANCH   9  10
ENDBRANCH   8   9
ENDBRANCH   7   8
ENDBRANCH   6   7
ENDBRANCH   5   6
ENDBRANCH   4   5
ENDBRANCH   3   4
TORSDOF 13
ENDMDL
MODEL      112
REMARK 921   NORMALIZED FREE ENERGY PREDICTED BY IDOCK:   -3.96 KCAL/MOL
REMARK 922        TOTAL FREE ENERGY PREDICTED BY IDOCK:   -8.52 KCAL/MOL
REMARK 923 INTER-LIGAND FREE ENERGY PREDICTED BY IDOCK:   -7.39 KCAL/MOL
REMARK 924 INTRA-LIGAND FREE ENERGY PREDICTED BY IDOCK:   -1.14 KCAL/MOL
REMARK 927      BINDING AFFINITY PREDICTED BY RF-SCORE:    0.00 PKD
ROOT
HETATM    1 NA   UNL     1      -9.893   7.234  67.622  1.00  0.00    -0.134 Na 
HETATM    2  C   UNL     2     -11.545   6.641  70.148  1.00  0.00    -0.446 C  
HETATM    3  C   UNL     2     -10.741   7.109  71.349  1.00  0.00    -0.245 C  
ENDROOT
BRANCH   3   4
HETATM    4  C   UNL     2     -11.534   8.124  72.165  1.00  0.00    -0.412 C  
BRANCH   4   5
HETATM    5  C   UNL     2     -12.510   8.908  71.292  1.00  0.00    -0.321 C  
BRANCH   5   6
HETATM    6  C   UNL     2     -12.234  10.405  71.400  1.00  0.00    -0.461 C  
BRANCH   6   7
HETATM    7  C   UNL     2     -12.257  11.073  70.031  1.00  0.00    -0.418 C  
BRANCH   7   8
HETATM    8  C   UNL     2     -11.272  10.391  69.085  1.00  0.00    -0.301 C  
BRANCH   8   9
HETATM    9  C   UNL     2     -11.273  11.067  67.719  1.00  0.00    -0.374 C  
BRANCH   9  10
HETATM   10  C   UNL     2     -10.198  10.470  66.814  1.00  0.00    -0.288 C  
BRANCH  10  11
HETATM   11  C   UNL     2      -9.820  11.452  65.710  1.00  0.00    -0.270 C  
BRANCH  11  12
HETATM   12  C   UNL     2     -10.831  11.417  64.570  1.00  0.00    -0.375 C  
BRANCH  12  13
HETATM   13  C   UNL     2     -11.079  12.818  64.021  1.00  0.00    -0.414 C  
BRANCH  13  14
HETATM   14  O   UNL     2     -10.320  13.783  64.756  1.00  0.00    -0.410 OA 
BRANCH  14  15
HETATM   15  C   UNL     2     -11.020  14.874  65.195  1.00  0.00    -0.399 C  
HETATM   16  O   UNL     2     -10.861  16.007  64.748  1.00  0.00    -0.587 OA 
BRANCH  15  17
HETATM   17  C   UNL     2     -11.853  14.534  66.377  1.00  0.00    -0.349 C  
HETATM   18  S   UNL     2     -11.054  15.031  67.859  1.00  0.00    -0.318 S  
HETATM   19  O   UNL     2      -9.799  14.283  67.862  1.00  0.00    -0.218 OA 
HETATM   20  O   UNL     2     -12.010  14.612  68.883  1.00  0.00    -0.307 OA 
HETATM   21  O   UNL     2     -10.910  16.480  67.725  1.00  0.00    -0.341 OA 
ENDBRANCH  15  17
ENDBRANCH  14  15
ENDBRANCH  13  14
ENDBRANCH  12  13
ENDBRANCH  11  12
ENDBRANCH  10  11
ENDBRANCH   9  10
ENDBRANCH   8   9
ENDBRANCH   7   8
ENDBRANCH   6   7
ENDBRANCH   5   6
ENDBRANCH   4   5
ENDBRANCH   3   4
TORSDOF 13
ENDMDL
MODEL      113
REMARK 921   NORMALIZED FREE ENERGY PREDICTED BY IDOCK:   -3.95 KCAL/MOL
REMARK 922        TOTAL FREE ENERGY PREDICTED BY IDOCK:   -8.51 KCAL/MOL
REMARK 923 INTER-LIGAND FREE ENERGY PREDICTED BY IDOCK:   -7.36 KCAL/MOL
REMARK 924 INTRA-LIGAND FREE ENERGY PREDICTED BY IDOCK:   -1.16 KCAL/MOL
REMARK 927      BINDING AFFINITY PREDICTED BY RF-SCORE:    0.00 PKD
ROOT
HETATM    1 NA   UNL     1      -6.915   8.098  71.487  1.00  0.00    -0.045 Na 
HETATM    2  C   UNL     2      -9.532   8.233  69.878  1.00  0.00    -0.167 C  
HETATM    3  C   UNL     2      -9.852   6.829  69.394  1.00  0.00    -0.162 C  
ENDROOT
BRANCH   3   4
HETATM    4  C   UNL     2     -11.231   6.392  69.878  1.00  0.00    -0.485 C  
BRANCH   4   5
HETATM    5  C   UNL     2     -11.156   5.704  71.238  1.00  0.00    -0.205 C  
BRANCH   5   6
HETATM    6  C   UNL     2     -11.859   6.547  72.299  1.00  0.00    -0.299 C  
BRANCH   6   7
HETATM    7  C   UNL     2     -12.907   7.462  71.674  1.00  0.00    -0.406 C  
BRANCH   7   8
HETATM    8  C   UNL     2     -12.703   8.902  72.136  1.00  0.00    -0.470 C  
BRANCH   8   9
HETATM    9  C   UNL     2     -13.197   9.885  71.081  1.00  0.00    -0.424 C  
BRANCH   9  10
HETATM   10  C   UNL     2     -13.005  11.327  71.546  1.00  0.00    -0.520 C  
BRANCH  10  11
HETATM   11  C   UNL     2     -12.265  12.138  70.487  1.00  0.00    -0.392 C  
BRANCH  11  12
HETATM   12  C   UNL     2     -11.532  11.228  69.507  1.00  0.00    -0.376 C  
BRANCH  12  13
HETATM   13  C   UNL     2     -11.489  11.853  68.116  1.00  0.00    -0.320 C  
BRANCH  13  14
HETATM   14  O   UNL     2     -11.038  10.895  67.154  1.00  0.00    -0.283 OA 
BRANCH  14  15
HETATM   15  C   UNL     2     -10.603  11.414  65.964  1.00  0.00    -0.266 C  
HETATM   16  O   UNL     2     -10.013  10.756  65.112  1.00  0.00    -0.250 OA 
BRANCH  15  17
HETATM   17  C   UNL     2     -10.786  12.887  65.926  1.00  0.00    -0.272 C  
HETATM   18  S   UNL     2     -11.880  13.340  64.628  1.00  0.00    -0.400 S  
HETATM   19  O   UNL     2     -11.223  12.855  63.417  1.00  0.00    -0.394 OA 
HETATM   20  O   UNL     2     -11.923  14.796  64.752  1.00  0.00    -0.411 OA 
HETATM   21  O   UNL     2     -13.136  12.669  64.963  1.00  0.00    -0.808 OA 
ENDBRANCH  15  17
ENDBRANCH  14  15
ENDBRANCH  13  14
ENDBRANCH  12  13
ENDBRANCH  11  12
ENDBRANCH  10  11
ENDBRANCH   9  10
ENDBRANCH   8   9
ENDBRANCH   7   8
ENDBRANCH   6   7
ENDBRANCH   5   6
ENDBRANCH   4   5
ENDBRANCH   3   4
TORSDOF 13
ENDMDL
MODEL      114
REMARK 921   NORMALIZED FREE ENERGY PREDICTED BY IDOCK:   -3.95 KCAL/MOL
REMARK 922        TOTAL FREE ENERGY PREDICTED BY IDOCK:   -8.51 KCAL/MOL
REMARK 923 INTER-LIGAND FREE ENERGY PREDICTED BY IDOCK:   -6.87 KCAL/MOL
REMARK 924 INTRA-LIGAND FREE ENERGY PREDICTED BY IDOCK:   -1.63 KCAL/MOL
REMARK 927      BINDING AFFINITY PREDICTED BY RF-SCORE:    0.00 PKD
ROOT
HETATM    1 NA   UNL     1     -13.185  14.630  67.271  1.00  0.00    -0.539 Na 
HETATM    2  C   UNL     2     -11.705  12.785  69.236  1.00  0.00    -0.376 C  
HETATM    3  C   UNL     2     -11.895  11.354  68.762  1.00  0.00    -0.388 C  
ENDROOT
BRANCH   3   4
HETATM    4  C   UNL     2     -10.548  10.681  68.525  1.00  0.00    -0.229 C  
BRANCH   4   5
HETATM    5  C   UNL     2     -10.305  10.417  67.041  1.00  0.00    -0.295 C  
BRANCH   5   6
HETATM    6  C   UNL     2      -8.947  10.973  66.619  1.00  0.00    -0.176 C  
BRANCH   6   7
HETATM    7  C   UNL     2      -8.721  10.804  65.121  1.00  0.00    -0.174 C  
BRANCH   7   8
HETATM    8  C   UNL     2     -10.031  10.461  64.417  1.00  0.00    -0.388 C  
BRANCH   8   9
HETATM    9  C   UNL     2     -10.536  11.647  63.603  1.00  0.00    -0.493 C  
BRANCH   9  10
HETATM   10  C   UNL     2     -11.953  12.032  64.023  1.00  0.00    -0.499 C  
BRANCH  10  11
HETATM   11  C   UNL     2     -11.921  13.132  65.078  1.00  0.00    -0.423 C  
BRANCH  11  12
HETATM   12  C   UNL     2     -10.633  13.944  64.989  1.00  0.00    -0.418 C  
BRANCH  12  13
HETATM   13  C   UNL     2     -10.440  14.794  66.240  1.00  0.00    -0.296 C  
BRANCH  13  14
HETATM   14  O   UNL     2      -9.058  14.835  66.608  1.00  0.00    -0.254 OA 
BRANCH  14  15
HETATM   15  C   UNL     2      -8.431  16.035  66.414  1.00  0.00    -0.327 C  
HETATM   16  O   UNL     2      -8.833  16.893  65.634  1.00  0.00    -0.472 OA 
BRANCH  15  17
HETATM   17  C   UNL     2      -7.132  16.081  67.135  1.00  0.00    -0.213 C  
HETATM   18  S   UNL     2      -7.345  16.735  68.750  1.00  0.00    -0.237 S  
HETATM   19  O   UNL     2      -7.878  18.077  68.530  1.00  0.00    -0.288 OA 
HETATM   20  O   UNL     2      -5.983  16.704  69.281  1.00  0.00    -0.152 OA 
HETATM   21  O   UNL     2      -8.266  15.803  69.400  1.00  0.00    -0.238 OA 
ENDBRANCH  15  17
ENDBRANCH  14  15
ENDBRANCH  13  14
ENDBRANCH  12  13
ENDBRANCH  11  12
ENDBRANCH  10  11
ENDBRANCH   9  10
ENDBRANCH   8   9
ENDBRANCH   7   8
ENDBRANCH   6   7
ENDBRANCH   5   6
ENDBRANCH   4   5
ENDBRANCH   3   4
TORSDOF 13
ENDMDL
MODEL      115
REMARK 921   NORMALIZED FREE ENERGY PREDICTED BY IDOCK:   -3.94 KCAL/MOL
REMARK 922        TOTAL FREE ENERGY PREDICTED BY IDOCK:   -8.49 KCAL/MOL
REMARK 923 INTER-LIGAND FREE ENERGY PREDICTED BY IDOCK:   -7.94 KCAL/MOL
REMARK 924 INTRA-LIGAND FREE ENERGY PREDICTED BY IDOCK:   -0.55 KCAL/MOL
REMARK 927      BINDING AFFINITY PREDICTED BY RF-SCORE:    0.00 PKD
ROOT
HETATM    1 NA   UNL     1      -8.850  10.846  70.081  1.00  0.00    -0.372 Na 
HETATM    2  C   UNL     2      -9.343   8.002  71.143  1.00  0.00    -0.176 C  
HETATM    3  C   UNL     2      -9.801   8.119  72.587  1.00  0.00    -0.364 C  
ENDROOT
BRANCH   3   4
HETATM    4  C   UNL     2     -11.159   7.451  72.777  1.00  0.00    -0.394 C  
BRANCH   4   5
HETATM    5  C   UNL     2     -12.030   7.585  71.531  1.00  0.00    -0.336 C  
BRANCH   5   6
HETATM    6  C   UNL     2     -13.291   8.383  71.849  1.00  0.00    -0.380 C  
BRANCH   6   7
HETATM    7  C   UNL     2     -13.382   9.641  70.993  1.00  0.00    -0.268 C  
BRANCH   7   8
HETATM    8  C   UNL     2     -12.175  10.543  71.236  1.00  0.00    -0.472 C  
BRANCH   8   9
HETATM    9  C   UNL     2     -12.189  11.737  70.289  1.00  0.00    -0.381 C  
BRANCH   9  10
HETATM   10  C   UNL     2     -11.763  11.322  68.883  1.00  0.00    -0.409 C  
BRANCH  10  11
HETATM   11  C   UNL     2     -10.973  12.440  68.210  1.00  0.00    -0.269 C  
BRANCH  11  12
HETATM   12  C   UNL     2     -11.782  13.092  67.094  1.00  0.00    -0.430 C  
BRANCH  12  13
HETATM   13  C   UNL     2     -11.617  14.608  67.120  1.00  0.00    -0.378 C  
BRANCH  13  14
HETATM   14  O   UNL     2     -10.753  15.034  66.062  1.00  0.00    -0.306 OA 
BRANCH  14  15
HETATM   15  C   UNL     2     -10.754  16.378  65.804  1.00  0.00    -0.238 C  
HETATM   16  O   UNL     2     -10.916  16.854  64.684  1.00  0.00    -0.894 OA 
BRANCH  15  17
HETATM   17  C   UNL     2     -10.369  17.154  67.011  1.00  0.00    -0.308 C  
HETATM   18  S   UNL     2      -9.434  18.571  66.562  1.00  0.00    -0.310 S  
HETATM   19  O   UNL     2      -8.261  18.030  65.882  1.00  0.00    -0.517 OA 
HETATM   20  O   UNL     2      -9.154  19.182  67.861  1.00  0.00    -0.289 OA 
HETATM   21  O   UNL     2     -10.338  19.347  65.714  1.00  0.00    -0.447 OA 
ENDBRANCH  15  17
ENDBRANCH  14  15
ENDBRANCH  13  14
ENDBRANCH  12  13
ENDBRANCH  11  12
ENDBRANCH  10  11
ENDBRANCH   9  10
ENDBRANCH   8   9
ENDBRANCH   7   8
ENDBRANCH   6   7
ENDBRANCH   5   6
ENDBRANCH   4   5
ENDBRANCH   3   4
TORSDOF 13
ENDMDL
MODEL      116
REMARK 921   NORMALIZED FREE ENERGY PREDICTED BY IDOCK:   -3.93 KCAL/MOL
REMARK 922        TOTAL FREE ENERGY PREDICTED BY IDOCK:   -8.48 KCAL/MOL
REMARK 923 INTER-LIGAND FREE ENERGY PREDICTED BY IDOCK:   -7.50 KCAL/MOL
REMARK 924 INTRA-LIGAND FREE ENERGY PREDICTED BY IDOCK:   -0.98 KCAL/MOL
REMARK 927      BINDING AFFINITY PREDICTED BY RF-SCORE:    0.00 PKD
ROOT
HETATM    1 NA   UNL     1     -13.613  10.174  72.852  1.00  0.00    -0.589 Na 
HETATM    2  C   UNL     2     -11.674   7.790  72.718  1.00  0.00    -0.312 C  
HETATM    3  C   UNL     2     -11.977   7.017  71.445  1.00  0.00    -0.380 C  
ENDROOT
BRANCH   3   4
HETATM    4  C   UNL     2     -10.733   6.916  70.568  1.00  0.00    -0.267 C  
BRANCH   4   5
HETATM    5  C   UNL     2     -11.095   6.839  69.088  1.00  0.00    -0.270 C  
BRANCH   5   6
HETATM    6  C   UNL     2     -10.398   7.955  68.313  1.00  0.00    -0.239 C  
BRANCH   6   7
HETATM    7  C   UNL     2     -10.031   9.118  69.227  1.00  0.00    -0.187 C  
BRANCH   7   8
HETATM    8  C   UNL     2     -11.017  10.269  69.052  1.00  0.00    -0.274 C  
BRANCH   8   9
HETATM    9  C   UNL     2     -12.015  10.309  70.203  1.00  0.00    -0.313 C  
BRANCH   9  10
HETATM   10  C   UNL     2     -12.258  11.745  70.664  1.00  0.00    -0.443 C  
BRANCH  10  11
HETATM   11  C   UNL     2     -11.829  12.734  69.586  1.00  0.00    -0.384 C  
BRANCH  11  12
HETATM   12  C   UNL     2     -11.686  14.142  70.154  1.00  0.00    -0.350 C  
BRANCH  12  13
HETATM   13  C   UNL     2     -10.765  14.988  69.281  1.00  0.00    -0.248 C  
BRANCH  13  14
HETATM   14  O   UNL     2     -11.509  15.612  68.230  1.00  0.00    -0.353 OA 
BRANCH  14  15
HETATM   15  C   UNL     2     -11.133  15.272  66.959  1.00  0.00    -0.305 C  
HETATM   16  O   UNL     2     -11.734  14.453  66.269  1.00  0.00    -0.370 OA 
BRANCH  15  17
HETATM   17  C   UNL     2      -9.829  15.889  66.605  1.00  0.00    -0.254 C  
HETATM   18  S   UNL     2     -10.056  17.547  66.072  1.00  0.00    -0.207 S  
HETATM   19  O   UNL     2     -10.925  17.436  64.904  1.00  0.00    -0.862 OA 
HETATM   20  O   UNL     2      -8.688  17.966  65.770  1.00  0.00    -0.493 OA 
HETATM   21  O   UNL     2     -10.652  18.220  67.225  1.00  0.00    -0.398 OA 
ENDBRANCH  15  17
ENDBRANCH  14  15
ENDBRANCH  13  14
ENDBRANCH  12  13
ENDBRANCH  11  12
ENDBRANCH  10  11
ENDBRANCH   9  10
ENDBRANCH   8   9
ENDBRANCH   7   8
ENDBRANCH   6   7
ENDBRANCH   5   6
ENDBRANCH   4   5
ENDBRANCH   3   4
TORSDOF 13
ENDMDL
MODEL      117
REMARK 921   NORMALIZED FREE ENERGY PREDICTED BY IDOCK:   -3.92 KCAL/MOL
REMARK 922        TOTAL FREE ENERGY PREDICTED BY IDOCK:   -8.46 KCAL/MOL
REMARK 923 INTER-LIGAND FREE ENERGY PREDICTED BY IDOCK:   -7.10 KCAL/MOL
REMARK 924 INTRA-LIGAND FREE ENERGY PREDICTED BY IDOCK:   -1.36 KCAL/MOL
REMARK 927      BINDING AFFINITY PREDICTED BY RF-SCORE:    0.00 PKD
ROOT
HETATM    1 NA   UNL     1      -8.107  20.568  68.198  1.00  0.00    -0.288 Na 
HETATM    2  C   UNL     2     -10.665  19.073  67.373  1.00  0.00    -0.559 C  
HETATM    3  C   UNL     2     -10.272  17.654  66.996  1.00  0.00    -0.332 C  
ENDROOT
BRANCH   3   4
HETATM    4  C   UNL     2     -11.035  16.641  67.843  1.00  0.00    -0.276 C  
BRANCH   4   5
HETATM    5  C   UNL     2     -11.027  15.255  67.205  1.00  0.00    -0.331 C  
BRANCH   5   6
HETATM    6  C   UNL     2     -10.443  15.324  65.796  1.00  0.00    -0.365 C  
BRANCH   6   7
HETATM    7  C   UNL     2     -11.451  14.849  64.755  1.00  0.00    -0.410 C  
BRANCH   7   8
HETATM    8  C   UNL     2     -12.461  13.893  65.385  1.00  0.00    -0.528 C  
BRANCH   8   9
HETATM    9  C   UNL     2     -12.660  12.661  64.510  1.00  0.00    -0.491 C  
BRANCH   9  10
HETATM   10  C   UNL     2     -11.455  12.437  63.600  1.00  0.00    -0.568 C  
BRANCH  10  11
HETATM   11  C   UNL     2     -10.800  11.092  63.899  1.00  0.00    -0.346 C  
BRANCH  11  12
HETATM   12  C   UNL     2      -9.463  11.275  64.609  1.00  0.00    -0.215 C  
BRANCH  12  13
HETATM   13  C   UNL     2      -9.673  11.607  66.083  1.00  0.00    -0.229 C  
BRANCH  13  14
HETATM   14  O   UNL     2     -10.347  10.532  66.745  1.00  0.00    -0.228 OA 
BRANCH  14  15
HETATM   15  C   UNL     2     -11.054  10.880  67.864  1.00  0.00    -0.302 C  
HETATM   16  O   UNL     2     -12.156  11.421  67.831  1.00  0.00    -0.646 OA 
BRANCH  15  17
HETATM   17  C   UNL     2     -10.244  10.673  69.092  1.00  0.00    -0.220 C  
HETATM   18  S   UNL     2     -10.744   9.208  69.921  1.00  0.00    -0.229 S  
HETATM   19  O   UNL     2     -12.150   9.437  70.245  1.00  0.00    -0.058 OA 
HETATM   20  O   UNL     2      -9.852   9.187  71.080  1.00  0.00    -0.270 OA 
HETATM   21  O   UNL     2     -10.498   8.141  68.952  1.00  0.00    -0.215 OA 
ENDBRANCH  15  17
ENDBRANCH  14  15
ENDBRANCH  13  14
ENDBRANCH  12  13
ENDBRANCH  11  12
ENDBRANCH  10  11
ENDBRANCH   9  10
ENDBRANCH   8   9
ENDBRANCH   7   8
ENDBRANCH   6   7
ENDBRANCH   5   6
ENDBRANCH   4   5
ENDBRANCH   3   4
TORSDOF 13
ENDMDL
MODEL      118
REMARK 921   NORMALIZED FREE ENERGY PREDICTED BY IDOCK:   -3.91 KCAL/MOL
REMARK 922        TOTAL FREE ENERGY PREDICTED BY IDOCK:   -8.45 KCAL/MOL
REMARK 923 INTER-LIGAND FREE ENERGY PREDICTED BY IDOCK:   -6.61 KCAL/MOL
REMARK 924 INTRA-LIGAND FREE ENERGY PREDICTED BY IDOCK:   -1.84 KCAL/MOL
REMARK 927      BINDING AFFINITY PREDICTED BY RF-SCORE:    0.00 PKD
ROOT
HETATM    1 NA   UNL     1     -13.103  15.037  64.209  1.00  0.00    -0.577 Na 
HETATM    2  C   UNL     2     -12.218  12.097  64.040  1.00  0.00    -0.544 C  
HETATM    3  C   UNL     2     -10.840  12.063  63.401  1.00  0.00    -0.471 C  
ENDROOT
BRANCH   3   4
HETATM    4  C   UNL     2      -9.838  11.370  64.318  1.00  0.00    -0.301 C  
BRANCH   4   5
HETATM    5  C   UNL     2     -10.525  10.383  65.257  1.00  0.00    -0.178 C  
BRANCH   5   6
HETATM    6  C   UNL     2      -9.895  10.447  66.647  1.00  0.00    -0.251 C  
BRANCH   6   7
HETATM    7  C   UNL     2     -10.958  10.413  67.739  1.00  0.00    -0.369 C  
BRANCH   7   8
HETATM    8  C   UNL     2     -10.623  11.413  68.843  1.00  0.00    -0.234 C  
BRANCH   8   9
HETATM    9  C   UNL     2     -10.631  12.839  68.305  1.00  0.00    -0.251 C  
BRANCH   9  10
HETATM   10  C   UNL     2     -12.022  13.226  67.809  1.00  0.00    -0.356 C  
BRANCH  10  11
HETATM   11  C   UNL     2     -11.936  14.392  66.829  1.00  0.00    -0.423 C  
BRANCH  11  12
HETATM   12  C   UNL     2     -10.493  14.660  66.415  1.00  0.00    -0.296 C  
BRANCH  12  13
HETATM   13  C   UNL     2     -10.374  16.004  65.703  1.00  0.00    -0.392 C  
BRANCH  13  14
HETATM   14  O   UNL     2      -8.999  16.321  65.464  1.00  0.00    -0.336 OA 
BRANCH  14  15
HETATM   15  C   UNL     2      -8.548  17.470  66.055  1.00  0.00    -0.045 C  
HETATM   16  O   UNL     2      -9.120  18.552  65.960  1.00  0.00    -0.495 OA 
BRANCH  15  17
HETATM   17  C   UNL     2      -7.209  17.265  66.666  1.00  0.00    -0.243 C  
HETATM   18  S   UNL     2      -7.341  17.147  68.413  1.00  0.00    -0.230 S  
HETATM   19  O   UNL     2      -7.920  18.425  68.820  1.00  0.00    -0.307 OA 
HETATM   20  O   UNL     2      -5.948  16.958  68.818  1.00  0.00    -0.142 OA 
HETATM   21  O   UNL     2      -8.196  15.982  68.635  1.00  0.00    -0.170 OA 
ENDBRANCH  15  17
ENDBRANCH  14  15
ENDBRANCH  13  14
ENDBRANCH  12  13
ENDBRANCH  11  12
ENDBRANCH  10  11
ENDBRANCH   9  10
ENDBRANCH   8   9
ENDBRANCH   7   8
ENDBRANCH   6   7
ENDBRANCH   5   6
ENDBRANCH   4   5
ENDBRANCH   3   4
TORSDOF 13
ENDMDL
MODEL      119
REMARK 921   NORMALIZED FREE ENERGY PREDICTED BY IDOCK:   -3.91 KCAL/MOL
REMARK 922        TOTAL FREE ENERGY PREDICTED BY IDOCK:   -8.45 KCAL/MOL
REMARK 923 INTER-LIGAND FREE ENERGY PREDICTED BY IDOCK:   -7.37 KCAL/MOL
REMARK 924 INTRA-LIGAND FREE ENERGY PREDICTED BY IDOCK:   -1.08 KCAL/MOL
REMARK 927      BINDING AFFINITY PREDICTED BY RF-SCORE:    0.00 PKD
ROOT
HETATM    1 NA   UNL     1     -11.964  16.364  74.031  1.00  0.00    -0.388 Na 
HETATM    2  C   UNL     2     -13.836  14.496  72.460  1.00  0.00    -0.555 C  
HETATM    3  C   UNL     2     -12.972  13.589  71.600  1.00  0.00    -0.447 C  
ENDROOT
BRANCH   3   4
HETATM    4  C   UNL     2     -13.252  12.123  71.913  1.00  0.00    -0.474 C  
BRANCH   4   5
HETATM    5  C   UNL     2     -12.489  11.193  70.975  1.00  0.00    -0.506 C  
BRANCH   5   6
HETATM    6  C   UNL     2     -12.545   9.757  71.490  1.00  0.00    -0.493 C  
BRANCH   6   7
HETATM    7  C   UNL     2     -11.299   8.976  71.091  1.00  0.00    -0.375 C  
BRANCH   7   8
HETATM    8  C   UNL     2     -10.186   9.927  70.658  1.00  0.00    -0.203 C  
BRANCH   8   9
HETATM    9  C   UNL     2      -9.521   9.437  69.377  1.00  0.00    -0.177 C  
BRANCH   9  10
HETATM   10  C   UNL     2     -10.565   9.110  68.312  1.00  0.00    -0.223 C  
BRANCH  10  11
HETATM   11  C   UNL     2     -11.061  10.385  67.637  1.00  0.00    -0.361 C  
BRANCH  11  12
HETATM   12  C   UNL     2      -9.906  11.332  67.330  1.00  0.00    -0.203 C  
BRANCH  12  13
HETATM   13  C   UNL     2     -10.417  12.745  67.072  1.00  0.00    -0.237 C  
BRANCH  13  14
HETATM   14  O   UNL     2     -10.768  13.381  68.305  1.00  0.00    -0.243 OA 
BRANCH  14  15
HETATM   15  C   UNL     2     -11.154  14.690  68.204  1.00  0.00    -0.274 C  
HETATM   16  O   UNL     2     -11.390  15.405  69.174  1.00  0.00    -0.273 OA 
BRANCH  15  17
HETATM   17  C   UNL     2     -11.410  15.064  66.789  1.00  0.00    -0.293 C  
HETATM   18  S   UNL     2     -10.286  16.308  66.267  1.00  0.00    -0.341 S  
HETATM   19  O   UNL     2     -10.543  17.429  67.167  1.00  0.00    -0.331 OA 
HETATM   20  O   UNL     2     -10.697  16.537  64.882  1.00  0.00    -0.702 OA 
HETATM   21  O   UNL     2      -8.968  15.689  66.410  1.00  0.00    -0.275 OA 
ENDBRANCH  15  17
ENDBRANCH  14  15
ENDBRANCH  13  14
ENDBRANCH  12  13
ENDBRANCH  11  12
ENDBRANCH  10  11
ENDBRANCH   9  10
ENDBRANCH   8   9
ENDBRANCH   7   8
ENDBRANCH   6   7
ENDBRANCH   5   6
ENDBRANCH   4   5
ENDBRANCH   3   4
TORSDOF 13
ENDMDL
MODEL      120
REMARK 921   NORMALIZED FREE ENERGY PREDICTED BY IDOCK:   -3.91 KCAL/MOL
REMARK 922        TOTAL FREE ENERGY PREDICTED BY IDOCK:   -8.45 KCAL/MOL
REMARK 923 INTER-LIGAND FREE ENERGY PREDICTED BY IDOCK:   -7.76 KCAL/MOL
REMARK 924 INTRA-LIGAND FREE ENERGY PREDICTED BY IDOCK:   -0.69 KCAL/MOL
REMARK 927      BINDING AFFINITY PREDICTED BY RF-SCORE:    0.00 PKD
ROOT
HETATM    1 NA   UNL     1      -9.353   7.650  67.862  1.00  0.00    -0.134 Na 
HETATM    2  C   UNL     2     -10.892   5.831  69.806  1.00  0.00    -0.419 C  
HETATM    3  C   UNL     2     -10.510   6.234  71.220  1.00  0.00    -0.264 C  
ENDROOT
BRANCH   3   4
HETATM    4  C   UNL     2     -11.748   6.618  72.023  1.00  0.00    -0.354 C  
BRANCH   4   5
HETATM    5  C   UNL     2     -12.574   7.683  71.308  1.00  0.00    -0.316 C  
BRANCH   5   6
HETATM    6  C   UNL     2     -12.881   8.841  72.254  1.00  0.00    -0.465 C  
BRANCH   6   7
HETATM    7  C   UNL     2     -12.722  10.185  71.553  1.00  0.00    -0.541 C  
BRANCH   7   8
HETATM    8  C   UNL     2     -11.638  10.106  70.481  1.00  0.00    -0.411 C  
BRANCH   8   9
HETATM    9  C   UNL     2     -12.122  10.723  69.174  1.00  0.00    -0.227 C  
BRANCH   9  10
HETATM   10  C   UNL     2     -11.105  10.500  68.057  1.00  0.00    -0.361 C  
BRANCH  10  11
HETATM   11  C   UNL     2     -10.567  11.832  67.547  1.00  0.00    -0.247 C  
BRANCH  11  12
HETATM   12  C   UNL     2     -11.649  12.622  66.819  1.00  0.00    -0.438 C  
BRANCH  12  13
HETATM   13  C   UNL     2     -11.733  14.047  67.357  1.00  0.00    -0.388 C  
BRANCH  13  14
HETATM   14  O   UNL     2     -11.158  14.122  68.664  1.00  0.00    -0.241 OA 
BRANCH  14  15
HETATM   15  C   UNL     2     -11.875  14.838  69.584  1.00  0.00    -0.319 C  
HETATM   16  O   UNL     2     -11.926  16.065  69.600  1.00  0.00    -0.299 OA 
BRANCH  15  17
HETATM   17  C   UNL     2     -12.427  13.949  70.639  1.00  0.00    -0.366 C  
HETATM   18  S   UNL     2     -13.278  14.888  71.854  1.00  0.00    -0.387 S  
HETATM   19  O   UNL     2     -12.261  15.786  72.396  1.00  0.00    -0.382 OA 
HETATM   20  O   UNL     2     -13.731  13.855  72.785  1.00  0.00    -0.686 OA 
HETATM   21  O   UNL     2     -14.355  15.547  71.115  1.00  0.00    -0.516 OA 
ENDBRANCH  15  17
ENDBRANCH  14  15
ENDBRANCH  13  14
ENDBRANCH  12  13
ENDBRANCH  11  12
ENDBRANCH  10  11
ENDBRANCH   9  10
ENDBRANCH   8   9
ENDBRANCH   7   8
ENDBRANCH   6   7
ENDBRANCH   5   6
ENDBRANCH   4   5
ENDBRANCH   3   4
TORSDOF 13
ENDMDL
MODEL      121
REMARK 921   NORMALIZED FREE ENERGY PREDICTED BY IDOCK:   -3.91 KCAL/MOL
REMARK 922        TOTAL FREE ENERGY PREDICTED BY IDOCK:   -8.44 KCAL/MOL
REMARK 923 INTER-LIGAND FREE ENERGY PREDICTED BY IDOCK:   -6.96 KCAL/MOL
REMARK 924 INTRA-LIGAND FREE ENERGY PREDICTED BY IDOCK:   -1.48 KCAL/MOL
REMARK 927      BINDING AFFINITY PREDICTED BY RF-SCORE:    0.00 PKD
ROOT
HETATM    1 NA   UNL     1     -11.921  14.684  71.107  1.00  0.00    -0.259 Na 
HETATM    2  C   UNL     2     -10.740  13.735  68.431  1.00  0.00    -0.266 C  
HETATM    3  C   UNL     2     -11.767  14.011  67.346  1.00  0.00    -0.421 C  
ENDROOT
BRANCH   3   4
HETATM    4  C   UNL     2     -11.175  14.900  66.257  1.00  0.00    -0.331 C  
BRANCH   4   5
HETATM    5  C   UNL     2     -11.481  14.360  64.863  1.00  0.00    -0.386 C  
BRANCH   5   6
HETATM    6  C   UNL     2     -12.462  13.193  64.950  1.00  0.00    -0.490 C  
BRANCH   6   7
HETATM    7  C   UNL     2     -12.169  12.143  63.885  1.00  0.00    -0.587 C  
BRANCH   7   8
HETATM    8  C   UNL     2     -10.664  11.989  63.684  1.00  0.00    -0.506 C  
BRANCH   8   9
HETATM    9  C   UNL     2     -10.158  10.704  64.328  1.00  0.00    -0.411 C  
BRANCH   9  10
HETATM   10  C   UNL     2      -9.567  10.981  65.707  1.00  0.00    -0.260 C  
BRANCH  10  11
HETATM   11  C   UNL     2     -10.531  10.540  66.803  1.00  0.00    -0.302 C  
BRANCH  11  12
HETATM   12  C   UNL     2     -10.140   9.179  67.368  1.00  0.00    -0.289 C  
BRANCH  12  13
HETATM   13  C   UNL     2     -10.051   9.228  68.889  1.00  0.00    -0.195 C  
BRANCH  13  14
HETATM   14  O   UNL     2     -10.908   8.241  69.471  1.00  0.00    -0.210 OA 
BRANCH  14  15
HETATM   15  C   UNL     2     -11.267   8.465  70.773  1.00  0.00    -0.263 C  
HETATM   16  O   UNL     2     -12.408   8.309  71.199  1.00  0.00    -0.289 OA 
BRANCH  15  17
HETATM   17  C   UNL     2     -10.149   9.073  71.538  1.00  0.00    -0.339 C  
HETATM   18  S   UNL     2      -9.420   7.890  72.612  1.00  0.00    -0.251 S  
HETATM   19  O   UNL     2     -10.509   7.485  73.496  1.00  0.00    -0.357 OA 
HETATM   20  O   UNL     2      -8.368   8.669  73.264  1.00  0.00    -0.408 OA 
HETATM   21  O   UNL     2      -8.927   6.844  71.717  1.00  0.00    -0.138 OA 
ENDBRANCH  15  17
ENDBRANCH  14  15
ENDBRANCH  13  14
ENDBRANCH  12  13
ENDBRANCH  11  12
ENDBRANCH  10  11
ENDBRANCH   9  10
ENDBRANCH   8   9
ENDBRANCH   7   8
ENDBRANCH   6   7
ENDBRANCH   5   6
ENDBRANCH   4   5
ENDBRANCH   3   4
TORSDOF 13
ENDMDL
MODEL      122
REMARK 921   NORMALIZED FREE ENERGY PREDICTED BY IDOCK:   -3.90 KCAL/MOL
REMARK 922        TOTAL FREE ENERGY PREDICTED BY IDOCK:   -8.43 KCAL/MOL
REMARK 923 INTER-LIGAND FREE ENERGY PREDICTED BY IDOCK:   -7.62 KCAL/MOL
REMARK 924 INTRA-LIGAND FREE ENERGY PREDICTED BY IDOCK:   -0.81 KCAL/MOL
REMARK 927      BINDING AFFINITY PREDICTED BY RF-SCORE:    0.00 PKD
ROOT
HETATM    1 NA   UNL     1     -12.843  10.949  62.351  1.00  0.00    -1.000 Na 
HETATM    2  C   UNL     2     -11.049  11.876  64.671  1.00  0.00    -0.373 C  
HETATM    3  C   UNL     2     -10.553  13.274  64.344  1.00  0.00    -0.438 C  
ENDROOT
BRANCH   3   4
HETATM    4  C   UNL     2     -10.940  14.254  65.446  1.00  0.00    -0.335 C  
BRANCH   4   5
HETATM    5  C   UNL     2     -12.075  13.710  66.309  1.00  0.00    -0.477 C  
BRANCH   5   6
HETATM    6  C   UNL     2     -11.899  14.154  67.759  1.00  0.00    -0.414 C  
BRANCH   6   7
HETATM    7  C   UNL     2     -11.118  13.121  68.563  1.00  0.00    -0.296 C  
BRANCH   7   8
HETATM    8  C   UNL     2     -11.695  11.725  68.347  1.00  0.00    -0.389 C  
BRANCH   8   9
HETATM    9  C   UNL     2     -11.566  10.881  69.610  1.00  0.00    -0.394 C  
BRANCH   9  10
HETATM   10  C   UNL     2     -12.410  11.462  70.742  1.00  0.00    -0.483 C  
BRANCH  10  11
HETATM   11  C   UNL     2     -12.899  10.354  71.669  1.00  0.00    -0.579 C  
BRANCH  11  12
HETATM   12  C   UNL     2     -11.898   9.206  71.734  1.00  0.00    -0.453 C  
BRANCH  12  13
HETATM   13  C   UNL     2     -12.595   7.865  71.530  1.00  0.00    -0.321 C  
BRANCH  13  14
HETATM   14  O   UNL     2     -11.895   6.828  72.223  1.00  0.00    -0.284 OA 
BRANCH  14  15
HETATM   15  C   UNL     2     -10.990   6.125  71.474  1.00  0.00    -0.273 C  
HETATM   16  O   UNL     2     -11.194   5.774  70.315  1.00  0.00    -0.304 OA 
BRANCH  15  17
HETATM   17  C   UNL     2      -9.826   5.707  72.298  1.00  0.00    -0.159 C  
HETATM   18  S   UNL     2      -9.932   4.000  72.695  1.00  0.00    -0.160 S  
HETATM   19  O   UNL     2     -11.182   3.879  73.442  1.00  0.00    -0.237 OA 
HETATM   20  O   UNL     2      -8.726   3.791  73.496  1.00  0.00    -0.086 OA 
HETATM   21  O   UNL     2      -9.919   3.324  71.398  1.00  0.00    -0.167 OA 
ENDBRANCH  15  17
ENDBRANCH  14  15
ENDBRANCH  13  14
ENDBRANCH  12  13
ENDBRANCH  11  12
ENDBRANCH  10  11
ENDBRANCH   9  10
ENDBRANCH   8   9
ENDBRANCH   7   8
ENDBRANCH   6   7
ENDBRANCH   5   6
ENDBRANCH   4   5
ENDBRANCH   3   4
TORSDOF 13
ENDMDL
MODEL      123
REMARK 921   NORMALIZED FREE ENERGY PREDICTED BY IDOCK:   -3.90 KCAL/MOL
REMARK 922        TOTAL FREE ENERGY PREDICTED BY IDOCK:   -8.42 KCAL/MOL
REMARK 923 INTER-LIGAND FREE ENERGY PREDICTED BY IDOCK:   -7.26 KCAL/MOL
REMARK 924 INTRA-LIGAND FREE ENERGY PREDICTED BY IDOCK:   -1.16 KCAL/MOL
REMARK 927      BINDING AFFINITY PREDICTED BY RF-SCORE:    0.00 PKD
ROOT
HETATM    1 NA   UNL     1     -11.619  16.408  68.107  1.00  0.00    -0.327 Na 
HETATM    2  C   UNL     2     -11.862  13.730  66.614  1.00  0.00    -0.445 C  
HETATM    3  C   UNL     2     -12.722  13.961  65.383  1.00  0.00    -0.525 C  
ENDROOT
BRANCH   3   4
HETATM    4  C   UNL     2     -11.969  13.564  64.117  1.00  0.00    -0.498 C  
BRANCH   4   5
HETATM    5  C   UNL     2     -12.289  12.132  63.699  1.00  0.00    -0.673 C  
BRANCH   5   6
HETATM    6  C   UNL     2     -11.001  11.344  63.479  1.00  0.00    -0.406 C  
BRANCH   6   7
HETATM    7  C   UNL     2      -9.801  12.062  64.086  1.00  0.00    -0.210 C  
BRANCH   7   8
HETATM    8  C   UNL     2      -9.382  11.394  65.393  1.00  0.00    -0.206 C  
BRANCH   8   9
HETATM    9  C   UNL     2      -9.978   9.995  65.504  1.00  0.00    -0.367 C  
BRANCH   9  10
HETATM   10  C   UNL     2     -10.478   9.727  66.921  1.00  0.00    -0.281 C  
BRANCH  10  11
HETATM   11  C   UNL     2     -10.508   8.229  67.205  1.00  0.00    -0.386 C  
BRANCH  11  12
HETATM   12  C   UNL     2      -9.569   7.865  68.350  1.00  0.00    -0.155 C  
BRANCH  12  13
HETATM   13  C   UNL     2      -9.911   6.491  68.916  1.00  0.00    -0.134 C  
BRANCH  13  14
HETATM   14  O   UNL     2     -11.280   6.449  69.330  1.00  0.00    -0.357 OA 
BRANCH  14  15
HETATM   15  C   UNL     2     -11.486   6.239  70.666  1.00  0.00    -0.329 C  
HETATM   16  O   UNL     2     -10.801   5.483  71.349  1.00  0.00    -0.243 OA 
BRANCH  15  17
HETATM   17  C   UNL     2     -12.733   6.904  71.124  1.00  0.00    -0.275 C  
HETATM   18  S   UNL     2     -12.365   8.426  71.920  1.00  0.00    -0.369 S  
HETATM   19  O   UNL     2     -11.519   8.048  73.049  1.00  0.00    -0.370 OA 
HETATM   20  O   UNL     2     -13.693   8.911  72.294  1.00  0.00    -0.424 OA 
HETATM   21  O   UNL     2     -11.701   9.222  70.888  1.00  0.00    -0.279 OA 
ENDBRANCH  15  17
ENDBRANCH  14  15
ENDBRANCH  13  14
ENDBRANCH  12  13
ENDBRANCH  11  12
ENDBRANCH  10  11
ENDBRANCH   9  10
ENDBRANCH   8   9
ENDBRANCH   7   8
ENDBRANCH   6   7
ENDBRANCH   5   6
ENDBRANCH   4   5
ENDBRANCH   3   4
TORSDOF 13
ENDMDL
MODEL      124
REMARK 921   NORMALIZED FREE ENERGY PREDICTED BY IDOCK:   -3.90 KCAL/MOL
REMARK 922        TOTAL FREE ENERGY PREDICTED BY IDOCK:   -8.42 KCAL/MOL
REMARK 923 INTER-LIGAND FREE ENERGY PREDICTED BY IDOCK:   -7.04 KCAL/MOL
REMARK 924 INTRA-LIGAND FREE ENERGY PREDICTED BY IDOCK:   -1.38 KCAL/MOL
REMARK 927      BINDING AFFINITY PREDICTED BY RF-SCORE:    0.00 PKD
ROOT
HETATM    1 NA   UNL     1     -12.608  12.417  68.151  1.00  0.00    -0.288 Na 
HETATM    2  C   UNL     2     -11.951  11.187  70.893  1.00  0.00    -0.362 C  
HETATM    3  C   UNL     2     -13.249  11.074  71.674  1.00  0.00    -0.461 C  
ENDROOT
BRANCH   3   4
HETATM    4  C   UNL     2     -13.499   9.631  72.097  1.00  0.00    -0.516 C  
BRANCH   4   5
HETATM    5  C   UNL     2     -12.468   8.682  71.493  1.00  0.00    -0.364 C  
BRANCH   5   6
HETATM    6  C   UNL     2     -11.561   8.120  72.585  1.00  0.00    -0.441 C  
BRANCH   6   7
HETATM    7  C   UNL     2     -11.318   6.628  72.390  1.00  0.00    -0.309 C  
BRANCH   7   8
HETATM    8  C   UNL     2     -10.103   6.396  71.495  1.00  0.00    -0.215 C  
BRANCH   8   9
HETATM    9  C   UNL     2     -10.450   5.465  70.339  1.00  0.00    -0.345 C  
BRANCH   9  10
HETATM   10  C   UNL     2     -11.180   6.221  69.231  1.00  0.00    -0.458 C  
BRANCH  10  11
HETATM   11  C   UNL     2     -10.265   7.267  68.602  1.00  0.00    -0.191 C  
BRANCH  11  12
HETATM   12  C   UNL     2     -10.535   7.409  67.108  1.00  0.00    -0.403 C  
BRANCH  12  13
HETATM   13  C   UNL     2      -9.887   8.676  66.559  1.00  0.00    -0.278 C  
BRANCH  13  14
HETATM   14  O   UNL     2     -10.696   9.818  66.852  1.00  0.00    -0.205 OA 
BRANCH  14  15
HETATM   15  C   UNL     2     -10.012  10.974  67.117  1.00  0.00    -0.187 C  
HETATM   16  O   UNL     2      -9.756  11.366  68.251  1.00  0.00    -0.187 OA 
BRANCH  15  17
HETATM   17  C   UNL     2      -9.782  11.754  65.873  1.00  0.00    -0.237 C  
HETATM   18  S   UNL     2     -10.982  13.025  65.711  1.00  0.00    -0.281 S  
HETATM   19  O   UNL     2     -12.257  12.315  65.664  1.00  0.00    -0.605 OA 
HETATM   20  O   UNL     2     -10.595  13.659  64.452  1.00  0.00    -0.423 OA 
HETATM   21  O   UNL     2     -10.784  13.863  66.893  1.00  0.00    -0.281 OA 
ENDBRANCH  15  17
ENDBRANCH  14  15
ENDBRANCH  13  14
ENDBRANCH  12  13
ENDBRANCH  11  12
ENDBRANCH  10  11
ENDBRANCH   9  10
ENDBRANCH   8   9
ENDBRANCH   7   8
ENDBRANCH   6   7
ENDBRANCH   5   6
ENDBRANCH   4   5
ENDBRANCH   3   4
TORSDOF 13
ENDMDL
MODEL      125
REMARK 921   NORMALIZED FREE ENERGY PREDICTED BY IDOCK:   -3.89 KCAL/MOL
REMARK 922        TOTAL FREE ENERGY PREDICTED BY IDOCK:   -8.40 KCAL/MOL
REMARK 923 INTER-LIGAND FREE ENERGY PREDICTED BY IDOCK:   -7.68 KCAL/MOL
REMARK 924 INTRA-LIGAND FREE ENERGY PREDICTED BY IDOCK:   -0.72 KCAL/MOL
REMARK 927      BINDING AFFINITY PREDICTED BY RF-SCORE:    0.00 PKD
ROOT
HETATM    1 NA   UNL     1      -9.453  12.403  69.325  1.00  0.00    -0.375 Na 
HETATM    2  C   UNL     2      -9.108   9.433  70.044  1.00  0.00    -0.244 C  
HETATM    3  C   UNL     2      -9.784   9.198  71.385  1.00  0.00    -0.338 C  
ENDROOT
BRANCH   3   4
HETATM    4  C   UNL     2     -10.849   8.113  71.268  1.00  0.00    -0.278 C  
BRANCH   4   5
HETATM    5  C   UNL     2     -12.182   8.569  71.856  1.00  0.00    -0.411 C  
BRANCH   5   6
HETATM    6  C   UNL     2     -12.726   9.762  71.075  1.00  0.00    -0.392 C  
BRANCH   6   7
HETATM    7  C   UNL     2     -13.335  10.803  72.006  1.00  0.00    -0.403 C  
BRANCH   7   8
HETATM    8  C   UNL     2     -12.879  12.206  71.614  1.00  0.00    -0.390 C  
BRANCH   8   9
HETATM    9  C   UNL     2     -13.744  13.266  72.286  1.00  0.00    -0.686 C  
BRANCH   9  10
HETATM   10  C   UNL     2     -13.320  14.668  71.855  1.00  0.00    -0.453 C  
BRANCH  10  11
HETATM   11  C   UNL     2     -12.493  14.609  70.575  1.00  0.00    -0.408 C  
BRANCH  11  12
HETATM   12  C   UNL     2     -11.230  15.455  70.695  1.00  0.00    -0.370 C  
BRANCH  12  13
HETATM   13  C   UNL     2     -11.125  16.440  69.536  1.00  0.00    -0.293 C  
BRANCH  13  14
HETATM   14  O   UNL     2     -10.542  15.806  68.394  1.00  0.00    -0.247 OA 
BRANCH  14  15
HETATM   15  C   UNL     2     -10.469  16.575  67.264  1.00  0.00    -0.304 C  
HETATM   16  O   UNL     2     -10.169  16.133  66.159  1.00  0.00    -0.300 OA 
BRANCH  15  17
HETATM   17  C   UNL     2     -10.631  18.016  67.589  1.00  0.00    -0.399 C  
HETATM   18  S   UNL     2      -9.120  18.877  67.346  1.00  0.00    -0.281 S  
HETATM   19  O   UNL     2      -8.183  18.229  68.261  1.00  0.00    -0.281 OA 
HETATM   20  O   UNL     2      -9.479  20.245  67.717  1.00  0.00    -0.354 OA 
HETATM   21  O   UNL     2      -8.824  18.696  65.926  1.00  0.00    -0.475 OA 
ENDBRANCH  15  17
ENDBRANCH  14  15
ENDBRANCH  13  14
ENDBRANCH  12  13
ENDBRANCH  11  12
ENDBRANCH  10  11
ENDBRANCH   9  10
ENDBRANCH   8   9
ENDBRANCH   7   8
ENDBRANCH   6   7
ENDBRANCH   5   6
ENDBRANCH   4   5
ENDBRANCH   3   4
TORSDOF 13
ENDMDL
MODEL      126
REMARK 921   NORMALIZED FREE ENERGY PREDICTED BY IDOCK:   -3.88 KCAL/MOL
REMARK 922        TOTAL FREE ENERGY PREDICTED BY IDOCK:   -8.39 KCAL/MOL
REMARK 923 INTER-LIGAND FREE ENERGY PREDICTED BY IDOCK:   -7.91 KCAL/MOL
REMARK 924 INTRA-LIGAND FREE ENERGY PREDICTED BY IDOCK:   -0.49 KCAL/MOL
REMARK 927      BINDING AFFINITY PREDICTED BY RF-SCORE:    0.00 PKD
ROOT
HETATM    1 NA   UNL     1     -12.134  15.828  63.357  1.00  0.00    -0.866 Na 
HETATM    2  C   UNL     2     -11.319  13.974  65.671  1.00  0.00    -0.313 C  
HETATM    3  C   UNL     2     -10.872  14.848  66.831  1.00  0.00    -0.319 C  
ENDROOT
BRANCH   3   4
HETATM    4  C   UNL     2     -11.696  14.550  68.079  1.00  0.00    -0.373 C  
BRANCH   4   5
HETATM    5  C   UNL     2     -11.764  15.757  69.010  1.00  0.00    -0.405 C  
BRANCH   5   6
HETATM    6  C   UNL     2     -11.769  15.304  70.467  1.00  0.00    -0.355 C  
BRANCH   6   7
HETATM    7  C   UNL     2     -13.109  15.596  71.134  1.00  0.00    -0.523 C  
BRANCH   7   8
HETATM    8  C   UNL     2     -13.666  14.337  71.791  1.00  0.00    -0.496 C  
BRANCH   8   9
HETATM    9  C   UNL     2     -12.844  13.113  71.405  1.00  0.00    -0.401 C  
BRANCH   9  10
HETATM   10  C   UNL     2     -13.411  11.851  72.051  1.00  0.00    -0.425 C  
BRANCH  10  11
HETATM   11  C   UNL     2     -12.903  10.606  71.330  1.00  0.00    -0.556 C  
BRANCH  11  12
HETATM   12  C   UNL     2     -13.041   9.366  72.207  1.00  0.00    -0.509 C  
BRANCH  12  13
HETATM   13  C   UNL     2     -11.806   8.479  72.089  1.00  0.00    -0.379 C  
BRANCH  13  14
HETATM   14  O   UNL     2     -11.805   7.789  70.836  1.00  0.00    -0.290 OA 
BRANCH  14  15
HETATM   15  C   UNL     2     -11.446   6.469  70.889  1.00  0.00    -0.351 C  
HETATM   16  O   UNL     2     -10.991   5.850  69.931  1.00  0.00    -0.344 OA 
BRANCH  15  17
HETATM   17  C   UNL     2     -11.836   5.862  72.188  1.00  0.00    -0.186 C  
HETATM   18  S   UNL     2     -10.475   5.021  72.910  1.00  0.00    -0.223 S  
HETATM   19  O   UNL     2     -10.121   3.997  71.930  1.00  0.00    -0.180 OA 
HETATM   20  O   UNL     2     -11.052   4.500  74.148  1.00  0.00    -0.269 OA 
HETATM   21  O   UNL     2      -9.468   6.063  73.107  1.00  0.00    -0.143 OA 
ENDBRANCH  15  17
ENDBRANCH  14  15
ENDBRANCH  13  14
ENDBRANCH  12  13
ENDBRANCH  11  12
ENDBRANCH  10  11
ENDBRANCH   9  10
ENDBRANCH   8   9
ENDBRANCH   7   8
ENDBRANCH   6   7
ENDBRANCH   5   6
ENDBRANCH   4   5
ENDBRANCH   3   4
TORSDOF 13
ENDMDL
MODEL      127
REMARK 921   NORMALIZED FREE ENERGY PREDICTED BY IDOCK:   -3.86 KCAL/MOL
REMARK 922        TOTAL FREE ENERGY PREDICTED BY IDOCK:   -8.36 KCAL/MOL
REMARK 923 INTER-LIGAND FREE ENERGY PREDICTED BY IDOCK:   -7.65 KCAL/MOL
REMARK 924 INTRA-LIGAND FREE ENERGY PREDICTED BY IDOCK:   -0.71 KCAL/MOL
REMARK 927      BINDING AFFINITY PREDICTED BY RF-SCORE:    0.00 PKD
ROOT
HETATM    1 NA   UNL     1     -11.979   5.250  65.184  1.00  0.00    -0.747 Na 
HETATM    2  C   UNL     2     -10.554   6.683  67.502  1.00  0.00    -0.347 C  
HETATM    3  C   UNL     2     -10.269   8.109  67.061  1.00  0.00    -0.378 C  
ENDROOT
BRANCH   3   4
HETATM    4  C   UNL     2     -10.899   9.107  68.026  1.00  0.00    -0.135 C  
BRANCH   4   5
HETATM    5  C   UNL     2     -10.803   8.629  69.472  1.00  0.00    -0.138 C  
BRANCH   5   6
HETATM    6  C   UNL     2     -10.726   9.822  70.421  1.00  0.00    -0.368 C  
BRANCH   6   7
HETATM    7  C   UNL     2     -12.017   9.984  71.214  1.00  0.00    -0.483 C  
BRANCH   7   8
HETATM    8  C   UNL     2     -12.752  11.253  70.791  1.00  0.00    -0.360 C  
BRANCH   8   9
HETATM    9  C   UNL     2     -13.253  12.022  72.007  1.00  0.00    -0.481 C  
BRANCH   9  10
HETATM   10  C   UNL     2     -13.565  13.472  71.644  1.00  0.00    -0.342 C  
BRANCH  10  11
HETATM   11  C   UNL     2     -12.387  14.377  71.991  1.00  0.00    -0.330 C  
BRANCH  11  12
HETATM   12  C   UNL     2     -11.500  14.618  70.774  1.00  0.00    -0.232 C  
BRANCH  12  13
HETATM   13  C   UNL     2     -12.252  15.399  69.701  1.00  0.00    -0.282 C  
BRANCH  13  14
HETATM   14  O   UNL     2     -11.964  14.869  68.404  1.00  0.00    -0.299 OA 
BRANCH  14  15
HETATM   15  C   UNL     2     -10.893  15.428  67.762  1.00  0.00    -0.302 C  
HETATM   16  O   UNL     2     -10.569  16.606  67.881  1.00  0.00    -0.319 OA 
BRANCH  15  17
HETATM   17  C   UNL     2     -10.296  14.475  66.791  1.00  0.00    -0.269 C  
HETATM   18  S   UNL     2     -11.099  14.595  65.234  1.00  0.00    -0.382 S  
HETATM   19  O   UNL     2     -12.492  14.260  65.519  1.00  0.00    -0.444 OA 
HETATM   20  O   UNL     2     -10.387  13.596  64.439  1.00  0.00    -0.428 OA 
HETATM   21  O   UNL     2     -10.869  15.977  64.813  1.00  0.00    -0.587 OA 
ENDBRANCH  15  17
ENDBRANCH  14  15
ENDBRANCH  13  14
ENDBRANCH  12  13
ENDBRANCH  11  12
ENDBRANCH  10  11
ENDBRANCH   9  10
ENDBRANCH   8   9
ENDBRANCH   7   8
ENDBRANCH   6   7
ENDBRANCH   5   6
ENDBRANCH   4   5
ENDBRANCH   3   4
TORSDOF 13
ENDMDL
MODEL      128
REMARK 921   NORMALIZED FREE ENERGY PREDICTED BY IDOCK:   -3.85 KCAL/MOL
REMARK 922        TOTAL FREE ENERGY PREDICTED BY IDOCK:   -8.34 KCAL/MOL
REMARK 923 INTER-LIGAND FREE ENERGY PREDICTED BY IDOCK:   -7.05 KCAL/MOL
REMARK 924 INTRA-LIGAND FREE ENERGY PREDICTED BY IDOCK:   -1.30 KCAL/MOL
REMARK 927      BINDING AFFINITY PREDICTED BY RF-SCORE:    0.00 PKD
ROOT
HETATM    1 NA   UNL     1      -6.728   8.446  71.993  1.00  0.00    -0.049 Na 
HETATM    2  C   UNL     2      -9.030   9.395  70.187  1.00  0.00    -0.256 C  
HETATM    3  C   UNL     2      -9.223   8.354  69.096  1.00  0.00    -0.150 C  
ENDROOT
BRANCH   3   4
HETATM    4  C   UNL     2     -10.653   7.823  69.106  1.00  0.00    -0.193 C  
BRANCH   4   5
HETATM    5  C   UNL     2     -10.845   6.746  70.169  1.00  0.00    -0.311 C  
BRANCH   5   6
HETATM    6  C   UNL     2     -12.177   6.941  70.888  1.00  0.00    -0.404 C  
BRANCH   6   7
HETATM    7  C   UNL     2     -12.042   7.921  72.047  1.00  0.00    -0.363 C  
BRANCH   7   8
HETATM    8  C   UNL     2     -13.334   8.712  72.234  1.00  0.00    -0.412 C  
BRANCH   8   9
HETATM    9  C   UNL     2     -13.071  10.211  72.144  1.00  0.00    -0.463 C  
BRANCH   9  10
HETATM   10  C   UNL     2     -13.279  10.716  70.718  1.00  0.00    -0.168 C  
BRANCH  10  11
HETATM   11  C   UNL     2     -12.057  11.495  70.242  1.00  0.00    -0.444 C  
BRANCH  11  12
HETATM   12  C   UNL     2     -11.917  11.430  68.725  1.00  0.00    -0.353 C  
BRANCH  12  13
HETATM   13  C   UNL     2     -11.374  12.744  68.173  1.00  0.00    -0.288 C  
BRANCH  13  14
HETATM   14  O   UNL     2     -12.268  13.281  67.194  1.00  0.00    -0.335 OA 
BRANCH  14  15
HETATM   15  C   UNL     2     -11.878  13.126  65.891  1.00  0.00    -0.406 C  
HETATM   16  O   UNL     2     -11.242  12.158  65.484  1.00  0.00    -0.313 OA 
BRANCH  15  17
HETATM   17  C   UNL     2     -12.177  14.344  65.096  1.00  0.00    -0.393 C  
HETATM   18  S   UNL     2     -10.896  15.531  65.279  1.00  0.00    -0.413 S  
HETATM   19  O   UNL     2     -10.875  15.823  66.710  1.00  0.00    -0.316 OA 
HETATM   20  O   UNL     2     -11.371  16.633  64.443  1.00  0.00    -1.023 OA 
HETATM   21  O   UNL     2      -9.703  14.857  64.767  1.00  0.00     0.004 OA 
ENDBRANCH  15  17
ENDBRANCH  14  15
ENDBRANCH  13  14
ENDBRANCH  12  13
ENDBRANCH  11  12
ENDBRANCH  10  11
ENDBRANCH   9  10
ENDBRANCH   8   9
ENDBRANCH   7   8
ENDBRANCH   6   7
ENDBRANCH   5   6
ENDBRANCH   4   5
ENDBRANCH   3   4
TORSDOF 13
ENDMDL
MODEL      129
REMARK 921   NORMALIZED FREE ENERGY PREDICTED BY IDOCK:   -3.85 KCAL/MOL
REMARK 922        TOTAL FREE ENERGY PREDICTED BY IDOCK:   -8.34 KCAL/MOL
REMARK 923 INTER-LIGAND FREE ENERGY PREDICTED BY IDOCK:   -6.69 KCAL/MOL
REMARK 924 INTRA-LIGAND FREE ENERGY PREDICTED BY IDOCK:   -1.65 KCAL/MOL
REMARK 927      BINDING AFFINITY PREDICTED BY RF-SCORE:    0.00 PKD
ROOT
HETATM    1 NA   UNL     1     -11.742  12.656  62.497  1.00  0.00    -0.631 Na 
HETATM    2  C   UNL     2     -11.396  12.286  65.530  1.00  0.00    -0.394 C  
HETATM    3  C   UNL     2     -10.499  11.080  65.752  1.00  0.00    -0.290 C  
ENDROOT
BRANCH   3   4
HETATM    4  C   UNL     2      -9.272  11.466  66.572  1.00  0.00    -0.200 C  
BRANCH   4   5
HETATM    5  C   UNL     2      -8.968  10.429  67.649  1.00  0.00    -0.139 C  
BRANCH   5   6
HETATM    6  C   UNL     2     -10.003   9.307  67.612  1.00  0.00    -0.245 C  
BRANCH   6   7
HETATM    7  C   UNL     2     -10.383   8.857  69.018  1.00  0.00    -0.226 C  
BRANCH   7   8
HETATM    8  C   UNL     2     -10.418  10.049  69.971  1.00  0.00    -0.337 C  
BRANCH   8   9
HETATM    9  C   UNL     2     -11.843  10.558  70.153  1.00  0.00    -0.404 C  
BRANCH   9  10
HETATM   10  C   UNL     2     -12.143  11.698  69.182  1.00  0.00    -0.315 C  
BRANCH  10  11
HETATM   11  C   UNL     2     -11.713  13.035  69.776  1.00  0.00    -0.346 C  
BRANCH  11  12
HETATM   12  C   UNL     2     -11.189  13.975  68.696  1.00  0.00    -0.294 C  
BRANCH  12  13
HETATM   13  C   UNL     2     -11.539  15.424  69.022  1.00  0.00    -0.347 C  
BRANCH  13  14
HETATM   14  O   UNL     2     -10.379  16.126  69.479  1.00  0.00    -0.252 OA 
BRANCH  14  15
HETATM   15  C   UNL     2      -9.894  17.082  68.629  1.00  0.00    -0.290 C  
HETATM   16  O   UNL     2     -10.603  17.910  68.062  1.00  0.00    -0.385 OA 
BRANCH  15  17
HETATM   17  C   UNL     2      -8.448  16.873  68.359  1.00  0.00    -0.239 C  
HETATM   18  S   UNL     2      -8.184  16.499  66.664  1.00  0.00    -0.301 S  
HETATM   19  O   UNL     2      -8.947  15.274  66.441  1.00  0.00    -0.286 OA 
HETATM   20  O   UNL     2      -6.733  16.326  66.607  1.00  0.00    -0.250 OA 
HETATM   21  O   UNL     2      -8.679  17.676  65.952  1.00  0.00    -0.520 OA 
ENDBRANCH  15  17
ENDBRANCH  14  15
ENDBRANCH  13  14
ENDBRANCH  12  13
ENDBRANCH  11  12
ENDBRANCH  10  11
ENDBRANCH   9  10
ENDBRANCH   8   9
ENDBRANCH   7   8
ENDBRANCH   6   7
ENDBRANCH   5   6
ENDBRANCH   4   5
ENDBRANCH   3   4
TORSDOF 13
ENDMDL
MODEL      130
REMARK 921   NORMALIZED FREE ENERGY PREDICTED BY IDOCK:   -3.85 KCAL/MOL
REMARK 922        TOTAL FREE ENERGY PREDICTED BY IDOCK:   -8.34 KCAL/MOL
REMARK 923 INTER-LIGAND FREE ENERGY PREDICTED BY IDOCK:   -7.38 KCAL/MOL
REMARK 924 INTRA-LIGAND FREE ENERGY PREDICTED BY IDOCK:   -0.97 KCAL/MOL
REMARK 927      BINDING AFFINITY PREDICTED BY RF-SCORE:    0.00 PKD
ROOT
HETATM    1 NA   UNL     1     -11.743  16.447  63.089  1.00  0.00    -0.747 Na 
HETATM    2  C   UNL     2      -9.957  15.379  65.353  1.00  0.00    -0.356 C  
HETATM    3  C   UNL     2     -10.753  15.453  66.646  1.00  0.00    -0.309 C  
ENDROOT
BRANCH   3   4
HETATM    4  C   UNL     2     -10.851  14.078  67.298  1.00  0.00    -0.288 C  
BRANCH   4   5
HETATM    5  C   UNL     2     -12.181  13.400  66.982  1.00  0.00    -0.321 C  
BRANCH   5   6
HETATM    6  C   UNL     2     -12.635  13.756  65.568  1.00  0.00    -0.551 C  
BRANCH   6   7
HETATM    7  C   UNL     2     -12.704  12.519  64.681  1.00  0.00    -0.434 C  
BRANCH   7   8
HETATM    8  C   UNL     2     -11.806  12.686  63.458  1.00  0.00    -0.619 C  
BRANCH   8   9
HETATM    9  C   UNL     2     -10.381  12.240  63.764  1.00  0.00    -0.464 C  
BRANCH   9  10
HETATM   10  C   UNL     2     -10.364  10.823  64.332  1.00  0.00    -0.405 C  
BRANCH  10  11
HETATM   11  C   UNL     2      -9.413  10.733  65.521  1.00  0.00    -0.253 C  
BRANCH  11  12
HETATM   12  C   UNL     2     -10.178  10.744  66.841  1.00  0.00    -0.274 C  
BRANCH  12  13
HETATM   13  C   UNL     2     -10.124   9.374  67.510  1.00  0.00    -0.215 C  
BRANCH  13  14
HETATM   14  O   UNL     2     -10.949   9.357  68.678  1.00  0.00    -0.150 OA 
BRANCH  14  15
HETATM   15  C   UNL     2     -10.352   8.886  69.816  1.00  0.00    -0.207 C  
HETATM   16  O   UNL     2      -9.335   9.373  70.301  1.00  0.00    -0.215 OA 
BRANCH  15  17
HETATM   17  C   UNL     2     -10.994   7.626  70.272  1.00  0.00    -0.252 C  
HETATM   18  S   UNL     2     -11.848   7.882  71.785  1.00  0.00    -0.309 S  
HETATM   19  O   UNL     2     -10.811   8.317  72.717  1.00  0.00    -0.347 OA 
HETATM   20  O   UNL     2     -12.393   6.553  72.063  1.00  0.00    -0.336 OA 
HETATM   21  O   UNL     2     -12.857   8.892  71.466  1.00  0.00    -0.324 OA 
ENDBRANCH  15  17
ENDBRANCH  14  15
ENDBRANCH  13  14
ENDBRANCH  12  13
ENDBRANCH  11  12
ENDBRANCH  10  11
ENDBRANCH   9  10
ENDBRANCH   8   9
ENDBRANCH   7   8
ENDBRANCH   6   7
ENDBRANCH   5   6
ENDBRANCH   4   5
ENDBRANCH   3   4
TORSDOF 13
ENDMDL
MODEL      131
REMARK 921   NORMALIZED FREE ENERGY PREDICTED BY IDOCK:   -3.85 KCAL/MOL
REMARK 922        TOTAL FREE ENERGY PREDICTED BY IDOCK:   -8.34 KCAL/MOL
REMARK 923 INTER-LIGAND FREE ENERGY PREDICTED BY IDOCK:   -6.98 KCAL/MOL
REMARK 924 INTRA-LIGAND FREE ENERGY PREDICTED BY IDOCK:   -1.36 KCAL/MOL
REMARK 927      BINDING AFFINITY PREDICTED BY RF-SCORE:    0.00 PKD
ROOT
HETATM    1 NA   UNL     1     -12.833  14.318  67.783  1.00  0.00    -0.558 Na 
HETATM    2  C   UNL     2     -12.380  11.658  69.260  1.00  0.00    -0.088 C  
HETATM    3  C   UNL     2     -11.918  11.984  70.670  1.00  0.00    -0.257 C  
ENDROOT
BRANCH   3   4
HETATM    4  C   UNL     2     -12.850  11.356  71.701  1.00  0.00    -0.497 C  
BRANCH   4   5
HETATM    5  C   UNL     2     -13.881  12.359  72.211  1.00  0.00    -0.126 C  
BRANCH   5   6
HETATM    6  C   UNL     2     -13.211  13.695  72.522  1.00  0.00    -0.578 C  
BRANCH   6   7
HETATM    7  C   UNL     2     -13.983  14.857  71.907  1.00  0.00    -0.585 C  
BRANCH   7   8
HETATM    8  C   UNL     2     -13.306  15.331  70.624  1.00  0.00    -0.320 C  
BRANCH   8   9
HETATM    9  C   UNL     2     -11.984  16.025  70.931  1.00  0.00    -0.376 C  
BRANCH   9  10
HETATM   10  C   UNL     2     -10.904  15.604  69.937  1.00  0.00    -0.324 C  
BRANCH  10  11
HETATM   11  C   UNL     2     -10.940  16.491  68.697  1.00  0.00    -0.344 C  
BRANCH  11  12
HETATM   12  C   UNL     2      -9.790  16.164  67.751  1.00  0.00    -0.232 C  
BRANCH  12  13
HETATM   13  C   UNL     2     -10.220  15.136  66.710  1.00  0.00    -0.264 C  
BRANCH  13  14
HETATM   14  O   UNL     2      -9.225  14.117  66.574  1.00  0.00    -0.268 OA 
BRANCH  14  15
HETATM   15  C   UNL     2      -9.701  12.843  66.428  1.00  0.00    -0.263 C  
HETATM   16  O   UNL     2      -8.998  11.840  66.520  1.00  0.00    -0.191 OA 
BRANCH  15  17
HETATM   17  C   UNL     2     -11.118  12.850  65.982  1.00  0.00    -0.281 C  
HETATM   18  S   UNL     2     -11.256  12.216  64.350  1.00  0.00    -0.364 S  
HETATM   19  O   UNL     2     -10.440  13.118  63.541  1.00  0.00    -0.123 OA 
HETATM   20  O   UNL     2     -12.693  12.311  64.099  1.00  0.00    -0.607 OA 
HETATM   21  O   UNL     2     -10.751  10.847  64.450  1.00  0.00    -0.340 OA 
ENDBRANCH  15  17
ENDBRANCH  14  15
ENDBRANCH  13  14
ENDBRANCH  12  13
ENDBRANCH  11  12
ENDBRANCH  10  11
ENDBRANCH   9  10
ENDBRANCH   8   9
ENDBRANCH   7   8
ENDBRANCH   6   7
ENDBRANCH   5   6
ENDBRANCH   4   5
ENDBRANCH   3   4
TORSDOF 13
ENDMDL
MODEL      132
REMARK 921   NORMALIZED FREE ENERGY PREDICTED BY IDOCK:   -3.85 KCAL/MOL
REMARK 922        TOTAL FREE ENERGY PREDICTED BY IDOCK:   -8.34 KCAL/MOL
REMARK 923 INTER-LIGAND FREE ENERGY PREDICTED BY IDOCK:   -7.56 KCAL/MOL
REMARK 924 INTRA-LIGAND FREE ENERGY PREDICTED BY IDOCK:   -0.78 KCAL/MOL
REMARK 927      BINDING AFFINITY PREDICTED BY RF-SCORE:    0.00 PKD
ROOT
HETATM    1 NA   UNL     1      -7.231  20.900  71.834  1.00  0.00    -0.785 Na 
HETATM    2  C   UNL     2      -7.183  19.841  68.947  1.00  0.00    -0.341 C  
HETATM    3  C   UNL     2      -8.496  19.118  68.696  1.00  0.00    -0.397 C  
ENDROOT
BRANCH   3   4
HETATM    4  C   UNL     2      -9.226  19.724  67.502  1.00  0.00    -0.428 C  
BRANCH   4   5
HETATM    5  C   UNL     2      -9.795  18.646  66.585  1.00  0.00    -0.377 C  
BRANCH   5   6
HETATM    6  C   UNL     2      -9.442  17.258  67.114  1.00  0.00    -0.256 C  
BRANCH   6   7
HETATM    7  C   UNL     2     -10.506  16.234  66.737  1.00  0.00    -0.287 C  
BRANCH   7   8
HETATM    8  C   UNL     2     -10.716  16.211  65.226  1.00  0.00    -0.386 C  
BRANCH   8   9
HETATM    9  C   UNL     2     -10.670  14.784  64.693  1.00  0.00    -0.279 C  
BRANCH   9  10
HETATM   10  C   UNL     2     -12.077  14.254  64.431  1.00  0.00    -0.490 C  
BRANCH  10  11
HETATM   11  C   UNL     2     -12.019  12.894  63.742  1.00  0.00    -0.582 C  
BRANCH  11  12
HETATM   12  C   UNL     2     -10.585  12.386  63.645  1.00  0.00    -0.481 C  
BRANCH  12  13
HETATM   13  C   UNL     2     -10.469  10.976  64.216  1.00  0.00    -0.359 C  
BRANCH  13  14
HETATM   14  O   UNL     2     -10.742  10.983  65.621  1.00  0.00    -0.231 OA 
BRANCH  14  15
HETATM   15  C   UNL     2      -9.685  11.308  66.426  1.00  0.00    -0.209 C  
HETATM   16  O   UNL     2      -8.628  10.684  66.444  1.00  0.00    -0.140 OA 
BRANCH  15  17
HETATM   17  C   UNL     2     -10.051  12.389  67.377  1.00  0.00    -0.201 C  
HETATM   18  S   UNL     2     -11.063  11.761  68.667  1.00  0.00    -0.260 S  
HETATM   19  O   UNL     2     -12.240  11.236  67.981  1.00  0.00    -0.621 OA 
HETATM   20  O   UNL     2     -11.314  12.954  69.475  1.00  0.00    -0.230 OA 
HETATM   21  O   UNL     2     -10.229  10.754  69.323  1.00  0.00    -0.218 OA 
ENDBRANCH  15  17
ENDBRANCH  14  15
ENDBRANCH  13  14
ENDBRANCH  12  13
ENDBRANCH  11  12
ENDBRANCH  10  11
ENDBRANCH   9  10
ENDBRANCH   8   9
ENDBRANCH   7   8
ENDBRANCH   6   7
ENDBRANCH   5   6
ENDBRANCH   4   5
ENDBRANCH   3   4
TORSDOF 13
ENDMDL
MODEL      133
REMARK 921   NORMALIZED FREE ENERGY PREDICTED BY IDOCK:   -3.85 KCAL/MOL
REMARK 922        TOTAL FREE ENERGY PREDICTED BY IDOCK:   -8.33 KCAL/MOL
REMARK 923 INTER-LIGAND FREE ENERGY PREDICTED BY IDOCK:   -7.15 KCAL/MOL
REMARK 924 INTRA-LIGAND FREE ENERGY PREDICTED BY IDOCK:   -1.18 KCAL/MOL
REMARK 927      BINDING AFFINITY PREDICTED BY RF-SCORE:    0.00 PKD
ROOT
HETATM    1 NA   UNL     1     -12.644  10.794  62.337  1.00  0.00    -0.897 Na 
HETATM    2  C   UNL     2     -12.395  12.711  64.729  1.00  0.00    -0.556 C  
HETATM    3  C   UNL     2     -10.947  13.165  64.811  1.00  0.00    -0.355 C  
ENDROOT
BRANCH   3   4
HETATM    4  C   UNL     2     -10.854  14.686  64.740  1.00  0.00    -0.402 C  
BRANCH   4   5
HETATM    5  C   UNL     2     -10.013  15.251  65.881  1.00  0.00    -0.368 C  
BRANCH   5   6
HETATM    6  C   UNL     2      -9.296  14.124  66.620  1.00  0.00    -0.299 C  
BRANCH   6   7
HETATM    7  C   UNL     2      -9.489  14.240  68.128  1.00  0.00    -0.204 C  
BRANCH   7   8
HETATM    8  C   UNL     2     -10.563  15.275  68.452  1.00  0.00    -0.246 C  
BRANCH   8   9
HETATM    9  C   UNL     2     -11.689  14.652  69.269  1.00  0.00    -0.348 C  
BRANCH   9  10
HETATM   10  C   UNL     2     -11.885  13.184  68.896  1.00  0.00    -0.361 C  
BRANCH  10  11
HETATM   11  C   UNL     2     -12.394  12.389  70.094  1.00  0.00    -0.209 C  
BRANCH  11  12
HETATM   12  C   UNL     2     -11.735  11.017  70.166  1.00  0.00    -0.442 C  
BRANCH  12  13
HETATM   13  C   UNL     2     -12.171  10.271  71.423  1.00  0.00    -0.383 C  
BRANCH  13  14
HETATM   14  O   UNL     2     -11.225   9.249  71.751  1.00  0.00    -0.362 OA 
BRANCH  14  15
HETATM   15  C   UNL     2     -11.668   7.963  71.601  1.00  0.00    -0.281 C  
HETATM   16  O   UNL     2     -12.839   7.627  71.750  1.00  0.00    -0.325 OA 
BRANCH  15  17
HETATM   17  C   UNL     2     -10.531   7.027  71.407  1.00  0.00    -0.208 C  
HETATM   18  S   UNL     2     -10.249   6.744  69.697  1.00  0.00    -0.194 S  
HETATM   19  O   UNL     2     -11.500   6.167  69.214  1.00  0.00    -0.404 OA 
HETATM   20  O   UNL     2      -9.121   5.813  69.717  1.00  0.00    -0.133 OA 
HETATM   21  O   UNL     2      -9.929   8.066  69.159  1.00  0.00    -0.179 OA 
ENDBRANCH  15  17
ENDBRANCH  14  15
ENDBRANCH  13  14
ENDBRANCH  12  13
ENDBRANCH  11  12
ENDBRANCH  10  11
ENDBRANCH   9  10
ENDBRANCH   8   9
ENDBRANCH   7   8
ENDBRANCH   6   7
ENDBRANCH   5   6
ENDBRANCH   4   5
ENDBRANCH   3   4
TORSDOF 13
ENDMDL
MODEL      134
REMARK 921   NORMALIZED FREE ENERGY PREDICTED BY IDOCK:   -3.84 KCAL/MOL
REMARK 922        TOTAL FREE ENERGY PREDICTED BY IDOCK:   -8.33 KCAL/MOL
REMARK 923 INTER-LIGAND FREE ENERGY PREDICTED BY IDOCK:   -6.91 KCAL/MOL
REMARK 924 INTRA-LIGAND FREE ENERGY PREDICTED BY IDOCK:   -1.42 KCAL/MOL
REMARK 927      BINDING AFFINITY PREDICTED BY RF-SCORE:    0.00 PKD
ROOT
HETATM    1 NA   UNL     1      -8.966  11.699  69.410  1.00  0.00    -0.342 Na 
HETATM    2  C   UNL     2      -8.542   9.665  67.143  1.00  0.00    -0.133 C  
HETATM    3  C   UNL     2      -8.966   8.300  67.659  1.00  0.00    -0.140 C  
ENDROOT
BRANCH   3   4
HETATM    4  C   UNL     2     -10.053   7.702  66.771  1.00  0.00    -0.325 C  
BRANCH   4   5
HETATM    5  C   UNL     2     -10.725   6.504  67.435  1.00  0.00    -0.412 C  
BRANCH   5   6
HETATM    6  C   UNL     2      -9.747   5.797  68.369  1.00  0.00    -0.161 C  
BRANCH   6   7
HETATM    7  C   UNL     2     -10.381   5.516  69.726  1.00  0.00    -0.366 C  
BRANCH   7   8
HETATM    8  C   UNL     2     -11.610   6.396  69.936  1.00  0.00    -0.422 C  
BRANCH   8   9
HETATM    9  C   UNL     2     -11.475   7.224  71.208  1.00  0.00    -0.304 C  
BRANCH   9  10
HETATM   10  C   UNL     2     -12.843   7.670  71.717  1.00  0.00    -0.357 C  
BRANCH  10  11
HETATM   11  C   UNL     2     -12.798   9.123  72.177  1.00  0.00    -0.486 C  
BRANCH  11  12
HETATM   12  C   UNL     2     -11.752   9.916  71.400  1.00  0.00    -0.449 C  
BRANCH  12  13
HETATM   13  C   UNL     2     -12.369  11.166  70.780  1.00  0.00    -0.406 C  
BRANCH  13  14
HETATM   14  O   UNL     2     -11.416  11.832  69.947  1.00  0.00    -0.272 OA 
BRANCH  14  15
HETATM   15  C   UNL     2     -11.699  11.831  68.609  1.00  0.00    -0.330 C  
HETATM   16  O   UNL     2     -11.674  10.822  67.909  1.00  0.00    -0.543 OA 
BRANCH  15  17
HETATM   17  C   UNL     2     -11.869  13.216  68.098  1.00  0.00    -0.348 C  
HETATM   18  S   UNL     2     -10.741  13.535  66.791  1.00  0.00    -0.279 S  
HETATM   19  O   UNL     2      -9.424  13.349  67.395  1.00  0.00    -0.208 OA 
HETATM   20  O   UNL     2     -11.056  14.919  66.439  1.00  0.00    -0.336 OA 
HETATM   21  O   UNL     2     -11.093  12.556  65.762  1.00  0.00    -0.289 OA 
ENDBRANCH  15  17
ENDBRANCH  14  15
ENDBRANCH  13  14
ENDBRANCH  12  13
ENDBRANCH  11  12
ENDBRANCH  10  11
ENDBRANCH   9  10
ENDBRANCH   8   9
ENDBRANCH   7   8
ENDBRANCH   6   7
ENDBRANCH   5   6
ENDBRANCH   4   5
ENDBRANCH   3   4
TORSDOF 13
ENDMDL
MODEL      135
REMARK 921   NORMALIZED FREE ENERGY PREDICTED BY IDOCK:   -3.84 KCAL/MOL
REMARK 922        TOTAL FREE ENERGY PREDICTED BY IDOCK:   -8.33 KCAL/MOL
REMARK 923 INTER-LIGAND FREE ENERGY PREDICTED BY IDOCK:   -7.49 KCAL/MOL
REMARK 924 INTRA-LIGAND FREE ENERGY PREDICTED BY IDOCK:   -0.84 KCAL/MOL
REMARK 927      BINDING AFFINITY PREDICTED BY RF-SCORE:    0.00 PKD
ROOT
HETATM    1 NA   UNL     1     -12.438  14.206  62.338  1.00  0.00    -0.916 Na 
HETATM    2  C   UNL     2     -11.130  11.811  63.757  1.00  0.00    -0.513 C  
HETATM    3  C   UNL     2     -10.448  12.331  65.012  1.00  0.00    -0.322 C  
ENDROOT
BRANCH   3   4
HETATM    4  C   UNL     2     -10.981  11.617  66.250  1.00  0.00    -0.338 C  
BRANCH   4   5
HETATM    5  C   UNL     2     -11.761  12.566  67.155  1.00  0.00    -0.425 C  
BRANCH   5   6
HETATM    6  C   UNL     2     -11.112  12.636  68.535  1.00  0.00    -0.300 C  
BRANCH   6   7
HETATM    7  C   UNL     2     -11.729  11.620  69.489  1.00  0.00    -0.410 C  
BRANCH   7   8
HETATM    8  C   UNL     2     -12.373  12.324  70.680  1.00  0.00    -0.375 C  
BRANCH   8   9
HETATM    9  C   UNL     2     -13.015  11.316  71.625  1.00  0.00    -0.537 C  
BRANCH   9  10
HETATM   10  C   UNL     2     -12.754   9.887  71.157  1.00  0.00    -0.462 C  
BRANCH  10  11
HETATM   11  C   UNL     2     -13.005   8.897  72.290  1.00  0.00    -0.479 C  
BRANCH  11  12
HETATM   12  C   UNL     2     -12.189   7.623  72.099  1.00  0.00    -0.301 C  
BRANCH  12  13
HETATM   13  C   UNL     2     -11.495   7.620  70.741  1.00  0.00    -0.277 C  
BRANCH  13  14
HETATM   14  O   UNL     2     -11.609   6.334  70.125  1.00  0.00    -0.413 OA 
BRANCH  14  15
HETATM   15  C   UNL     2     -10.444   5.810  69.635  1.00  0.00    -0.293 C  
HETATM   16  O   UNL     2     -10.092   4.648  69.818  1.00  0.00    -0.234 OA 
BRANCH  15  17
HETATM   17  C   UNL     2      -9.604   6.865  69.012  1.00  0.00    -0.136 C  
HETATM   18  S   UNL     2      -9.658   6.744  67.261  1.00  0.00    -0.144 S  
HETATM   19  O   UNL     2      -9.134   5.411  66.974  1.00  0.00    -0.113 OA 
HETATM   20  O   UNL     2      -8.783   7.840  66.847  1.00  0.00    -0.125 OA 
HETATM   21  O   UNL     2     -11.068   6.940  66.928  1.00  0.00    -0.379 OA 
ENDBRANCH  15  17
ENDBRANCH  14  15
ENDBRANCH  13  14
ENDBRANCH  12  13
ENDBRANCH  11  12
ENDBRANCH  10  11
ENDBRANCH   9  10
ENDBRANCH   8   9
ENDBRANCH   7   8
ENDBRANCH   6   7
ENDBRANCH   5   6
ENDBRANCH   4   5
ENDBRANCH   3   4
TORSDOF 13
ENDMDL
MODEL      136
REMARK 921   NORMALIZED FREE ENERGY PREDICTED BY IDOCK:   -3.84 KCAL/MOL
REMARK 922        TOTAL FREE ENERGY PREDICTED BY IDOCK:   -8.33 KCAL/MOL
REMARK 923 INTER-LIGAND FREE ENERGY PREDICTED BY IDOCK:   -7.28 KCAL/MOL
REMARK 924 INTRA-LIGAND FREE ENERGY PREDICTED BY IDOCK:   -1.04 KCAL/MOL
REMARK 927      BINDING AFFINITY PREDICTED BY RF-SCORE:    0.00 PKD
ROOT
HETATM    1 NA   UNL     1     -11.295  20.902  70.119  1.00  0.00    -0.877 Na 
HETATM    2  C   UNL     2      -9.860  19.109  68.073  1.00  0.00    -0.432 C  
HETATM    3  C   UNL     2     -10.219  17.666  68.388  1.00  0.00    -0.381 C  
ENDROOT
BRANCH   3   4
HETATM    4  C   UNL     2     -10.856  16.993  67.178  1.00  0.00    -0.082 C  
BRANCH   4   5
HETATM    5  C   UNL     2      -9.804  16.399  66.246  1.00  0.00    -0.336 C  
BRANCH   5   6
HETATM    6  C   UNL     2     -10.444  15.386  65.300  1.00  0.00    -0.440 C  
BRANCH   6   7
HETATM    7  C   UNL     2     -11.159  14.283  66.070  1.00  0.00    -0.319 C  
BRANCH   7   8
HETATM    8  C   UNL     2     -12.419  13.842  65.329  1.00  0.00    -0.504 C  
BRANCH   8   9
HETATM    9  C   UNL     2     -12.101  13.487  63.881  1.00  0.00    -0.493 C  
BRANCH   9  10
HETATM   10  C   UNL     2     -11.815  11.995  63.737  1.00  0.00    -0.581 C  
BRANCH  10  11
HETATM   11  C   UNL     2     -10.379  11.766  63.274  1.00  0.00    -0.446 C  
BRANCH  11  12
HETATM   12  C   UNL     2      -9.525  11.181  64.394  1.00  0.00    -0.251 C  
BRANCH  12  13
HETATM   13  C   UNL     2     -10.401  10.533  65.461  1.00  0.00    -0.217 C  
BRANCH  13  14
HETATM   14  O   UNL     2      -9.616   9.682  66.302  1.00  0.00    -0.186 OA 
BRANCH  14  15
HETATM   15  C   UNL     2      -9.864   9.786  67.643  1.00  0.00    -0.165 C  
HETATM   16  O   UNL     2     -10.231   8.844  68.341  1.00  0.00    -0.188 OA 
BRANCH  15  17
HETATM   17  C   UNL     2      -9.797  11.201  68.091  1.00  0.00    -0.180 C  
HETATM   18  S   UNL     2     -11.204  11.610  69.058  1.00  0.00    -0.284 S  
HETATM   19  O   UNL     2     -12.335  11.391  68.161  1.00  0.00    -0.502 OA 
HETATM   20  O   UNL     2     -10.956  13.013  69.389  1.00  0.00    -0.133 OA 
HETATM   21  O   UNL     2     -11.135  10.701  70.202  1.00  0.00    -0.288 OA 
ENDBRANCH  15  17
ENDBRANCH  14  15
ENDBRANCH  13  14
ENDBRANCH  12  13
ENDBRANCH  11  12
ENDBRANCH  10  11
ENDBRANCH   9  10
ENDBRANCH   8   9
ENDBRANCH   7   8
ENDBRANCH   6   7
ENDBRANCH   5   6
ENDBRANCH   4   5
ENDBRANCH   3   4
TORSDOF 13
ENDMDL
MODEL      137
REMARK 921   NORMALIZED FREE ENERGY PREDICTED BY IDOCK:   -3.84 KCAL/MOL
REMARK 922        TOTAL FREE ENERGY PREDICTED BY IDOCK:   -8.33 KCAL/MOL
REMARK 923 INTER-LIGAND FREE ENERGY PREDICTED BY IDOCK:   -6.89 KCAL/MOL
REMARK 924 INTRA-LIGAND FREE ENERGY PREDICTED BY IDOCK:   -1.43 KCAL/MOL
REMARK 927      BINDING AFFINITY PREDICTED BY RF-SCORE:    0.00 PKD
ROOT
HETATM    1 NA   UNL     1      -6.115  17.390  70.188  1.00  0.00    -0.204 Na 
HETATM    2  C   UNL     2      -5.313  18.056  67.295  1.00  0.00    -0.144 C  
HETATM    3  C   UNL     2      -6.582  18.098  66.460  1.00  0.00    -0.239 C  
ENDROOT
BRANCH   3   4
HETATM    4  C   UNL     2      -6.729  19.452  65.773  1.00  0.00    -0.282 C  
BRANCH   4   5
HETATM    5  C   UNL     2      -8.118  20.046  65.994  1.00  0.00    -0.281 C  
BRANCH   5   6
HETATM    6  C   UNL     2      -8.509  19.945  67.466  1.00  0.00    -0.378 C  
BRANCH   6   7
HETATM    7  C   UNL     2     -10.018  20.056  67.647  1.00  0.00    -0.566 C  
BRANCH   7   8
HETATM    8  C   UNL     2     -10.673  18.681  67.549  1.00  0.00    -0.447 C  
BRANCH   8   9
HETATM    9  C   UNL     2      -9.777  17.608  68.158  1.00  0.00    -0.310 C  
BRANCH   9  10
HETATM   10  C   UNL     2      -9.583  16.445  67.188  1.00  0.00    -0.239 C  
BRANCH  10  11
HETATM   11  C   UNL     2     -10.381  16.675  65.908  1.00  0.00    -0.355 C  
BRANCH  11  12
HETATM   12  C   UNL     2     -10.879  15.358  65.325  1.00  0.00    -0.423 C  
BRANCH  12  13
HETATM   13  C   UNL     2     -10.877  14.260  66.384  1.00  0.00    -0.307 C  
BRANCH  13  14
HETATM   14  O   UNL     2     -12.063  14.335  67.181  1.00  0.00    -0.423 OA 
BRANCH  14  15
HETATM   15  C   UNL     2     -11.889  14.111  68.520  1.00  0.00    -0.355 C  
HETATM   16  O   UNL     2     -12.480  14.737  69.396  1.00  0.00    -0.188 OA 
BRANCH  15  17
HETATM   17  C   UNL     2     -10.783  13.149  68.761  1.00  0.00    -0.225 C  
HETATM   18  S   UNL     2     -11.420  11.587  69.249  1.00  0.00    -0.334 S  
HETATM   19  O   UNL     2     -12.158  11.865  70.478  1.00  0.00    -0.366 OA 
HETATM   20  O   UNL     2     -10.202  10.800  69.440  1.00  0.00    -0.217 OA 
HETATM   21  O   UNL     2     -12.241  11.160  68.117  1.00  0.00    -0.612 OA 
ENDBRANCH  15  17
ENDBRANCH  14  15
ENDBRANCH  13  14
ENDBRANCH  12  13
ENDBRANCH  11  12
ENDBRANCH  10  11
ENDBRANCH   9  10
ENDBRANCH   8   9
ENDBRANCH   7   8
ENDBRANCH   6   7
ENDBRANCH   5   6
ENDBRANCH   4   5
ENDBRANCH   3   4
TORSDOF 13
ENDMDL
MODEL      138
REMARK 921   NORMALIZED FREE ENERGY PREDICTED BY IDOCK:   -3.84 KCAL/MOL
REMARK 922        TOTAL FREE ENERGY PREDICTED BY IDOCK:   -8.32 KCAL/MOL
REMARK 923 INTER-LIGAND FREE ENERGY PREDICTED BY IDOCK:   -7.30 KCAL/MOL
REMARK 924 INTRA-LIGAND FREE ENERGY PREDICTED BY IDOCK:   -1.02 KCAL/MOL
REMARK 927      BINDING AFFINITY PREDICTED BY RF-SCORE:    0.00 PKD
ROOT
HETATM    1 NA   UNL     1      -9.081  12.433  65.250  1.00  0.00    -0.376 Na 
HETATM    2  C   UNL     2     -11.716  12.941  66.753  1.00  0.00    -0.445 C  
HETATM    3  C   UNL     2     -11.371  13.272  68.195  1.00  0.00    -0.323 C  
ENDROOT
BRANCH   3   4
HETATM    4  C   UNL     2     -11.937  14.633  68.586  1.00  0.00    -0.305 C  
BRANCH   4   5
HETATM    5  C   UNL     2     -11.014  15.369  69.552  1.00  0.00    -0.276 C  
BRANCH   5   6
HETATM    6  C   UNL     2     -11.807  15.899  70.744  1.00  0.00    -0.423 C  
BRANCH   6   7
HETATM    7  C   UNL     2     -11.911  14.854  71.849  1.00  0.00    -0.416 C  
BRANCH   7   8
HETATM    8  C   UNL     2     -13.337  14.782  72.387  1.00  0.00    -0.503 C  
BRANCH   8   9
HETATM    9  C   UNL     2     -13.896  13.370  72.257  1.00  0.00    -0.671 C  
BRANCH   9  10
HETATM   10  C   UNL     2     -12.987  12.502  71.391  1.00  0.00    -0.347 C  
BRANCH  10  11
HETATM   11  C   UNL     2     -13.037  11.048  71.851  1.00  0.00    -0.525 C  
BRANCH  11  12
HETATM   12  C   UNL     2     -12.182  10.157  70.957  1.00  0.00    -0.474 C  
BRANCH  12  13
HETATM   13  C   UNL     2     -12.327   8.692  71.354  1.00  0.00    -0.304 C  
BRANCH  13  14
HETATM   14  O   UNL     2     -11.050   8.048  71.363  1.00  0.00    -0.234 OA 
BRANCH  14  15
HETATM   15  C   UNL     2     -11.052   6.726  71.012  1.00  0.00    -0.273 C  
HETATM   16  O   UNL     2     -10.508   5.846  71.674  1.00  0.00    -0.218 OA 
BRANCH  15  17
HETATM   17  C   UNL     2     -11.642   6.533  69.663  1.00  0.00    -0.283 C  
HETATM   18  S   UNL     2     -10.468   6.915  68.415  1.00  0.00    -0.213 S  
HETATM   19  O   UNL     2     -10.132   8.317  68.652  1.00  0.00    -0.186 OA 
HETATM   20  O   UNL     2     -11.227   6.674  67.188  1.00  0.00    -0.392 OA 
HETATM   21  O   UNL     2      -9.376   5.970  68.643  1.00  0.00    -0.118 OA 
ENDBRANCH  15  17
ENDBRANCH  14  15
ENDBRANCH  13  14
ENDBRANCH  12  13
ENDBRANCH  11  12
ENDBRANCH  10  11
ENDBRANCH   9  10
ENDBRANCH   8   9
ENDBRANCH   7   8
ENDBRANCH   6   7
ENDBRANCH   5   6
ENDBRANCH   4   5
ENDBRANCH   3   4
TORSDOF 13
ENDMDL
MODEL      139
REMARK 921   NORMALIZED FREE ENERGY PREDICTED BY IDOCK:   -3.84 KCAL/MOL
REMARK 922        TOTAL FREE ENERGY PREDICTED BY IDOCK:   -8.32 KCAL/MOL
REMARK 923 INTER-LIGAND FREE ENERGY PREDICTED BY IDOCK:   -7.63 KCAL/MOL
REMARK 924 INTRA-LIGAND FREE ENERGY PREDICTED BY IDOCK:   -0.69 KCAL/MOL
REMARK 927      BINDING AFFINITY PREDICTED BY RF-SCORE:    0.00 PKD
ROOT
HETATM    1 NA   UNL     1      -7.825   5.644  74.075  1.00  0.00    -0.093 Na 
HETATM    2  C   UNL     2      -9.892   7.752  73.213  1.00  0.00    -0.362 C  
HETATM    3  C   UNL     2      -9.403   8.378  71.917  1.00  0.00    -0.313 C  
ENDROOT
BRANCH   3   4
HETATM    4  C   UNL     2     -10.446   8.219  70.815  1.00  0.00    -0.223 C  
BRANCH   4   5
HETATM    5  C   UNL     2     -10.976   9.570  70.344  1.00  0.00    -0.333 C  
BRANCH   5   6
HETATM    6  C   UNL     2     -12.242   9.940  71.113  1.00  0.00    -0.468 C  
BRANCH   6   7
HETATM    7  C   UNL     2     -12.431  11.451  71.173  1.00  0.00    -0.465 C  
BRANCH   7   8
HETATM    8  C   UNL     2     -13.531  11.815  72.167  1.00  0.00    -0.273 C  
BRANCH   8   9
HETATM    9  C   UNL     2     -13.681  13.327  72.282  1.00  0.00    -0.686 C  
BRANCH   9  10
HETATM   10  C   UNL     2     -12.770  14.043  71.288  1.00  0.00    -0.439 C  
BRANCH  10  11
HETATM   11  C   UNL     2     -12.679  15.529  71.617  1.00  0.00    -0.502 C  
BRANCH  11  12
HETATM   12  C   UNL     2     -11.399  16.141  71.058  1.00  0.00    -0.381 C  
BRANCH  12  13
HETATM   13  C   UNL     2     -10.745  15.202  70.049  1.00  0.00    -0.238 C  
BRANCH  13  14
HETATM   14  O   UNL     2     -10.792  15.770  68.736  1.00  0.00    -0.246 OA 
BRANCH  14  15
HETATM   15  C   UNL     2      -9.944  16.822  68.518  1.00  0.00    -0.271 C  
HETATM   16  O   UNL     2      -8.829  16.913  69.024  1.00  0.00    -0.247 OA 
BRANCH  15  17
HETATM   17  C   UNL     2     -10.615  17.895  67.740  1.00  0.00    -0.389 C  
HETATM   18  S   UNL     2     -10.000  17.941  66.095  1.00  0.00    -0.236 S  
HETATM   19  O   UNL     2      -8.573  18.210  66.250  1.00  0.00    -0.393 OA 
HETATM   20  O   UNL     2     -10.764  19.042  65.509  1.00  0.00    -0.536 OA 
HETATM   21  O   UNL     2     -10.326  16.624  65.550  1.00  0.00    -0.533 OA 
ENDBRANCH  15  17
ENDBRANCH  14  15
ENDBRANCH  13  14
ENDBRANCH  12  13
ENDBRANCH  11  12
ENDBRANCH  10  11
ENDBRANCH   9  10
ENDBRANCH   8   9
ENDBRANCH   7   8
ENDBRANCH   6   7
ENDBRANCH   5   6
ENDBRANCH   4   5
ENDBRANCH   3   4
TORSDOF 13
ENDMDL
MODEL      140
REMARK 921   NORMALIZED FREE ENERGY PREDICTED BY IDOCK:   -3.83 KCAL/MOL
REMARK 922        TOTAL FREE ENERGY PREDICTED BY IDOCK:   -8.30 KCAL/MOL
REMARK 923 INTER-LIGAND FREE ENERGY PREDICTED BY IDOCK:   -7.29 KCAL/MOL
REMARK 924 INTRA-LIGAND FREE ENERGY PREDICTED BY IDOCK:   -1.01 KCAL/MOL
REMARK 927      BINDING AFFINITY PREDICTED BY RF-SCORE:    0.00 PKD
ROOT
HETATM    1 NA   UNL     1      -9.596   7.928  67.071  1.00  0.00    -0.137 Na 
HETATM    2  C   UNL     2      -9.247  10.572  65.538  1.00  0.00    -0.223 C  
HETATM    3  C   UNL     2      -8.963  10.231  64.084  1.00  0.00    -0.263 C  
ENDROOT
BRANCH   3   4
HETATM    4  C   UNL     2      -9.993  10.883  63.167  1.00  0.00    -0.368 C  
BRANCH   4   5
HETATM    5  C   UNL     2     -10.397  12.266  63.670  1.00  0.00    -0.463 C  
BRANCH   5   6
HETATM    6  C   UNL     2     -11.886  12.502  63.432  1.00  0.00    -0.587 C  
BRANCH   6   7
HETATM    7  C   UNL     2     -12.652  12.583  64.748  1.00  0.00    -0.493 C  
BRANCH   7   8
HETATM    8  C   UNL     2     -12.666  14.016  65.272  1.00  0.00    -0.468 C  
BRANCH   8   9
HETATM    9  C   UNL     2     -12.372  14.050  66.767  1.00  0.00    -0.368 C  
BRANCH   9  10
HETATM   10  C   UNL     2     -10.959  13.549  67.056  1.00  0.00    -0.297 C  
BRANCH  10  11
HETATM   11  C   UNL     2     -10.121  14.647  67.702  1.00  0.00    -0.228 C  
BRANCH  11  12
HETATM   12  C   UNL     2     -10.303  15.977  66.980  1.00  0.00    -0.292 C  
BRANCH  12  13
HETATM   13  C   UNL     2     -10.681  17.081  67.963  1.00  0.00    -0.365 C  
BRANCH  13  14
HETATM   14  O   UNL     2     -10.556  18.364  67.345  1.00  0.00    -0.406 OA 
BRANCH  14  15
HETATM   15  C   UNL     2      -9.467  19.100  67.725  1.00  0.00    -0.303 C  
HETATM   16  O   UNL     2      -9.067  19.172  68.884  1.00  0.00    -0.360 OA 
BRANCH  15  17
HETATM   17  C   UNL     2      -8.952  19.915  66.595  1.00  0.00    -0.372 C  
HETATM   18  S   UNL     2      -7.341  19.389  66.138  1.00  0.00    -0.286 S  
HETATM   19  O   UNL     2      -6.540  19.586  67.343  1.00  0.00    -0.196 OA 
HETATM   20  O   UNL     2      -7.017  20.299  65.040  1.00  0.00    -0.302 OA 
HETATM   21  O   UNL     2      -7.516  17.995  65.732  1.00  0.00    -0.514 OA 
ENDBRANCH  15  17
ENDBRANCH  14  15
ENDBRANCH  13  14
ENDBRANCH  12  13
ENDBRANCH  11  12
ENDBRANCH  10  11
ENDBRANCH   9  10
ENDBRANCH   8   9
ENDBRANCH   7   8
ENDBRANCH   6   7
ENDBRANCH   5   6
ENDBRANCH   4   5
ENDBRANCH   3   4
TORSDOF 13
ENDMDL
MODEL      141
REMARK 921   NORMALIZED FREE ENERGY PREDICTED BY IDOCK:   -3.82 KCAL/MOL
REMARK 922        TOTAL FREE ENERGY PREDICTED BY IDOCK:   -8.29 KCAL/MOL
REMARK 923 INTER-LIGAND FREE ENERGY PREDICTED BY IDOCK:   -7.66 KCAL/MOL
REMARK 924 INTRA-LIGAND FREE ENERGY PREDICTED BY IDOCK:   -0.63 KCAL/MOL
REMARK 927      BINDING AFFINITY PREDICTED BY RF-SCORE:    0.00 PKD
ROOT
HETATM    1 NA   UNL     1     -11.944   5.432  65.304  1.00  0.00    -0.720 Na 
HETATM    2  C   UNL     2     -10.551   6.730  67.720  1.00  0.00    -0.307 C  
HETATM    3  C   UNL     2      -9.786   7.943  67.218  1.00  0.00    -0.230 C  
ENDROOT
BRANCH   3   4
HETATM    4  C   UNL     2     -10.237   9.204  67.947  1.00  0.00    -0.266 C  
BRANCH   4   5
HETATM    5  C   UNL     2     -10.646   8.904  69.387  1.00  0.00    -0.226 C  
BRANCH   5   6
HETATM    6  C   UNL     2     -10.687  10.193  70.205  1.00  0.00    -0.355 C  
BRANCH   6   7
HETATM    7  C   UNL     2     -12.022  10.349  70.924  1.00  0.00    -0.478 C  
BRANCH   7   8
HETATM    8  C   UNL     2     -12.529  11.784  70.806  1.00  0.00    -0.405 C  
BRANCH   8   9
HETATM    9  C   UNL     2     -13.065  12.282  72.143  1.00  0.00    -0.406 C  
BRANCH   9  10
HETATM   10  C   UNL     2     -13.712  13.657  71.992  1.00  0.00    -0.583 C  
BRANCH  10  11
HETATM   11  C   UNL     2     -13.017  14.678  72.887  1.00  0.00    -0.592 C  
BRANCH  11  12
HETATM   12  C   UNL     2     -11.688  15.123  72.287  1.00  0.00    -0.496 C  
BRANCH  12  13
HETATM   13  C   UNL     2     -11.867  15.560  70.837  1.00  0.00    -0.371 C  
BRANCH  13  14
HETATM   14  O   UNL     2     -11.043  14.771  69.973  1.00  0.00    -0.249 OA 
BRANCH  14  15
HETATM   15  C   UNL     2     -11.090  15.104  68.647  1.00  0.00    -0.271 C  
HETATM   16  O   UNL     2     -10.711  14.360  67.746  1.00  0.00    -0.244 OA 
BRANCH  15  17
HETATM   17  C   UNL     2     -11.493  16.522  68.466  1.00  0.00    -0.133 C  
HETATM   18  S   UNL     2     -10.221  17.428  67.663  1.00  0.00    -0.355 S  
HETATM   19  O   UNL     2      -9.074  17.313  68.559  1.00  0.00    -0.257 OA 
HETATM   20  O   UNL     2     -10.797  18.771  67.586  1.00  0.00    -0.426 OA 
HETATM   21  O   UNL     2     -10.066  16.765  66.369  1.00  0.00    -0.290 OA 
ENDBRANCH  15  17
ENDBRANCH  14  15
ENDBRANCH  13  14
ENDBRANCH  12  13
ENDBRANCH  11  12
ENDBRANCH  10  11
ENDBRANCH   9  10
ENDBRANCH   8   9
ENDBRANCH   7   8
ENDBRANCH   6   7
ENDBRANCH   5   6
ENDBRANCH   4   5
ENDBRANCH   3   4
TORSDOF 13
ENDMDL
MODEL      142
REMARK 921   NORMALIZED FREE ENERGY PREDICTED BY IDOCK:   -3.82 KCAL/MOL
REMARK 922        TOTAL FREE ENERGY PREDICTED BY IDOCK:   -8.29 KCAL/MOL
REMARK 923 INTER-LIGAND FREE ENERGY PREDICTED BY IDOCK:   -7.45 KCAL/MOL
REMARK 924 INTRA-LIGAND FREE ENERGY PREDICTED BY IDOCK:   -0.83 KCAL/MOL
REMARK 927      BINDING AFFINITY PREDICTED BY RF-SCORE:    0.00 PKD
ROOT
HETATM    1 NA   UNL     1     -12.709   5.622  72.092  1.00  0.00    -0.281 Na 
HETATM    2  C   UNL     2     -11.385   8.389  72.312  1.00  0.00    -0.448 C  
HETATM    3  C   UNL     2      -9.912   8.176  72.615  1.00  0.00    -0.371 C  
ENDROOT
BRANCH   3   4
HETATM    4  C   UNL     2      -9.042   8.845  71.557  1.00  0.00    -0.299 C  
BRANCH   4   5
HETATM    5  C   UNL     2      -9.621   8.664  70.157  1.00  0.00    -0.181 C  
BRANCH   5   6
HETATM    6  C   UNL     2      -9.679  10.004  69.429  1.00  0.00    -0.240 C  
BRANCH   6   7
HETATM    7  C   UNL     2     -11.109  10.523  69.337  1.00  0.00    -0.310 C  
BRANCH   7   8
HETATM    8  C   UNL     2     -11.118  12.027  69.075  1.00  0.00    -0.291 C  
BRANCH   8   9
HETATM    9  C   UNL     2     -11.747  12.339  67.722  1.00  0.00    -0.403 C  
BRANCH   9  10
HETATM   10  C   UNL     2     -11.041  11.575  66.604  1.00  0.00    -0.355 C  
BRANCH  10  11
HETATM   11  C   UNL     2     -11.371  12.186  65.246  1.00  0.00    -0.386 C  
BRANCH  11  12
HETATM   12  C   UNL     2     -12.402  13.301  65.378  1.00  0.00    -0.528 C  
BRANCH  12  13
HETATM   13  C   UNL     2     -11.930  14.564  64.665  1.00  0.00    -0.468 C  
BRANCH  13  14
HETATM   14  O   UNL     2     -10.551  14.812  64.951  1.00  0.00    -0.414 OA 
BRANCH  14  15
HETATM   15  C   UNL     2     -10.299  15.895  65.749  1.00  0.00    -0.376 C  
HETATM   16  O   UNL     2     -10.512  17.055  65.408  1.00  0.00    -0.619 OA 
BRANCH  15  17
HETATM   17  C   UNL     2      -9.588  15.490  66.989  1.00  0.00    -0.224 C  
HETATM   18  S   UNL     2     -10.447  16.064  68.409  1.00  0.00    -0.276 S  
HETATM   19  O   UNL     2     -10.466  17.516  68.258  1.00  0.00    -0.361 OA 
HETATM   20  O   UNL     2      -9.603  15.580  69.501  1.00  0.00    -0.260 OA 
HETATM   21  O   UNL     2     -11.756  15.416  68.327  1.00  0.00    -0.360 OA 
ENDBRANCH  15  17
ENDBRANCH  14  15
ENDBRANCH  13  14
ENDBRANCH  12  13
ENDBRANCH  11  12
ENDBRANCH  10  11
ENDBRANCH   9  10
ENDBRANCH   8   9
ENDBRANCH   7   8
ENDBRANCH   6   7
ENDBRANCH   5   6
ENDBRANCH   4   5
ENDBRANCH   3   4
TORSDOF 13
ENDMDL
MODEL      143
REMARK 921   NORMALIZED FREE ENERGY PREDICTED BY IDOCK:   -3.82 KCAL/MOL
REMARK 922        TOTAL FREE ENERGY PREDICTED BY IDOCK:   -8.28 KCAL/MOL
REMARK 923 INTER-LIGAND FREE ENERGY PREDICTED BY IDOCK:   -7.41 KCAL/MOL
REMARK 924 INTRA-LIGAND FREE ENERGY PREDICTED BY IDOCK:   -0.87 KCAL/MOL
REMARK 927      BINDING AFFINITY PREDICTED BY RF-SCORE:    0.00 PKD
ROOT
HETATM    1 NA   UNL     1      -7.712  12.231  69.684  1.00  0.00    -0.318 Na 
HETATM    2  C   UNL     2      -9.942  12.804  67.645  1.00  0.00    -0.217 C  
HETATM    3  C   UNL     2     -11.035  13.582  68.359  1.00  0.00    -0.289 C  
ENDROOT
BRANCH   3   4
HETATM    4  C   UNL     2     -11.295  14.911  67.659  1.00  0.00    -0.348 C  
BRANCH   4   5
HETATM    5  C   UNL     2     -11.434  16.055  68.660  1.00  0.00    -0.377 C  
BRANCH   5   6
HETATM    6  C   UNL     2     -11.329  15.526  70.088  1.00  0.00    -0.339 C  
BRANCH   6   7
HETATM    7  C   UNL     2     -12.640  15.710  70.844  1.00  0.00    -0.503 C  
BRANCH   7   8
HETATM    8  C   UNL     2     -12.647  14.867  72.116  1.00  0.00    -0.403 C  
BRANCH   8   9
HETATM    9  C   UNL     2     -13.852  13.933  72.142  1.00  0.00    -0.636 C  
BRANCH   9  10
HETATM   10  C   UNL     2     -13.409  12.472  72.166  1.00  0.00    -0.540 C  
BRANCH  10  11
HETATM   11  C   UNL     2     -12.384  12.204  71.068  1.00  0.00    -0.331 C  
BRANCH  11  12
HETATM   12  C   UNL     2     -12.501  10.778  70.541  1.00  0.00    -0.447 C  
BRANCH  12  13
HETATM   13  C   UNL     2     -13.220   9.885  71.547  1.00  0.00    -0.408 C  
BRANCH  13  14
HETATM   14  O   UNL     2     -12.291   9.001  72.182  1.00  0.00    -0.368 OA 
BRANCH  14  15
HETATM   15  C   UNL     2     -12.374   7.688  71.806  1.00  0.00    -0.319 C  
HETATM   16  O   UNL     2     -13.425   7.053  71.784  1.00  0.00    -0.349 OA 
BRANCH  15  17
HETATM   17  C   UNL     2     -11.023   7.105  71.600  1.00  0.00    -0.228 C  
HETATM   18  S   UNL     2     -10.518   6.201  73.019  1.00  0.00    -0.240 S  
HETATM   19  O   UNL     2     -10.512   7.190  74.094  1.00  0.00    -0.291 OA 
HETATM   20  O   UNL     2      -9.193   5.724  72.627  1.00  0.00    -0.138 OA 
HETATM   21  O   UNL     2     -11.523   5.147  73.153  1.00  0.00    -0.323 OA 
ENDBRANCH  15  17
ENDBRANCH  14  15
ENDBRANCH  13  14
ENDBRANCH  12  13
ENDBRANCH  11  12
ENDBRANCH  10  11
ENDBRANCH   9  10
ENDBRANCH   8   9
ENDBRANCH   7   8
ENDBRANCH   6   7
ENDBRANCH   5   6
ENDBRANCH   4   5
ENDBRANCH   3   4
TORSDOF 13
ENDMDL
MODEL      144
REMARK 921   NORMALIZED FREE ENERGY PREDICTED BY IDOCK:   -3.81 KCAL/MOL
REMARK 922        TOTAL FREE ENERGY PREDICTED BY IDOCK:   -8.27 KCAL/MOL
REMARK 923 INTER-LIGAND FREE ENERGY PREDICTED BY IDOCK:   -6.64 KCAL/MOL
REMARK 924 INTRA-LIGAND FREE ENERGY PREDICTED BY IDOCK:   -1.63 KCAL/MOL
REMARK 927      BINDING AFFINITY PREDICTED BY RF-SCORE:    0.00 PKD
ROOT
HETATM    1 NA   UNL     1     -12.615  13.080  69.278  1.00  0.00    -0.267 Na 
HETATM    2  C   UNL     2     -13.111  10.527  70.919  1.00  0.00    -0.390 C  
HETATM    3  C   UNL     2     -11.983   9.555  70.617  1.00  0.00    -0.266 C  
ENDROOT
BRANCH   3   4
HETATM    4  C   UNL     2     -11.260   9.153  71.899  1.00  0.00    -0.400 C  
BRANCH   4   5
HETATM    5  C   UNL     2      -9.782   8.870  71.645  1.00  0.00    -0.379 C  
BRANCH   5   6
HETATM    6  C   UNL     2      -9.411   9.233  70.209  1.00  0.00    -0.277 C  
BRANCH   6   7
HETATM    7  C   UNL     2      -8.540   8.156  69.573  1.00  0.00    -0.134 C  
BRANCH   7   8
HETATM    8  C   UNL     2      -9.387   7.216  68.719  1.00  0.00    -0.135 C  
BRANCH   8   9
HETATM    9  C   UNL     2     -10.333   8.004  67.820  1.00  0.00    -0.294 C  
BRANCH   9  10
HETATM   10  C   UNL     2      -9.714   8.231  66.444  1.00  0.00    -0.300 C  
BRANCH  10  11
HETATM   11  C   UNL     2      -9.456   9.716  66.210  1.00  0.00    -0.255 C  
BRANCH  11  12
HETATM   12  C   UNL     2     -10.300  10.576  67.144  1.00  0.00    -0.285 C  
BRANCH  12  13
HETATM   13  C   UNL     2      -9.740  11.992  67.231  1.00  0.00    -0.185 C  
BRANCH  13  14
HETATM   14  O   UNL     2     -10.730  12.890  67.740  1.00  0.00    -0.218 OA 
BRANCH  14  15
HETATM   15  C   UNL     2     -11.031  13.955  66.935  1.00  0.00    -0.295 C  
HETATM   16  O   UNL     2     -11.628  14.955  67.325  1.00  0.00    -0.360 OA 
BRANCH  15  17
HETATM   17  C   UNL     2     -10.696  13.664  65.517  1.00  0.00    -0.296 C  
HETATM   18  S   UNL     2     -12.156  13.381  64.583  1.00  0.00    -0.423 S  
HETATM   19  O   UNL     2     -12.781  12.229  65.228  1.00  0.00    -0.543 OA 
HETATM   20  O   UNL     2     -11.623  13.112  63.248  1.00  0.00    -0.378 OA 
HETATM   21  O   UNL     2     -12.904  14.633  64.692  1.00  0.00    -0.559 OA 
ENDBRANCH  15  17
ENDBRANCH  14  15
ENDBRANCH  13  14
ENDBRANCH  12  13
ENDBRANCH  11  12
ENDBRANCH  10  11
ENDBRANCH   9  10
ENDBRANCH   8   9
ENDBRANCH   7   8
ENDBRANCH   6   7
ENDBRANCH   5   6
ENDBRANCH   4   5
ENDBRANCH   3   4
TORSDOF 13
ENDMDL
MODEL      145
REMARK 921   NORMALIZED FREE ENERGY PREDICTED BY IDOCK:   -3.81 KCAL/MOL
REMARK 922        TOTAL FREE ENERGY PREDICTED BY IDOCK:   -8.27 KCAL/MOL
REMARK 923 INTER-LIGAND FREE ENERGY PREDICTED BY IDOCK:   -7.41 KCAL/MOL
REMARK 924 INTRA-LIGAND FREE ENERGY PREDICTED BY IDOCK:   -0.86 KCAL/MOL
REMARK 927      BINDING AFFINITY PREDICTED BY RF-SCORE:    0.00 PKD
ROOT
HETATM    1 NA   UNL     1      -6.282   7.938  69.475  1.00  0.00    -0.029 Na 
HETATM    2  C   UNL     2      -8.333  10.079  68.659  1.00  0.00    -0.116 C  
HETATM    3  C   UNL     2      -9.678   9.393  68.491  1.00  0.00    -0.160 C  
ENDROOT
BRANCH   3   4
HETATM    4  C   UNL     2     -10.725  10.030  69.399  1.00  0.00    -0.258 C  
BRANCH   4   5
HETATM    5  C   UNL     2     -10.892   9.247  70.698  1.00  0.00    -0.339 C  
BRANCH   5   6
HETATM    6  C   UNL     2     -12.081   9.785  71.492  1.00  0.00    -0.493 C  
BRANCH   6   7
HETATM    7  C   UNL     2     -12.606  11.083  70.891  1.00  0.00    -0.488 C  
BRANCH   7   8
HETATM    8  C   UNL     2     -13.533  11.792  71.875  1.00  0.00    -0.278 C  
BRANCH   8   9
HETATM    9  C   UNL     2     -13.021  13.193  72.191  1.00  0.00    -0.382 C  
BRANCH   9  10
HETATM   10  C   UNL     2     -13.915  14.255  71.557  1.00  0.00    -0.415 C  
BRANCH  10  11
HETATM   11  C   UNL     2     -13.077  15.278  70.797  1.00  0.00    -0.468 C  
BRANCH  11  12
HETATM   12  C   UNL     2     -11.847  14.629  70.173  1.00  0.00    -0.365 C  
BRANCH  12  13
HETATM   13  C   UNL     2     -12.144  14.158  68.753  1.00  0.00    -0.291 C  
BRANCH  13  14
HETATM   14  O   UNL     2     -11.114  13.277  68.294  1.00  0.00    -0.243 OA 
BRANCH  14  15
HETATM   15  C   UNL     2     -10.898  13.275  66.942  1.00  0.00    -0.276 C  
HETATM   16  O   UNL     2     -10.168  14.079  66.370  1.00  0.00    -0.277 OA 
BRANCH  15  17
HETATM   17  C   UNL     2     -11.785  12.297  66.262  1.00  0.00    -0.366 C  
HETATM   18  S   UNL     2     -12.433  12.978  64.779  1.00  0.00    -0.402 S  
HETATM   19  O   UNL     2     -13.178  14.155  65.217  1.00  0.00    -0.760 OA 
HETATM   20  O   UNL     2     -13.266  11.887  64.274  1.00  0.00    -0.618 OA 
HETATM   21  O   UNL     2     -11.252  13.261  63.964  1.00  0.00    -0.381 OA 
ENDBRANCH  15  17
ENDBRANCH  14  15
ENDBRANCH  13  14
ENDBRANCH  12  13
ENDBRANCH  11  12
ENDBRANCH  10  11
ENDBRANCH   9  10
ENDBRANCH   8   9
ENDBRANCH   7   8
ENDBRANCH   6   7
ENDBRANCH   5   6
ENDBRANCH   4   5
ENDBRANCH   3   4
TORSDOF 13
ENDMDL
MODEL      146
REMARK 921   NORMALIZED FREE ENERGY PREDICTED BY IDOCK:   -3.81 KCAL/MOL
REMARK 922        TOTAL FREE ENERGY PREDICTED BY IDOCK:   -8.27 KCAL/MOL
REMARK 923 INTER-LIGAND FREE ENERGY PREDICTED BY IDOCK:   -7.80 KCAL/MOL
REMARK 924 INTRA-LIGAND FREE ENERGY PREDICTED BY IDOCK:   -0.47 KCAL/MOL
REMARK 927      BINDING AFFINITY PREDICTED BY RF-SCORE:    0.00 PKD
ROOT
HETATM    1 NA   UNL     1      -9.052   6.854  64.266  1.00  0.00    -0.347 Na 
HETATM    2  C   UNL     2     -10.115   7.744  67.012  1.00  0.00    -0.343 C  
HETATM    3  C   UNL     2     -11.227   6.788  67.411  1.00  0.00    -0.262 C  
ENDROOT
BRANCH   3   4
HETATM    4  C   UNL     2     -10.917   6.132  68.752  1.00  0.00    -0.421 C  
BRANCH   4   5
HETATM    5  C   UNL     2     -10.878   7.156  69.883  1.00  0.00    -0.276 C  
BRANCH   5   6
HETATM    6  C   UNL     2     -11.702   6.666  71.071  1.00  0.00    -0.415 C  
BRANCH   6   7
HETATM    7  C   UNL     2     -12.411   7.822  71.767  1.00  0.00    -0.346 C  
BRANCH   7   8
HETATM    8  C   UNL     2     -11.813   9.157  71.332  1.00  0.00    -0.415 C  
BRANCH   8   9
HETATM    9  C   UNL     2     -12.672  10.320  71.815  1.00  0.00    -0.535 C  
BRANCH   9  10
HETATM   10  C   UNL     2     -12.436  11.564  70.961  1.00  0.00    -0.458 C  
BRANCH  10  11
HETATM   11  C   UNL     2     -12.964  12.808  71.667  1.00  0.00    -0.402 C  
BRANCH  11  12
HETATM   12  C   UNL     2     -12.408  14.079  71.036  1.00  0.00    -0.443 C  
BRANCH  12  13
HETATM   13  C   UNL     2     -12.117  13.866  69.554  1.00  0.00    -0.342 C  
BRANCH  13  14
HETATM   14  O   UNL     2     -11.303  14.928  69.048  1.00  0.00    -0.262 OA 
BRANCH  14  15
HETATM   15  C   UNL     2     -11.342  15.107  67.692  1.00  0.00    -0.321 C  
HETATM   16  O   UNL     2     -10.881  16.092  67.123  1.00  0.00    -0.302 OA 
BRANCH  15  17
HETATM   17  C   UNL     2     -12.153  14.048  67.037  1.00  0.00    -0.420 C  
HETATM   18  S   UNL     2     -11.495  13.655  65.457  1.00  0.00    -0.313 S  
HETATM   19  O   UNL     2     -11.563  14.910  64.714  1.00  0.00    -0.396 OA 
HETATM   20  O   UNL     2     -12.417  12.622  64.985  1.00  0.00    -0.494 OA 
HETATM   21  O   UNL     2     -10.143  13.173  65.737  1.00  0.00    -0.286 OA 
ENDBRANCH  15  17
ENDBRANCH  14  15
ENDBRANCH  13  14
ENDBRANCH  12  13
ENDBRANCH  11  12
ENDBRANCH  10  11
ENDBRANCH   9  10
ENDBRANCH   8   9
ENDBRANCH   7   8
ENDBRANCH   6   7
ENDBRANCH   5   6
ENDBRANCH   4   5
ENDBRANCH   3   4
TORSDOF 13
ENDMDL
MODEL      147
REMARK 921   NORMALIZED FREE ENERGY PREDICTED BY IDOCK:   -3.80 KCAL/MOL
REMARK 922        TOTAL FREE ENERGY PREDICTED BY IDOCK:   -8.26 KCAL/MOL
REMARK 923 INTER-LIGAND FREE ENERGY PREDICTED BY IDOCK:   -6.93 KCAL/MOL
REMARK 924 INTRA-LIGAND FREE ENERGY PREDICTED BY IDOCK:   -1.32 KCAL/MOL
REMARK 927      BINDING AFFINITY PREDICTED BY RF-SCORE:    0.00 PKD
ROOT
HETATM    1 NA   UNL     1     -10.965  20.596  70.329  1.00  0.00    -0.854 Na 
HETATM    2  C   UNL     2     -10.565  19.080  67.684  1.00  0.00    -0.526 C  
HETATM    3  C   UNL     2      -9.750  19.968  66.758  1.00  0.00    -0.563 C  
ENDROOT
BRANCH   3   4
HETATM    4  C   UNL     2      -8.477  19.256  66.312  1.00  0.00    -0.328 C  
BRANCH   4   5
HETATM    5  C   UNL     2      -7.294  20.217  66.236  1.00  0.00    -0.310 C  
BRANCH   5   6
HETATM    6  C   UNL     2      -6.906  20.693  67.633  1.00  0.00    -0.379 C  
BRANCH   6   7
HETATM    7  C   UNL     2      -5.896  19.752  68.279  1.00  0.00    -0.257 C  
BRANCH   7   8
HETATM    8  C   UNL     2      -6.565  18.905  69.358  1.00  0.00    -0.293 C  
BRANCH   8   9
HETATM    9  C   UNL     2      -6.101  17.455  69.276  1.00  0.00    -0.231 C  
BRANCH   9  10
HETATM   10  C   UNL     2      -6.552  16.813  67.966  1.00  0.00    -0.148 C  
BRANCH  10  11
HETATM   11  C   UNL     2      -6.522  15.292  68.076  1.00  0.00    -0.152 C  
BRANCH  11  12
HETATM   12  C   UNL     2      -7.903  14.694  67.833  1.00  0.00    -0.143 C  
BRANCH  12  13
HETATM   13  C   UNL     2      -8.880  15.125  68.922  1.00  0.00    -0.205 C  
BRANCH  13  14
HETATM   14  O   UNL     2     -10.166  14.540  68.697  1.00  0.00    -0.232 OA 
BRANCH  14  15
HETATM   15  C   UNL     2     -11.231  15.391  68.822  1.00  0.00    -0.301 C  
HETATM   16  O   UNL     2     -12.022  15.627  67.913  1.00  0.00    -0.103 OA 
BRANCH  15  17
HETATM   17  C   UNL     2     -11.195  16.104  70.125  1.00  0.00    -0.370 C  
HETATM   18  S   UNL     2     -12.337  15.390  71.251  1.00  0.00    -0.427 S  
HETATM   19  O   UNL     2     -13.634  15.544  70.598  1.00  0.00    -0.424 OA 
HETATM   20  O   UNL     2     -12.158  16.218  72.443  1.00  0.00    -0.510 OA 
HETATM   21  O   UNL     2     -11.882  14.008  71.403  1.00  0.00    -0.179 OA 
ENDBRANCH  15  17
ENDBRANCH  14  15
ENDBRANCH  13  14
ENDBRANCH  12  13
ENDBRANCH  11  12
ENDBRANCH  10  11
ENDBRANCH   9  10
ENDBRANCH   8   9
ENDBRANCH   7   8
ENDBRANCH   6   7
ENDBRANCH   5   6
ENDBRANCH   4   5
ENDBRANCH   3   4
TORSDOF 13
ENDMDL
MODEL      148
REMARK 921   NORMALIZED FREE ENERGY PREDICTED BY IDOCK:   -3.78 KCAL/MOL
REMARK 922        TOTAL FREE ENERGY PREDICTED BY IDOCK:   -8.21 KCAL/MOL
REMARK 923 INTER-LIGAND FREE ENERGY PREDICTED BY IDOCK:   -6.49 KCAL/MOL
REMARK 924 INTRA-LIGAND FREE ENERGY PREDICTED BY IDOCK:   -1.72 KCAL/MOL
REMARK 927      BINDING AFFINITY PREDICTED BY RF-SCORE:    0.00 PKD
ROOT
HETATM    1 NA   UNL     1      -8.814  13.996  65.689  1.00  0.00    -0.443 Na 
HETATM    2  C   UNL     2      -7.054  15.834  67.415  1.00  0.00    -0.236 C  
HETATM    3  C   UNL     2      -6.699  17.054  66.581  1.00  0.00    -0.273 C  
ENDROOT
BRANCH   3   4
HETATM    4  C   UNL     2      -7.147  18.333  67.280  1.00  0.00    -0.210 C  
BRANCH   4   5
HETATM    5  C   UNL     2      -8.190  18.049  68.357  1.00  0.00    -0.305 C  
BRANCH   5   6
HETATM    6  C   UNL     2      -9.455  18.862  68.097  1.00  0.00    -0.377 C  
BRANCH   6   7
HETATM    7  C   UNL     2     -10.578  17.983  67.559  1.00  0.00    -0.402 C  
BRANCH   7   8
HETATM    8  C   UNL     2     -10.408  17.755  66.059  1.00  0.00    -0.304 C  
BRANCH   8   9
HETATM    9  C   UNL     2     -10.487  16.270  65.723  1.00  0.00    -0.379 C  
BRANCH   9  10
HETATM   10  C   UNL     2     -11.312  16.041  64.459  1.00  0.00    -0.303 C  
BRANCH  10  11
HETATM   11  C   UNL     2     -12.257  14.858  64.643  1.00  0.00    -0.351 C  
BRANCH  11  12
HETATM   12  C   UNL     2     -12.053  14.194  66.000  1.00  0.00    -0.449 C  
BRANCH  12  13
HETATM   13  C   UNL     2     -11.701  12.719  65.834  1.00  0.00    -0.414 C  
BRANCH  13  14
HETATM   14  O   UNL     2     -12.076  11.983  67.002  1.00  0.00    -0.603 OA 
BRANCH  14  15
HETATM   15  C   UNL     2     -11.152  11.080  67.452  1.00  0.00    -0.305 C  
HETATM   16  O   UNL     2     -11.343  10.330  68.406  1.00  0.00    -0.256 OA 
BRANCH  15  17
HETATM   17  C   UNL     2      -9.854  11.250  66.751  1.00  0.00    -0.199 C  
HETATM   18  S   UNL     2      -8.665  11.977  67.819  1.00  0.00    -0.170 S  
HETATM   19  O   UNL     2      -9.246  13.267  68.181  1.00  0.00    -0.203 OA 
HETATM   20  O   UNL     2      -7.486  12.064  66.959  1.00  0.00    -0.148 OA 
HETATM   21  O   UNL     2      -8.538  11.024  68.921  1.00  0.00    -0.161 OA 
ENDBRANCH  15  17
ENDBRANCH  14  15
ENDBRANCH  13  14
ENDBRANCH  12  13
ENDBRANCH  11  12
ENDBRANCH  10  11
ENDBRANCH   9  10
ENDBRANCH   8   9
ENDBRANCH   7   8
ENDBRANCH   6   7
ENDBRANCH   5   6
ENDBRANCH   4   5
ENDBRANCH   3   4
TORSDOF 13
ENDMDL
MODEL      149
REMARK 921   NORMALIZED FREE ENERGY PREDICTED BY IDOCK:   -3.78 KCAL/MOL
REMARK 922        TOTAL FREE ENERGY PREDICTED BY IDOCK:   -8.21 KCAL/MOL
REMARK 923 INTER-LIGAND FREE ENERGY PREDICTED BY IDOCK:   -7.11 KCAL/MOL
REMARK 924 INTRA-LIGAND FREE ENERGY PREDICTED BY IDOCK:   -1.10 KCAL/MOL
REMARK 927      BINDING AFFINITY PREDICTED BY RF-SCORE:    0.00 PKD
ROOT
HETATM    1 NA   UNL     1     -13.915   7.161  70.235  1.00  0.00    -0.612 Na 
HETATM    2  C   UNL     2     -12.021   8.901  71.921  1.00  0.00    -0.441 C  
HETATM    3  C   UNL     2     -10.623   8.320  71.797  1.00  0.00    -0.325 C  
ENDROOT
BRANCH   3   4
HETATM    4  C   UNL     2      -9.649   9.366  71.265  1.00  0.00    -0.161 C  
BRANCH   4   5
HETATM    5  C   UNL     2      -8.579   8.738  70.378  1.00  0.00    -0.176 C  
BRANCH   5   6
HETATM    6  C   UNL     2      -9.071   7.409  69.812  1.00  0.00    -0.141 C  
BRANCH   6   7
HETATM    7  C   UNL     2      -8.287   7.012  68.567  1.00  0.00    -0.121 C  
BRANCH   7   8
HETATM    8  C   UNL     2      -9.202   6.978  67.346  1.00  0.00    -0.134 C  
BRANCH   8   9
HETATM    9  C   UNL     2     -10.492   7.745  67.612  1.00  0.00    -0.308 C  
BRANCH   9  10
HETATM   10  C   UNL     2     -10.381   9.185  67.117  1.00  0.00    -0.337 C  
BRANCH  10  11
HETATM   11  C   UNL     2      -9.402   9.278  65.951  1.00  0.00    -0.297 C  
BRANCH  11  12
HETATM   12  C   UNL     2      -9.009  10.725  65.674  1.00  0.00    -0.205 C  
BRANCH  12  13
HETATM   13  C   UNL     2      -9.609  11.208  64.358  1.00  0.00    -0.250 C  
BRANCH  13  14
HETATM   14  O   UNL     2     -11.025  11.003  64.351  1.00  0.00    -0.293 OA 
BRANCH  14  15
HETATM   15  C   UNL     2     -11.775  12.075  63.951  1.00  0.00    -0.446 C  
HETATM   16  O   UNL     2     -12.804  11.976  63.289  1.00  0.00    -0.732 OA 
BRANCH  15  17
HETATM   17  C   UNL     2     -11.092  13.354  64.274  1.00  0.00    -0.373 C  
HETATM   18  S   UNL     2     -11.795  14.084  65.708  1.00  0.00    -0.402 S  
HETATM   19  O   UNL     2     -13.194  14.305  65.353  1.00  0.00    -0.688 OA 
HETATM   20  O   UNL     2     -11.006  15.307  65.853  1.00  0.00    -0.334 OA 
HETATM   21  O   UNL     2     -11.572  13.096  66.764  1.00  0.00    -0.329 OA 
ENDBRANCH  15  17
ENDBRANCH  14  15
ENDBRANCH  13  14
ENDBRANCH  12  13
ENDBRANCH  11  12
ENDBRANCH  10  11
ENDBRANCH   9  10
ENDBRANCH   8   9
ENDBRANCH   7   8
ENDBRANCH   6   7
ENDBRANCH   5   6
ENDBRANCH   4   5
ENDBRANCH   3   4
TORSDOF 13
ENDMDL
MODEL      150
REMARK 921   NORMALIZED FREE ENERGY PREDICTED BY IDOCK:   -3.78 KCAL/MOL
REMARK 922        TOTAL FREE ENERGY PREDICTED BY IDOCK:   -8.21 KCAL/MOL
REMARK 923 INTER-LIGAND FREE ENERGY PREDICTED BY IDOCK:   -7.71 KCAL/MOL
REMARK 924 INTRA-LIGAND FREE ENERGY PREDICTED BY IDOCK:   -0.50 KCAL/MOL
REMARK 927      BINDING AFFINITY PREDICTED BY RF-SCORE:    0.00 PKD
ROOT
HETATM    1 NA   UNL     1     -14.335   7.952  73.078  1.00  0.00    -0.554 Na 
HETATM    2  C   UNL     2     -11.835   6.391  72.201  1.00  0.00    -0.361 C  
HETATM    3  C   UNL     2     -11.684   6.563  70.699  1.00  0.00    -0.436 C  
ENDROOT
BRANCH   3   4
HETATM    4  C   UNL     2     -10.323   7.160  70.359  1.00  0.00    -0.216 C  
BRANCH   4   5
HETATM    5  C   UNL     2     -10.453   8.572  69.796  1.00  0.00    -0.220 C  
BRANCH   5   6
HETATM    6  C   UNL     2     -10.731   9.567  70.920  1.00  0.00    -0.403 C  
BRANCH   6   7
HETATM    7  C   UNL     2     -12.158  10.100  70.848  1.00  0.00    -0.453 C  
BRANCH   7   8
HETATM    8  C   UNL     2     -12.156  11.599  70.565  1.00  0.00    -0.458 C  
BRANCH   8   9
HETATM    9  C   UNL     2     -13.035  12.342  71.565  1.00  0.00    -0.390 C  
BRANCH   9  10
HETATM   10  C   UNL     2     -12.914  13.853  71.380  1.00  0.00    -0.430 C  
BRANCH  10  11
HETATM   11  C   UNL     2     -12.373  14.181  69.992  1.00  0.00    -0.403 C  
BRANCH  11  12
HETATM   12  C   UNL     2     -11.137  15.069  70.078  1.00  0.00    -0.290 C  
BRANCH  12  13
HETATM   13  C   UNL     2     -11.149  16.124  68.977  1.00  0.00    -0.336 C  
BRANCH  13  14
HETATM   14  O   UNL     2     -10.213  15.784  67.950  1.00  0.00    -0.235 OA 
BRANCH  14  15
HETATM   15  C   UNL     2     -10.089  16.697  66.938  1.00  0.00    -0.280 C  
HETATM   16  O   UNL     2      -9.488  16.473  65.891  1.00  0.00    -0.425 OA 
BRANCH  15  17
HETATM   17  C   UNL     2     -10.620  18.022  67.348  1.00  0.00    -0.365 C  
HETATM   18  S   UNL     2      -9.336  19.219  67.382  1.00  0.00    -0.315 S  
HETATM   19  O   UNL     2      -8.386  18.703  68.363  1.00  0.00    -0.315 OA 
HETATM   20  O   UNL     2     -10.046  20.426  67.804  1.00  0.00    -0.391 OA 
HETATM   21  O   UNL     2      -8.843  19.261  66.005  1.00  0.00    -0.432 OA 
ENDBRANCH  15  17
ENDBRANCH  14  15
ENDBRANCH  13  14
ENDBRANCH  12  13
ENDBRANCH  11  12
ENDBRANCH  10  11
ENDBRANCH   9  10
ENDBRANCH   8   9
ENDBRANCH   7   8
ENDBRANCH   6   7
ENDBRANCH   5   6
ENDBRANCH   4   5
ENDBRANCH   3   4
TORSDOF 13
ENDMDL
MODEL      151
REMARK 921   NORMALIZED FREE ENERGY PREDICTED BY IDOCK:   -3.77 KCAL/MOL
REMARK 922        TOTAL FREE ENERGY PREDICTED BY IDOCK:   -8.20 KCAL/MOL
REMARK 923 INTER-LIGAND FREE ENERGY PREDICTED BY IDOCK:   -7.62 KCAL/MOL
REMARK 924 INTRA-LIGAND FREE ENERGY PREDICTED BY IDOCK:   -0.58 KCAL/MOL
REMARK 927      BINDING AFFINITY PREDICTED BY RF-SCORE:    0.00 PKD
ROOT
HETATM    1 NA   UNL     1     -13.989   9.697  73.634  1.00  0.00    -0.504 Na 
HETATM    2  C   UNL     2     -13.101  12.131  71.977  1.00  0.00    -0.462 C  
HETATM    3  C   UNL     2     -14.105  13.246  72.215  1.00  0.00    -0.451 C  
ENDROOT
BRANCH   3   4
HETATM    4  C   UNL     2     -13.409  14.493  72.749  1.00  0.00    -0.600 C  
BRANCH   4   5
HETATM    5  C   UNL     2     -13.065  15.469  71.627  1.00  0.00    -0.561 C  
BRANCH   5   6
HETATM    6  C   UNL     2     -11.745  15.076  70.969  1.00  0.00    -0.379 C  
BRANCH   6   7
HETATM    7  C   UNL     2     -11.704  15.509  69.508  1.00  0.00    -0.380 C  
BRANCH   7   8
HETATM    8  C   UNL     2     -10.910  16.804  69.356  1.00  0.00    -0.250 C  
BRANCH   8   9
HETATM    9  C   UNL     2      -9.823  16.654  68.298  1.00  0.00    -0.253 C  
BRANCH   9  10
HETATM   10  C   UNL     2     -10.226  17.352  67.000  1.00  0.00    -0.323 C  
BRANCH  10  11
HETATM   11  C   UNL     2      -9.745  16.555  65.792  1.00  0.00    -0.237 C  
BRANCH  11  12
HETATM   12  C   UNL     2      -9.329  15.144  66.191  1.00  0.00    -0.346 C  
BRANCH  12  13
HETATM   13  C   UNL     2     -10.328  14.116  65.669  1.00  0.00    -0.333 C  
BRANCH  13  14
HETATM   14  O   UNL     2     -10.222  12.896  66.409  1.00  0.00    -0.256 OA 
BRANCH  14  15
HETATM   15  C   UNL     2     -11.187  11.962  66.148  1.00  0.00    -0.333 C  
HETATM   16  O   UNL     2     -12.269  12.228  65.634  1.00  0.00    -0.605 OA 
BRANCH  15  17
HETATM   17  C   UNL     2     -10.818  10.641  66.719  1.00  0.00    -0.169 C  
HETATM   18  S   UNL     2     -10.935  10.670  68.470  1.00  0.00    -0.269 S  
HETATM   19  O   UNL     2      -9.991  11.707  68.878  1.00  0.00    -0.168 OA 
HETATM   20  O   UNL     2     -10.535   9.311  68.832  1.00  0.00    -0.210 OA 
HETATM   21  O   UNL     2     -12.341  10.975  68.735  1.00  0.00    -0.533 OA 
ENDBRANCH  15  17
ENDBRANCH  14  15
ENDBRANCH  13  14
ENDBRANCH  12  13
ENDBRANCH  11  12
ENDBRANCH  10  11
ENDBRANCH   9  10
ENDBRANCH   8   9
ENDBRANCH   7   8
ENDBRANCH   6   7
ENDBRANCH   5   6
ENDBRANCH   4   5
ENDBRANCH   3   4
TORSDOF 13
ENDMDL
MODEL      152
REMARK 921   NORMALIZED FREE ENERGY PREDICTED BY IDOCK:   -3.76 KCAL/MOL
REMARK 922        TOTAL FREE ENERGY PREDICTED BY IDOCK:   -8.18 KCAL/MOL
REMARK 923 INTER-LIGAND FREE ENERGY PREDICTED BY IDOCK:   -7.33 KCAL/MOL
REMARK 924 INTRA-LIGAND FREE ENERGY PREDICTED BY IDOCK:   -0.85 KCAL/MOL
REMARK 927      BINDING AFFINITY PREDICTED BY RF-SCORE:    0.00 PKD
ROOT
HETATM    1 NA   UNL     1     -12.261  14.036  62.515  1.00  0.00    -0.925 Na 
HETATM    2  C   UNL     2     -12.688  14.007  65.561  1.00  0.00    -0.517 C  
HETATM    3  C   UNL     2     -11.320  13.949  66.220  1.00  0.00    -0.329 C  
ENDROOT
BRANCH   3   4
HETATM    4  C   UNL     2     -11.129  15.129  67.167  1.00  0.00    -0.335 C  
BRANCH   4   5
HETATM    5  C   UNL     2     -11.329  14.719  68.624  1.00  0.00    -0.305 C  
BRANCH   5   6
HETATM    6  C   UNL     2     -11.523  15.953  69.501  1.00  0.00    -0.342 C  
BRANCH   6   7
HETATM    7  C   UNL     2     -12.278  15.611  70.780  1.00  0.00    -0.463 C  
BRANCH   7   8
HETATM    8  C   UNL     2     -12.364  14.098  70.963  1.00  0.00    -0.438 C  
BRANCH   8   9
HETATM    9  C   UNL     2     -13.402  13.737  72.018  1.00  0.00    -0.536 C  
BRANCH   9  10
HETATM   10  C   UNL     2     -13.639  12.229  72.057  1.00  0.00    -0.306 C  
BRANCH  10  11
HETATM   11  C   UNL     2     -12.880  11.538  70.929  1.00  0.00    -0.293 C  
BRANCH  11  12
HETATM   12  C   UNL     2     -12.621  10.072  71.255  1.00  0.00    -0.495 C  
BRANCH  12  13
HETATM   13  C   UNL     2     -11.148   9.725  71.060  1.00  0.00    -0.361 C  
BRANCH  13  14
HETATM   14  O   UNL     2     -11.014   8.577  70.217  1.00  0.00    -0.242 OA 
BRANCH  14  15
HETATM   15  C   UNL     2      -9.965   8.610  69.338  1.00  0.00    -0.197 C  
HETATM   16  O   UNL     2      -9.379   7.606  68.943  1.00  0.00    -0.146 OA 
BRANCH  15  17
HETATM   17  C   UNL     2      -9.535  10.006  69.072  1.00  0.00    -0.187 C  
HETATM   18  S   UNL     2     -10.106  10.539  67.500  1.00  0.00    -0.199 S  
HETATM   19  O   UNL     2      -9.493   9.607  66.557  1.00  0.00    -0.161 OA 
HETATM   20  O   UNL     2      -9.586  11.904  67.426  1.00  0.00    -0.172 OA 
HETATM   21  O   UNL     2     -11.563  10.455  67.595  1.00  0.00    -0.383 OA 
ENDBRANCH  15  17
ENDBRANCH  14  15
ENDBRANCH  13  14
ENDBRANCH  12  13
ENDBRANCH  11  12
ENDBRANCH  10  11
ENDBRANCH   9  10
ENDBRANCH   8   9
ENDBRANCH   7   8
ENDBRANCH   6   7
ENDBRANCH   5   6
ENDBRANCH   4   5
ENDBRANCH   3   4
TORSDOF 13
ENDMDL
MODEL      153
REMARK 921   NORMALIZED FREE ENERGY PREDICTED BY IDOCK:   -3.76 KCAL/MOL
REMARK 922        TOTAL FREE ENERGY PREDICTED BY IDOCK:   -8.18 KCAL/MOL
REMARK 923 INTER-LIGAND FREE ENERGY PREDICTED BY IDOCK:   -7.15 KCAL/MOL
REMARK 924 INTRA-LIGAND FREE ENERGY PREDICTED BY IDOCK:   -1.03 KCAL/MOL
REMARK 927      BINDING AFFINITY PREDICTED BY RF-SCORE:    0.00 PKD
ROOT
HETATM    1 NA   UNL     1      -8.456  13.046  69.414  1.00  0.00    -0.336 Na 
HETATM    2  C   UNL     2      -8.209  10.019  68.931  1.00  0.00    -0.121 C  
HETATM    3  C   UNL     2      -7.636   9.393  70.193  1.00  0.00    -0.132 C  
ENDROOT
BRANCH   3   4
HETATM    4  C   UNL     2      -8.572   8.316  70.731  1.00  0.00    -0.147 C  
BRANCH   4   5
HETATM    5  C   UNL     2      -9.971   8.866  70.992  1.00  0.00    -0.324 C  
BRANCH   5   6
HETATM    6  C   UNL     2     -10.482   8.393  72.350  1.00  0.00    -0.402 C  
BRANCH   6   7
HETATM    7  C   UNL     2     -12.005   8.422  72.410  1.00  0.00    -0.451 C  
BRANCH   7   8
HETATM    8  C   UNL     2     -12.570   9.268  71.272  1.00  0.00    -0.377 C  
BRANCH   8   9
HETATM    9  C   UNL     2     -13.242  10.526  71.812  1.00  0.00    -0.522 C  
BRANCH   9  10
HETATM   10  C   UNL     2     -12.633  11.779  71.188  1.00  0.00    -0.412 C  
BRANCH  10  11
HETATM   11  C   UNL     2     -13.120  13.030  71.914  1.00  0.00    -0.483 C  
BRANCH  11  12
HETATM   12  C   UNL     2     -12.610  14.296  71.235  1.00  0.00    -0.436 C  
BRANCH  12  13
HETATM   13  C   UNL     2     -12.251  14.022  69.778  1.00  0.00    -0.341 C  
BRANCH  13  14
HETATM   14  O   UNL     2     -11.104  14.786  69.395  1.00  0.00    -0.261 OA 
BRANCH  14  15
HETATM   15  C   UNL     2     -10.924  14.946  68.048  1.00  0.00    -0.279 C  
HETATM   16  O   UNL     2     -10.088  15.701  67.559  1.00  0.00    -0.246 OA 
BRANCH  15  17
HETATM   17  C   UNL     2     -11.973  14.227  67.280  1.00  0.00    -0.405 C  
HETATM   18  S   UNL     2     -11.253  12.993  66.258  1.00  0.00    -0.312 S  
HETATM   19  O   UNL     2     -10.360  13.734  65.371  1.00  0.00    -0.305 OA 
HETATM   20  O   UNL     2     -12.423  12.417  65.596  1.00  0.00    -0.640 OA 
HETATM   21  O   UNL     2     -10.586  12.090  67.196  1.00  0.00    -0.216 OA 
ENDBRANCH  15  17
ENDBRANCH  14  15
ENDBRANCH  13  14
ENDBRANCH  12  13
ENDBRANCH  11  12
ENDBRANCH  10  11
ENDBRANCH   9  10
ENDBRANCH   8   9
ENDBRANCH   7   8
ENDBRANCH   6   7
ENDBRANCH   5   6
ENDBRANCH   4   5
ENDBRANCH   3   4
TORSDOF 13
ENDMDL
MODEL      154
REMARK 921   NORMALIZED FREE ENERGY PREDICTED BY IDOCK:   -3.76 KCAL/MOL
REMARK 922        TOTAL FREE ENERGY PREDICTED BY IDOCK:   -8.18 KCAL/MOL
REMARK 923 INTER-LIGAND FREE ENERGY PREDICTED BY IDOCK:   -7.11 KCAL/MOL
REMARK 924 INTRA-LIGAND FREE ENERGY PREDICTED BY IDOCK:   -1.07 KCAL/MOL
REMARK 927      BINDING AFFINITY PREDICTED BY RF-SCORE:    0.00 PKD
ROOT
HETATM    1 NA   UNL     1     -14.398  12.108  73.010  1.00  0.00    -0.589 Na 
HETATM    2  C   UNL     2     -14.155  14.801  71.545  1.00  0.00    -0.566 C  
HETATM    3  C   UNL     2     -12.794  15.389  71.877  1.00  0.00    -0.474 C  
ENDROOT
BRANCH   3   4
HETATM    4  C   UNL     2     -11.997  15.653  70.604  1.00  0.00    -0.438 C  
BRANCH   4   5
HETATM    5  C   UNL     2     -11.087  14.478  70.256  1.00  0.00    -0.082 C  
BRANCH   5   6
HETATM    6  C   UNL     2     -11.826  13.480  69.369  1.00  0.00    -0.389 C  
BRANCH   6   7
HETATM    7  C   UNL     2     -12.141  12.194  70.124  1.00  0.00    -0.368 C  
BRANCH   7   8
HETATM    8  C   UNL     2     -11.779  10.975  69.280  1.00  0.00    -0.397 C  
BRANCH   8   9
HETATM    9  C   UNL     2     -10.431  11.169  68.595  1.00  0.00    -0.220 C  
BRANCH   9  10
HETATM   10  C   UNL     2     -10.456  10.611  67.174  1.00  0.00    -0.295 C  
BRANCH  10  11
HETATM   11  C   UNL     2     -11.164  11.578  66.231  1.00  0.00    -0.286 C  
BRANCH  11  12
HETATM   12  C   UNL     2     -10.292  11.913  65.027  1.00  0.00    -0.330 C  
BRANCH  12  13
HETATM   13  C   UNL     2     -10.486  13.365  64.603  1.00  0.00    -0.411 C  
BRANCH  13  14
HETATM   14  O   UNL     2     -10.658  14.201  65.751  1.00  0.00    -0.283 OA 
BRANCH  14  15
HETATM   15  C   UNL     2     -10.909  15.521  65.488  1.00  0.00    -0.361 C  
HETATM   16  O   UNL     2     -10.942  15.993  64.355  1.00  0.00    -0.554 OA 
BRANCH  15  17
HETATM   17  C   UNL     2     -10.963  16.314  66.743  1.00  0.00    -0.031 C  
HETATM   18  S   UNL     2      -9.343  16.674  67.316  1.00  0.00    -0.233 S  
HETATM   19  O   UNL     2      -8.739  15.364  67.542  1.00  0.00    -0.165 OA 
HETATM   20  O   UNL     2      -9.607  17.438  68.535  1.00  0.00    -0.277 OA 
HETATM   21  O   UNL     2      -8.742  17.455  66.235  1.00  0.00    -0.358 OA 
ENDBRANCH  15  17
ENDBRANCH  14  15
ENDBRANCH  13  14
ENDBRANCH  12  13
ENDBRANCH  11  12
ENDBRANCH  10  11
ENDBRANCH   9  10
ENDBRANCH   8   9
ENDBRANCH   7   8
ENDBRANCH   6   7
ENDBRANCH   5   6
ENDBRANCH   4   5
ENDBRANCH   3   4
TORSDOF 13
ENDMDL
MODEL      155
REMARK 921   NORMALIZED FREE ENERGY PREDICTED BY IDOCK:   -3.76 KCAL/MOL
REMARK 922        TOTAL FREE ENERGY PREDICTED BY IDOCK:   -8.18 KCAL/MOL
REMARK 923 INTER-LIGAND FREE ENERGY PREDICTED BY IDOCK:   -7.02 KCAL/MOL
REMARK 924 INTRA-LIGAND FREE ENERGY PREDICTED BY IDOCK:   -1.15 KCAL/MOL
REMARK 927      BINDING AFFINITY PREDICTED BY RF-SCORE:    0.00 PKD
ROOT
HETATM    1 NA   UNL     1     -13.406  10.931  72.778  1.00  0.00    -0.594 Na 
HETATM    2  C   UNL     2     -14.282  13.827  72.226  1.00  0.00    -0.563 C  
HETATM    3  C   UNL     2     -13.072  14.725  72.429  1.00  0.00    -0.463 C  
ENDROOT
BRANCH   3   4
HETATM    4  C   UNL     2     -12.780  15.529  71.167  1.00  0.00    -0.525 C  
BRANCH   4   5
HETATM    5  C   UNL     2     -11.509  15.045  70.474  1.00  0.00    -0.333 C  
BRANCH   5   6
HETATM    6  C   UNL     2     -11.858  14.141  69.295  1.00  0.00    -0.381 C  
BRANCH   6   7
HETATM    7  C   UNL     2     -11.742  12.669  69.673  1.00  0.00    -0.373 C  
BRANCH   7   8
HETATM    8  C   UNL     2     -11.907  11.784  68.440  1.00  0.00    -0.347 C  
BRANCH   8   9
HETATM    9  C   UNL     2     -10.750  11.985  67.468  1.00  0.00    -0.262 C  
BRANCH   9  10
HETATM   10  C   UNL     2     -10.961  11.171  66.194  1.00  0.00    -0.203 C  
BRANCH  10  11
HETATM   11  C   UNL     2      -9.834  10.160  66.011  1.00  0.00    -0.308 C  
BRANCH  11  12
HETATM   12  C   UNL     2     -10.197   8.812  66.624  1.00  0.00    -0.340 C  
BRANCH  12  13
HETATM   13  C   UNL     2      -9.215   8.437  67.729  1.00  0.00    -0.131 C  
BRANCH  13  14
HETATM   14  O   UNL     2      -9.890   8.350  68.988  1.00  0.00    -0.174 OA 
BRANCH  14  15
HETATM   15  C   UNL     2      -9.472   9.234  69.945  1.00  0.00    -0.197 C  
HETATM   16  O   UNL     2      -8.935  10.309  69.689  1.00  0.00    -0.190 OA 
BRANCH  15  17
HETATM   17  C   UNL     2      -9.598   8.649  71.304  1.00  0.00    -0.225 C  
HETATM   18  S   UNL     2     -11.288   8.438  71.731  1.00  0.00    -0.325 S  
HETATM   19  O   UNL     2     -11.845   9.787  71.680  1.00  0.00    -0.389 OA 
HETATM   20  O   UNL     2     -11.201   7.869  73.075  1.00  0.00    -0.411 OA 
HETATM   21  O   UNL     2     -11.805   7.517  70.720  1.00  0.00    -0.287 OA 
ENDBRANCH  15  17
ENDBRANCH  14  15
ENDBRANCH  13  14
ENDBRANCH  12  13
ENDBRANCH  11  12
ENDBRANCH  10  11
ENDBRANCH   9  10
ENDBRANCH   8   9
ENDBRANCH   7   8
ENDBRANCH   6   7
ENDBRANCH   5   6
ENDBRANCH   4   5
ENDBRANCH   3   4
TORSDOF 13
ENDMDL
MODEL      156
REMARK 921   NORMALIZED FREE ENERGY PREDICTED BY IDOCK:   -3.75 KCAL/MOL
REMARK 922        TOTAL FREE ENERGY PREDICTED BY IDOCK:   -8.16 KCAL/MOL
REMARK 923 INTER-LIGAND FREE ENERGY PREDICTED BY IDOCK:   -7.33 KCAL/MOL
REMARK 924 INTRA-LIGAND FREE ENERGY PREDICTED BY IDOCK:   -0.83 KCAL/MOL
REMARK 927      BINDING AFFINITY PREDICTED BY RF-SCORE:    0.00 PKD
ROOT
HETATM    1 NA   UNL     1      -7.316   6.389  72.501  1.00  0.00    -0.076 Na 
HETATM    2  C   UNL     2      -9.938   7.033  71.029  1.00  0.00    -0.196 C  
HETATM    3  C   UNL     2     -11.038   6.189  71.651  1.00  0.00    -0.330 C  
ENDROOT
BRANCH   3   4
HETATM    4  C   UNL     2     -12.168   7.074  72.168  1.00  0.00    -0.255 C  
BRANCH   4   5
HETATM    5  C   UNL     2     -13.178   7.395  71.070  1.00  0.00    -0.161 C  
BRANCH   5   6
HETATM    6  C   UNL     2     -14.216   8.392  71.579  1.00  0.00    -0.471 C  
BRANCH   6   7
HETATM    7  C   UNL     2     -13.562   9.508  72.386  1.00  0.00    -0.459 C  
BRANCH   7   8
HETATM    8  C   UNL     2     -13.089  10.629  71.465  1.00  0.00    -0.527 C  
BRANCH   8   9
HETATM    9  C   UNL     2     -11.712  10.316  70.892  1.00  0.00    -0.472 C  
BRANCH   9  10
HETATM   10  C   UNL     2     -11.606  10.784  69.442  1.00  0.00    -0.380 C  
BRANCH  10  11
HETATM   11  C   UNL     2     -11.050   9.672  68.559  1.00  0.00    -0.091 C  
BRANCH  11  12
HETATM   12  C   UNL     2     -10.906  10.135  67.113  1.00  0.00    -0.257 C  
BRANCH  12  13
HETATM   13  C   UNL     2      -9.499  10.661  66.849  1.00  0.00    -0.165 C  
BRANCH  13  14
HETATM   14  O   UNL     2      -9.555  11.882  66.106  1.00  0.00    -0.225 OA 
BRANCH  14  15
HETATM   15  C   UNL     2     -10.169  11.802  64.886  1.00  0.00    -0.273 C  
HETATM   16  O   UNL     2     -10.174  10.789  64.192  1.00  0.00    -0.336 OA 
BRANCH  15  17
HETATM   17  C   UNL     2     -10.668  13.133  64.452  1.00  0.00    -0.407 C  
HETATM   18  S   UNL     2     -12.325  13.373  64.981  1.00  0.00    -0.438 S  
HETATM   19  O   UNL     2     -13.070  12.292  64.341  1.00  0.00    -0.780 OA 
HETATM   20  O   UNL     2     -12.627  14.706  64.462  1.00  0.00    -0.626 OA 
HETATM   21  O   UNL     2     -12.254  13.296  66.440  1.00  0.00    -0.402 OA 
ENDBRANCH  15  17
ENDBRANCH  14  15
ENDBRANCH  13  14
ENDBRANCH  12  13
ENDBRANCH  11  12
ENDBRANCH  10  11
ENDBRANCH   9  10
ENDBRANCH   8   9
ENDBRANCH   7   8
ENDBRANCH   6   7
ENDBRANCH   5   6
ENDBRANCH   4   5
ENDBRANCH   3   4
TORSDOF 13
ENDMDL
MODEL      157
REMARK 921   NORMALIZED FREE ENERGY PREDICTED BY IDOCK:   -3.74 KCAL/MOL
REMARK 922        TOTAL FREE ENERGY PREDICTED BY IDOCK:   -8.15 KCAL/MOL
REMARK 923 INTER-LIGAND FREE ENERGY PREDICTED BY IDOCK:   -6.97 KCAL/MOL
REMARK 924 INTRA-LIGAND FREE ENERGY PREDICTED BY IDOCK:   -1.18 KCAL/MOL
REMARK 927      BINDING AFFINITY PREDICTED BY RF-SCORE:    0.00 PKD
ROOT
HETATM    1 NA   UNL     1     -13.969  11.191  72.904  1.00  0.00    -0.610 Na 
HETATM    2  C   UNL     2     -14.320  14.135  72.089  1.00  0.00    -0.606 C  
HETATM    3  C   UNL     2     -13.004  14.850  72.353  1.00  0.00    -0.439 C  
ENDROOT
BRANCH   3   4
HETATM    4  C   UNL     2     -12.479  15.500  71.077  1.00  0.00    -0.492 C  
BRANCH   4   5
HETATM    5  C   UNL     2     -12.053  14.456  70.049  1.00  0.00    -0.401 C  
BRANCH   5   6
HETATM    6  C   UNL     2     -11.666  15.132  68.736  1.00  0.00    -0.366 C  
BRANCH   6   7
HETATM    7  C   UNL     2     -12.024  14.260  67.538  1.00  0.00    -0.411 C  
BRANCH   7   8
HETATM    8  C   UNL     2     -11.268  14.722  66.295  1.00  0.00    -0.343 C  
BRANCH   8   9
HETATM    9  C   UNL     2     -12.002  14.302  65.026  1.00  0.00    -0.412 C  
BRANCH   9  10
HETATM   10  C   UNL     2     -12.045  12.782  64.899  1.00  0.00    -0.490 C  
BRANCH  10  11
HETATM   11  C   UNL     2     -10.687  12.241  64.464  1.00  0.00    -0.358 C  
BRANCH  11  12
HETATM   12  C   UNL     2     -10.361  10.932  65.173  1.00  0.00    -0.344 C  
BRANCH  12  13
HETATM   13  C   UNL     2     -10.244  11.145  66.679  1.00  0.00    -0.232 C  
BRANCH  13  14
HETATM   14  O   UNL     2     -11.100  10.238  67.379  1.00  0.00    -0.291 OA 
BRANCH  14  15
HETATM   15  C   UNL     2     -10.514   9.546  68.405  1.00  0.00    -0.224 C  
HETATM   16  O   UNL     2     -10.167   8.372  68.321  1.00  0.00    -0.194 OA 
BRANCH  15  17
HETATM   17  C   UNL     2     -10.515  10.346  69.657  1.00  0.00    -0.243 C  
HETATM   18  S   UNL     2     -12.115  10.357  70.381  1.00  0.00    -0.315 S  
HETATM   19  O   UNL     2     -12.969  10.963  69.363  1.00  0.00    -0.088 OA 
HETATM   20  O   UNL     2     -11.912  11.183  71.571  1.00  0.00    -0.027 OA 
HETATM   21  O   UNL     2     -12.394   8.950  70.665  1.00  0.00    -0.083 OA 
ENDBRANCH  15  17
ENDBRANCH  14  15
ENDBRANCH  13  14
ENDBRANCH  12  13
ENDBRANCH  11  12
ENDBRANCH  10  11
ENDBRANCH   9  10
ENDBRANCH   8   9
ENDBRANCH   7   8
ENDBRANCH   6   7
ENDBRANCH   5   6
ENDBRANCH   4   5
ENDBRANCH   3   4
TORSDOF 13
ENDMDL
MODEL      158
REMARK 921   NORMALIZED FREE ENERGY PREDICTED BY IDOCK:   -3.73 KCAL/MOL
REMARK 922        TOTAL FREE ENERGY PREDICTED BY IDOCK:   -8.14 KCAL/MOL
REMARK 923 INTER-LIGAND FREE ENERGY PREDICTED BY IDOCK:   -7.53 KCAL/MOL
REMARK 924 INTRA-LIGAND FREE ENERGY PREDICTED BY IDOCK:   -0.61 KCAL/MOL
REMARK 927      BINDING AFFINITY PREDICTED BY RF-SCORE:    0.00 PKD
ROOT
HETATM    1 NA   UNL     1     -11.246  20.769  70.097  1.00  0.00    -0.862 Na 
HETATM    2  C   UNL     2     -10.718  19.145  67.540  1.00  0.00    -0.555 C  
HETATM    3  C   UNL     2      -9.302  18.598  67.621  1.00  0.00    -0.309 C  
ENDROOT
BRANCH   3   4
HETATM    4  C   UNL     2      -9.304  17.078  67.503  1.00  0.00    -0.233 C  
BRANCH   4   5
HETATM    5  C   UNL     2     -10.714  16.506  67.632  1.00  0.00    -0.311 C  
BRANCH   5   6
HETATM    6  C   UNL     2     -10.682  14.985  67.513  1.00  0.00    -0.284 C  
BRANCH   6   7
HETATM    7  C   UNL     2     -10.540  14.325  68.880  1.00  0.00    -0.252 C  
BRANCH   7   8
HETATM    8  C   UNL     2     -11.416  15.033  69.910  1.00  0.00    -0.320 C  
BRANCH   8   9
HETATM    9  C   UNL     2     -12.651  14.202  70.237  1.00  0.00    -0.367 C  
BRANCH   9  10
HETATM   10  C   UNL     2     -12.576  13.652  71.659  1.00  0.00    -0.343 C  
BRANCH  10  11
HETATM   11  C   UNL     2     -13.331  12.330  71.764  1.00  0.00    -0.353 C  
BRANCH  11  12
HETATM   12  C   UNL     2     -12.527  11.186  71.156  1.00  0.00    -0.498 C  
BRANCH  12  13
HETATM   13  C   UNL     2     -13.324   9.887  71.187  1.00  0.00    -0.301 C  
BRANCH  13  14
HETATM   14  O   UNL     2     -13.062   9.169  72.396  1.00  0.00    -0.420 OA 
BRANCH  14  15
HETATM   15  C   UNL     2     -12.130   8.172  72.300  1.00  0.00    -0.364 C  
HETATM   16  O   UNL     2     -11.131   8.105  73.011  1.00  0.00    -0.331 OA 
BRANCH  15  17
HETATM   17  C   UNL     2     -12.400   7.299  71.129  1.00  0.00    -0.345 C  
HETATM   18  S   UNL     2     -10.944   7.082  70.172  1.00  0.00    -0.283 S  
HETATM   19  O   UNL     2     -10.580   8.433  69.755  1.00  0.00    -0.220 OA 
HETATM   20  O   UNL     2     -11.410   6.219  69.088  1.00  0.00    -0.395 OA 
HETATM   21  O   UNL     2     -10.000   6.442  71.088  1.00  0.00    -0.179 OA 
ENDBRANCH  15  17
ENDBRANCH  14  15
ENDBRANCH  13  14
ENDBRANCH  12  13
ENDBRANCH  11  12
ENDBRANCH  10  11
ENDBRANCH   9  10
ENDBRANCH   8   9
ENDBRANCH   7   8
ENDBRANCH   6   7
ENDBRANCH   5   6
ENDBRANCH   4   5
ENDBRANCH   3   4
TORSDOF 13
ENDMDL
MODEL      159
REMARK 921   NORMALIZED FREE ENERGY PREDICTED BY IDOCK:   -3.73 KCAL/MOL
REMARK 922        TOTAL FREE ENERGY PREDICTED BY IDOCK:   -8.13 KCAL/MOL
REMARK 923 INTER-LIGAND FREE ENERGY PREDICTED BY IDOCK:   -6.79 KCAL/MOL
REMARK 924 INTRA-LIGAND FREE ENERGY PREDICTED BY IDOCK:   -1.34 KCAL/MOL
REMARK 927      BINDING AFFINITY PREDICTED BY RF-SCORE:    0.00 PKD
ROOT
HETATM    1 NA   UNL     1     -10.332   8.739  65.382  1.00  0.00    -0.443 Na 
HETATM    2  C   UNL     2     -11.154   6.372  67.165  1.00  0.00    -0.422 C  
HETATM    3  C   UNL     2      -9.961   5.437  67.273  1.00  0.00    -0.198 C  
ENDROOT
BRANCH   3   4
HETATM    4  C   UNL     2      -9.570   5.230  68.733  1.00  0.00    -0.187 C  
BRANCH   4   5
HETATM    5  C   UNL     2     -10.508   5.977  69.677  1.00  0.00    -0.325 C  
BRANCH   5   6
HETATM    6  C   UNL     2      -9.705   6.813  70.670  1.00  0.00    -0.180 C  
BRANCH   6   7
HETATM    7  C   UNL     2      -8.833   7.838  69.954  1.00  0.00    -0.142 C  
BRANCH   7   8
HETATM    8  C   UNL     2      -9.688   8.972  69.395  1.00  0.00    -0.169 C  
BRANCH   8   9
HETATM    9  C   UNL     2     -10.493   9.642  70.503  1.00  0.00    -0.367 C  
BRANCH   9  10
HETATM   10  C   UNL     2     -11.763  10.279  69.945  1.00  0.00    -0.298 C  
BRANCH  10  11
HETATM   11  C   UNL     2     -11.418  11.376  68.942  1.00  0.00    -0.363 C  
BRANCH  11  12
HETATM   12  C   UNL     2     -11.889  12.740  69.434  1.00  0.00    -0.359 C  
BRANCH  12  13
HETATM   13  C   UNL     2     -12.088  13.698  68.264  1.00  0.00    -0.271 C  
BRANCH  13  14
HETATM   14  O   UNL     2     -11.217  13.353  67.182  1.00  0.00    -0.285 OA 
BRANCH  14  15
HETATM   15  C   UNL     2     -11.627  13.761  65.942  1.00  0.00    -0.333 C  
HETATM   16  O   UNL     2     -12.774  14.118  65.689  1.00  0.00    -0.514 OA 
BRANCH  15  17
HETATM   17  C   UNL     2     -10.559  13.550  64.931  1.00  0.00    -0.397 C  
HETATM   18  S   UNL     2     -10.795  12.025  64.093  1.00  0.00    -0.392 S  
HETATM   19  O   UNL     2     -10.733  11.018  65.148  1.00  0.00    -0.263 OA 
HETATM   20  O   UNL     2      -9.663  12.002  63.166  1.00  0.00    -0.381 OA 
HETATM   21  O   UNL     2     -12.099  12.165  63.446  1.00  0.00    -0.503 OA 
ENDBRANCH  15  17
ENDBRANCH  14  15
ENDBRANCH  13  14
ENDBRANCH  12  13
ENDBRANCH  11  12
ENDBRANCH  10  11
ENDBRANCH   9  10
ENDBRANCH   8   9
ENDBRANCH   7   8
ENDBRANCH   6   7
ENDBRANCH   5   6
ENDBRANCH   4   5
ENDBRANCH   3   4
TORSDOF 13
ENDMDL
MODEL      160
REMARK 921   NORMALIZED FREE ENERGY PREDICTED BY IDOCK:   -3.73 KCAL/MOL
REMARK 922        TOTAL FREE ENERGY PREDICTED BY IDOCK:   -8.12 KCAL/MOL
REMARK 923 INTER-LIGAND FREE ENERGY PREDICTED BY IDOCK:   -6.77 KCAL/MOL
REMARK 924 INTRA-LIGAND FREE ENERGY PREDICTED BY IDOCK:   -1.36 KCAL/MOL
REMARK 927      BINDING AFFINITY PREDICTED BY RF-SCORE:    0.00 PKD
ROOT
HETATM    1 NA   UNL     1     -10.646  11.024  70.099  1.00  0.00    -0.276 Na 
HETATM    2  C   UNL     2      -9.279  12.461  67.748  1.00  0.00    -0.193 C  
HETATM    3  C   UNL     2      -7.777  12.383  67.967  1.00  0.00    -0.135 C  
ENDROOT
BRANCH   3   4
HETATM    4  C   UNL     2      -7.093  11.715  66.778  1.00  0.00    -0.083 C  
BRANCH   4   5
HETATM    5  C   UNL     2      -7.541  10.266  66.614  1.00  0.00    -0.110 C  
BRANCH   5   6
HETATM    6  C   UNL     2      -7.730   9.933  65.137  1.00  0.00    -0.131 C  
BRANCH   6   7
HETATM    7  C   UNL     2      -9.203   9.733  64.799  1.00  0.00    -0.319 C  
BRANCH   7   8
HETATM    8  C   UNL     2      -9.473  10.100  63.342  1.00  0.00    -0.308 C  
BRANCH   8   9
HETATM    9  C   UNL     2     -10.090  11.490  63.238  1.00  0.00    -0.439 C  
BRANCH   9  10
HETATM   10  C   UNL     2     -11.205  11.670  64.264  1.00  0.00    -0.392 C  
BRANCH  10  11
HETATM   11  C   UNL     2     -11.665  13.124  64.307  1.00  0.00    -0.447 C  
BRANCH  11  12
HETATM   12  C   UNL     2     -12.465  13.412  65.573  1.00  0.00    -0.534 C  
BRANCH  12  13
HETATM   13  C   UNL     2     -11.985  14.699  66.236  1.00  0.00    -0.251 C  
BRANCH  13  14
HETATM   14  O   UNL     2     -10.978  15.326  65.437  1.00  0.00    -0.338 OA 
BRANCH  14  15
HETATM   15  C   UNL     2      -9.963  15.927  66.132  1.00  0.00    -0.314 C  
HETATM   16  O   UNL     2      -8.810  15.504  66.152  1.00  0.00    -0.320 OA 
BRANCH  15  17
HETATM   17  C   UNL     2     -10.477  17.035  66.977  1.00  0.00    -0.279 C  
HETATM   18  S   UNL     2     -10.306  18.574  66.147  1.00  0.00    -0.373 S  
HETATM   19  O   UNL     2      -8.870  18.704  65.918  1.00  0.00    -0.475 OA 
HETATM   20  O   UNL     2     -10.851  19.516  67.124  1.00  0.00    -0.491 OA 
HETATM   21  O   UNL     2     -11.115  18.425  64.938  1.00  0.00    -0.560 OA 
ENDBRANCH  15  17
ENDBRANCH  14  15
ENDBRANCH  13  14
ENDBRANCH  12  13
ENDBRANCH  11  12
ENDBRANCH  10  11
ENDBRANCH   9  10
ENDBRANCH   8   9
ENDBRANCH   7   8
ENDBRANCH   6   7
ENDBRANCH   5   6
ENDBRANCH   4   5
ENDBRANCH   3   4
TORSDOF 13
ENDMDL
MODEL      161
REMARK 921   NORMALIZED FREE ENERGY PREDICTED BY IDOCK:   -3.71 KCAL/MOL
REMARK 922        TOTAL FREE ENERGY PREDICTED BY IDOCK:   -8.10 KCAL/MOL
REMARK 923 INTER-LIGAND FREE ENERGY PREDICTED BY IDOCK:   -6.30 KCAL/MOL
REMARK 924 INTRA-LIGAND FREE ENERGY PREDICTED BY IDOCK:   -1.80 KCAL/MOL
REMARK 927      BINDING AFFINITY PREDICTED BY RF-SCORE:    0.00 PKD
ROOT
HETATM    1 NA   UNL     1     -12.949  14.571  67.494  1.00  0.00    -0.611 Na 
HETATM    2  C   UNL     2     -11.079  16.820  68.445  1.00  0.00    -0.266 C  
HETATM    3  C   UNL     2     -10.489  17.485  67.212  1.00  0.00    -0.327 C  
ENDROOT
BRANCH   3   4
HETATM    4  C   UNL     2     -10.800  18.977  67.205  1.00  0.00    -0.473 C  
BRANCH   4   5
HETATM    5  C   UNL     2      -9.727  19.778  67.937  1.00  0.00    -0.503 C  
BRANCH   5   6
HETATM    6  C   UNL     2      -8.554  20.070  67.005  1.00  0.00    -0.399 C  
BRANCH   6   7
HETATM    7  C   UNL     2      -7.262  20.276  67.788  1.00  0.00    -0.336 C  
BRANCH   7   8
HETATM    8  C   UNL     2      -7.152  19.255  68.917  1.00  0.00    -0.385 C  
BRANCH   8   9
HETATM    9  C   UNL     2      -6.201  18.125  68.537  1.00  0.00    -0.199 C  
BRANCH   9  10
HETATM   10  C   UNL     2      -6.306  16.968  69.528  1.00  0.00    -0.235 C  
BRANCH  10  11
HETATM   11  C   UNL     2      -7.509  16.089  69.202  1.00  0.00    -0.216 C  
BRANCH  11  12
HETATM   12  C   UNL     2      -7.458  15.598  67.760  1.00  0.00    -0.163 C  
BRANCH  12  13
HETATM   13  C   UNL     2      -6.977  14.152  67.696  1.00  0.00    -0.184 C  
BRANCH  13  14
HETATM   14  O   UNL     2      -7.910  13.287  68.350  1.00  0.00    -0.132 OA 
BRANCH  14  15
HETATM   15  C   UNL     2      -8.360  12.232  67.604  1.00  0.00    -0.166 C  
HETATM   16  O   UNL     2      -7.663  11.624  66.796  1.00  0.00    -0.156 OA 
BRANCH  15  17
HETATM   17  C   UNL     2      -9.823  12.041  67.778  1.00  0.00    -0.190 C  
HETATM   18  S   UNL     2     -10.693  12.623  66.368  1.00  0.00    -0.259 S  
HETATM   19  O   UNL     2     -10.348  14.040  66.289  1.00  0.00    -0.280 OA 
HETATM   20  O   UNL     2     -12.085  12.359  66.730  1.00  0.00    -0.578 OA 
HETATM   21  O   UNL     2     -10.191  11.802  65.267  1.00  0.00    -0.247 OA 
ENDBRANCH  15  17
ENDBRANCH  14  15
ENDBRANCH  13  14
ENDBRANCH  12  13
ENDBRANCH  11  12
ENDBRANCH  10  11
ENDBRANCH   9  10
ENDBRANCH   8   9
ENDBRANCH   7   8
ENDBRANCH   6   7
ENDBRANCH   5   6
ENDBRANCH   4   5
ENDBRANCH   3   4
TORSDOF 13
ENDMDL
MODEL      162
REMARK 921   NORMALIZED FREE ENERGY PREDICTED BY IDOCK:   -3.70 KCAL/MOL
REMARK 922        TOTAL FREE ENERGY PREDICTED BY IDOCK:   -8.08 KCAL/MOL
REMARK 923 INTER-LIGAND FREE ENERGY PREDICTED BY IDOCK:   -7.22 KCAL/MOL
REMARK 924 INTRA-LIGAND FREE ENERGY PREDICTED BY IDOCK:   -0.86 KCAL/MOL
REMARK 927      BINDING AFFINITY PREDICTED BY RF-SCORE:    0.00 PKD
ROOT
HETATM    1 NA   UNL     1     -12.244   5.109  65.005  1.00  0.00    -0.734 Na 
HETATM    2  C   UNL     2     -10.874   6.121  67.566  1.00  0.00    -0.422 C  
HETATM    3  C   UNL     2      -9.907   7.225  67.170  1.00  0.00    -0.242 C  
ENDROOT
BRANCH   3   4
HETATM    4  C   UNL     2     -10.231   8.516  67.914  1.00  0.00    -0.273 C  
BRANCH   4   5
HETATM    5  C   UNL     2     -10.557   8.252  69.382  1.00  0.00    -0.203 C  
BRANCH   5   6
HETATM    6  C   UNL     2     -10.311   9.508  70.214  1.00  0.00    -0.321 C  
BRANCH   6   7
HETATM    7  C   UNL     2     -11.623  10.164  70.628  1.00  0.00    -0.429 C  
BRANCH   7   8
HETATM    8  C   UNL     2     -11.677  11.609  70.138  1.00  0.00    -0.381 C  
BRANCH   8   9
HETATM    9  C   UNL     2     -12.097  11.671  68.674  1.00  0.00    -0.184 C  
BRANCH   9  10
HETATM   10  C   UNL     2     -11.026  12.356  67.828  1.00  0.00    -0.267 C  
BRANCH  10  11
HETATM   11  C   UNL     2     -10.987  13.852  68.121  1.00  0.00    -0.267 C  
BRANCH  11  12
HETATM   12  C   UNL     2      -9.599  14.429  67.863  1.00  0.00    -0.219 C  
BRANCH  12  13
HETATM   13  C   UNL     2      -9.691  15.881  67.407  1.00  0.00    -0.227 C  
BRANCH  13  14
HETATM   14  O   UNL     2     -10.703  16.027  66.407  1.00  0.00    -0.301 OA 
BRANCH  14  15
HETATM   15  C   UNL     2     -10.604  17.146  65.626  1.00  0.00    -0.179 C  
HETATM   16  O   UNL     2     -11.279  17.333  64.617  1.00  0.00    -1.014 OA 
BRANCH  15  17
HETATM   17  C   UNL     2      -9.472  18.003  66.063  1.00  0.00    -0.040 C  
HETATM   18  S   UNL     2     -10.062  19.531  66.695  1.00  0.00    -0.462 S  
HETATM   19  O   UNL     2     -10.781  20.133  65.575  1.00  0.00    -0.371 OA 
HETATM   20  O   UNL     2      -8.822  20.218  67.056  1.00  0.00    -0.333 OA 
HETATM   21  O   UNL     2     -10.896  19.154  67.835  1.00  0.00    -0.352 OA 
ENDBRANCH  15  17
ENDBRANCH  14  15
ENDBRANCH  13  14
ENDBRANCH  12  13
ENDBRANCH  11  12
ENDBRANCH  10  11
ENDBRANCH   9  10
ENDBRANCH   8   9
ENDBRANCH   7   8
ENDBRANCH   6   7
ENDBRANCH   5   6
ENDBRANCH   4   5
ENDBRANCH   3   4
TORSDOF 13
ENDMDL
MODEL      163
REMARK 921   NORMALIZED FREE ENERGY PREDICTED BY IDOCK:   -3.70 KCAL/MOL
REMARK 922        TOTAL FREE ENERGY PREDICTED BY IDOCK:   -8.07 KCAL/MOL
REMARK 923 INTER-LIGAND FREE ENERGY PREDICTED BY IDOCK:   -7.42 KCAL/MOL
REMARK 924 INTRA-LIGAND FREE ENERGY PREDICTED BY IDOCK:   -0.65 KCAL/MOL
REMARK 927      BINDING AFFINITY PREDICTED BY RF-SCORE:    0.00 PKD
ROOT
HETATM    1 NA   UNL     1      -9.781   7.411  65.565  1.00  0.00    -0.385 Na 
HETATM    2  C   UNL     2     -11.142   6.228  68.057  1.00  0.00    -0.365 C  
HETATM    3  C   UNL     2     -10.070   5.552  68.894  1.00  0.00    -0.266 C  
ENDROOT
BRANCH   3   4
HETATM    4  C   UNL     2     -10.037   6.137  70.302  1.00  0.00    -0.237 C  
BRANCH   4   5
HETATM    5  C   UNL     2     -10.910   7.384  70.412  1.00  0.00    -0.258 C  
BRANCH   5   6
HETATM    6  C   UNL     2     -11.917   7.228  71.549  1.00  0.00    -0.349 C  
BRANCH   6   7
HETATM    7  C   UNL     2     -12.297   8.579  72.142  1.00  0.00    -0.444 C  
BRANCH   7   8
HETATM    8  C   UNL     2     -11.716   9.715  71.304  1.00  0.00    -0.458 C  
BRANCH   8   9
HETATM    9  C   UNL     2     -12.650  10.920  71.300  1.00  0.00    -0.526 C  
BRANCH   9  10
HETATM   10  C   UNL     2     -12.117  12.019  70.384  1.00  0.00    -0.407 C  
BRANCH  10  11
HETATM   11  C   UNL     2     -12.462  13.396  70.942  1.00  0.00    -0.439 C  
BRANCH  11  12
HETATM   12  C   UNL     2     -12.039  14.502  69.982  1.00  0.00    -0.395 C  
BRANCH  12  13
HETATM   13  C   UNL     2     -12.012  13.992  68.545  1.00  0.00    -0.348 C  
BRANCH  13  14
HETATM   14  O   UNL     2     -10.685  14.066  68.014  1.00  0.00    -0.239 OA 
BRANCH  14  15
HETATM   15  C   UNL     2     -10.585  14.562  66.743  1.00  0.00    -0.276 C  
HETATM   16  O   UNL     2     -11.497  14.513  65.921  1.00  0.00    -0.339 OA 
BRANCH  15  17
HETATM   17  C   UNL     2      -9.196  14.999  66.448  1.00  0.00    -0.295 C  
HETATM   18  S   UNL     2      -9.093  16.752  66.422  1.00  0.00    -0.292 S  
HETATM   19  O   UNL     2     -10.013  17.153  65.361  1.00  0.00    -0.547 OA 
HETATM   20  O   UNL     2      -7.681  16.976  66.117  1.00  0.00    -0.307 OA 
HETATM   21  O   UNL     2      -9.490  17.158  67.770  1.00  0.00    -0.247 OA 
ENDBRANCH  15  17
ENDBRANCH  14  15
ENDBRANCH  13  14
ENDBRANCH  12  13
ENDBRANCH  11  12
ENDBRANCH  10  11
ENDBRANCH   9  10
ENDBRANCH   8   9
ENDBRANCH   7   8
ENDBRANCH   6   7
ENDBRANCH   5   6
ENDBRANCH   4   5
ENDBRANCH   3   4
TORSDOF 13
ENDMDL
MODEL      164
REMARK 921   NORMALIZED FREE ENERGY PREDICTED BY IDOCK:   -3.69 KCAL/MOL
REMARK 922        TOTAL FREE ENERGY PREDICTED BY IDOCK:   -8.06 KCAL/MOL
REMARK 923 INTER-LIGAND FREE ENERGY PREDICTED BY IDOCK:   -6.96 KCAL/MOL
REMARK 924 INTRA-LIGAND FREE ENERGY PREDICTED BY IDOCK:   -1.10 KCAL/MOL
REMARK 927      BINDING AFFINITY PREDICTED BY RF-SCORE:    0.00 PKD
ROOT
HETATM    1 NA   UNL     1     -10.763  15.381  67.238  1.00  0.00    -0.258 Na 
HETATM    2  C   UNL     2     -12.802  13.985  65.406  1.00  0.00    -0.442 C  
HETATM    3  C   UNL     2     -12.110  13.685  64.086  1.00  0.00    -0.484 C  
ENDROOT
BRANCH   3   4
HETATM    4  C   UNL     2     -12.168  12.193  63.775  1.00  0.00    -0.630 C  
BRANCH   4   5
HETATM    5  C   UNL     2     -10.779  11.620  63.508  1.00  0.00    -0.495 C  
BRANCH   5   6
HETATM    6  C   UNL     2      -9.926  11.687  64.772  1.00  0.00    -0.292 C  
BRANCH   6   7
HETATM    7  C   UNL     2     -10.506  10.812  65.878  1.00  0.00    -0.270 C  
BRANCH   7   8
HETATM    8  C   UNL     2      -9.882  11.168  67.225  1.00  0.00    -0.198 C  
BRANCH   8   9
HETATM    9  C   UNL     2     -10.564  12.387  67.835  1.00  0.00    -0.231 C  
BRANCH   9  10
HETATM   10  C   UNL     2     -11.890  12.001  68.484  1.00  0.00    -0.369 C  
BRANCH  10  11
HETATM   11  C   UNL     2     -11.664  11.490  69.903  1.00  0.00    -0.420 C  
BRANCH  11  12
HETATM   12  C   UNL     2     -12.883  10.733  70.418  1.00  0.00    -0.285 C  
BRANCH  12  13
HETATM   13  C   UNL     2     -12.570  10.034  71.737  1.00  0.00    -0.409 C  
BRANCH  13  14
HETATM   14  O   UNL     2     -11.362   9.276  71.626  1.00  0.00    -0.358 OA 
BRANCH  14  15
HETATM   15  C   UNL     2     -11.496   7.924  71.792  1.00  0.00    -0.269 C  
HETATM   16  O   UNL     2     -12.105   7.200  71.010  1.00  0.00    -0.333 OA 
BRANCH  15  17
HETATM   17  C   UNL     2     -10.962   7.494  73.111  1.00  0.00    -0.367 C  
HETATM   18  S   UNL     2      -9.222   7.274  73.030  1.00  0.00    -0.164 S  
HETATM   19  O   UNL     2      -9.034   6.238  72.018  1.00  0.00    -0.142 OA 
HETATM   20  O   UNL     2      -8.898   6.854  74.393  1.00  0.00    -0.165 OA 
HETATM   21  O   UNL     2      -8.706   8.594  72.668  1.00  0.00    -0.380 OA 
ENDBRANCH  15  17
ENDBRANCH  14  15
ENDBRANCH  13  14
ENDBRANCH  12  13
ENDBRANCH  11  12
ENDBRANCH  10  11
ENDBRANCH   9  10
ENDBRANCH   8   9
ENDBRANCH   7   8
ENDBRANCH   6   7
ENDBRANCH   5   6
ENDBRANCH   4   5
ENDBRANCH   3   4
TORSDOF 13
ENDMDL
MODEL      165
REMARK 921   NORMALIZED FREE ENERGY PREDICTED BY IDOCK:   -3.69 KCAL/MOL
REMARK 922        TOTAL FREE ENERGY PREDICTED BY IDOCK:   -8.05 KCAL/MOL
REMARK 923 INTER-LIGAND FREE ENERGY PREDICTED BY IDOCK:   -7.24 KCAL/MOL
REMARK 924 INTRA-LIGAND FREE ENERGY PREDICTED BY IDOCK:   -0.81 KCAL/MOL
REMARK 927      BINDING AFFINITY PREDICTED BY RF-SCORE:    0.00 PKD
ROOT
HETATM    1 NA   UNL     1      -8.450  13.038  69.414  1.00  0.00    -0.336 Na 
HETATM    2  C   UNL     2      -8.164  10.011  68.950  1.00  0.00    -0.121 C  
HETATM    3  C   UNL     2      -7.561   9.404  70.205  1.00  0.00    -0.143 C  
ENDROOT
BRANCH   3   4
HETATM    4  C   UNL     2      -8.471   8.316  70.768  1.00  0.00    -0.139 C  
BRANCH   4   5
HETATM    5  C   UNL     2      -9.875   8.846  71.043  1.00  0.00    -0.321 C  
BRANCH   5   6
HETATM    6  C   UNL     2     -10.344   8.410  72.429  1.00  0.00    -0.399 C  
BRANCH   6   7
HETATM    7  C   UNL     2     -11.865   8.412  72.526  1.00  0.00    -0.427 C  
BRANCH   7   8
HETATM    8  C   UNL     2     -12.475   9.174  71.353  1.00  0.00    -0.396 C  
BRANCH   8   9
HETATM    9  C   UNL     2     -13.128  10.468  71.827  1.00  0.00    -0.570 C  
BRANCH   9  10
HETATM   10  C   UNL     2     -12.563  11.671  71.075  1.00  0.00    -0.431 C  
BRANCH  10  11
HETATM   11  C   UNL     2     -13.012  12.972  71.731  1.00  0.00    -0.420 C  
BRANCH  11  12
HETATM   12  C   UNL     2     -12.569  14.182  70.916  1.00  0.00    -0.433 C  
BRANCH  12  13
HETATM   13  C   UNL     2     -12.322  13.796  69.462  1.00  0.00    -0.209 C  
BRANCH  13  14
HETATM   14  O   UNL     2     -11.216  14.532  68.931  1.00  0.00    -0.238 OA 
BRANCH  14  15
HETATM   15  C   UNL     2     -11.140  14.580  67.566  1.00  0.00    -0.307 C  
HETATM   16  O   UNL     2     -12.031  14.180  66.821  1.00  0.00    -0.411 OA 
BRANCH  15  17
HETATM   17  C   UNL     2      -9.790  15.014  67.121  1.00  0.00    -0.233 C  
HETATM   18  S   UNL     2      -9.892  16.512  66.210  1.00  0.00    -0.333 S  
HETATM   19  O   UNL     2     -10.746  16.185  65.072  1.00  0.00    -0.558 OA 
HETATM   20  O   UNL     2      -8.493  16.762  65.866  1.00  0.00    -0.484 OA 
HETATM   21  O   UNL     2     -10.461  17.473  67.155  1.00  0.00    -0.335 OA 
ENDBRANCH  15  17
ENDBRANCH  14  15
ENDBRANCH  13  14
ENDBRANCH  12  13
ENDBRANCH  11  12
ENDBRANCH  10  11
ENDBRANCH   9  10
ENDBRANCH   8   9
ENDBRANCH   7   8
ENDBRANCH   6   7
ENDBRANCH   5   6
ENDBRANCH   4   5
ENDBRANCH   3   4
TORSDOF 13
ENDMDL
MODEL      166
REMARK 921   NORMALIZED FREE ENERGY PREDICTED BY IDOCK:   -3.68 KCAL/MOL
REMARK 922        TOTAL FREE ENERGY PREDICTED BY IDOCK:   -8.05 KCAL/MOL
REMARK 923 INTER-LIGAND FREE ENERGY PREDICTED BY IDOCK:   -7.06 KCAL/MOL
REMARK 924 INTRA-LIGAND FREE ENERGY PREDICTED BY IDOCK:   -0.99 KCAL/MOL
REMARK 927      BINDING AFFINITY PREDICTED BY RF-SCORE:    0.00 PKD
ROOT
HETATM    1 NA   UNL     1     -11.118  11.701  70.772  1.00  0.00    -0.462 Na 
HETATM    2  C   UNL     2      -9.285   9.240  70.570  1.00  0.00    -0.311 C  
HETATM    3  C   UNL     2      -8.970   8.778  71.984  1.00  0.00    -0.227 C  
ENDROOT
BRANCH   3   4
HETATM    4  C   UNL     2      -9.389   7.325  72.181  1.00  0.00    -0.156 C  
BRANCH   4   5
HETATM    5  C   UNL     2     -10.850   7.214  72.604  1.00  0.00    -0.315 C  
BRANCH   5   6
HETATM    6  C   UNL     2     -11.586   6.217  71.713  1.00  0.00    -0.333 C  
BRANCH   6   7
HETATM    7  C   UNL     2     -11.655   6.708  70.272  1.00  0.00    -0.454 C  
BRANCH   7   8
HETATM    8  C   UNL     2     -10.974   5.714  69.334  1.00  0.00    -0.244 C  
BRANCH   8   9
HETATM    9  C   UNL     2      -9.858   6.389  68.544  1.00  0.00    -0.145 C  
BRANCH   9  10
HETATM   10  C   UNL     2     -10.425   7.429  67.581  1.00  0.00    -0.310 C  
BRANCH  10  11
HETATM   11  C   UNL     2      -9.310   8.050  66.745  1.00  0.00    -0.229 C  
BRANCH  11  12
HETATM   12  C   UNL     2      -9.824   9.233  65.932  1.00  0.00    -0.335 C  
BRANCH  12  13
HETATM   13  C   UNL     2      -9.923  10.484  66.800  1.00  0.00    -0.204 C  
BRANCH  13  14
HETATM   14  O   UNL     2     -10.824  11.427  66.213  1.00  0.00    -0.272 OA 
BRANCH  14  15
HETATM   15  C   UNL     2     -10.240  12.518  65.629  1.00  0.00    -0.267 C  
HETATM   16  O   UNL     2      -9.501  13.295  66.228  1.00  0.00    -0.254 OA 
BRANCH  15  17
HETATM   17  C   UNL     2     -10.750  12.723  64.249  1.00  0.00    -0.394 C  
HETATM   18  S   UNL     2     -12.230  13.667  64.271  1.00  0.00    -0.365 S  
HETATM   19  O   UNL     2     -13.157  12.868  65.067  1.00  0.00    -0.794 OA 
HETATM   20  O   UNL     2     -12.567  13.751  62.851  1.00  0.00    -0.611 OA 
HETATM   21  O   UNL     2     -11.837  14.942  64.873  1.00  0.00    -0.374 OA 
ENDBRANCH  15  17
ENDBRANCH  14  15
ENDBRANCH  13  14
ENDBRANCH  12  13
ENDBRANCH  11  12
ENDBRANCH  10  11
ENDBRANCH   9  10
ENDBRANCH   8   9
ENDBRANCH   7   8
ENDBRANCH   6   7
ENDBRANCH   5   6
ENDBRANCH   4   5
ENDBRANCH   3   4
TORSDOF 13
ENDMDL
MODEL      167
REMARK 921   NORMALIZED FREE ENERGY PREDICTED BY IDOCK:   -3.66 KCAL/MOL
REMARK 922        TOTAL FREE ENERGY PREDICTED BY IDOCK:   -8.01 KCAL/MOL
REMARK 923 INTER-LIGAND FREE ENERGY PREDICTED BY IDOCK:   -6.83 KCAL/MOL
REMARK 924 INTRA-LIGAND FREE ENERGY PREDICTED BY IDOCK:   -1.18 KCAL/MOL
REMARK 927      BINDING AFFINITY PREDICTED BY RF-SCORE:    0.00 PKD
ROOT
HETATM    1 NA   UNL     1     -11.146  18.524  64.889  1.00  0.00    -0.532 Na 
HETATM    2  C   UNL     2     -10.531  15.538  65.293  1.00  0.00    -0.437 C  
HETATM    3  C   UNL     2      -9.174  15.431  65.969  1.00  0.00    -0.333 C  
ENDROOT
BRANCH   3   4
HETATM    4  C   UNL     2      -9.285  14.658  67.279  1.00  0.00    -0.212 C  
BRANCH   4   5
HETATM    5  C   UNL     2      -8.496  13.353  67.230  1.00  0.00    -0.205 C  
BRANCH   5   6
HETATM    6  C   UNL     2      -9.253  12.247  67.962  1.00  0.00    -0.195 C  
BRANCH   6   7
HETATM    7  C   UNL     2     -10.544  11.886  67.236  1.00  0.00    -0.261 C  
BRANCH   7   8
HETATM    8  C   UNL     2     -11.680  11.680  68.234  1.00  0.00    -0.374 C  
BRANCH   8   9
HETATM    9  C   UNL     2     -11.785  12.863  69.190  1.00  0.00    -0.376 C  
BRANCH   9  10
HETATM   10  C   UNL     2     -12.404  12.437  70.519  1.00  0.00    -0.346 C  
BRANCH  10  11
HETATM   11  C   UNL     2     -12.122  10.963  70.794  1.00  0.00    -0.469 C  
BRANCH  11  12
HETATM   12  C   UNL     2     -13.198  10.352  71.685  1.00  0.00    -0.502 C  
BRANCH  12  13
HETATM   13  C   UNL     2     -12.704   9.059  72.324  1.00  0.00    -0.387 C  
BRANCH  13  14
HETATM   14  O   UNL     2     -12.266   8.141  71.318  1.00  0.00    -0.300 OA 
BRANCH  14  15
HETATM   15  C   UNL     2     -11.315   7.241  71.714  1.00  0.00    -0.253 C  
HETATM   16  O   UNL     2     -11.222   6.105  71.257  1.00  0.00    -0.283 OA 
BRANCH  15  17
HETATM   17  C   UNL     2     -10.538   7.759  72.870  1.00  0.00    -0.366 C  
HETATM   18  S   UNL     2      -8.907   8.182  72.379  1.00  0.00    -0.216 S  
HETATM   19  O   UNL     2      -8.343   6.931  71.879  1.00  0.00    -0.108 OA 
HETATM   20  O   UNL     2      -8.317   8.654  73.631  1.00  0.00    -0.380 OA 
HETATM   21  O   UNL     2      -9.092   9.225  71.369  1.00  0.00    -0.299 OA 
ENDBRANCH  15  17
ENDBRANCH  14  15
ENDBRANCH  13  14
ENDBRANCH  12  13
ENDBRANCH  11  12
ENDBRANCH  10  11
ENDBRANCH   9  10
ENDBRANCH   8   9
ENDBRANCH   7   8
ENDBRANCH   6   7
ENDBRANCH   5   6
ENDBRANCH   4   5
ENDBRANCH   3   4
TORSDOF 13
ENDMDL
MODEL      168
REMARK 921   NORMALIZED FREE ENERGY PREDICTED BY IDOCK:   -3.65 KCAL/MOL
REMARK 922        TOTAL FREE ENERGY PREDICTED BY IDOCK:   -7.99 KCAL/MOL
REMARK 923 INTER-LIGAND FREE ENERGY PREDICTED BY IDOCK:   -6.08 KCAL/MOL
REMARK 924 INTRA-LIGAND FREE ENERGY PREDICTED BY IDOCK:   -1.91 KCAL/MOL
REMARK 927      BINDING AFFINITY PREDICTED BY RF-SCORE:    0.00 PKD
ROOT
HETATM    1 NA   UNL     1      -9.074  14.001  69.671  1.00  0.00    -0.365 Na 
HETATM    2  C   UNL     2      -6.441  15.430  68.977  1.00  0.00    -0.113 C  
HETATM    3  C   UNL     2      -6.396  15.613  67.469  1.00  0.00    -0.181 C  
ENDROOT
BRANCH   3   4
HETATM    4  C   UNL     2      -6.239  17.087  67.109  1.00  0.00    -0.209 C  
BRANCH   4   5
HETATM    5  C   UNL     2      -7.158  17.485  65.958  1.00  0.00    -0.299 C  
BRANCH   5   6
HETATM    6  C   UNL     2      -7.395  18.993  65.965  1.00  0.00    -0.292 C  
BRANCH   6   7
HETATM    7  C   UNL     2      -6.780  19.644  67.199  1.00  0.00    -0.219 C  
BRANCH   7   8
HETATM    8  C   UNL     2      -7.857  20.323  68.040  1.00  0.00    -0.187 C  
BRANCH   8   9
HETATM    9  C   UNL     2      -9.183  20.369  67.289  1.00  0.00    -0.525 C  
BRANCH   9  10
HETATM   10  C   UNL     2     -10.301  19.741  68.118  1.00  0.00    -0.561 C  
BRANCH  10  11
HETATM   11  C   UNL     2     -10.882  18.526  67.401  1.00  0.00    -0.342 C  
BRANCH  11  12
HETATM   12  C   UNL     2     -10.253  17.233  67.908  1.00  0.00    -0.332 C  
BRANCH  12  13
HETATM   13  C   UNL     2     -10.679  16.048  67.048  1.00  0.00    -0.277 C  
BRANCH  13  14
HETATM   14  O   UNL     2     -11.340  15.063  67.848  1.00  0.00    -0.310 OA 
BRANCH  14  15
HETATM   15  C   UNL     2     -11.674  13.905  67.200  1.00  0.00    -0.388 C  
HETATM   16  O   UNL     2     -12.358  13.869  66.181  1.00  0.00    -0.452 OA 
BRANCH  15  17
HETATM   17  C   UNL     2     -11.249  12.715  67.981  1.00  0.00    -0.265 C  
HETATM   18  S   UNL     2      -9.850  11.956  67.238  1.00  0.00    -0.187 S  
HETATM   19  O   UNL     2     -10.309  11.579  65.904  1.00  0.00    -0.232 OA 
HETATM   20  O   UNL     2      -9.596  10.828  68.133  1.00  0.00    -0.153 OA 
HETATM   21  O   UNL     2      -8.818  12.992  67.268  1.00  0.00    -0.190 OA 
ENDBRANCH  15  17
ENDBRANCH  14  15
ENDBRANCH  13  14
ENDBRANCH  12  13
ENDBRANCH  11  12
ENDBRANCH  10  11
ENDBRANCH   9  10
ENDBRANCH   8   9
ENDBRANCH   7   8
ENDBRANCH   6   7
ENDBRANCH   5   6
ENDBRANCH   4   5
ENDBRANCH   3   4
TORSDOF 13
ENDMDL
MODEL      169
REMARK 921   NORMALIZED FREE ENERGY PREDICTED BY IDOCK:   -3.64 KCAL/MOL
REMARK 922        TOTAL FREE ENERGY PREDICTED BY IDOCK:   -7.97 KCAL/MOL
REMARK 923 INTER-LIGAND FREE ENERGY PREDICTED BY IDOCK:   -6.59 KCAL/MOL
REMARK 924 INTRA-LIGAND FREE ENERGY PREDICTED BY IDOCK:   -1.38 KCAL/MOL
REMARK 927      BINDING AFFINITY PREDICTED BY RF-SCORE:    0.00 PKD
ROOT
HETATM    1 NA   UNL     1     -11.650   9.444  67.711  1.00  0.00    -0.507 Na 
HETATM    2  C   UNL     2     -11.011  11.915  65.995  1.00  0.00    -0.355 C  
HETATM    3  C   UNL     2     -12.003  13.006  66.365  1.00  0.00    -0.466 C  
ENDROOT
BRANCH   3   4
HETATM    4  C   UNL     2     -11.274  14.261  66.831  1.00  0.00    -0.333 C  
BRANCH   4   5
HETATM    5  C   UNL     2     -11.817  14.764  68.165  1.00  0.00    -0.318 C  
BRANCH   5   6
HETATM    6  C   UNL     2     -11.135  14.040  69.323  1.00  0.00    -0.271 C  
BRANCH   6   7
HETATM    7  C   UNL     2     -12.111  13.132  70.061  1.00  0.00    -0.375 C  
BRANCH   7   8
HETATM    8  C   UNL     2     -11.746  11.665  69.846  1.00  0.00    -0.414 C  
BRANCH   8   9
HETATM    9  C   UNL     2     -12.891  10.753  70.270  1.00  0.00    -0.226 C  
BRANCH   9  10
HETATM   10  C   UNL     2     -12.734  10.321  71.726  1.00  0.00    -0.535 C  
BRANCH  10  11
HETATM   11  C   UNL     2     -12.591   8.806  71.824  1.00  0.00    -0.409 C  
BRANCH  11  12
HETATM   12  C   UNL     2     -11.255   8.416  72.446  1.00  0.00    -0.438 C  
BRANCH  12  13
HETATM   13  C   UNL     2     -10.473   7.493  71.517  1.00  0.00    -0.204 C  
BRANCH  13  14
HETATM   14  O   UNL     2     -11.228   7.221  70.332  1.00  0.00    -0.269 OA 
BRANCH  14  15
HETATM   15  C   UNL     2     -10.808   6.145  69.599  1.00  0.00    -0.356 C  
HETATM   16  O   UNL     2     -10.337   5.126  70.097  1.00  0.00    -0.273 OA 
BRANCH  15  17
HETATM   17  C   UNL     2     -10.842   6.445  68.144  1.00  0.00    -0.308 C  
HETATM   18  S   UNL     2      -9.353   7.226  67.640  1.00  0.00    -0.129 S  
HETATM   19  O   UNL     2      -9.300   8.451  68.433  1.00  0.00    -0.136 OA 
HETATM   20  O   UNL     2      -9.582   7.439  66.211  1.00  0.00    -0.149 OA 
HETATM   21  O   UNL     2      -8.309   6.247  67.943  1.00  0.00    -0.117 OA 
ENDBRANCH  15  17
ENDBRANCH  14  15
ENDBRANCH  13  14
ENDBRANCH  12  13
ENDBRANCH  11  12
ENDBRANCH  10  11
ENDBRANCH   9  10
ENDBRANCH   8   9
ENDBRANCH   7   8
ENDBRANCH   6   7
ENDBRANCH   5   6
ENDBRANCH   4   5
ENDBRANCH   3   4
TORSDOF 13
ENDMDL
MODEL      170
REMARK 921   NORMALIZED FREE ENERGY PREDICTED BY IDOCK:   -3.64 KCAL/MOL
REMARK 922        TOTAL FREE ENERGY PREDICTED BY IDOCK:   -7.97 KCAL/MOL
REMARK 923 INTER-LIGAND FREE ENERGY PREDICTED BY IDOCK:   -6.43 KCAL/MOL
REMARK 924 INTRA-LIGAND FREE ENERGY PREDICTED BY IDOCK:   -1.54 KCAL/MOL
REMARK 927      BINDING AFFINITY PREDICTED BY RF-SCORE:    0.00 PKD
ROOT
HETATM    1 NA   UNL     1      -6.055   8.298  69.347  1.00  0.00    -0.031 Na 
HETATM    2  C   UNL     2      -8.211  10.260  68.369  1.00  0.00    -0.114 C  
HETATM    3  C   UNL     2      -9.180   9.486  67.491  1.00  0.00    -0.142 C  
ENDROOT
BRANCH   3   4
HETATM    4  C   UNL     2     -10.603   9.601  68.027  1.00  0.00    -0.292 C  
BRANCH   4   5
HETATM    5  C   UNL     2     -10.646   9.446  69.544  1.00  0.00    -0.237 C  
BRANCH   5   6
HETATM    6  C   UNL     2     -11.587  10.481  70.157  1.00  0.00    -0.408 C  
BRANCH   6   7
HETATM    7  C   UNL     2     -12.091  11.462  69.105  1.00  0.00    -0.331 C  
BRANCH   7   8
HETATM    8  C   UNL     2     -11.929  12.900  69.592  1.00  0.00    -0.358 C  
BRANCH   8   9
HETATM    9  C   UNL     2     -11.587  13.830  68.435  1.00  0.00    -0.369 C  
BRANCH   9  10
HETATM   10  C   UNL     2     -11.450  13.050  67.130  1.00  0.00    -0.379 C  
BRANCH  10  11
HETATM   11  C   UNL     2     -10.043  13.200  66.560  1.00  0.00    -0.280 C  
BRANCH  11  12
HETATM   12  C   UNL     2      -9.078  13.741  67.609  1.00  0.00    -0.196 C  
BRANCH  12  13
HETATM   13  C   UNL     2      -8.123  14.759  66.993  1.00  0.00    -0.144 C  
BRANCH  13  14
HETATM   14  O   UNL     2      -8.826  15.624  66.097  1.00  0.00    -0.321 OA 
BRANCH  14  15
HETATM   15  C   UNL     2      -8.533  16.956  66.211  1.00  0.00    -0.287 C  
HETATM   16  O   UNL     2      -7.512  17.467  65.758  1.00  0.00    -0.490 OA 
BRANCH  15  17
HETATM   17  C   UNL     2      -9.514  17.646  67.087  1.00  0.00    -0.267 C  
HETATM   18  S   UNL     2     -10.302  18.955  66.221  1.00  0.00    -0.457 S  
HETATM   19  O   UNL     2      -9.209  19.847  65.842  1.00  0.00    -0.343 OA 
HETATM   20  O   UNL     2     -11.204  19.499  67.234  1.00  0.00    -0.353 OA 
HETATM   21  O   UNL     2     -10.978  18.295  65.104  1.00  0.00    -0.628 OA 
ENDBRANCH  15  17
ENDBRANCH  14  15
ENDBRANCH  13  14
ENDBRANCH  12  13
ENDBRANCH  11  12
ENDBRANCH  10  11
ENDBRANCH   9  10
ENDBRANCH   8   9
ENDBRANCH   7   8
ENDBRANCH   6   7
ENDBRANCH   5   6
ENDBRANCH   4   5
ENDBRANCH   3   4
TORSDOF 13
ENDMDL
MODEL      171
REMARK 921   NORMALIZED FREE ENERGY PREDICTED BY IDOCK:   -3.64 KCAL/MOL
REMARK 922        TOTAL FREE ENERGY PREDICTED BY IDOCK:   -7.96 KCAL/MOL
REMARK 923 INTER-LIGAND FREE ENERGY PREDICTED BY IDOCK:   -7.14 KCAL/MOL
REMARK 924 INTRA-LIGAND FREE ENERGY PREDICTED BY IDOCK:   -0.82 KCAL/MOL
REMARK 927      BINDING AFFINITY PREDICTED BY RF-SCORE:    0.00 PKD
ROOT
HETATM    1 NA   UNL     1      -6.207  20.495  70.922  1.00  0.00    -0.311 Na 
HETATM    2  C   UNL     2      -6.218  20.620  67.850  1.00  0.00    -0.337 C  
HETATM    3  C   UNL     2      -7.079  19.476  67.342  1.00  0.00    -0.240 C  
ENDROOT
BRANCH   3   4
HETATM    4  C   UNL     2      -8.211  20.002  66.466  1.00  0.00    -0.347 C  
BRANCH   4   5
HETATM    5  C   UNL     2      -9.433  20.385  67.296  1.00  0.00    -0.568 C  
BRANCH   5   6
HETATM    6  C   UNL     2     -10.493  19.290  67.216  1.00  0.00    -0.566 C  
BRANCH   6   7
HETATM    7  C   UNL     2     -10.180  18.296  66.104  1.00  0.00    -0.393 C  
BRANCH   7   8
HETATM    8  C   UNL     2     -10.240  16.865  66.633  1.00  0.00    -0.312 C  
BRANCH   8   9
HETATM    9  C   UNL     2      -9.135  16.616  67.653  1.00  0.00    -0.207 C  
BRANCH   9  10
HETATM   10  C   UNL     2      -9.618  15.687  68.764  1.00  0.00    -0.215 C  
BRANCH  10  11
HETATM   11  C   UNL     2     -10.768  16.326  69.535  1.00  0.00    -0.323 C  
BRANCH  11  12
HETATM   12  C   UNL     2     -11.762  15.275  70.016  1.00  0.00    -0.344 C  
BRANCH  12  13
HETATM   13  C   UNL     2     -11.588  13.971  69.244  1.00  0.00    -0.309 C  
BRANCH  13  14
HETATM   14  O   UNL     2     -11.918  12.853  70.073  1.00  0.00    -0.334 OA 
BRANCH  14  15
HETATM   15  C   UNL     2     -11.751  11.622  69.498  1.00  0.00    -0.344 C  
HETATM   16  O   UNL     2     -12.027  11.377  68.327  1.00  0.00    -0.566 OA 
BRANCH  15  17
HETATM   17  C   UNL     2     -11.363  10.608  70.512  1.00  0.00    -0.267 C  
HETATM   18  S   UNL     2     -12.758  10.111  71.455  1.00  0.00    -0.462 S  
HETATM   19  O   UNL     2     -13.224  11.342  72.087  1.00  0.00    -0.490 OA 
HETATM   20  O   UNL     2     -12.178   9.137  72.379  1.00  0.00    -0.307 OA 
HETATM   21  O   UNL     2     -13.674   9.536  70.471  1.00  0.00     0.099 OA 
ENDBRANCH  15  17
ENDBRANCH  14  15
ENDBRANCH  13  14
ENDBRANCH  12  13
ENDBRANCH  11  12
ENDBRANCH  10  11
ENDBRANCH   9  10
ENDBRANCH   8   9
ENDBRANCH   7   8
ENDBRANCH   6   7
ENDBRANCH   5   6
ENDBRANCH   4   5
ENDBRANCH   3   4
TORSDOF 13
ENDMDL
MODEL      172
REMARK 921   NORMALIZED FREE ENERGY PREDICTED BY IDOCK:   -3.63 KCAL/MOL
REMARK 922        TOTAL FREE ENERGY PREDICTED BY IDOCK:   -7.96 KCAL/MOL
REMARK 923 INTER-LIGAND FREE ENERGY PREDICTED BY IDOCK:   -6.34 KCAL/MOL
REMARK 924 INTRA-LIGAND FREE ENERGY PREDICTED BY IDOCK:   -1.61 KCAL/MOL
REMARK 927      BINDING AFFINITY PREDICTED BY RF-SCORE:    0.00 PKD
ROOT
HETATM    1 NA   UNL     1     -12.761  12.683  66.871  1.00  0.00    -0.274 Na 
HETATM    2  C   UNL     2     -11.724  12.072  69.702  1.00  0.00    -0.405 C  
HETATM    3  C   UNL     2     -12.027  10.614  70.002  1.00  0.00    -0.408 C  
ENDROOT
BRANCH   3   4
HETATM    4  C   UNL     2     -10.749   9.858  70.350  1.00  0.00    -0.379 C  
BRANCH   4   5
HETATM    5  C   UNL     2     -10.995   8.356  70.456  1.00  0.00    -0.258 C  
BRANCH   5   6
HETATM    6  C   UNL     2      -9.978   7.591  69.613  1.00  0.00    -0.184 C  
BRANCH   6   7
HETATM    7  C   UNL     2     -10.667   6.644  68.638  1.00  0.00    -0.303 C  
BRANCH   7   8
HETATM    8  C   UNL     2     -10.830   7.306  67.273  1.00  0.00    -0.354 C  
BRANCH   8   9
HETATM    9  C   UNL     2      -9.473   7.586  66.639  1.00  0.00    -0.246 C  
BRANCH   9  10
HETATM   10  C   UNL     2      -9.501   8.888  65.842  1.00  0.00    -0.303 C  
BRANCH  10  11
HETATM   11  C   UNL     2      -9.986  10.041  66.716  1.00  0.00    -0.267 C  
BRANCH  11  12
HETATM   12  C   UNL     2     -10.378  11.247  65.870  1.00  0.00    -0.304 C  
BRANCH  12  13
HETATM   13  C   UNL     2      -9.683  12.509  66.371  1.00  0.00    -0.249 C  
BRANCH  13  14
HETATM   14  O   UNL     2     -10.650  13.492  66.755  1.00  0.00    -0.269 OA 
BRANCH  14  15
HETATM   15  C   UNL     2     -10.650  14.641  66.013  1.00  0.00    -0.309 C  
HETATM   16  O   UNL     2     -10.404  14.674  64.810  1.00  0.00    -0.396 OA 
BRANCH  15  17
HETATM   17  C   UNL     2     -10.814  15.836  66.880  1.00  0.00    -0.265 C  
HETATM   18  S   UNL     2      -9.265  16.616  67.157  1.00  0.00    -0.227 S  
HETATM   19  O   UNL     2      -8.457  15.592  67.813  1.00  0.00    -0.147 OA 
HETATM   20  O   UNL     2      -9.633  17.740  68.018  1.00  0.00    -0.273 OA 
HETATM   21  O   UNL     2      -8.811  17.003  65.822  1.00  0.00    -0.523 OA 
ENDBRANCH  15  17
ENDBRANCH  14  15
ENDBRANCH  13  14
ENDBRANCH  12  13
ENDBRANCH  11  12
ENDBRANCH  10  11
ENDBRANCH   9  10
ENDBRANCH   8   9
ENDBRANCH   7   8
ENDBRANCH   6   7
ENDBRANCH   5   6
ENDBRANCH   4   5
ENDBRANCH   3   4
TORSDOF 13
ENDMDL
MODEL      173
REMARK 921   NORMALIZED FREE ENERGY PREDICTED BY IDOCK:   -3.63 KCAL/MOL
REMARK 922        TOTAL FREE ENERGY PREDICTED BY IDOCK:   -7.95 KCAL/MOL
REMARK 923 INTER-LIGAND FREE ENERGY PREDICTED BY IDOCK:   -6.79 KCAL/MOL
REMARK 924 INTRA-LIGAND FREE ENERGY PREDICTED BY IDOCK:   -1.16 KCAL/MOL
REMARK 927      BINDING AFFINITY PREDICTED BY RF-SCORE:    0.00 PKD
ROOT
HETATM    1 NA   UNL     1      -7.926  11.362  64.372  1.00  0.00    -0.354 Na 
HETATM    2  C   UNL     2      -8.285   8.380  65.033  1.00  0.00    -0.155 C  
HETATM    3  C   UNL     2      -8.058   8.205  66.525  1.00  0.00    -0.106 C  
ENDROOT
BRANCH   3   4
HETATM    4  C   UNL     2      -9.277   7.569  67.184  1.00  0.00    -0.161 C  
BRANCH   4   5
HETATM    5  C   UNL     2     -10.510   8.460  67.063  1.00  0.00    -0.375 C  
BRANCH   5   6
HETATM    6  C   UNL     2     -10.591   9.418  68.249  1.00  0.00    -0.256 C  
BRANCH   6   7
HETATM    7  C   UNL     2     -10.917  10.836  67.795  1.00  0.00    -0.354 C  
BRANCH   7   8
HETATM    8  C   UNL     2     -10.619  11.004  66.308  1.00  0.00    -0.295 C  
BRANCH   8   9
HETATM    9  C   UNL     2     -11.398  12.178  65.727  1.00  0.00    -0.402 C  
BRANCH   9  10
HETATM   10  C   UNL     2     -11.888  13.108  66.834  1.00  0.00    -0.444 C  
BRANCH  10  11
HETATM   11  C   UNL     2     -11.965  14.546  66.332  1.00  0.00    -0.350 C  
BRANCH  11  12
HETATM   12  C   UNL     2     -10.866  14.835  65.315  1.00  0.00    -0.395 C  
BRANCH  12  13
HETATM   13  C   UNL     2      -9.813  15.767  65.905  1.00  0.00    -0.349 C  
BRANCH  13  14
HETATM   14  O   UNL     2     -10.111  17.128  65.578  1.00  0.00    -0.576 OA 
BRANCH  14  15
HETATM   15  C   UNL     2     -10.206  17.983  66.642  1.00  0.00    -0.373 C  
HETATM   16  O   UNL     2     -10.893  17.759  67.635  1.00  0.00    -0.363 OA 
BRANCH  15  17
HETATM   17  C   UNL     2      -9.516  19.267  66.357  1.00  0.00    -0.365 C  
HETATM   18  S   UNL     2      -8.004  19.365  67.245  1.00  0.00    -0.270 S  
HETATM   19  O   UNL     2      -8.402  19.276  68.648  1.00  0.00    -0.357 OA 
HETATM   20  O   UNL     2      -7.491  20.675  66.843  1.00  0.00    -0.296 OA 
HETATM   21  O   UNL     2      -7.219  18.234  66.751  1.00  0.00    -0.198 OA 
ENDBRANCH  15  17
ENDBRANCH  14  15
ENDBRANCH  13  14
ENDBRANCH  12  13
ENDBRANCH  11  12
ENDBRANCH  10  11
ENDBRANCH   9  10
ENDBRANCH   8   9
ENDBRANCH   7   8
ENDBRANCH   6   7
ENDBRANCH   5   6
ENDBRANCH   4   5
ENDBRANCH   3   4
TORSDOF 13
ENDMDL
MODEL      174
REMARK 921   NORMALIZED FREE ENERGY PREDICTED BY IDOCK:   -3.63 KCAL/MOL
REMARK 922        TOTAL FREE ENERGY PREDICTED BY IDOCK:   -7.95 KCAL/MOL
REMARK 923 INTER-LIGAND FREE ENERGY PREDICTED BY IDOCK:   -6.88 KCAL/MOL
REMARK 924 INTRA-LIGAND FREE ENERGY PREDICTED BY IDOCK:   -1.07 KCAL/MOL
REMARK 927      BINDING AFFINITY PREDICTED BY RF-SCORE:    0.00 PKD
ROOT
HETATM    1 NA   UNL     1     -14.159  12.172  72.912  1.00  0.00    -0.600 Na 
HETATM    2  C   UNL     2     -13.098   9.971  71.043  1.00  0.00    -0.435 C  
HETATM    3  C   UNL     2     -12.276   9.007  71.882  1.00  0.00    -0.451 C  
ENDROOT
BRANCH   3   4
HETATM    4  C   UNL     2     -12.821   7.588  71.761  1.00  0.00    -0.359 C  
BRANCH   4   5
HETATM    5  C   UNL     2     -11.894   6.698  70.939  1.00  0.00    -0.434 C  
BRANCH   5   6
HETATM    6  C   UNL     2     -10.445   7.151  71.097  1.00  0.00    -0.225 C  
BRANCH   6   7
HETATM    7  C   UNL     2      -9.668   6.988  69.796  1.00  0.00    -0.168 C  
BRANCH   7   8
HETATM    8  C   UNL     2     -10.410   7.656  68.642  1.00  0.00    -0.220 C  
BRANCH   8   9
HETATM    9  C   UNL     2     -10.235   9.170  68.688  1.00  0.00    -0.225 C  
BRANCH   9  10
HETATM   10  C   UNL     2     -10.476   9.788  67.313  1.00  0.00    -0.324 C  
BRANCH  10  11
HETATM   11  C   UNL     2     -11.377  11.014  67.426  1.00  0.00    -0.306 C  
BRANCH  11  12
HETATM   12  C   UNL     2     -11.224  11.925  66.214  1.00  0.00    -0.392 C  
BRANCH  12  13
HETATM   13  C   UNL     2     -11.916  13.264  66.450  1.00  0.00    -0.410 C  
BRANCH  13  14
HETATM   14  O   UNL     2     -11.265  13.983  67.502  1.00  0.00    -0.289 OA 
BRANCH  14  15
HETATM   15  C   UNL     2     -10.165  14.707  67.128  1.00  0.00    -0.256 C  
HETATM   16  O   UNL     2      -9.013  14.299  67.245  1.00  0.00    -0.192 OA 
BRANCH  15  17
HETATM   17  C   UNL     2     -10.544  16.088  66.733  1.00  0.00    -0.297 C  
HETATM   18  S   UNL     2     -10.101  17.232  67.989  1.00  0.00    -0.343 S  
HETATM   19  O   UNL     2     -10.852  16.791  69.161  1.00  0.00    -0.324 OA 
HETATM   20  O   UNL     2     -10.553  18.504  67.424  1.00  0.00    -0.408 OA 
HETATM   21  O   UNL     2      -8.649  17.105  68.100  1.00  0.00    -0.218 OA 
ENDBRANCH  15  17
ENDBRANCH  14  15
ENDBRANCH  13  14
ENDBRANCH  12  13
ENDBRANCH  11  12
ENDBRANCH  10  11
ENDBRANCH   9  10
ENDBRANCH   8   9
ENDBRANCH   7   8
ENDBRANCH   6   7
ENDBRANCH   5   6
ENDBRANCH   4   5
ENDBRANCH   3   4
TORSDOF 13
ENDMDL
MODEL      175
REMARK 921   NORMALIZED FREE ENERGY PREDICTED BY IDOCK:   -3.62 KCAL/MOL
REMARK 922        TOTAL FREE ENERGY PREDICTED BY IDOCK:   -7.94 KCAL/MOL
REMARK 923 INTER-LIGAND FREE ENERGY PREDICTED BY IDOCK:   -7.08 KCAL/MOL
REMARK 924 INTRA-LIGAND FREE ENERGY PREDICTED BY IDOCK:   -0.86 KCAL/MOL
REMARK 927      BINDING AFFINITY PREDICTED BY RF-SCORE:    0.00 PKD
ROOT
HETATM    1 NA   UNL     1     -12.818  14.307  62.583  1.00  0.00    -0.835 Na 
HETATM    2  C   UNL     2     -10.630  13.362  64.527  1.00  0.00    -0.441 C  
HETATM    3  C   UNL     2     -10.131  14.577  65.291  1.00  0.00    -0.389 C  
ENDROOT
BRANCH   3   4
HETATM    4  C   UNL     2     -10.289  14.372  66.793  1.00  0.00    -0.273 C  
BRANCH   4   5
HETATM    5  C   UNL     2     -11.747  14.499  67.227  1.00  0.00    -0.429 C  
BRANCH   5   6
HETATM    6  C   UNL     2     -12.010  13.637  68.459  1.00  0.00    -0.396 C  
BRANCH   6   7
HETATM    7  C   UNL     2     -10.960  12.543  68.605  1.00  0.00    -0.291 C  
BRANCH   7   8
HETATM    8  C   UNL     2     -11.581  11.169  68.368  1.00  0.00    -0.376 C  
BRANCH   8   9
HETATM    9  C   UNL     2     -11.344  10.253  69.563  1.00  0.00    -0.299 C  
BRANCH   9  10
HETATM   10  C   UNL     2     -12.074  10.770  70.800  1.00  0.00    -0.473 C  
BRANCH  10  11
HETATM   11  C   UNL     2     -12.334   9.635  71.785  1.00  0.00    -0.474 C  
BRANCH  11  12
HETATM   12  C   UNL     2     -11.219   8.596  71.735  1.00  0.00    -0.396 C  
BRANCH  12  13
HETATM   13  C   UNL     2     -11.792   7.183  71.788  1.00  0.00    -0.303 C  
BRANCH  13  14
HETATM   14  O   UNL     2     -12.184   6.755  70.480  1.00  0.00    -0.363 OA 
BRANCH  14  15
HETATM   15  C   UNL     2     -11.161   6.398  69.644  1.00  0.00    -0.418 C  
HETATM   16  O   UNL     2     -11.047   6.814  68.495  1.00  0.00    -0.213 OA 
BRANCH  15  17
HETATM   17  C   UNL     2     -10.325   5.329  70.250  1.00  0.00    -0.280 C  
HETATM   18  S   UNL     2      -8.620   5.711  70.083  1.00  0.00    -0.128 S  
HETATM   19  O   UNL     2      -8.407   5.797  68.641  1.00  0.00    -0.106 OA 
HETATM   20  O   UNL     2      -7.980   4.561  70.721  1.00  0.00    -0.066 OA 
HETATM   21  O   UNL     2      -8.457   6.970  70.809  1.00  0.00    -0.131 OA 
ENDBRANCH  15  17
ENDBRANCH  14  15
ENDBRANCH  13  14
ENDBRANCH  12  13
ENDBRANCH  11  12
ENDBRANCH  10  11
ENDBRANCH   9  10
ENDBRANCH   8   9
ENDBRANCH   7   8
ENDBRANCH   6   7
ENDBRANCH   5   6
ENDBRANCH   4   5
ENDBRANCH   3   4
TORSDOF 13
ENDMDL
MODEL      176
REMARK 921   NORMALIZED FREE ENERGY PREDICTED BY IDOCK:   -3.61 KCAL/MOL
REMARK 922        TOTAL FREE ENERGY PREDICTED BY IDOCK:   -7.92 KCAL/MOL
REMARK 923 INTER-LIGAND FREE ENERGY PREDICTED BY IDOCK:   -6.84 KCAL/MOL
REMARK 924 INTRA-LIGAND FREE ENERGY PREDICTED BY IDOCK:   -1.08 KCAL/MOL
REMARK 927      BINDING AFFINITY PREDICTED BY RF-SCORE:    0.00 PKD
ROOT
HETATM    1 NA   UNL     1     -12.814  10.890  62.341  1.00  0.00    -1.000 Na 
HETATM    2  C   UNL     2      -9.851  10.958  63.164  1.00  0.00    -0.392 C  
HETATM    3  C   UNL     2      -9.711  10.171  64.456  1.00  0.00    -0.361 C  
ENDROOT
BRANCH   3   4
HETATM    4  C   UNL     2      -8.704   9.038  64.290  1.00  0.00    -0.140 C  
BRANCH   4   5
HETATM    5  C   UNL     2      -8.187   8.543  65.638  1.00  0.00    -0.130 C  
BRANCH   5   6
HETATM    6  C   UNL     2      -8.622   7.099  65.875  1.00  0.00    -0.157 C  
BRANCH   6   7
HETATM    7  C   UNL     2      -8.249   6.632  67.277  1.00  0.00    -0.121 C  
BRANCH   7   8
HETATM    8  C   UNL     2      -9.472   6.073  67.999  1.00  0.00    -0.113 C  
BRANCH   8   9
HETATM    9  C   UNL     2     -10.607   7.091  68.013  1.00  0.00    -0.260 C  
BRANCH   9  10
HETATM   10  C   UNL     2     -10.322   8.211  69.010  1.00  0.00    -0.229 C  
BRANCH  10  11
HETATM   11  C   UNL     2     -10.425   9.573  68.332  1.00  0.00    -0.261 C  
BRANCH  11  12
HETATM   12  C   UNL     2     -11.048  10.608  69.263  1.00  0.00    -0.306 C  
BRANCH  12  13
HETATM   13  C   UNL     2     -11.354  11.899  68.512  1.00  0.00    -0.276 C  
BRANCH  13  14
HETATM   14  O   UNL     2     -12.060  11.616  67.300  1.00  0.00    -0.595 OA 
BRANCH  14  15
HETATM   15  C   UNL     2     -11.699  12.370  66.216  1.00  0.00    -0.395 C  
HETATM   16  O   UNL     2     -12.338  12.403  65.168  1.00  0.00    -0.524 OA 
BRANCH  15  17
HETATM   17  C   UNL     2     -10.365  12.992  66.420  1.00  0.00    -0.281 C  
HETATM   18  S   UNL     2     -10.409  14.697  66.001  1.00  0.00    -0.322 S  
HETATM   19  O   UNL     2     -10.793  14.714  64.593  1.00  0.00    -0.385 OA 
HETATM   20  O   UNL     2      -9.032  15.116  66.259  1.00  0.00    -0.289 OA 
HETATM   21  O   UNL     2     -11.394  15.270  66.918  1.00  0.00    -0.307 OA 
ENDBRANCH  15  17
ENDBRANCH  14  15
ENDBRANCH  13  14
ENDBRANCH  12  13
ENDBRANCH  11  12
ENDBRANCH  10  11
ENDBRANCH   9  10
ENDBRANCH   8   9
ENDBRANCH   7   8
ENDBRANCH   6   7
ENDBRANCH   5   6
ENDBRANCH   4   5
ENDBRANCH   3   4
TORSDOF 13
ENDMDL
MODEL      177
REMARK 921   NORMALIZED FREE ENERGY PREDICTED BY IDOCK:   -3.61 KCAL/MOL
REMARK 922        TOTAL FREE ENERGY PREDICTED BY IDOCK:   -7.91 KCAL/MOL
REMARK 923 INTER-LIGAND FREE ENERGY PREDICTED BY IDOCK:   -6.65 KCAL/MOL
REMARK 924 INTRA-LIGAND FREE ENERGY PREDICTED BY IDOCK:   -1.26 KCAL/MOL
REMARK 927      BINDING AFFINITY PREDICTED BY RF-SCORE:    0.00 PKD
ROOT
HETATM    1 NA   UNL     1      -7.186   8.656  72.196  1.00  0.00    -0.075 Na 
HETATM    2  C   UNL     2      -9.442   8.567  70.107  1.00  0.00    -0.169 C  
HETATM    3  C   UNL     2      -9.426   7.189  69.465  1.00  0.00    -0.151 C  
ENDROOT
BRANCH   3   4
HETATM    4  C   UNL     2     -10.778   6.503  69.629  1.00  0.00    -0.323 C  
BRANCH   4   5
HETATM    5  C   UNL     2     -10.814   5.621  70.874  1.00  0.00    -0.294 C  
BRANCH   5   6
HETATM    6  C   UNL     2     -11.682   6.263  71.954  1.00  0.00    -0.370 C  
BRANCH   6   7
HETATM    7  C   UNL     2     -12.699   7.224  71.349  1.00  0.00    -0.427 C  
BRANCH   7   8
HETATM    8  C   UNL     2     -12.568   8.608  71.977  1.00  0.00    -0.434 C  
BRANCH   8   9
HETATM    9  C   UNL     2     -13.332   9.648  71.165  1.00  0.00    -0.344 C  
BRANCH   9  10
HETATM   10  C   UNL     2     -13.067  11.055  71.695  1.00  0.00    -0.543 C  
BRANCH  10  11
HETATM   11  C   UNL     2     -12.059  11.780  70.809  1.00  0.00    -0.352 C  
BRANCH  11  12
HETATM   12  C   UNL     2     -12.022  11.179  69.408  1.00  0.00    -0.420 C  
BRANCH  12  13
HETATM   13  C   UNL     2     -11.740  12.254  68.364  1.00  0.00    -0.337 C  
BRANCH  13  14
HETATM   14  O   UNL     2     -12.094  11.787  67.059  1.00  0.00    -0.575 OA 
BRANCH  14  15
HETATM   15  C   UNL     2     -11.360  12.306  66.027  1.00  0.00    -0.350 C  
HETATM   16  O   UNL     2     -11.857  12.750  64.996  1.00  0.00    -0.341 OA 
BRANCH  15  17
HETATM   17  C   UNL     2      -9.905  12.104  66.252  1.00  0.00    -0.234 C  
HETATM   18  S   UNL     2      -9.354  10.644  65.446  1.00  0.00    -0.226 S  
HETATM   19  O   UNL     2     -10.139   9.575  66.057  1.00  0.00    -0.295 OA 
HETATM   20  O   UNL     2      -7.932  10.621  65.785  1.00  0.00    -0.159 OA 
HETATM   21  O   UNL     2      -9.631  10.885  64.030  1.00  0.00    -0.232 OA 
ENDBRANCH  15  17
ENDBRANCH  14  15
ENDBRANCH  13  14
ENDBRANCH  12  13
ENDBRANCH  11  12
ENDBRANCH  10  11
ENDBRANCH   9  10
ENDBRANCH   8   9
ENDBRANCH   7   8
ENDBRANCH   6   7
ENDBRANCH   5   6
ENDBRANCH   4   5
ENDBRANCH   3   4
TORSDOF 13
ENDMDL
MODEL      178
REMARK 921   NORMALIZED FREE ENERGY PREDICTED BY IDOCK:   -3.60 KCAL/MOL
REMARK 922        TOTAL FREE ENERGY PREDICTED BY IDOCK:   -7.89 KCAL/MOL
REMARK 923 INTER-LIGAND FREE ENERGY PREDICTED BY IDOCK:   -6.66 KCAL/MOL
REMARK 924 INTRA-LIGAND FREE ENERGY PREDICTED BY IDOCK:   -1.23 KCAL/MOL
REMARK 927      BINDING AFFINITY PREDICTED BY RF-SCORE:    0.00 PKD
ROOT
HETATM    1 NA   UNL     1      -9.091  11.949  64.226  1.00  0.00    -0.360 Na 
HETATM    2  C   UNL     2      -8.888   8.905  64.617  1.00  0.00    -0.098 C  
HETATM    3  C   UNL     2      -8.312   8.653  66.001  1.00  0.00    -0.135 C  
ENDROOT
BRANCH   3   4
HETATM    4  C   UNL     2      -9.257   7.786  66.827  1.00  0.00    -0.202 C  
BRANCH   4   5
HETATM    5  C   UNL     2      -8.809   7.697  68.283  1.00  0.00    -0.125 C  
BRANCH   5   6
HETATM    6  C   UNL     2      -9.977   8.003  69.217  1.00  0.00    -0.191 C  
BRANCH   6   7
HETATM    7  C   UNL     2      -9.856   9.399  69.817  1.00  0.00    -0.218 C  
BRANCH   7   8
HETATM    8  C   UNL     2     -10.806  10.367  69.117  1.00  0.00    -0.274 C  
BRANCH   8   9
HETATM    9  C   UNL     2     -10.061  11.213  68.091  1.00  0.00    -0.193 C  
BRANCH   9  10
HETATM   10  C   UNL     2     -10.910  11.426  66.840  1.00  0.00    -0.335 C  
BRANCH  10  11
HETATM   11  C   UNL     2     -11.775  12.675  66.986  1.00  0.00    -0.438 C  
BRANCH  11  12
HETATM   12  C   UNL     2     -12.334  13.119  65.639  1.00  0.00    -0.519 C  
BRANCH  12  13
HETATM   13  C   UNL     2     -12.250  14.634  65.489  1.00  0.00    -0.199 C  
BRANCH  13  14
HETATM   14  O   UNL     2     -10.920  15.089  65.756  1.00  0.00    -0.333 OA 
BRANCH  14  15
HETATM   15  C   UNL     2     -10.635  16.360  65.335  1.00  0.00    -0.320 C  
HETATM   16  O   UNL     2     -11.155  16.883  64.353  1.00  0.00    -1.128 OA 
BRANCH  15  17
HETATM   17  C   UNL     2      -9.509  16.939  66.112  1.00  0.00    -0.245 C  
HETATM   18  S   UNL     2     -10.109  18.050  67.333  1.00  0.00    -0.366 S  
HETATM   19  O   UNL     2     -10.813  19.078  66.572  1.00  0.00    -0.354 OA 
HETATM   20  O   UNL     2      -8.875  18.507  67.970  1.00  0.00    -0.284 OA 
HETATM   21  O   UNL     2     -10.958  17.223  68.189  1.00  0.00    -0.347 OA 
ENDBRANCH  15  17
ENDBRANCH  14  15
ENDBRANCH  13  14
ENDBRANCH  12  13
ENDBRANCH  11  12
ENDBRANCH  10  11
ENDBRANCH   9  10
ENDBRANCH   8   9
ENDBRANCH   7   8
ENDBRANCH   6   7
ENDBRANCH   5   6
ENDBRANCH   4   5
ENDBRANCH   3   4
TORSDOF 13
ENDMDL
MODEL      179
REMARK 921   NORMALIZED FREE ENERGY PREDICTED BY IDOCK:   -3.58 KCAL/MOL
REMARK 922        TOTAL FREE ENERGY PREDICTED BY IDOCK:   -7.87 KCAL/MOL
REMARK 923 INTER-LIGAND FREE ENERGY PREDICTED BY IDOCK:   -7.29 KCAL/MOL
REMARK 924 INTRA-LIGAND FREE ENERGY PREDICTED BY IDOCK:   -0.58 KCAL/MOL
REMARK 927      BINDING AFFINITY PREDICTED BY RF-SCORE:    0.00 PKD
ROOT
HETATM    1 NA   UNL     1     -11.139  20.809  70.063  1.00  0.00    -0.782 Na 
HETATM    2  C   UNL     2     -10.910  18.972  67.607  1.00  0.00    -0.439 C  
HETATM    3  C   UNL     2      -9.434  18.702  67.365  1.00  0.00    -0.315 C  
ENDROOT
BRANCH   3   4
HETATM    4  C   UNL     2      -9.151  17.204  67.385  1.00  0.00    -0.226 C  
BRANCH   4   5
HETATM    5  C   UNL     2      -9.544  16.540  66.068  1.00  0.00    -0.323 C  
BRANCH   5   6
HETATM    6  C   UNL     2      -9.884  15.070  66.295  1.00  0.00    -0.307 C  
BRANCH   6   7
HETATM    7  C   UNL     2     -11.240  14.913  66.973  1.00  0.00    -0.344 C  
BRANCH   7   8
HETATM    8  C   UNL     2     -12.119  13.938  66.195  1.00  0.00    -0.478 C  
BRANCH   8   9
HETATM    9  C   UNL     2     -11.780  12.496  66.555  1.00  0.00    -0.454 C  
BRANCH   9  10
HETATM   10  C   UNL     2     -11.762  12.302  68.069  1.00  0.00    -0.417 C  
BRANCH  10  11
HETATM   11  C   UNL     2     -11.197  10.932  68.428  1.00  0.00    -0.347 C  
BRANCH  11  12
HETATM   12  C   UNL     2     -11.603  10.520  69.839  1.00  0.00    -0.384 C  
BRANCH  12  13
HETATM   13  C   UNL     2     -10.865   9.257  70.269  1.00  0.00    -0.246 C  
BRANCH  13  14
HETATM   14  O   UNL     2     -11.756   8.362  70.942  1.00  0.00    -0.284 OA 
BRANCH  14  15
HETATM   15  C   UNL     2     -11.530   7.030  70.725  1.00  0.00    -0.318 C  
HETATM   16  O   UNL     2     -11.306   6.550  69.618  1.00  0.00    -0.368 OA 
BRANCH  15  17
HETATM   17  C   UNL     2     -11.759   6.242  71.964  1.00  0.00    -0.322 C  
HETATM   18  S   UNL     2     -10.323   6.248  72.974  1.00  0.00    -0.226 S  
HETATM   19  O   UNL     2      -9.291   5.638  72.140  1.00  0.00    -0.146 OA 
HETATM   20  O   UNL     2     -10.741   5.433  74.114  1.00  0.00    -0.274 OA 
HETATM   21  O   UNL     2     -10.109   7.660  73.290  1.00  0.00    -0.291 OA 
ENDBRANCH  15  17
ENDBRANCH  14  15
ENDBRANCH  13  14
ENDBRANCH  12  13
ENDBRANCH  11  12
ENDBRANCH  10  11
ENDBRANCH   9  10
ENDBRANCH   8   9
ENDBRANCH   7   8
ENDBRANCH   6   7
ENDBRANCH   5   6
ENDBRANCH   4   5
ENDBRANCH   3   4
TORSDOF 13
ENDMDL
MODEL      180
REMARK 921   NORMALIZED FREE ENERGY PREDICTED BY IDOCK:   -3.57 KCAL/MOL
REMARK 922        TOTAL FREE ENERGY PREDICTED BY IDOCK:   -7.84 KCAL/MOL
REMARK 923 INTER-LIGAND FREE ENERGY PREDICTED BY IDOCK:   -7.01 KCAL/MOL
REMARK 924 INTRA-LIGAND FREE ENERGY PREDICTED BY IDOCK:   -0.83 KCAL/MOL
REMARK 927      BINDING AFFINITY PREDICTED BY RF-SCORE:    0.00 PKD
ROOT
HETATM    1 NA   UNL     1     -12.140   5.183  64.978  1.00  0.00    -0.761 Na 
HETATM    2  C   UNL     2     -10.994   6.831  67.309  1.00  0.00    -0.433 C  
HETATM    3  C   UNL     2     -10.038   7.857  66.725  1.00  0.00    -0.352 C  
ENDROOT
BRANCH   3   4
HETATM    4  C   UNL     2     -10.456   9.269  67.121  1.00  0.00    -0.319 C  
BRANCH   4   5
HETATM    5  C   UNL     2     -10.720   9.378  68.620  1.00  0.00    -0.196 C  
BRANCH   5   6
HETATM    6  C   UNL     2     -10.484  10.809  69.098  1.00  0.00    -0.243 C  
BRANCH   6   7
HETATM    7  C   UNL     2     -11.798  11.563  69.257  1.00  0.00    -0.414 C  
BRANCH   7   8
HETATM    8  C   UNL     2     -11.713  12.935  68.593  1.00  0.00    -0.359 C  
BRANCH   8   9
HETATM    9  C   UNL     2     -11.857  12.815  67.080  1.00  0.00    -0.428 C  
BRANCH   9  10
HETATM   10  C   UNL     2     -10.733  13.562  66.365  1.00  0.00    -0.287 C  
BRANCH  10  11
HETATM   11  C   UNL     2     -10.585  14.972  66.925  1.00  0.00    -0.297 C  
BRANCH  11  12
HETATM   12  C   UNL     2      -9.138  15.264  67.309  1.00  0.00    -0.210 C  
BRANCH  12  13
HETATM   13  C   UNL     2      -8.774  16.711  66.990  1.00  0.00    -0.200 C  
BRANCH  13  14
HETATM   14  O   UNL     2      -8.970  17.540  68.139  1.00  0.00    -0.251 OA 
BRANCH  14  15
HETATM   15  C   UNL     2      -9.231  18.858  67.879  1.00  0.00    -0.303 C  
HETATM   16  O   UNL     2      -9.866  19.587  68.635  1.00  0.00    -0.398 OA 
BRANCH  15  17
HETATM   17  C   UNL     2      -8.796  19.226  66.507  1.00  0.00    -0.346 C  
HETATM   18  S   UNL     2      -7.243  20.046  66.550  1.00  0.00    -0.267 S  
HETATM   19  O   UNL     2      -7.483  21.232  67.368  1.00  0.00    -0.450 OA 
HETATM   20  O   UNL     2      -6.999  20.325  65.136  1.00  0.00    -0.309 OA 
HETATM   21  O   UNL     2      -6.332  19.064  67.136  1.00  0.00    -0.186 OA 
ENDBRANCH  15  17
ENDBRANCH  14  15
ENDBRANCH  13  14
ENDBRANCH  12  13
ENDBRANCH  11  12
ENDBRANCH  10  11
ENDBRANCH   9  10
ENDBRANCH   8   9
ENDBRANCH   7   8
ENDBRANCH   6   7
ENDBRANCH   5   6
ENDBRANCH   4   5
ENDBRANCH   3   4
TORSDOF 13
ENDMDL
MODEL      181
REMARK 921   NORMALIZED FREE ENERGY PREDICTED BY IDOCK:   -3.56 KCAL/MOL
REMARK 922        TOTAL FREE ENERGY PREDICTED BY IDOCK:   -7.83 KCAL/MOL
REMARK 923 INTER-LIGAND FREE ENERGY PREDICTED BY IDOCK:   -7.05 KCAL/MOL
REMARK 924 INTRA-LIGAND FREE ENERGY PREDICTED BY IDOCK:   -0.78 KCAL/MOL
REMARK 927      BINDING AFFINITY PREDICTED BY RF-SCORE:    0.00 PKD
ROOT
HETATM    1 NA   UNL     1     -11.102  20.426  70.233  1.00  0.00    -0.755 Na 
HETATM    2  C   UNL     2     -10.472  19.086  67.537  1.00  0.00    -0.537 C  
HETATM    3  C   UNL     2      -9.703  17.807  67.823  1.00  0.00    -0.285 C  
ENDROOT
BRANCH   3   4
HETATM    4  C   UNL     2     -10.422  16.601  67.227  1.00  0.00    -0.313 C  
BRANCH   4   5
HETATM    5  C   UNL     2      -9.658  16.022  66.040  1.00  0.00    -0.385 C  
BRANCH   5   6
HETATM    6  C   UNL     2     -10.632  15.487  64.993  1.00  0.00    -0.435 C  
BRANCH   6   7
HETATM    7  C   UNL     2     -11.748  14.674  65.639  1.00  0.00    -0.304 C  
BRANCH   7   8
HETATM    8  C   UNL     2     -12.310  13.656  64.650  1.00  0.00    -0.413 C  
BRANCH   8   9
HETATM    9  C   UNL     2     -11.275  12.585  64.325  1.00  0.00    -0.407 C  
BRANCH   9  10
HETATM   10  C   UNL     2     -11.085  11.635  65.505  1.00  0.00    -0.297 C  
BRANCH  10  11
HETATM   11  C   UNL     2      -9.680  11.770  66.082  1.00  0.00    -0.250 C  
BRANCH  11  12
HETATM   12  C   UNL     2      -9.633  11.311  67.535  1.00  0.00    -0.181 C  
BRANCH  12  13
HETATM   13  C   UNL     2     -10.966  10.699  67.953  1.00  0.00    -0.295 C  
BRANCH  13  14
HETATM   14  O   UNL     2     -10.939  10.344  69.339  1.00  0.00    -0.219 OA 
BRANCH  14  15
HETATM   15  C   UNL     2     -10.570   9.054  69.610  1.00  0.00    -0.224 C  
HETATM   16  O   UNL     2     -10.543   8.163  68.766  1.00  0.00    -0.200 OA 
BRANCH  15  17
HETATM   17  C   UNL     2     -10.378   8.850  71.069  1.00  0.00    -0.253 C  
HETATM   18  S   UNL     2     -11.640   7.816  71.719  1.00  0.00    -0.286 S  
HETATM   19  O   UNL     2     -12.878   8.540  71.443  1.00  0.00    -0.310 OA 
HETATM   20  O   UNL     2     -11.284   7.744  73.136  1.00  0.00    -0.402 OA 
HETATM   21  O   UNL     2     -11.485   6.556  70.994  1.00  0.00    -0.302 OA 
ENDBRANCH  15  17
ENDBRANCH  14  15
ENDBRANCH  13  14
ENDBRANCH  12  13
ENDBRANCH  11  12
ENDBRANCH  10  11
ENDBRANCH   9  10
ENDBRANCH   8   9
ENDBRANCH   7   8
ENDBRANCH   6   7
ENDBRANCH   5   6
ENDBRANCH   4   5
ENDBRANCH   3   4
TORSDOF 13
ENDMDL
MODEL      182
REMARK 921   NORMALIZED FREE ENERGY PREDICTED BY IDOCK:   -3.55 KCAL/MOL
REMARK 922        TOTAL FREE ENERGY PREDICTED BY IDOCK:   -7.81 KCAL/MOL
REMARK 923 INTER-LIGAND FREE ENERGY PREDICTED BY IDOCK:   -7.02 KCAL/MOL
REMARK 924 INTRA-LIGAND FREE ENERGY PREDICTED BY IDOCK:   -0.79 KCAL/MOL
REMARK 927      BINDING AFFINITY PREDICTED BY RF-SCORE:    0.00 PKD
ROOT
HETATM    1 NA   UNL     1     -13.249  14.082  67.545  1.00  0.00    -0.358 Na 
HETATM    2  C   UNL     2     -12.160  11.510  68.833  1.00  0.00    -0.270 C  
HETATM    3  C   UNL     2     -11.731  11.847  70.251  1.00  0.00    -0.293 C  
ENDROOT
BRANCH   3   4
HETATM    4  C   UNL     2     -12.461  10.965  71.259  1.00  0.00    -0.493 C  
BRANCH   4   5
HETATM    5  C   UNL     2     -13.507  11.754  72.040  1.00  0.00    -0.319 C  
BRANCH   5   6
HETATM    6  C   UNL     2     -12.928  13.088  72.506  1.00  0.00    -0.132 C  
BRANCH   6   7
HETATM    7  C   UNL     2     -13.956  14.207  72.395  1.00  0.00    -0.613 C  
BRANCH   7   8
HETATM    8  C   UNL     2     -13.593  15.158  71.257  1.00  0.00    -0.559 C  
BRANCH   8   9
HETATM    9  C   UNL     2     -12.401  16.029  71.637  1.00  0.00    -0.472 C  
BRANCH   9  10
HETATM   10  C   UNL     2     -11.190  15.707  70.765  1.00  0.00    -0.396 C  
BRANCH  10  11
HETATM   11  C   UNL     2     -11.631  15.099  69.438  1.00  0.00    -0.343 C  
BRANCH  11  12
HETATM   12  C   UNL     2     -10.447  14.912  68.496  1.00  0.00    -0.242 C  
BRANCH  12  13
HETATM   13  C   UNL     2     -10.121  16.213  67.769  1.00  0.00    -0.250 C  
BRANCH  13  14
HETATM   14  O   UNL     2      -8.759  16.211  67.330  1.00  0.00    -0.175 OA 
BRANCH  14  15
HETATM   15  C   UNL     2      -8.390  17.271  66.548  1.00  0.00    -0.277 C  
HETATM   16  O   UNL     2      -7.440  17.244  65.770  1.00  0.00    -0.404 OA 
BRANCH  15  17
HETATM   17  C   UNL     2      -9.175  18.485  66.889  1.00  0.00    -0.290 C  
HETATM   18  S   UNL     2      -8.173  19.922  66.769  1.00  0.00    -0.331 S  
HETATM   19  O   UNL     2      -7.099  19.696  67.732  1.00  0.00    -0.243 OA 
HETATM   20  O   UNL     2      -9.107  20.985  67.142  1.00  0.00    -0.204 OA 
HETATM   21  O   UNL     2      -7.753  19.954  65.368  1.00  0.00    -0.356 OA 
ENDBRANCH  15  17
ENDBRANCH  14  15
ENDBRANCH  13  14
ENDBRANCH  12  13
ENDBRANCH  11  12
ENDBRANCH  10  11
ENDBRANCH   9  10
ENDBRANCH   8   9
ENDBRANCH   7   8
ENDBRANCH   6   7
ENDBRANCH   5   6
ENDBRANCH   4   5
ENDBRANCH   3   4
TORSDOF 13
ENDMDL
MODEL      183
REMARK 921   NORMALIZED FREE ENERGY PREDICTED BY IDOCK:   -3.55 KCAL/MOL
REMARK 922        TOTAL FREE ENERGY PREDICTED BY IDOCK:   -7.80 KCAL/MOL
REMARK 923 INTER-LIGAND FREE ENERGY PREDICTED BY IDOCK:   -6.49 KCAL/MOL
REMARK 924 INTRA-LIGAND FREE ENERGY PREDICTED BY IDOCK:   -1.31 KCAL/MOL
REMARK 927      BINDING AFFINITY PREDICTED BY RF-SCORE:    0.00 PKD
ROOT
HETATM    1 NA   UNL     1      -6.215  19.170  70.976  1.00  0.00    -0.219 Na 
HETATM    2  C   UNL     2      -6.179  20.559  68.232  1.00  0.00    -0.351 C  
HETATM    3  C   UNL     2      -6.377  19.492  67.169  1.00  0.00    -0.200 C  
ENDROOT
BRANCH   3   4
HETATM    4  C   UNL     2      -7.592  19.811  66.305  1.00  0.00    -0.320 C  
BRANCH   4   5
HETATM    5  C   UNL     2      -8.754  20.337  67.143  1.00  0.00    -0.429 C  
BRANCH   5   6
HETATM    6  C   UNL     2      -9.714  19.203  67.491  1.00  0.00    -0.386 C  
BRANCH   6   7
HETATM    7  C   UNL     2     -10.509  18.756  66.269  1.00  0.00    -0.489 C  
BRANCH   7   8
HETATM    8  C   UNL     2     -10.425  17.241  66.101  1.00  0.00    -0.279 C  
BRANCH   8   9
HETATM    9  C   UNL     2      -8.975  16.787  65.982  1.00  0.00    -0.220 C  
BRANCH   9  10
HETATM   10  C   UNL     2      -8.714  15.562  66.855  1.00  0.00    -0.281 C  
BRANCH  10  11
HETATM   11  C   UNL     2      -7.942  15.953  68.111  1.00  0.00    -0.137 C  
BRANCH  11  12
HETATM   12  C   UNL     2      -8.607  15.395  69.364  1.00  0.00    -0.249 C  
BRANCH  12  13
HETATM   13  C   UNL     2     -10.051  15.876  69.472  1.00  0.00    -0.277 C  
BRANCH  13  14
HETATM   14  O   UNL     2     -10.916  14.787  69.806  1.00  0.00    -0.261 OA 
BRANCH  14  15
HETATM   15  C   UNL     2     -11.617  14.248  68.762  1.00  0.00    -0.322 C  
HETATM   16  O   UNL     2     -12.036  14.906  67.813  1.00  0.00    -0.321 OA 
BRANCH  15  17
HETATM   17  C   UNL     2     -11.942  12.821  69.017  1.00  0.00    -0.242 C  
HETATM   18  S   UNL     2     -11.328  11.807  67.722  1.00  0.00    -0.299 S  
HETATM   19  O   UNL     2     -12.004  12.299  66.525  1.00  0.00    -0.596 OA 
HETATM   20  O   UNL     2     -11.746  10.472  68.148  1.00  0.00    -0.431 OA 
HETATM   21  O   UNL     2      -9.881  12.022  67.749  1.00  0.00    -0.182 OA 
ENDBRANCH  15  17
ENDBRANCH  14  15
ENDBRANCH  13  14
ENDBRANCH  12  13
ENDBRANCH  11  12
ENDBRANCH  10  11
ENDBRANCH   9  10
ENDBRANCH   8   9
ENDBRANCH   7   8
ENDBRANCH   6   7
ENDBRANCH   5   6
ENDBRANCH   4   5
ENDBRANCH   3   4
TORSDOF 13
ENDMDL
MODEL      184
REMARK 921   NORMALIZED FREE ENERGY PREDICTED BY IDOCK:   -3.54 KCAL/MOL
REMARK 922        TOTAL FREE ENERGY PREDICTED BY IDOCK:   -7.80 KCAL/MOL
REMARK 923 INTER-LIGAND FREE ENERGY PREDICTED BY IDOCK:   -6.54 KCAL/MOL
REMARK 924 INTRA-LIGAND FREE ENERGY PREDICTED BY IDOCK:   -1.26 KCAL/MOL
REMARK 927      BINDING AFFINITY PREDICTED BY RF-SCORE:    0.00 PKD
ROOT
HETATM    1 NA   UNL     1     -13.714   8.879  73.571  1.00  0.00    -0.745 Na 
HETATM    2  C   UNL     2     -11.701   6.941  72.285  1.00  0.00    -0.296 C  
HETATM    3  C   UNL     2     -11.935   6.958  70.784  1.00  0.00    -0.424 C  
ENDROOT
BRANCH   3   4
HETATM    4  C   UNL     2     -10.659   7.345  70.045  1.00  0.00    -0.241 C  
BRANCH   4   5
HETATM    5  C   UNL     2     -10.854   8.607  69.210  1.00  0.00    -0.082 C  
BRANCH   5   6
HETATM    6  C   UNL     2     -10.544   9.848  70.043  1.00  0.00    -0.335 C  
BRANCH   6   7
HETATM    7  C   UNL     2     -11.756  10.768  70.139  1.00  0.00    -0.425 C  
BRANCH   7   8
HETATM    8  C   UNL     2     -11.880  11.622  68.880  1.00  0.00    -0.392 C  
BRANCH   8   9
HETATM    9  C   UNL     2     -11.516  13.074  69.171  1.00  0.00    -0.353 C  
BRANCH   9  10
HETATM   10  C   UNL     2     -11.578  13.916  67.900  1.00  0.00    -0.377 C  
BRANCH  10  11
HETATM   11  C   UNL     2     -11.967  13.054  66.703  1.00  0.00    -0.453 C  
BRANCH  11  12
HETATM   12  C   UNL     2     -11.559  13.715  65.391  1.00  0.00    -0.334 C  
BRANCH  12  13
HETATM   13  C   UNL     2     -11.309  12.668  64.311  1.00  0.00    -0.363 C  
BRANCH  13  14
HETATM   14  O   UNL     2     -11.251  11.360  64.888  1.00  0.00    -0.224 OA 
BRANCH  14  15
HETATM   15  C   UNL     2     -10.164  10.608  64.538  1.00  0.00    -0.329 C  
HETATM   16  O   UNL     2      -9.734  10.528  63.390  1.00  0.00    -0.307 OA 
BRANCH  15  17
HETATM   17  C   UNL     2      -9.693   9.785  65.682  1.00  0.00    -0.288 C  
HETATM   18  S   UNL     2      -8.222  10.459  66.363  1.00  0.00    -0.147 S  
HETATM   19  O   UNL     2      -7.266  10.430  65.260  1.00  0.00    -0.143 OA 
HETATM   20  O   UNL     2      -7.924   9.523  67.447  1.00  0.00    -0.105 OA 
HETATM   21  O   UNL     2      -8.610  11.796  66.811  1.00  0.00    -0.178 OA 
ENDBRANCH  15  17
ENDBRANCH  14  15
ENDBRANCH  13  14
ENDBRANCH  12  13
ENDBRANCH  11  12
ENDBRANCH  10  11
ENDBRANCH   9  10
ENDBRANCH   8   9
ENDBRANCH   7   8
ENDBRANCH   6   7
ENDBRANCH   5   6
ENDBRANCH   4   5
ENDBRANCH   3   4
TORSDOF 13
ENDMDL
MODEL      185
REMARK 921   NORMALIZED FREE ENERGY PREDICTED BY IDOCK:   -3.54 KCAL/MOL
REMARK 922        TOTAL FREE ENERGY PREDICTED BY IDOCK:   -7.80 KCAL/MOL
REMARK 923 INTER-LIGAND FREE ENERGY PREDICTED BY IDOCK:   -6.86 KCAL/MOL
REMARK 924 INTRA-LIGAND FREE ENERGY PREDICTED BY IDOCK:   -0.93 KCAL/MOL
REMARK 927      BINDING AFFINITY PREDICTED BY RF-SCORE:    0.00 PKD
ROOT
HETATM    1 NA   UNL     1      -7.293  17.290  65.480  1.00  0.00    -0.269 Na 
HETATM    2  C   UNL     2      -9.967  16.063  66.376  1.00  0.00    -0.312 C  
HETATM    3  C   UNL     2     -10.773  15.745  65.128  1.00  0.00    -0.455 C  
ENDROOT
BRANCH   3   4
HETATM    4  C   UNL     2     -11.144  14.267  65.088  1.00  0.00    -0.354 C  
BRANCH   4   5
HETATM    5  C   UNL     2     -12.267  13.995  64.091  1.00  0.00    -0.433 C  
BRANCH   5   6
HETATM    6  C   UNL     2     -12.160  12.574  63.546  1.00  0.00    -0.653 C  
BRANCH   6   7
HETATM    7  C   UNL     2     -11.276  11.705  64.433  1.00  0.00    -0.360 C  
BRANCH   7   8
HETATM    8  C   UNL     2     -10.217  10.990  63.598  1.00  0.00    -0.431 C  
BRANCH   8   9
HETATM    9  C   UNL     2      -9.125  10.409  64.489  1.00  0.00    -0.263 C  
BRANCH   9  10
HETATM   10  C   UNL     2      -8.927  11.265  65.738  1.00  0.00    -0.191 C  
BRANCH  10  11
HETATM   11  C   UNL     2      -8.718  10.383  66.965  1.00  0.00    -0.132 C  
BRANCH  11  12
HETATM   12  C   UNL     2      -9.578  10.852  68.134  1.00  0.00    -0.169 C  
BRANCH  12  13
HETATM   13  C   UNL     2     -10.749   9.902  68.361  1.00  0.00    -0.232 C  
BRANCH  13  14
HETATM   14  O   UNL     2     -10.402   8.904  69.325  1.00  0.00    -0.205 OA 
BRANCH  14  15
HETATM   15  C   UNL     2     -10.263   9.350  70.612  1.00  0.00    -0.288 C  
HETATM   16  O   UNL     2      -9.205   9.306  71.234  1.00  0.00    -0.240 OA 
BRANCH  15  17
HETATM   17  C   UNL     2     -11.578   9.724  71.192  1.00  0.00    -0.392 C  
HETATM   18  S   UNL     2     -12.327   8.339  71.968  1.00  0.00    -0.366 S  
HETATM   19  O   UNL     2     -12.480   7.362  70.894  1.00  0.00    -0.270 OA 
HETATM   20  O   UNL     2     -13.585   8.900  72.460  1.00  0.00    -0.441 OA 
HETATM   21  O   UNL     2     -11.385   7.959  73.020  1.00  0.00    -0.408 OA 
ENDBRANCH  15  17
ENDBRANCH  14  15
ENDBRANCH  13  14
ENDBRANCH  12  13
ENDBRANCH  11  12
ENDBRANCH  10  11
ENDBRANCH   9  10
ENDBRANCH   8   9
ENDBRANCH   7   8
ENDBRANCH   6   7
ENDBRANCH   5   6
ENDBRANCH   4   5
ENDBRANCH   3   4
TORSDOF 13
ENDMDL
MODEL      186
REMARK 921   NORMALIZED FREE ENERGY PREDICTED BY IDOCK:   -3.54 KCAL/MOL
REMARK 922        TOTAL FREE ENERGY PREDICTED BY IDOCK:   -7.79 KCAL/MOL
REMARK 923 INTER-LIGAND FREE ENERGY PREDICTED BY IDOCK:   -7.12 KCAL/MOL
REMARK 924 INTRA-LIGAND FREE ENERGY PREDICTED BY IDOCK:   -0.67 KCAL/MOL
REMARK 927      BINDING AFFINITY PREDICTED BY RF-SCORE:    0.00 PKD
ROOT
HETATM    1 NA   UNL     1     -11.236  20.925  70.164  1.00  0.00    -0.892 Na 
HETATM    2  C   UNL     2      -9.893  19.432  67.834  1.00  0.00    -0.460 C  
HETATM    3  C   UNL     2      -9.118  18.263  68.418  1.00  0.00    -0.331 C  
ENDROOT
BRANCH   3   4
HETATM    4  C   UNL     2      -9.584  16.947  67.803  1.00  0.00    -0.249 C  
BRANCH   4   5
HETATM    5  C   UNL     2      -8.975  16.726  66.421  1.00  0.00    -0.325 C  
BRANCH   5   6
HETATM    6  C   UNL     2      -9.620  15.520  65.744  1.00  0.00    -0.367 C  
BRANCH   6   7
HETATM    7  C   UNL     2     -11.041  15.296  66.247  1.00  0.00    -0.273 C  
BRANCH   7   8
HETATM    8  C   UNL     2     -11.661  14.073  65.577  1.00  0.00    -0.353 C  
BRANCH   8   9
HETATM    9  C   UNL     2     -11.805  12.924  66.568  1.00  0.00    -0.473 C  
BRANCH   9  10
HETATM   10  C   UNL     2     -12.071  13.449  67.976  1.00  0.00    -0.283 C  
BRANCH  10  11
HETATM   11  C   UNL     2     -11.479  12.509  69.020  1.00  0.00    -0.355 C  
BRANCH  11  12
HETATM   12  C   UNL     2     -12.042  11.100  68.877  1.00  0.00    -0.276 C  
BRANCH  12  13
HETATM   13  C   UNL     2     -11.854  10.306  70.166  1.00  0.00    -0.263 C  
BRANCH  13  14
HETATM   14  O   UNL     2     -10.461  10.123  70.440  1.00  0.00    -0.280 OA 
BRANCH  14  15
HETATM   15  C   UNL     2     -10.132   8.950  71.063  1.00  0.00    -0.255 C  
HETATM   16  O   UNL     2      -9.815   8.875  72.247  1.00  0.00    -0.284 OA 
BRANCH  15  17
HETATM   17  C   UNL     2     -10.045   7.834  70.086  1.00  0.00    -0.197 C  
HETATM   18  S   UNL     2     -10.964   6.447  70.651  1.00  0.00    -0.321 S  
HETATM   19  O   UNL     2     -10.338   6.091  71.921  1.00  0.00    -0.199 OA 
HETATM   20  O   UNL     2     -10.752   5.476  69.578  1.00  0.00    -0.310 OA 
HETATM   21  O   UNL     2     -12.337   6.941  70.754  1.00  0.00    -0.376 OA 
ENDBRANCH  15  17
ENDBRANCH  14  15
ENDBRANCH  13  14
ENDBRANCH  12  13
ENDBRANCH  11  12
ENDBRANCH  10  11
ENDBRANCH   9  10
ENDBRANCH   8   9
ENDBRANCH   7   8
ENDBRANCH   6   7
ENDBRANCH   5   6
ENDBRANCH   4   5
ENDBRANCH   3   4
TORSDOF 13
ENDMDL
MODEL      187
REMARK 921   NORMALIZED FREE ENERGY PREDICTED BY IDOCK:   -3.52 KCAL/MOL
REMARK 922        TOTAL FREE ENERGY PREDICTED BY IDOCK:   -7.76 KCAL/MOL
REMARK 923 INTER-LIGAND FREE ENERGY PREDICTED BY IDOCK:   -6.89 KCAL/MOL
REMARK 924 INTRA-LIGAND FREE ENERGY PREDICTED BY IDOCK:   -0.87 KCAL/MOL
REMARK 927      BINDING AFFINITY PREDICTED BY RF-SCORE:    0.00 PKD
ROOT
HETATM    1 NA   UNL     1     -13.802   8.755  73.648  1.00  0.00    -0.783 Na 
HETATM    2  C   UNL     2     -11.943   6.616  72.453  1.00  0.00    -0.181 C  
HETATM    3  C   UNL     2     -12.011   6.735  70.940  1.00  0.00    -0.437 C  
ENDROOT
BRANCH   3   4
HETATM    4  C   UNL     2     -10.623   6.974  70.355  1.00  0.00    -0.244 C  
BRANCH   4   5
HETATM    5  C   UNL     2     -10.485   8.386  69.792  1.00  0.00    -0.220 C  
BRANCH   5   6
HETATM    6  C   UNL     2     -10.329   9.396  70.926  1.00  0.00    -0.380 C  
BRANCH   6   7
HETATM    7  C   UNL     2     -11.584  10.246  71.087  1.00  0.00    -0.385 C  
BRANCH   7   8
HETATM    8  C   UNL     2     -11.654  11.310  69.994  1.00  0.00    -0.404 C  
BRANCH   8   9
HETATM    9  C   UNL     2     -12.196  12.622  70.548  1.00  0.00    -0.383 C  
BRANCH   9  10
HETATM   10  C   UNL     2     -12.019  13.754  69.538  1.00  0.00    -0.399 C  
BRANCH  10  11
HETATM   11  C   UNL     2     -11.429  13.223  68.236  1.00  0.00    -0.351 C  
BRANCH  11  12
HETATM   12  C   UNL     2     -12.369  13.475  67.062  1.00  0.00    -0.260 C  
BRANCH  12  13
HETATM   13  C   UNL     2     -11.598  13.504  65.746  1.00  0.00    -0.330 C  
BRANCH  13  14
HETATM   14  O   UNL     2     -10.250  13.931  65.967  1.00  0.00    -0.292 OA 
BRANCH  14  15
HETATM   15  C   UNL     2      -9.917  15.140  65.421  1.00  0.00    -0.330 C  
HETATM   16  O   UNL     2     -10.293  15.512  64.313  1.00  0.00     0.173 OA 
BRANCH  15  17
HETATM   17  C   UNL     2      -8.920  15.850  66.263  1.00  0.00    -0.346 C  
HETATM   18  S   UNL     2      -9.664  17.211  67.087  1.00  0.00    -0.270 S  
HETATM   19  O   UNL     2     -10.151  18.065  66.006  1.00  0.00    -0.494 OA 
HETATM   20  O   UNL     2      -8.543  17.769  67.841  1.00  0.00    -0.240 OA 
HETATM   21  O   UNL     2     -10.707  16.607  67.915  1.00  0.00    -0.336 OA 
ENDBRANCH  15  17
ENDBRANCH  14  15
ENDBRANCH  13  14
ENDBRANCH  12  13
ENDBRANCH  11  12
ENDBRANCH  10  11
ENDBRANCH   9  10
ENDBRANCH   8   9
ENDBRANCH   7   8
ENDBRANCH   6   7
ENDBRANCH   5   6
ENDBRANCH   4   5
ENDBRANCH   3   4
TORSDOF 13
ENDMDL
MODEL      188
REMARK 921   NORMALIZED FREE ENERGY PREDICTED BY IDOCK:   -3.52 KCAL/MOL
REMARK 922        TOTAL FREE ENERGY PREDICTED BY IDOCK:   -7.75 KCAL/MOL
REMARK 923 INTER-LIGAND FREE ENERGY PREDICTED BY IDOCK:   -6.81 KCAL/MOL
REMARK 924 INTRA-LIGAND FREE ENERGY PREDICTED BY IDOCK:   -0.95 KCAL/MOL
REMARK 927      BINDING AFFINITY PREDICTED BY RF-SCORE:    0.00 PKD
ROOT
HETATM    1 NA   UNL     1     -11.436   3.921  65.405  1.00  0.00    -0.480 Na 
HETATM    2  C   UNL     2     -10.619   6.486  66.894  1.00  0.00    -0.376 C  
HETATM    3  C   UNL     2     -11.030   6.328  68.349  1.00  0.00    -0.409 C  
ENDROOT
BRANCH   3   4
HETATM    4  C   UNL     2      -9.825   6.490  69.269  1.00  0.00    -0.161 C  
BRANCH   4   5
HETATM    5  C   UNL     2     -10.166   7.328  70.498  1.00  0.00    -0.203 C  
BRANCH   5   6
HETATM    6  C   UNL     2     -11.107   6.558  71.420  1.00  0.00    -0.315 C  
BRANCH   6   7
HETATM    7  C   UNL     2     -12.449   7.267  71.559  1.00  0.00    -0.408 C  
BRANCH   7   8
HETATM    8  C   UNL     2     -12.297   8.547  72.376  1.00  0.00    -0.424 C  
BRANCH   8   9
HETATM    9  C   UNL     2     -13.524   9.439  72.222  1.00  0.00    -0.539 C  
BRANCH   9  10
HETATM   10  C   UNL     2     -13.120  10.856  71.822  1.00  0.00    -0.564 C  
BRANCH  10  11
HETATM   11  C   UNL     2     -11.863  10.833  70.959  1.00  0.00    -0.349 C  
BRANCH  11  12
HETATM   12  C   UNL     2     -12.198  11.066  69.490  1.00  0.00    -0.352 C  
BRANCH  12  13
HETATM   13  C   UNL     2     -12.086  12.545  69.136  1.00  0.00    -0.138 C  
BRANCH  13  14
HETATM   14  O   UNL     2     -10.883  12.793  68.403  1.00  0.00    -0.231 OA 
BRANCH  14  15
HETATM   15  C   UNL     2     -10.928  12.478  67.072  1.00  0.00    -0.267 C  
HETATM   16  O   UNL     2     -11.953  12.136  66.489  1.00  0.00    -0.618 OA 
BRANCH  15  17
HETATM   17  C   UNL     2      -9.563  12.443  66.485  1.00  0.00    -0.240 C  
HETATM   18  S   UNL     2      -9.083  10.790  66.138  1.00  0.00    -0.181 S  
HETATM   19  O   UNL     2      -9.121  10.122  67.437  1.00  0.00    -0.137 OA 
HETATM   20  O   UNL     2      -7.741  10.965  65.587  1.00  0.00    -0.103 OA 
HETATM   21  O   UNL     2     -10.075  10.320  65.172  1.00  0.00    -0.310 OA 
ENDBRANCH  15  17
ENDBRANCH  14  15
ENDBRANCH  13  14
ENDBRANCH  12  13
ENDBRANCH  11  12
ENDBRANCH  10  11
ENDBRANCH   9  10
ENDBRANCH   8   9
ENDBRANCH   7   8
ENDBRANCH   6   7
ENDBRANCH   5   6
ENDBRANCH   4   5
ENDBRANCH   3   4
TORSDOF 13
ENDMDL
MODEL      189
REMARK 921   NORMALIZED FREE ENERGY PREDICTED BY IDOCK:   -3.52 KCAL/MOL
REMARK 922        TOTAL FREE ENERGY PREDICTED BY IDOCK:   -7.75 KCAL/MOL
REMARK 923 INTER-LIGAND FREE ENERGY PREDICTED BY IDOCK:   -7.13 KCAL/MOL
REMARK 924 INTRA-LIGAND FREE ENERGY PREDICTED BY IDOCK:   -0.62 KCAL/MOL
REMARK 927      BINDING AFFINITY PREDICTED BY RF-SCORE:    0.00 PKD
ROOT
HETATM    1 NA   UNL     1     -12.160   6.259  67.525  1.00  0.00    -0.541 Na 
HETATM    2  C   UNL     2     -12.007   6.759  70.556  1.00  0.00    -0.385 C  
HETATM    3  C   UNL     2     -10.541   6.904  70.928  1.00  0.00    -0.243 C  
ENDROOT
BRANCH   3   4
HETATM    4  C   UNL     2     -10.289   8.245  71.608  1.00  0.00    -0.289 C  
BRANCH   4   5
HETATM    5  C   UNL     2      -9.053   8.939  71.041  1.00  0.00    -0.303 C  
BRANCH   5   6
HETATM    6  C   UNL     2      -9.425   9.761  69.810  1.00  0.00    -0.253 C  
BRANCH   6   7
HETATM    7  C   UNL     2     -10.830  10.338  69.933  1.00  0.00    -0.355 C  
BRANCH   7   8
HETATM    8  C   UNL     2     -11.361  10.751  68.563  1.00  0.00    -0.360 C  
BRANCH   8   9
HETATM    9  C   UNL     2     -11.793  12.213  68.565  1.00  0.00    -0.365 C  
BRANCH   9  10
HETATM   10  C   UNL     2     -11.851  12.766  67.143  1.00  0.00    -0.415 C  
BRANCH  10  11
HETATM   11  C   UNL     2     -10.462  12.773  66.513  1.00  0.00    -0.276 C  
BRANCH  11  12
HETATM   12  C   UNL     2     -10.288  13.961  65.574  1.00  0.00    -0.347 C  
BRANCH  12  13
HETATM   13  C   UNL     2      -9.708  15.160  66.319  1.00  0.00    -0.290 C  
BRANCH  13  14
HETATM   14  O   UNL     2     -10.754  16.050  66.721  1.00  0.00    -0.317 OA 
BRANCH  14  15
HETATM   15  C   UNL     2     -10.508  17.380  66.515  1.00  0.00    -0.264 C  
HETATM   16  O   UNL     2     -10.388  17.885  65.402  1.00  0.00    -0.580 OA 
BRANCH  15  17
HETATM   17  C   UNL     2     -10.241  18.078  67.799  1.00  0.00    -0.378 C  
HETATM   18  S   UNL     2      -8.684  18.888  67.750  1.00  0.00    -0.298 S  
HETATM   19  O   UNL     2      -7.724  17.812  67.521  1.00  0.00    -0.202 OA 
HETATM   20  O   UNL     2      -8.607  19.496  69.078  1.00  0.00    -0.340 OA 
HETATM   21  O   UNL     2      -8.810  19.849  66.654  1.00  0.00    -0.329 OA 
ENDBRANCH  15  17
ENDBRANCH  14  15
ENDBRANCH  13  14
ENDBRANCH  12  13
ENDBRANCH  11  12
ENDBRANCH  10  11
ENDBRANCH   9  10
ENDBRANCH   8   9
ENDBRANCH   7   8
ENDBRANCH   6   7
ENDBRANCH   5   6
ENDBRANCH   4   5
ENDBRANCH   3   4
TORSDOF 13
ENDMDL
MODEL      190
REMARK 921   NORMALIZED FREE ENERGY PREDICTED BY IDOCK:   -3.51 KCAL/MOL
REMARK 922        TOTAL FREE ENERGY PREDICTED BY IDOCK:   -7.74 KCAL/MOL
REMARK 923 INTER-LIGAND FREE ENERGY PREDICTED BY IDOCK:   -6.52 KCAL/MOL
REMARK 924 INTRA-LIGAND FREE ENERGY PREDICTED BY IDOCK:   -1.22 KCAL/MOL
REMARK 927      BINDING AFFINITY PREDICTED BY RF-SCORE:    0.00 PKD
ROOT
HETATM    1 NA   UNL     1     -12.413  14.284  62.407  1.00  0.00    -0.923 Na 
HETATM    2  C   UNL     2     -11.792  12.170  64.552  1.00  0.00    -0.418 C  
HETATM    3  C   UNL     2     -11.107  12.873  65.712  1.00  0.00    -0.312 C  
ENDROOT
BRANCH   3   4
HETATM    4  C   UNL     2     -11.879  12.651  67.008  1.00  0.00    -0.415 C  
BRANCH   4   5
HETATM    5  C   UNL     2     -11.828  13.881  67.911  1.00  0.00    -0.413 C  
BRANCH   5   6
HETATM    6  C   UNL     2     -11.369  13.491  69.313  1.00  0.00    -0.317 C  
BRANCH   6   7
HETATM    7  C   UNL     2     -12.370  13.943  70.370  1.00  0.00    -0.433 C  
BRANCH   7   8
HETATM    8  C   UNL     2     -12.767  12.774  71.266  1.00  0.00    -0.364 C  
BRANCH   8   9
HETATM    9  C   UNL     2     -12.521  11.443  70.565  1.00  0.00    -0.381 C  
BRANCH   9  10
HETATM   10  C   UNL     2     -12.627  10.281  71.549  1.00  0.00    -0.544 C  
BRANCH  10  11
HETATM   11  C   UNL     2     -11.313   9.508  71.610  1.00  0.00    -0.411 C  
BRANCH  11  12
HETATM   12  C   UNL     2     -10.415   9.852  70.426  1.00  0.00    -0.347 C  
BRANCH  12  13
HETATM   13  C   UNL     2      -9.314   8.810  70.260  1.00  0.00    -0.174 C  
BRANCH  13  14
HETATM   14  O   UNL     2      -8.111   9.427  69.793  1.00  0.00    -0.104 OA 
BRANCH  14  15
HETATM   15  C   UNL     2      -7.924   9.405  68.437  1.00  0.00    -0.094 C  
HETATM   16  O   UNL     2      -8.529   8.650  67.681  1.00  0.00    -0.123 OA 
BRANCH  15  17
HETATM   17  C   UNL     2      -6.791  10.279  68.040  1.00  0.00    -0.070 C  
HETATM   18  S   UNL     2      -7.379  11.731  67.248  1.00  0.00    -0.148 S  
HETATM   19  O   UNL     2      -8.103  11.237  66.079  1.00  0.00    -0.119 OA 
HETATM   20  O   UNL     2      -6.139  12.440  66.936  1.00  0.00    -0.244 OA 
HETATM   21  O   UNL     2      -8.209  12.385  68.259  1.00  0.00    -0.162 OA 
ENDBRANCH  15  17
ENDBRANCH  14  15
ENDBRANCH  13  14
ENDBRANCH  12  13
ENDBRANCH  11  12
ENDBRANCH  10  11
ENDBRANCH   9  10
ENDBRANCH   8   9
ENDBRANCH   7   8
ENDBRANCH   6   7
ENDBRANCH   5   6
ENDBRANCH   4   5
ENDBRANCH   3   4
TORSDOF 13
ENDMDL
MODEL      191
REMARK 921   NORMALIZED FREE ENERGY PREDICTED BY IDOCK:   -3.50 KCAL/MOL
REMARK 922        TOTAL FREE ENERGY PREDICTED BY IDOCK:   -7.73 KCAL/MOL
REMARK 923 INTER-LIGAND FREE ENERGY PREDICTED BY IDOCK:   -6.91 KCAL/MOL
REMARK 924 INTRA-LIGAND FREE ENERGY PREDICTED BY IDOCK:   -0.82 KCAL/MOL
REMARK 927      BINDING AFFINITY PREDICTED BY RF-SCORE:    0.00 PKD
ROOT
HETATM    1 NA   UNL     1      -9.146  13.156  69.110  1.00  0.00    -0.336 Na 
HETATM    2  C   UNL     2     -11.731  12.665  67.517  1.00  0.00    -0.429 C  
HETATM    3  C   UNL     2     -12.250  14.014  67.047  1.00  0.00    -0.387 C  
ENDROOT
BRANCH   3   4
HETATM    4  C   UNL     2     -12.391  14.037  65.529  1.00  0.00    -0.503 C  
BRANCH   4   5
HETATM    5  C   UNL     2     -12.364  12.630  64.941  1.00  0.00    -0.563 C  
BRANCH   5   6
HETATM    6  C   UNL     2     -11.600  12.622  63.619  1.00  0.00    -0.575 C  
BRANCH   6   7
HETATM    7  C   UNL     2     -10.748  11.365  63.479  1.00  0.00    -0.453 C  
BRANCH   7   8
HETATM    8  C   UNL     2      -9.753  11.261  64.632  1.00  0.00    -0.294 C  
BRANCH   8   9
HETATM    9  C   UNL     2      -9.759   9.859  65.230  1.00  0.00    -0.383 C  
BRANCH   9  10
HETATM   10  C   UNL     2      -8.596   9.675  66.201  1.00  0.00    -0.138 C  
BRANCH  10  11
HETATM   11  C   UNL     2      -8.585  10.790  67.242  1.00  0.00    -0.130 C  
BRANCH  11  12
HETATM   12  C   UNL     2      -8.385  10.231  68.647  1.00  0.00    -0.122 C  
BRANCH  12  13
HETATM   13  C   UNL     2      -8.876   8.790  68.732  1.00  0.00    -0.134 C  
BRANCH  13  14
HETATM   14  O   UNL     2     -10.301   8.755  68.863  1.00  0.00    -0.207 OA 
BRANCH  14  15
HETATM   15  C   UNL     2     -10.773   8.212  70.027  1.00  0.00    -0.243 C  
HETATM   16  O   UNL     2     -10.524   7.066  70.392  1.00  0.00    -0.201 OA 
BRANCH  15  17
HETATM   17  C   UNL     2     -11.747   9.121  70.684  1.00  0.00    -0.209 C  
HETATM   18  S   UNL     2     -12.560   8.303  72.008  1.00  0.00    -0.350 S  
HETATM   19  O   UNL     2     -13.233   7.172  71.376  1.00  0.00    -0.385 OA 
HETATM   20  O   UNL     2     -13.460   9.341  72.509  1.00  0.00    -0.464 OA 
HETATM   21  O   UNL     2     -11.481   7.946  72.929  1.00  0.00    -0.403 OA 
ENDBRANCH  15  17
ENDBRANCH  14  15
ENDBRANCH  13  14
ENDBRANCH  12  13
ENDBRANCH  11  12
ENDBRANCH  10  11
ENDBRANCH   9  10
ENDBRANCH   8   9
ENDBRANCH   7   8
ENDBRANCH   6   7
ENDBRANCH   5   6
ENDBRANCH   4   5
ENDBRANCH   3   4
TORSDOF 13
ENDMDL
MODEL      192
REMARK 921   NORMALIZED FREE ENERGY PREDICTED BY IDOCK:   -3.50 KCAL/MOL
REMARK 922        TOTAL FREE ENERGY PREDICTED BY IDOCK:   -7.72 KCAL/MOL
REMARK 923 INTER-LIGAND FREE ENERGY PREDICTED BY IDOCK:   -6.42 KCAL/MOL
REMARK 924 INTRA-LIGAND FREE ENERGY PREDICTED BY IDOCK:   -1.30 KCAL/MOL
REMARK 927      BINDING AFFINITY PREDICTED BY RF-SCORE:    0.00 PKD
ROOT
HETATM    1 NA   UNL     1      -9.766   2.999  67.485  1.00  0.00    -0.170 Na 
HETATM    2  C   UNL     2     -10.779   5.696  66.408  1.00  0.00    -0.229 C  
HETATM    3  C   UNL     2     -10.733   6.698  67.549  1.00  0.00    -0.387 C  
ENDROOT
BRANCH   3   4
HETATM    4  C   UNL     2      -9.871   7.900  67.176  1.00  0.00    -0.273 C  
BRANCH   4   5
HETATM    5  C   UNL     2     -10.590   9.216  67.457  1.00  0.00    -0.317 C  
BRANCH   5   6
HETATM    6  C   UNL     2      -9.620  10.234  68.051  1.00  0.00    -0.159 C  
BRANCH   6   7
HETATM    7  C   UNL     2      -8.403   9.549  68.662  1.00  0.00    -0.117 C  
BRANCH   7   8
HETATM    8  C   UNL     2      -8.385   9.737  70.176  1.00  0.00    -0.201 C  
BRANCH   8   9
HETATM    9  C   UNL     2      -8.580   8.406  70.892  1.00  0.00    -0.167 C  
BRANCH   9  10
HETATM   10  C   UNL     2     -10.064   8.073  71.029  1.00  0.00    -0.213 C  
BRANCH  10  11
HETATM   11  C   UNL     2     -10.838   9.279  71.550  1.00  0.00    -0.442 C  
BRANCH  11  12
HETATM   12  C   UNL     2     -12.239   9.336  70.951  1.00  0.00    -0.264 C  
BRANCH  12  13
HETATM   13  C   UNL     2     -12.823  10.740  71.069  1.00  0.00    -0.385 C  
BRANCH  13  14
HETATM   14  O   UNL     2     -11.901  11.707  70.557  1.00  0.00    -0.342 OA 
BRANCH  14  15
HETATM   15  C   UNL     2     -12.408  12.965  70.371  1.00  0.00    -0.258 C  
HETATM   16  O   UNL     2     -12.233  13.624  69.350  1.00  0.00    -0.324 OA 
BRANCH  15  17
HETATM   17  C   UNL     2     -13.038  13.475  71.616  1.00  0.00    -0.374 C  
HETATM   18  S   UNL     2     -12.753  15.199  71.790  1.00  0.00    -0.384 S  
HETATM   19  O   UNL     2     -11.299  15.323  71.841  1.00  0.00    -0.426 OA 
HETATM   20  O   UNL     2     -13.431  15.501  73.050  1.00  0.00    -0.502 OA 
HETATM   21  O   UNL     2     -13.384  15.791  70.610  1.00  0.00    -0.486 OA 
ENDBRANCH  15  17
ENDBRANCH  14  15
ENDBRANCH  13  14
ENDBRANCH  12  13
ENDBRANCH  11  12
ENDBRANCH  10  11
ENDBRANCH   9  10
ENDBRANCH   8   9
ENDBRANCH   7   8
ENDBRANCH   6   7
ENDBRANCH   5   6
ENDBRANCH   4   5
ENDBRANCH   3   4
TORSDOF 13
ENDMDL
MODEL      193
REMARK 921   NORMALIZED FREE ENERGY PREDICTED BY IDOCK:   -3.50 KCAL/MOL
REMARK 922        TOTAL FREE ENERGY PREDICTED BY IDOCK:   -7.72 KCAL/MOL
REMARK 923 INTER-LIGAND FREE ENERGY PREDICTED BY IDOCK:   -6.63 KCAL/MOL
REMARK 924 INTRA-LIGAND FREE ENERGY PREDICTED BY IDOCK:   -1.09 KCAL/MOL
REMARK 927      BINDING AFFINITY PREDICTED BY RF-SCORE:    0.00 PKD
ROOT
HETATM    1 NA   UNL     1     -10.409  10.068  62.664  1.00  0.00    -0.503 Na 
HETATM    2  C   UNL     2     -12.146  12.515  63.337  1.00  0.00    -0.621 C  
HETATM    3  C   UNL     2     -12.499  12.442  64.813  1.00  0.00    -0.480 C  
ENDROOT
BRANCH   3   4
HETATM    4  C   UNL     2     -12.037  13.701  65.540  1.00  0.00    -0.440 C  
BRANCH   4   5
HETATM    5  C   UNL     2     -10.522  13.723  65.719  1.00  0.00    -0.303 C  
BRANCH   5   6
HETATM    6  C   UNL     2     -10.083  15.037  66.361  1.00  0.00    -0.289 C  
BRANCH   6   7
HETATM    7  C   UNL     2     -10.262  15.000  67.874  1.00  0.00    -0.228 C  
BRANCH   7   8
HETATM    8  C   UNL     2      -8.931  14.715  68.565  1.00  0.00    -0.184 C  
BRANCH   8   9
HETATM    9  C   UNL     2      -7.760  15.104  67.670  1.00  0.00    -0.186 C  
BRANCH   9  10
HETATM   10  C   UNL     2      -6.904  16.181  68.331  1.00  0.00    -0.128 C  
BRANCH  10  11
HETATM   11  C   UNL     2      -5.598  16.372  67.567  1.00  0.00    -0.174 C  
BRANCH  11  12
HETATM   12  C   UNL     2      -5.709  17.510  66.558  1.00  0.00    -0.234 C  
BRANCH  12  13
HETATM   13  C   UNL     2      -5.395  18.850  67.215  1.00  0.00    -0.157 C  
BRANCH  13  14
HETATM   14  O   UNL     2      -6.391  19.818  66.874  1.00  0.00    -0.186 OA 
BRANCH  14  15
HETATM   15  C   UNL     2      -7.372  20.010  67.809  1.00  0.00    -0.293 C  
HETATM   16  O   UNL     2      -7.256  19.694  68.990  1.00  0.00    -0.351 OA 
BRANCH  15  17
HETATM   17  C   UNL     2      -8.629  20.483  67.175  1.00  0.00    -0.271 C  
HETATM   18  S   UNL     2      -9.709  19.134  66.864  1.00  0.00    -0.349 S  
HETATM   19  O   UNL     2      -8.954  18.266  65.964  1.00  0.00    -0.500 OA 
HETATM   20  O   UNL     2     -10.860  19.793  66.246  1.00  0.00    -0.429 OA 
HETATM   21  O   UNL     2      -9.977  18.571  68.187  1.00  0.00    -0.324 OA 
ENDBRANCH  15  17
ENDBRANCH  14  15
ENDBRANCH  13  14
ENDBRANCH  12  13
ENDBRANCH  11  12
ENDBRANCH  10  11
ENDBRANCH   9  10
ENDBRANCH   8   9
ENDBRANCH   7   8
ENDBRANCH   6   7
ENDBRANCH   5   6
ENDBRANCH   4   5
ENDBRANCH   3   4
TORSDOF 13
ENDMDL
MODEL      194
REMARK 921   NORMALIZED FREE ENERGY PREDICTED BY IDOCK:   -3.49 KCAL/MOL
REMARK 922        TOTAL FREE ENERGY PREDICTED BY IDOCK:   -7.71 KCAL/MOL
REMARK 923 INTER-LIGAND FREE ENERGY PREDICTED BY IDOCK:   -6.41 KCAL/MOL
REMARK 924 INTRA-LIGAND FREE ENERGY PREDICTED BY IDOCK:   -1.30 KCAL/MOL
REMARK 927      BINDING AFFINITY PREDICTED BY RF-SCORE:    0.00 PKD
ROOT
HETATM    1 NA   UNL     1      -7.429   8.923  69.039  1.00  0.00    -0.063 Na 
HETATM    2  C   UNL     2      -9.971   7.219  69.344  1.00  0.00    -0.170 C  
HETATM    3  C   UNL     2      -9.897   6.510  70.686  1.00  0.00    -0.201 C  
ENDROOT
BRANCH   3   4
HETATM    4  C   UNL     2     -11.111   6.850  71.543  1.00  0.00    -0.276 C  
BRANCH   4   5
HETATM    5  C   UNL     2     -12.401   6.816  70.728  1.00  0.00    -0.289 C  
BRANCH   5   6
HETATM    6  C   UNL     2     -13.563   7.365  71.552  1.00  0.00    -0.454 C  
BRANCH   6   7
HETATM    7  C   UNL     2     -13.123   8.538  72.419  1.00  0.00    -0.338 C  
BRANCH   7   8
HETATM    8  C   UNL     2     -13.339   9.858  71.684  1.00  0.00    -0.481 C  
BRANCH   8   9
HETATM    9  C   UNL     2     -12.010  10.558  71.422  1.00  0.00    -0.325 C  
BRANCH   9  10
HETATM   10  C   UNL     2     -12.041  11.306  70.091  1.00  0.00    -0.448 C  
BRANCH  10  11
HETATM   11  C   UNL     2     -10.808  10.969  69.259  1.00  0.00    -0.285 C  
BRANCH  11  12
HETATM   12  C   UNL     2     -11.197  10.484  67.867  1.00  0.00    -0.358 C  
BRANCH  12  13
HETATM   13  C   UNL     2     -10.824  11.516  66.808  1.00  0.00    -0.282 C  
BRANCH  13  14
HETATM   14  O   UNL     2     -11.962  12.313  66.466  1.00  0.00    -0.596 OA 
BRANCH  14  15
HETATM   15  C   UNL     2     -11.729  13.657  66.353  1.00  0.00    -0.373 C  
HETATM   16  O   UNL     2     -12.378  14.399  65.621  1.00  0.00    -0.390 OA 
BRANCH  15  17
HETATM   17  C   UNL     2     -10.500  14.049  67.089  1.00  0.00    -0.270 C  
HETATM   18  S   UNL     2     -10.855  15.314  68.254  1.00  0.00    -0.273 S  
HETATM   19  O   UNL     2     -11.365  16.418  67.445  1.00  0.00    -0.046 OA 
HETATM   20  O   UNL     2      -9.545  15.559  68.856  1.00  0.00    -0.195 OA 
HETATM   21  O   UNL     2     -11.831  14.709  69.160  1.00  0.00    -0.293 OA 
ENDBRANCH  15  17
ENDBRANCH  14  15
ENDBRANCH  13  14
ENDBRANCH  12  13
ENDBRANCH  11  12
ENDBRANCH  10  11
ENDBRANCH   9  10
ENDBRANCH   8   9
ENDBRANCH   7   8
ENDBRANCH   6   7
ENDBRANCH   5   6
ENDBRANCH   4   5
ENDBRANCH   3   4
TORSDOF 13
ENDMDL
MODEL      195
REMARK 921   NORMALIZED FREE ENERGY PREDICTED BY IDOCK:   -3.49 KCAL/MOL
REMARK 922        TOTAL FREE ENERGY PREDICTED BY IDOCK:   -7.70 KCAL/MOL
REMARK 923 INTER-LIGAND FREE ENERGY PREDICTED BY IDOCK:   -6.54 KCAL/MOL
REMARK 924 INTRA-LIGAND FREE ENERGY PREDICTED BY IDOCK:   -1.16 KCAL/MOL
REMARK 927      BINDING AFFINITY PREDICTED BY RF-SCORE:    0.00 PKD
ROOT
HETATM    1 NA   UNL     1      -5.234  16.566  68.664  1.00  0.00    -0.104 Na 
HETATM    2  C   UNL     2      -5.665  18.296  66.158  1.00  0.00    -0.213 C  
HETATM    3  C   UNL     2      -7.162  18.396  65.916  1.00  0.00    -0.267 C  
ENDROOT
BRANCH   3   4
HETATM    4  C   UNL     2      -7.607  19.854  65.894  1.00  0.00    -0.334 C  
BRANCH   4   5
HETATM    5  C   UNL     2      -8.737  20.111  66.886  1.00  0.00    -0.412 C  
BRANCH   5   6
HETATM    6  C   UNL     2      -8.683  19.097  68.026  1.00  0.00    -0.347 C  
BRANCH   6   7
HETATM    7  C   UNL     2     -10.060  18.884  68.643  1.00  0.00    -0.447 C  
BRANCH   7   8
HETATM    8  C   UNL     2     -10.620  17.520  68.247  1.00  0.00    -0.354 C  
BRANCH   8   9
HETATM    9  C   UNL     2      -9.562  16.434  68.399  1.00  0.00    -0.219 C  
BRANCH   9  10
HETATM   10  C   UNL     2      -9.350  15.691  67.081  1.00  0.00    -0.229 C  
BRANCH  10  11
HETATM   11  C   UNL     2     -10.106  16.380  65.950  1.00  0.00    -0.370 C  
BRANCH  11  12
HETATM   12  C   UNL     2     -10.745  15.361  65.013  1.00  0.00    -0.460 C  
BRANCH  12  13
HETATM   13  C   UNL     2     -10.840  13.993  65.682  1.00  0.00    -0.295 C  
BRANCH  13  14
HETATM   14  O   UNL     2     -10.655  12.952  64.718  1.00  0.00    -0.308 OA 
BRANCH  14  15
HETATM   15  C   UNL     2     -10.247  11.747  65.222  1.00  0.00    -0.267 C  
HETATM   16  O   UNL     2     -10.375  10.682  64.624  1.00  0.00    -0.345 OA 
BRANCH  15  17
HETATM   17  C   UNL     2      -9.796  11.883  66.631  1.00  0.00    -0.201 C  
HETATM   18  S   UNL     2     -10.831  10.953  67.703  1.00  0.00    -0.286 S  
HETATM   19  O   UNL     2     -12.159  11.529  67.513  1.00  0.00    -0.614 OA 
HETATM   20  O   UNL     2     -10.238  11.217  69.013  1.00  0.00    -0.205 OA 
HETATM   21  O   UNL     2     -10.683   9.573  67.242  1.00  0.00    -0.263 OA 
ENDBRANCH  15  17
ENDBRANCH  14  15
ENDBRANCH  13  14
ENDBRANCH  12  13
ENDBRANCH  11  12
ENDBRANCH  10  11
ENDBRANCH   9  10
ENDBRANCH   8   9
ENDBRANCH   7   8
ENDBRANCH   6   7
ENDBRANCH   5   6
ENDBRANCH   4   5
ENDBRANCH   3   4
TORSDOF 13
ENDMDL
MODEL      196
REMARK 921   NORMALIZED FREE ENERGY PREDICTED BY IDOCK:   -3.49 KCAL/MOL
REMARK 922        TOTAL FREE ENERGY PREDICTED BY IDOCK:   -7.70 KCAL/MOL
REMARK 923 INTER-LIGAND FREE ENERGY PREDICTED BY IDOCK:   -6.80 KCAL/MOL
REMARK 924 INTRA-LIGAND FREE ENERGY PREDICTED BY IDOCK:   -0.90 KCAL/MOL
REMARK 927      BINDING AFFINITY PREDICTED BY RF-SCORE:    0.00 PKD
ROOT
HETATM    1 NA   UNL     1     -10.415   8.158  65.668  1.00  0.00    -0.444 Na 
HETATM    2  C   UNL     2     -10.564   5.385  66.991  1.00  0.00    -0.298 C  
HETATM    3  C   UNL     2      -9.142   4.885  67.182  1.00  0.00    -0.122 C  
ENDROOT
BRANCH   3   4
HETATM    4  C   UNL     2      -8.873   4.572  68.650  1.00  0.00    -0.130 C  
BRANCH   4   5
HETATM    5  C   UNL     2     -10.124   4.763  69.503  1.00  0.00    -0.260 C  
BRANCH   5   6
HETATM    6  C   UNL     2      -9.838   5.716  70.660  1.00  0.00    -0.244 C  
BRANCH   6   7
HETATM    7  C   UNL     2      -9.460   7.103  70.153  1.00  0.00    -0.161 C  
BRANCH   7   8
HETATM    8  C   UNL     2     -10.669   8.034  70.188  1.00  0.00    -0.244 C  
BRANCH   8   9
HETATM    9  C   UNL     2     -10.479   9.132  71.229  1.00  0.00    -0.398 C  
BRANCH   9  10
HETATM   10  C   UNL     2     -11.827   9.647  71.729  1.00  0.00    -0.391 C  
BRANCH  10  11
HETATM   11  C   UNL     2     -12.587  10.340  70.604  1.00  0.00    -0.391 C  
BRANCH  11  12
HETATM   12  C   UNL     2     -12.195  11.809  70.496  1.00  0.00    -0.438 C  
BRANCH  12  13
HETATM   13  C   UNL     2     -12.115  12.244  69.036  1.00  0.00    -0.145 C  
BRANCH  13  14
HETATM   14  O   UNL     2     -10.755  12.471  68.657  1.00  0.00    -0.232 OA 
BRANCH  14  15
HETATM   15  C   UNL     2     -10.553  13.486  67.762  1.00  0.00    -0.246 C  
HETATM   16  O   UNL     2      -9.452  13.978  67.529  1.00  0.00    -0.210 OA 
BRANCH  15  17
HETATM   17  C   UNL     2     -11.845  14.014  67.253  1.00  0.00    -0.411 C  
HETATM   18  S   UNL     2     -12.094  13.531  65.583  1.00  0.00    -0.461 S  
HETATM   19  O   UNL     2     -10.963  14.114  64.865  1.00  0.00    -0.355 OA 
HETATM   20  O   UNL     2     -13.387  14.140  65.272  1.00  0.00    -0.715 OA 
HETATM   21  O   UNL     2     -12.112  12.069  65.627  1.00  0.00    -0.508 OA 
ENDBRANCH  15  17
ENDBRANCH  14  15
ENDBRANCH  13  14
ENDBRANCH  12  13
ENDBRANCH  11  12
ENDBRANCH  10  11
ENDBRANCH   9  10
ENDBRANCH   8   9
ENDBRANCH   7   8
ENDBRANCH   6   7
ENDBRANCH   5   6
ENDBRANCH   4   5
ENDBRANCH   3   4
TORSDOF 13
ENDMDL
MODEL      197
REMARK 921   NORMALIZED FREE ENERGY PREDICTED BY IDOCK:   -3.48 KCAL/MOL
REMARK 922        TOTAL FREE ENERGY PREDICTED BY IDOCK:   -7.70 KCAL/MOL
REMARK 923 INTER-LIGAND FREE ENERGY PREDICTED BY IDOCK:   -6.99 KCAL/MOL
REMARK 924 INTRA-LIGAND FREE ENERGY PREDICTED BY IDOCK:   -0.70 KCAL/MOL
REMARK 927      BINDING AFFINITY PREDICTED BY RF-SCORE:    0.00 PKD
ROOT
HETATM    1 NA   UNL     1     -13.847  11.054  72.243  1.00  0.00    -0.381 Na 
HETATM    2  C   UNL     2     -14.231  14.105  72.314  1.00  0.00    -0.598 C  
HETATM    3  C   UNL     2     -12.860  14.742  72.469  1.00  0.00    -0.469 C  
ENDROOT
BRANCH   3   4
HETATM    4  C   UNL     2     -12.584  15.711  71.325  1.00  0.00    -0.523 C  
BRANCH   4   5
HETATM    5  C   UNL     2     -11.374  15.278  70.501  1.00  0.00    -0.340 C  
BRANCH   5   6
HETATM    6  C   UNL     2     -10.903  16.424  69.609  1.00  0.00    -0.346 C  
BRANCH   6   7
HETATM    7  C   UNL     2     -10.045  15.912  68.457  1.00  0.00    -0.217 C  
BRANCH   7   8
HETATM    8  C   UNL     2     -10.451  16.584  67.148  1.00  0.00    -0.300 C  
BRANCH   8   9
HETATM    9  C   UNL     2     -10.741  15.544  66.072  1.00  0.00    -0.331 C  
BRANCH   9  10
HETATM   10  C   UNL     2     -11.225  14.237  66.693  1.00  0.00    -0.337 C  
BRANCH  10  11
HETATM   11  C   UNL     2     -12.544  13.800  66.065  1.00  0.00    -0.458 C  
BRANCH  11  12
HETATM   12  C   UNL     2     -12.313  12.816  64.924  1.00  0.00    -0.551 C  
BRANCH  12  13
HETATM   13  C   UNL     2     -11.047  12.000  65.160  1.00  0.00    -0.318 C  
BRANCH  13  14
HETATM   14  O   UNL     2     -10.880  11.027  64.124  1.00  0.00    -0.361 OA 
BRANCH  14  15
HETATM   15  C   UNL     2      -9.637  10.461  64.040  1.00  0.00    -0.317 C  
HETATM   16  O   UNL     2      -9.248   9.816  63.070  1.00  0.00    -0.266 OA 
BRANCH  15  17
HETATM   17  C   UNL     2      -8.905  10.589  65.326  1.00  0.00    -0.188 C  
HETATM   18  S   UNL     2      -8.787   9.030  66.127  1.00  0.00    -0.176 S  
HETATM   19  O   UNL     2     -10.175   8.629  66.344  1.00  0.00    -0.282 OA 
HETATM   20  O   UNL     2      -8.055   9.362  67.349  1.00  0.00    -0.109 OA 
HETATM   21  O   UNL     2      -8.041   8.195  65.186  1.00  0.00    -0.124 OA 
ENDBRANCH  15  17
ENDBRANCH  14  15
ENDBRANCH  13  14
ENDBRANCH  12  13
ENDBRANCH  11  12
ENDBRANCH  10  11
ENDBRANCH   9  10
ENDBRANCH   8   9
ENDBRANCH   7   8
ENDBRANCH   6   7
ENDBRANCH   5   6
ENDBRANCH   4   5
ENDBRANCH   3   4
TORSDOF 13
ENDMDL
MODEL      198
REMARK 921   NORMALIZED FREE ENERGY PREDICTED BY IDOCK:   -3.48 KCAL/MOL
REMARK 922        TOTAL FREE ENERGY PREDICTED BY IDOCK:   -7.68 KCAL/MOL
REMARK 923 INTER-LIGAND FREE ENERGY PREDICTED BY IDOCK:   -6.73 KCAL/MOL
REMARK 924 INTRA-LIGAND FREE ENERGY PREDICTED BY IDOCK:   -0.95 KCAL/MOL
REMARK 927      BINDING AFFINITY PREDICTED BY RF-SCORE:    0.00 PKD
ROOT
HETATM    1 NA   UNL     1     -11.128  20.819  70.205  1.00  0.00    -0.894 Na 
HETATM    2  C   UNL     2     -10.853  19.309  67.540  1.00  0.00    -0.524 C  
HETATM    3  C   UNL     2      -9.914  20.106  66.650  1.00  0.00    -0.595 C  
ENDROOT
BRANCH   3   4
HETATM    4  C   UNL     2      -8.728  19.251  66.217  1.00  0.00    -0.333 C  
BRANCH   4   5
HETATM    5  C   UNL     2      -7.491  20.104  65.946  1.00  0.00    -0.284 C  
BRANCH   5   6
HETATM    6  C   UNL     2      -7.129  20.922  67.182  1.00  0.00    -0.413 C  
BRANCH   6   7
HETATM    7  C   UNL     2      -6.098  20.200  68.042  1.00  0.00    -0.275 C  
BRANCH   7   8
HETATM    8  C   UNL     2      -6.753  19.626  69.295  1.00  0.00    -0.391 C  
BRANCH   8   9
HETATM    9  C   UNL     2      -6.380  18.159  69.479  1.00  0.00    -0.222 C  
BRANCH   9  10
HETATM   10  C   UNL     2      -5.972  17.529  68.149  1.00  0.00    -0.157 C  
BRANCH  10  11
HETATM   11  C   UNL     2      -6.412  16.070  68.089  1.00  0.00    -0.132 C  
BRANCH  11  12
HETATM   12  C   UNL     2      -7.459  15.854  67.002  1.00  0.00    -0.254 C  
BRANCH  12  13
HETATM   13  C   UNL     2      -8.307  14.622  67.303  1.00  0.00    -0.213 C  
BRANCH  13  14
HETATM   14  O   UNL     2      -9.616  14.769  66.744  1.00  0.00    -0.233 OA 
BRANCH  14  15
HETATM   15  C   UNL     2      -9.996  13.790  65.867  1.00  0.00    -0.293 C  
HETATM   16  O   UNL     2     -10.205  13.990  64.674  1.00  0.00    -0.420 OA 
BRANCH  15  17
HETATM   17  C   UNL     2     -10.281  12.517  66.579  1.00  0.00    -0.240 C  
HETATM   18  S   UNL     2     -10.239  11.163  65.462  1.00  0.00    -0.273 S  
HETATM   19  O   UNL     2     -11.280  11.468  64.484  1.00  0.00    -0.305 OA 
HETATM   20  O   UNL     2     -10.543  10.030  66.336  1.00  0.00    -0.166 OA 
HETATM   21  O   UNL     2      -8.875  11.168  64.936  1.00  0.00    -0.114 OA 
ENDBRANCH  15  17
ENDBRANCH  14  15
ENDBRANCH  13  14
ENDBRANCH  12  13
ENDBRANCH  11  12
ENDBRANCH  10  11
ENDBRANCH   9  10
ENDBRANCH   8   9
ENDBRANCH   7   8
ENDBRANCH   6   7
ENDBRANCH   5   6
ENDBRANCH   4   5
ENDBRANCH   3   4
TORSDOF 13
ENDMDL
MODEL      199
REMARK 921   NORMALIZED FREE ENERGY PREDICTED BY IDOCK:   -3.47 KCAL/MOL
REMARK 922        TOTAL FREE ENERGY PREDICTED BY IDOCK:   -7.68 KCAL/MOL
REMARK 923 INTER-LIGAND FREE ENERGY PREDICTED BY IDOCK:   -6.37 KCAL/MOL
REMARK 924 INTRA-LIGAND FREE ENERGY PREDICTED BY IDOCK:   -1.31 KCAL/MOL
REMARK 927      BINDING AFFINITY PREDICTED BY RF-SCORE:    0.00 PKD
ROOT
HETATM    1 NA   UNL     1     -12.170  15.278  63.045  1.00  0.00    -0.806 Na 
HETATM    2  C   UNL     2     -12.189  12.300  63.814  1.00  0.00    -0.642 C  
HETATM    3  C   UNL     2     -10.807  11.738  63.526  1.00  0.00    -0.496 C  
ENDROOT
BRANCH   3   4
HETATM    4  C   UNL     2     -10.201  11.129  64.786  1.00  0.00    -0.365 C  
BRANCH   4   5
HETATM    5  C   UNL     2      -9.725  12.205  65.757  1.00  0.00    -0.245 C  
BRANCH   5   6
HETATM    6  C   UNL     2     -10.059  11.809  67.193  1.00  0.00    -0.224 C  
BRANCH   6   7
HETATM    7  C   UNL     2     -11.555  11.913  67.463  1.00  0.00    -0.374 C  
BRANCH   7   8
HETATM    8  C   UNL     2     -11.991  13.376  67.512  1.00  0.00    -0.381 C  
BRANCH   8   9
HETATM    9  C   UNL     2     -11.186  14.147  68.551  1.00  0.00    -0.285 C  
BRANCH   9  10
HETATM   10  C   UNL     2     -10.598  15.421  67.949  1.00  0.00    -0.267 C  
BRANCH  10  11
HETATM   11  C   UNL     2      -9.131  15.571  68.339  1.00  0.00    -0.190 C  
BRANCH  11  12
HETATM   12  C   UNL     2      -8.215  15.332  67.144  1.00  0.00    -0.250 C  
BRANCH  12  13
HETATM   13  C   UNL     2      -6.911  16.107  67.296  1.00  0.00    -0.201 C  
BRANCH  13  14
HETATM   14  O   UNL     2      -6.826  17.140  66.310  1.00  0.00    -0.243 OA 
BRANCH  14  15
HETATM   15  C   UNL     2      -7.109  18.404  66.754  1.00  0.00    -0.205 C  
HETATM   16  O   UNL     2      -7.186  18.705  67.942  1.00  0.00    -0.231 OA 
BRANCH  15  17
HETATM   17  C   UNL     2      -7.472  19.297  65.624  1.00  0.00    -0.105 C  
HETATM   18  S   UNL     2      -6.031  19.999  64.905  1.00  0.00    -0.258 S  
HETATM   19  O   UNL     2      -5.411  20.747  65.994  1.00  0.00    -0.179 OA 
HETATM   20  O   UNL     2      -6.590  20.831  63.840  1.00  0.00    -0.237 OA 
HETATM   21  O   UNL     2      -5.266  18.847  64.430  1.00  0.00    -0.182 OA 
ENDBRANCH  15  17
ENDBRANCH  14  15
ENDBRANCH  13  14
ENDBRANCH  12  13
ENDBRANCH  11  12
ENDBRANCH  10  11
ENDBRANCH   9  10
ENDBRANCH   8   9
ENDBRANCH   7   8
ENDBRANCH   6   7
ENDBRANCH   5   6
ENDBRANCH   4   5
ENDBRANCH   3   4
TORSDOF 13
ENDMDL
MODEL      200
REMARK 921   NORMALIZED FREE ENERGY PREDICTED BY IDOCK:   -3.47 KCAL/MOL
REMARK 922        TOTAL FREE ENERGY PREDICTED BY IDOCK:   -7.67 KCAL/MOL
REMARK 923 INTER-LIGAND FREE ENERGY PREDICTED BY IDOCK:   -7.22 KCAL/MOL
REMARK 924 INTRA-LIGAND FREE ENERGY PREDICTED BY IDOCK:   -0.46 KCAL/MOL
REMARK 927      BINDING AFFINITY PREDICTED BY RF-SCORE:    0.00 PKD
ROOT
HETATM    1 NA   UNL     1      -7.129   8.207  72.175  1.00  0.00    -0.053 Na 
HETATM    2  C   UNL     2      -7.988   5.657  70.684  1.00  0.00    -0.104 C  
HETATM    3  C   UNL     2      -8.160   4.553  71.714  1.00  0.00    -0.102 C  
ENDROOT
BRANCH   3   4
HETATM    4  C   UNL     2      -9.570   3.977  71.655  1.00  0.00    -0.230 C  
BRANCH   4   5
HETATM    5  C   UNL     2     -10.149   3.764  73.051  1.00  0.00    -0.217 C  
BRANCH   5   6
HETATM    6  C   UNL     2     -10.883   5.018  73.518  1.00  0.00    -0.369 C  
BRANCH   6   7
HETATM    7  C   UNL     2     -11.580   5.717  72.356  1.00  0.00    -0.320 C  
BRANCH   7   8
HETATM    8  C   UNL     2     -11.288   7.215  72.379  1.00  0.00    -0.312 C  
BRANCH   8   9
HETATM    9  C   UNL     2     -12.145   7.951  71.355  1.00  0.00    -0.333 C  
BRANCH   9  10
HETATM   10  C   UNL     2     -12.868   9.132  71.999  1.00  0.00    -0.483 C  
BRANCH  10  11
HETATM   11  C   UNL     2     -13.267  10.157  70.942  1.00  0.00    -0.360 C  
BRANCH  11  12
HETATM   12  C   UNL     2     -12.086  11.042  70.560  1.00  0.00    -0.470 C  
BRANCH  12  13
HETATM   13  C   UNL     2     -11.742  10.879  69.083  1.00  0.00    -0.326 C  
BRANCH  13  14
HETATM   14  O   UNL     2     -11.705  12.154  68.435  1.00  0.00    -0.300 OA 
BRANCH  14  15
HETATM   15  C   UNL     2     -11.514  12.123  67.080  1.00  0.00    -0.346 C  
HETATM   16  O   UNL     2     -10.956  11.199  66.494  1.00  0.00    -0.271 OA 
BRANCH  15  17
HETATM   17  C   UNL     2     -11.913  13.410  66.455  1.00  0.00    -0.400 C  
HETATM   18  S   UNL     2     -12.189  13.202  64.734  1.00  0.00    -0.436 S  
HETATM   19  O   UNL     2     -10.906  12.735  64.215  1.00  0.00    -0.341 OA 
HETATM   20  O   UNL     2     -12.557  14.553  64.312  1.00  0.00    -0.681 OA 
HETATM   21  O   UNL     2     -13.279  12.229  64.657  1.00  0.00    -0.763 OA 
ENDBRANCH  15  17
ENDBRANCH  14  15
ENDBRANCH  13  14
ENDBRANCH  12  13
ENDBRANCH  11  12
ENDBRANCH  10  11
ENDBRANCH   9  10
ENDBRANCH   8   9
ENDBRANCH   7   8
ENDBRANCH   6   7
ENDBRANCH   5   6
ENDBRANCH   4   5
ENDBRANCH   3   4
TORSDOF 13
ENDMDL
MODEL      201
REMARK 921   NORMALIZED FREE ENERGY PREDICTED BY IDOCK:   -3.47 KCAL/MOL
REMARK 922        TOTAL FREE ENERGY PREDICTED BY IDOCK:   -7.67 KCAL/MOL
REMARK 923 INTER-LIGAND FREE ENERGY PREDICTED BY IDOCK:   -6.91 KCAL/MOL
REMARK 924 INTRA-LIGAND FREE ENERGY PREDICTED BY IDOCK:   -0.76 KCAL/MOL
REMARK 927      BINDING AFFINITY PREDICTED BY RF-SCORE:    0.00 PKD
ROOT
HETATM    1 NA   UNL     1     -14.012  11.016  72.850  1.00  0.00    -0.619 Na 
HETATM    2  C   UNL     2     -13.933  14.037  72.282  1.00  0.00    -0.651 C  
HETATM    3  C   UNL     2     -12.484  14.487  72.361  1.00  0.00    -0.351 C  
ENDROOT
BRANCH   3   4
HETATM    4  C   UNL     2     -12.053  15.147  71.056  1.00  0.00    -0.389 C  
BRANCH   4   5
HETATM    5  C   UNL     2     -11.800  14.114  69.961  1.00  0.00    -0.388 C  
BRANCH   5   6
HETATM    6  C   UNL     2     -11.763  14.791  68.593  1.00  0.00    -0.356 C  
BRANCH   6   7
HETATM    7  C   UNL     2     -12.021  13.790  67.473  1.00  0.00    -0.411 C  
BRANCH   7   8
HETATM    8  C   UNL     2     -11.516  14.335  66.140  1.00  0.00    -0.357 C  
BRANCH   8   9
HETATM    9  C   UNL     2     -12.496  14.017  65.016  1.00  0.00    -0.446 C  
BRANCH   9  10
HETATM   10  C   UNL     2     -12.248  12.618  64.456  1.00  0.00    -0.514 C  
BRANCH  10  11
HETATM   11  C   UNL     2     -10.901  12.558  63.742  1.00  0.00    -0.489 C  
BRANCH  11  12
HETATM   12  C   UNL     2     -10.246  11.193  63.915  1.00  0.00    -0.420 C  
BRANCH  12  13
HETATM   13  C   UNL     2     -10.203  10.795  65.387  1.00  0.00    -0.276 C  
BRANCH  13  14
HETATM   14  O   UNL     2      -9.967   9.389  65.517  1.00  0.00    -0.281 OA 
BRANCH  14  15
HETATM   15  C   UNL     2      -8.826   9.042  66.188  1.00  0.00    -0.164 C  
HETATM   16  O   UNL     2      -8.014   8.223  65.769  1.00  0.00    -0.090 OA 
BRANCH  15  17
HETATM   17  C   UNL     2      -8.798   9.652  67.543  1.00  0.00    -0.125 C  
HETATM   18  S   UNL     2      -9.329   8.495  68.752  1.00  0.00    -0.142 S  
HETATM   19  O   UNL     2     -10.692   8.154  68.352  1.00  0.00    -0.137 OA 
HETATM   20  O   UNL     2      -9.237   9.272  69.987  1.00  0.00    -0.176 OA 
HETATM   21  O   UNL     2      -8.364   7.401  68.656  1.00  0.00    -0.127 OA 
ENDBRANCH  15  17
ENDBRANCH  14  15
ENDBRANCH  13  14
ENDBRANCH  12  13
ENDBRANCH  11  12
ENDBRANCH  10  11
ENDBRANCH   9  10
ENDBRANCH   8   9
ENDBRANCH   7   8
ENDBRANCH   6   7
ENDBRANCH   5   6
ENDBRANCH   4   5
ENDBRANCH   3   4
TORSDOF 13
ENDMDL
MODEL      202
REMARK 921   NORMALIZED FREE ENERGY PREDICTED BY IDOCK:   -3.46 KCAL/MOL
REMARK 922        TOTAL FREE ENERGY PREDICTED BY IDOCK:   -7.66 KCAL/MOL
REMARK 923 INTER-LIGAND FREE ENERGY PREDICTED BY IDOCK:   -6.50 KCAL/MOL
REMARK 924 INTRA-LIGAND FREE ENERGY PREDICTED BY IDOCK:   -1.15 KCAL/MOL
REMARK 927      BINDING AFFINITY PREDICTED BY RF-SCORE:    0.00 PKD
ROOT
HETATM    1 NA   UNL     1      -8.329   8.687  67.667  1.00  0.00    -0.108 Na 
HETATM    2  C   UNL     2      -7.672  10.325  65.148  1.00  0.00    -0.136 C  
HETATM    3  C   UNL     2      -8.364   9.662  63.970  1.00  0.00    -0.171 C  
ENDROOT
BRANCH   3   4
HETATM    4  C   UNL     2      -9.294  10.647  63.268  1.00  0.00    -0.329 C  
BRANCH   4   5
HETATM    5  C   UNL     2     -10.397  11.140  64.199  1.00  0.00    -0.423 C  
BRANCH   5   6
HETATM    6  C   UNL     2     -11.286  12.152  63.481  1.00  0.00    -0.536 C  
BRANCH   6   7
HETATM    7  C   UNL     2     -12.508  12.508  64.318  1.00  0.00    -0.520 C  
BRANCH   7   8
HETATM    8  C   UNL     2     -12.504  13.994  64.666  1.00  0.00    -0.366 C  
BRANCH   8   9
HETATM    9  C   UNL     2     -12.706  14.201  66.163  1.00  0.00    -0.251 C  
BRANCH   9  10
HETATM   10  C   UNL     2     -12.183  13.005  66.954  1.00  0.00    -0.233 C  
BRANCH  10  11
HETATM   11  C   UNL     2     -11.534  13.465  68.256  1.00  0.00    -0.350 C  
BRANCH  11  12
HETATM   12  C   UNL     2     -10.142  12.867  68.421  1.00  0.00    -0.227 C  
BRANCH  12  13
HETATM   13  C   UNL     2      -9.211  13.345  67.311  1.00  0.00    -0.222 C  
BRANCH  13  14
HETATM   14  O   UNL     2      -9.088  14.770  67.343  1.00  0.00    -0.182 OA 
BRANCH  14  15
HETATM   15  C   UNL     2      -9.243  15.403  66.140  1.00  0.00    -0.327 C  
HETATM   16  O   UNL     2      -9.553  14.823  65.102  1.00  0.00    -0.116 OA 
BRANCH  15  17
HETATM   17  C   UNL     2      -8.824  16.825  66.227  1.00  0.00    -0.299 C  
HETATM   18  S   UNL     2     -10.227  17.878  66.302  1.00  0.00    -0.327 S  
HETATM   19  O   UNL     2     -10.946  17.612  65.060  1.00  0.00    -0.780 OA 
HETATM   20  O   UNL     2      -9.617  19.205  66.376  1.00  0.00    -0.337 OA 
HETATM   21  O   UNL     2     -10.924  17.467  67.521  1.00  0.00    -0.265 OA 
ENDBRANCH  15  17
ENDBRANCH  14  15
ENDBRANCH  13  14
ENDBRANCH  12  13
ENDBRANCH  11  12
ENDBRANCH  10  11
ENDBRANCH   9  10
ENDBRANCH   8   9
ENDBRANCH   7   8
ENDBRANCH   6   7
ENDBRANCH   5   6
ENDBRANCH   4   5
ENDBRANCH   3   4
TORSDOF 13
ENDMDL
MODEL      203
REMARK 921   NORMALIZED FREE ENERGY PREDICTED BY IDOCK:   -3.46 KCAL/MOL
REMARK 922        TOTAL FREE ENERGY PREDICTED BY IDOCK:   -7.65 KCAL/MOL
REMARK 923 INTER-LIGAND FREE ENERGY PREDICTED BY IDOCK:   -7.05 KCAL/MOL
REMARK 924 INTRA-LIGAND FREE ENERGY PREDICTED BY IDOCK:   -0.61 KCAL/MOL
REMARK 927      BINDING AFFINITY PREDICTED BY RF-SCORE:    0.00 PKD
ROOT
HETATM    1 NA   UNL     1     -12.850   6.657  69.781  1.00  0.00    -0.636 Na 
HETATM    2  C   UNL     2      -9.942   6.229  68.877  1.00  0.00    -0.179 C  
HETATM    3  C   UNL     2      -9.883   6.465  67.377  1.00  0.00    -0.158 C  
ENDROOT
BRANCH   3   4
HETATM    4  C   UNL     2      -8.874   7.558  67.043  1.00  0.00    -0.134 C  
BRANCH   4   5
HETATM    5  C   UNL     2      -8.822   7.835  65.543  1.00  0.00    -0.048 C  
BRANCH   5   6
HETATM    6  C   UNL     2      -9.253   9.271  65.254  1.00  0.00    -0.275 C  
BRANCH   6   7
HETATM    7  C   UNL     2      -9.760   9.962  66.515  1.00  0.00    -0.260 C  
BRANCH   7   8
HETATM    8  C   UNL     2     -10.708  11.103  66.156  1.00  0.00    -0.285 C  
BRANCH   8   9
HETATM    9  C   UNL     2     -10.783  11.292  64.645  1.00  0.00    -0.371 C  
BRANCH   9  10
HETATM   10  C   UNL     2     -12.111  11.927  64.241  1.00  0.00    -0.344 C  
BRANCH  10  11
HETATM   11  C   UNL     2     -11.874  13.210  63.452  1.00  0.00    -0.490 C  
BRANCH  11  12
HETATM   12  C   UNL     2     -12.196  14.442  64.291  1.00  0.00    -0.450 C  
BRANCH  12  13
HETATM   13  C   UNL     2     -11.070  14.736  65.276  1.00  0.00    -0.370 C  
BRANCH  13  14
HETATM   14  O   UNL     2     -10.540  16.045  65.052  1.00  0.00    -0.551 OA 
BRANCH  14  15
HETATM   15  C   UNL     2      -9.648  16.490  65.991  1.00  0.00    -0.290 C  
HETATM   16  O   UNL     2      -8.491  16.088  66.072  1.00  0.00    -0.302 OA 
BRANCH  15  17
HETATM   17  C   UNL     2     -10.312  17.376  66.980  1.00  0.00    -0.318 C  
HETATM   18  S   UNL     2     -10.347  19.033  66.399  1.00  0.00    -0.466 S  
HETATM   19  O   UNL     2      -8.940  19.387  66.230  1.00  0.00    -0.346 OA 
HETATM   20  O   UNL     2     -11.019  19.732  67.494  1.00  0.00    -0.373 OA 
HETATM   21  O   UNL     2     -11.122  18.967  65.161  1.00  0.00    -0.399 OA 
ENDBRANCH  15  17
ENDBRANCH  14  15
ENDBRANCH  13  14
ENDBRANCH  12  13
ENDBRANCH  11  12
ENDBRANCH  10  11
ENDBRANCH   9  10
ENDBRANCH   8   9
ENDBRANCH   7   8
ENDBRANCH   6   7
ENDBRANCH   5   6
ENDBRANCH   4   5
ENDBRANCH   3   4
TORSDOF 13
ENDMDL
MODEL      204
REMARK 921   NORMALIZED FREE ENERGY PREDICTED BY IDOCK:   -3.46 KCAL/MOL
REMARK 922        TOTAL FREE ENERGY PREDICTED BY IDOCK:   -7.65 KCAL/MOL
REMARK 923 INTER-LIGAND FREE ENERGY PREDICTED BY IDOCK:   -6.18 KCAL/MOL
REMARK 924 INTRA-LIGAND FREE ENERGY PREDICTED BY IDOCK:   -1.47 KCAL/MOL
REMARK 927      BINDING AFFINITY PREDICTED BY RF-SCORE:    0.00 PKD
ROOT
HETATM    1 NA   UNL     1     -11.212  17.551  64.906  1.00  0.00    -0.468 Na 
HETATM    2  C   UNL     2     -11.254  15.068  66.721  1.00  0.00    -0.322 C  
HETATM    3  C   UNL     2     -12.340  14.137  66.208  1.00  0.00    -0.451 C  
ENDROOT
BRANCH   3   4
HETATM    4  C   UNL     2     -11.760  12.767  65.873  1.00  0.00    -0.464 C  
BRANCH   4   5
HETATM    5  C   UNL     2     -11.632  11.892  67.117  1.00  0.00    -0.363 C  
BRANCH   5   6
HETATM    6  C   UNL     2     -10.700  10.714  66.843  1.00  0.00    -0.297 C  
BRANCH   6   7
HETATM    7  C   UNL     2      -9.408  10.832  67.644  1.00  0.00    -0.156 C  
BRANCH   7   8
HETATM    8  C   UNL     2      -8.377  11.656  66.877  1.00  0.00    -0.169 C  
BRANCH   8   9
HETATM    9  C   UNL     2      -7.988  12.905  67.661  1.00  0.00    -0.167 C  
BRANCH   9  10
HETATM   10  C   UNL     2      -6.482  12.946  67.907  1.00  0.00    -0.127 C  
BRANCH  10  11
HETATM   11  C   UNL     2      -5.972  14.383  67.871  1.00  0.00    -0.149 C  
BRANCH  11  12
HETATM   12  C   UNL     2      -7.113  15.368  67.644  1.00  0.00    -0.204 C  
BRANCH  12  13
HETATM   13  C   UNL     2      -6.659  16.797  67.921  1.00  0.00    -0.141 C  
BRANCH  13  14
HETATM   14  O   UNL     2      -6.940  17.637  66.797  1.00  0.00    -0.169 OA 
BRANCH  14  15
HETATM   15  C   UNL     2      -8.241  18.044  66.675  1.00  0.00    -0.261 C  
HETATM   16  O   UNL     2      -8.993  17.657  65.786  1.00  0.00    -0.509 OA 
BRANCH  15  17
HETATM   17  C   UNL     2      -8.554  19.127  67.644  1.00  0.00    -0.296 C  
HETATM   18  S   UNL     2     -10.191  18.953  68.256  1.00  0.00    -0.358 S  
HETATM   19  O   UNL     2     -11.033  19.045  67.066  1.00  0.00    -0.399 OA 
HETATM   20  O   UNL     2     -10.305  20.090  69.167  1.00  0.00    -0.350 OA 
HETATM   21  O   UNL     2     -10.194  17.648  68.917  1.00  0.00    -0.360 OA 
ENDBRANCH  15  17
ENDBRANCH  14  15
ENDBRANCH  13  14
ENDBRANCH  12  13
ENDBRANCH  11  12
ENDBRANCH  10  11
ENDBRANCH   9  10
ENDBRANCH   8   9
ENDBRANCH   7   8
ENDBRANCH   6   7
ENDBRANCH   5   6
ENDBRANCH   4   5
ENDBRANCH   3   4
TORSDOF 13
ENDMDL
MODEL      205
REMARK 921   NORMALIZED FREE ENERGY PREDICTED BY IDOCK:   -3.45 KCAL/MOL
REMARK 922        TOTAL FREE ENERGY PREDICTED BY IDOCK:   -7.64 KCAL/MOL
REMARK 923 INTER-LIGAND FREE ENERGY PREDICTED BY IDOCK:   -6.63 KCAL/MOL
REMARK 924 INTRA-LIGAND FREE ENERGY PREDICTED BY IDOCK:   -1.01 KCAL/MOL
REMARK 927      BINDING AFFINITY PREDICTED BY RF-SCORE:    0.00 PKD
ROOT
HETATM    1 NA   UNL     1     -10.327  20.483  68.959  1.00  0.00    -0.386 Na 
HETATM    2  C   UNL     2     -10.564  17.688  67.697  1.00  0.00    -0.364 C  
HETATM    3  C   UNL     2      -9.424  17.529  66.704  1.00  0.00    -0.285 C  
ENDROOT
BRANCH   3   4
HETATM    4  C   UNL     2      -8.575  16.310  67.049  1.00  0.00    -0.227 C  
BRANCH   4   5
HETATM    5  C   UNL     2      -7.118  16.692  67.293  1.00  0.00    -0.208 C  
BRANCH   5   6
HETATM    6  C   UNL     2      -6.732  16.412  68.743  1.00  0.00    -0.158 C  
BRANCH   6   7
HETATM    7  C   UNL     2      -5.605  15.388  68.829  1.00  0.00    -0.093 C  
BRANCH   7   8
HETATM    8  C   UNL     2      -5.780  14.500  70.057  1.00  0.00    -0.121 C  
BRANCH   8   9
HETATM    9  C   UNL     2      -6.025  13.052  69.650  1.00  0.00    -0.118 C  
BRANCH   9  10
HETATM   10  C   UNL     2      -5.828  12.868  68.147  1.00  0.00    -0.088 C  
BRANCH  10  11
HETATM   11  C   UNL     2      -7.053  12.207  67.523  1.00  0.00    -0.135 C  
BRANCH  11  12
HETATM   12  C   UNL     2      -8.256  13.144  67.542  1.00  0.00    -0.183 C  
BRANCH  12  13
HETATM   13  C   UNL     2      -9.510  12.407  68.000  1.00  0.00    -0.208 C  
BRANCH  13  14
HETATM   14  O   UNL     2     -10.625  13.302  68.049  1.00  0.00    -0.228 OA 
BRANCH  14  15
HETATM   15  C   UNL     2     -11.717  12.927  67.314  1.00  0.00    -0.373 C  
HETATM   16  O   UNL     2     -12.158  11.781  67.291  1.00  0.00    -0.595 OA 
BRANCH  15  17
HETATM   17  C   UNL     2     -12.176  14.034  66.437  1.00  0.00    -0.460 C  
HETATM   18  S   UNL     2     -12.108  13.553  64.749  1.00  0.00    -0.421 S  
HETATM   19  O   UNL     2     -10.700  13.242  64.518  1.00  0.00    -0.368 OA 
HETATM   20  O   UNL     2     -12.582  14.755  64.064  1.00  0.00    -0.822 OA 
HETATM   21  O   UNL     2     -13.017  12.411  64.661  1.00  0.00    -0.793 OA 
ENDBRANCH  15  17
ENDBRANCH  14  15
ENDBRANCH  13  14
ENDBRANCH  12  13
ENDBRANCH  11  12
ENDBRANCH  10  11
ENDBRANCH   9  10
ENDBRANCH   8   9
ENDBRANCH   7   8
ENDBRANCH   6   7
ENDBRANCH   5   6
ENDBRANCH   4   5
ENDBRANCH   3   4
TORSDOF 13
ENDMDL
MODEL      206
REMARK 921   NORMALIZED FREE ENERGY PREDICTED BY IDOCK:   -3.44 KCAL/MOL
REMARK 922        TOTAL FREE ENERGY PREDICTED BY IDOCK:   -7.61 KCAL/MOL
REMARK 923 INTER-LIGAND FREE ENERGY PREDICTED BY IDOCK:   -6.50 KCAL/MOL
REMARK 924 INTRA-LIGAND FREE ENERGY PREDICTED BY IDOCK:   -1.11 KCAL/MOL
REMARK 927      BINDING AFFINITY PREDICTED BY RF-SCORE:    0.00 PKD
ROOT
HETATM    1 NA   UNL     1      -9.328  12.821  63.595  1.00  0.00    -0.537 Na 
HETATM    2  C   UNL     2      -9.055   9.836  64.284  1.00  0.00    -0.293 C  
HETATM    3  C   UNL     2      -8.719   9.730  65.762  1.00  0.00    -0.160 C  
ENDROOT
BRANCH   3   4
HETATM    4  C   UNL     2      -9.751   8.876  66.490  1.00  0.00    -0.322 C  
BRANCH   4   5
HETATM    5  C   UNL     2      -9.357   8.635  67.944  1.00  0.00    -0.155 C  
BRANCH   5   6
HETATM    6  C   UNL     2     -10.485   9.066  68.878  1.00  0.00    -0.231 C  
BRANCH   6   7
HETATM    7  C   UNL     2     -10.065  10.245  69.747  1.00  0.00    -0.244 C  
BRANCH   7   8
HETATM    8  C   UNL     2     -10.600  11.553  69.171  1.00  0.00    -0.174 C  
BRANCH   8   9
HETATM    9  C   UNL     2      -9.577  12.196  68.242  1.00  0.00    -0.210 C  
BRANCH   9  10
HETATM   10  C   UNL     2     -10.268  12.915  67.085  1.00  0.00    -0.239 C  
BRANCH  10  11
HETATM   11  C   UNL     2     -11.636  13.433  67.515  1.00  0.00    -0.382 C  
BRANCH  11  12
HETATM   12  C   UNL     2     -11.781  14.921  67.220  1.00  0.00    -0.308 C  
BRANCH  12  13
HETATM   13  C   UNL     2     -10.970  15.752  68.209  1.00  0.00    -0.325 C  
BRANCH  13  14
HETATM   14  O   UNL     2     -10.566  16.987  67.609  1.00  0.00    -0.339 OA 
BRANCH  14  15
HETATM   15  C   UNL     2     -10.007  16.884  66.365  1.00  0.00    -0.309 C  
HETATM   16  O   UNL     2     -10.577  17.227  65.333  1.00  0.00    -0.630 OA 
BRANCH  15  17
HETATM   17  C   UNL     2      -8.713  16.155  66.419  1.00  0.00    -0.325 C  
HETATM   18  S   UNL     2      -7.375  17.283  66.557  1.00  0.00    -0.305 S  
HETATM   19  O   UNL     2      -7.470  18.106  65.355  1.00  0.00    -0.499 OA 
HETATM   20  O   UNL     2      -6.217  16.390  66.589  1.00  0.00    -0.303 OA 
HETATM   21  O   UNL     2      -7.625  17.990  67.813  1.00  0.00    -0.213 OA 
ENDBRANCH  15  17
ENDBRANCH  14  15
ENDBRANCH  13  14
ENDBRANCH  12  13
ENDBRANCH  11  12
ENDBRANCH  10  11
ENDBRANCH   9  10
ENDBRANCH   8   9
ENDBRANCH   7   8
ENDBRANCH   6   7
ENDBRANCH   5   6
ENDBRANCH   4   5
ENDBRANCH   3   4
TORSDOF 13
ENDMDL
MODEL      207
REMARK 921   NORMALIZED FREE ENERGY PREDICTED BY IDOCK:   -3.43 KCAL/MOL
REMARK 922        TOTAL FREE ENERGY PREDICTED BY IDOCK:   -7.60 KCAL/MOL
REMARK 923 INTER-LIGAND FREE ENERGY PREDICTED BY IDOCK:   -6.50 KCAL/MOL
REMARK 924 INTRA-LIGAND FREE ENERGY PREDICTED BY IDOCK:   -1.10 KCAL/MOL
REMARK 927      BINDING AFFINITY PREDICTED BY RF-SCORE:    0.00 PKD
ROOT
HETATM    1 NA   UNL     1     -11.069  10.752  62.699  1.00  0.00    -0.701 Na 
HETATM    2  C   UNL     2     -12.564  12.462  64.772  1.00  0.00    -0.419 C  
HETATM    3  C   UNL     2     -12.006  12.120  66.144  1.00  0.00    -0.225 C  
ENDROOT
BRANCH   3   4
HETATM    4  C   UNL     2     -11.472  13.371  66.834  1.00  0.00    -0.376 C  
BRANCH   4   5
HETATM    5  C   UNL     2      -9.960  13.498  66.673  1.00  0.00    -0.282 C  
BRANCH   5   6
HETATM    6  C   UNL     2      -9.588  14.920  66.260  1.00  0.00    -0.334 C  
BRANCH   6   7
HETATM    7  C   UNL     2     -10.233  15.297  64.931  1.00  0.00    -0.209 C  
BRANCH   7   8
HETATM    8  C   UNL     2     -10.835  16.697  65.006  1.00  0.00    -0.190 C  
BRANCH   8   9
HETATM    9  C   UNL     2     -10.491  17.367  66.332  1.00  0.00    -0.267 C  
BRANCH   9  10
HETATM   10  C   UNL     2     -10.293  18.869  66.148  1.00  0.00    -0.517 C  
BRANCH  10  11
HETATM   11  C   UNL     2     -10.719  19.623  67.404  1.00  0.00    -0.563 C  
BRANCH  11  12
HETATM   12  C   UNL     2      -9.790  19.317  68.573  1.00  0.00    -0.498 C  
BRANCH  12  13
HETATM   13  C   UNL     2      -8.361  19.746  68.257  1.00  0.00    -0.274 C  
BRANCH  13  14
HETATM   14  O   UNL     2      -7.472  19.323  69.296  1.00  0.00    -0.317 OA 
BRANCH  14  15
HETATM   15  C   UNL     2      -6.293  18.772  68.876  1.00  0.00    -0.250 C  
HETATM   16  O   UNL     2      -5.721  19.098  67.839  1.00  0.00    -0.188 OA 
BRANCH  15  17
HETATM   17  C   UNL     2      -5.900  17.629  69.740  1.00  0.00    -0.250 C  
HETATM   18  S   UNL     2      -6.493  16.117  69.072  1.00  0.00    -0.166 S  
HETATM   19  O   UNL     2      -7.944  16.282  69.037  1.00  0.00    -0.222 OA 
HETATM   20  O   UNL     2      -6.019  15.138  70.050  1.00  0.00    -0.127 OA 
HETATM   21  O   UNL     2      -5.849  16.022  67.763  1.00  0.00    -0.121 OA 
ENDBRANCH  15  17
ENDBRANCH  14  15
ENDBRANCH  13  14
ENDBRANCH  12  13
ENDBRANCH  11  12
ENDBRANCH  10  11
ENDBRANCH   9  10
ENDBRANCH   8   9
ENDBRANCH   7   8
ENDBRANCH   6   7
ENDBRANCH   5   6
ENDBRANCH   4   5
ENDBRANCH   3   4
TORSDOF 13
ENDMDL
MODEL      208
REMARK 921   NORMALIZED FREE ENERGY PREDICTED BY IDOCK:   -3.42 KCAL/MOL
REMARK 922        TOTAL FREE ENERGY PREDICTED BY IDOCK:   -7.59 KCAL/MOL
REMARK 923 INTER-LIGAND FREE ENERGY PREDICTED BY IDOCK:   -6.08 KCAL/MOL
REMARK 924 INTRA-LIGAND FREE ENERGY PREDICTED BY IDOCK:   -1.51 KCAL/MOL
REMARK 927      BINDING AFFINITY PREDICTED BY RF-SCORE:    0.00 PKD
ROOT
HETATM    1 NA   UNL     1      -6.434   8.724  71.870  1.00  0.00    -0.048 Na 
HETATM    2  C   UNL     2      -9.075   9.348  70.423  1.00  0.00    -0.302 C  
HETATM    3  C   UNL     2      -9.309   8.256  69.392  1.00  0.00    -0.155 C  
ENDROOT
BRANCH   3   4
HETATM    4  C   UNL     2     -10.650   7.570  69.630  1.00  0.00    -0.243 C  
BRANCH   4   5
HETATM    5  C   UNL     2     -10.874   7.271  71.109  1.00  0.00    -0.260 C  
BRANCH   5   6
HETATM    6  C   UNL     2     -12.290   7.664  71.521  1.00  0.00    -0.356 C  
BRANCH   6   7
HETATM    7  C   UNL     2     -12.301   8.992  72.271  1.00  0.00    -0.402 C  
BRANCH   7   8
HETATM    8  C   UNL     2     -13.250   9.979  71.598  1.00  0.00    -0.518 C  
BRANCH   8   9
HETATM    9  C   UNL     2     -12.486  11.178  71.046  1.00  0.00    -0.506 C  
BRANCH   9  10
HETATM   10  C   UNL     2     -12.370  11.097  69.526  1.00  0.00    -0.262 C  
BRANCH  10  11
HETATM   11  C   UNL     2     -11.487  12.222  68.995  1.00  0.00    -0.349 C  
BRANCH  11  12
HETATM   12  C   UNL     2     -10.570  11.725  67.883  1.00  0.00    -0.231 C  
BRANCH  12  13
HETATM   13  C   UNL     2      -9.648  12.841  67.401  1.00  0.00    -0.199 C  
BRANCH  13  14
HETATM   14  O   UNL     2     -10.081  14.103  67.917  1.00  0.00    -0.227 OA 
BRANCH  14  15
HETATM   15  C   UNL     2     -10.040  15.148  67.034  1.00  0.00    -0.244 C  
HETATM   16  O   UNL     2     -10.552  15.114  65.918  1.00  0.00    -0.305 OA 
BRANCH  15  17
HETATM   17  C   UNL     2      -9.163  16.237  67.535  1.00  0.00    -0.205 C  
HETATM   18  S   UNL     2     -10.117  17.489  68.313  1.00  0.00    -0.368 S  
HETATM   19  O   UNL     2     -11.010  17.969  67.262  1.00  0.00    -0.264 OA 
HETATM   20  O   UNL     2      -9.093  18.450  68.723  1.00  0.00    -0.313 OA 
HETATM   21  O   UNL     2     -10.778  16.804  69.423  1.00  0.00    -0.326 OA 
ENDBRANCH  15  17
ENDBRANCH  14  15
ENDBRANCH  13  14
ENDBRANCH  12  13
ENDBRANCH  11  12
ENDBRANCH  10  11
ENDBRANCH   9  10
ENDBRANCH   8   9
ENDBRANCH   7   8
ENDBRANCH   6   7
ENDBRANCH   5   6
ENDBRANCH   4   5
ENDBRANCH   3   4
TORSDOF 13
ENDMDL
MODEL      209
REMARK 921   NORMALIZED FREE ENERGY PREDICTED BY IDOCK:   -3.42 KCAL/MOL
REMARK 922        TOTAL FREE ENERGY PREDICTED BY IDOCK:   -7.58 KCAL/MOL
REMARK 923 INTER-LIGAND FREE ENERGY PREDICTED BY IDOCK:   -6.05 KCAL/MOL
REMARK 924 INTRA-LIGAND FREE ENERGY PREDICTED BY IDOCK:   -1.52 KCAL/MOL
REMARK 927      BINDING AFFINITY PREDICTED BY RF-SCORE:    0.00 PKD
ROOT
HETATM    1 NA   UNL     1      -8.128  17.492  65.289  1.00  0.00    -0.071 Na 
HETATM    2  C   UNL     2     -10.661  15.774  64.992  1.00  0.00    -0.443 C  
HETATM    3  C   UNL     2     -10.239  14.314  65.027  1.00  0.00    -0.402 C  
ENDROOT
BRANCH   3   4
HETATM    4  C   UNL     2     -10.959  13.571  66.147  1.00  0.00    -0.289 C  
BRANCH   4   5
HETATM    5  C   UNL     2     -10.121  12.415  66.684  1.00  0.00    -0.234 C  
BRANCH   5   6
HETATM    6  C   UNL     2      -9.898  12.574  68.186  1.00  0.00    -0.221 C  
BRANCH   6   7
HETATM    7  C   UNL     2     -11.105  12.087  68.980  1.00  0.00    -0.291 C  
BRANCH   7   8
HETATM    8  C   UNL     2     -12.057  13.244  69.271  1.00  0.00    -0.291 C  
BRANCH   8   9
HETATM    9  C   UNL     2     -11.289  14.478  69.730  1.00  0.00    -0.305 C  
BRANCH   9  10
HETATM   10  C   UNL     2     -11.763  15.723  68.986  1.00  0.00    -0.405 C  
BRANCH  10  11
HETATM   11  C   UNL     2     -10.592  16.660  68.706  1.00  0.00    -0.340 C  
BRANCH  11  12
HETATM   12  C   UNL     2      -9.262  15.919  68.785  1.00  0.00    -0.218 C  
BRANCH  12  13
HETATM   13  C   UNL     2      -8.191  16.638  67.970  1.00  0.00    -0.185 C  
BRANCH  13  14
HETATM   14  O   UNL     2      -8.657  17.928  67.563  1.00  0.00    -0.236 OA 
BRANCH  14  15
HETATM   15  C   UNL     2      -7.759  18.951  67.703  1.00  0.00    -0.238 C  
HETATM   16  O   UNL     2      -7.017  19.331  66.802  1.00  0.00    -0.198 OA 
BRANCH  15  17
HETATM   17  C   UNL     2      -7.687  19.409  69.115  1.00  0.00    -0.252 C  
HETATM   18  S   UNL     2      -6.075  19.993  69.493  1.00  0.00    -0.351 S  
HETATM   19  O   UNL     2      -5.209  18.839  69.265  1.00  0.00    -0.193 OA 
HETATM   20  O   UNL     2      -6.207  20.382  70.896  1.00  0.00    -0.553 OA 
HETATM   21  O   UNL     2      -5.870  21.112  68.574  1.00  0.00    -0.337 OA 
ENDBRANCH  15  17
ENDBRANCH  14  15
ENDBRANCH  13  14
ENDBRANCH  12  13
ENDBRANCH  11  12
ENDBRANCH  10  11
ENDBRANCH   9  10
ENDBRANCH   8   9
ENDBRANCH   7   8
ENDBRANCH   6   7
ENDBRANCH   5   6
ENDBRANCH   4   5
ENDBRANCH   3   4
TORSDOF 13
ENDMDL
MODEL      210
REMARK 921   NORMALIZED FREE ENERGY PREDICTED BY IDOCK:   -3.41 KCAL/MOL
REMARK 922        TOTAL FREE ENERGY PREDICTED BY IDOCK:   -7.56 KCAL/MOL
REMARK 923 INTER-LIGAND FREE ENERGY PREDICTED BY IDOCK:   -6.73 KCAL/MOL
REMARK 924 INTRA-LIGAND FREE ENERGY PREDICTED BY IDOCK:   -0.83 KCAL/MOL
REMARK 927      BINDING AFFINITY PREDICTED BY RF-SCORE:    0.00 PKD
ROOT
HETATM    1 NA   UNL     1      -9.278  12.640  69.151  1.00  0.00    -0.345 Na 
HETATM    2  C   UNL     2     -11.954  12.705  67.638  1.00  0.00    -0.309 C  
HETATM    3  C   UNL     2     -12.126  14.099  67.057  1.00  0.00    -0.449 C  
ENDROOT
BRANCH   3   4
HETATM    4  C   UNL     2     -12.307  14.034  65.545  1.00  0.00    -0.503 C  
BRANCH   4   5
HETATM    5  C   UNL     2     -12.413  12.593  65.053  1.00  0.00    -0.556 C  
BRANCH   5   6
HETATM    6  C   UNL     2     -11.933  12.489  63.607  1.00  0.00    -0.621 C  
BRANCH   6   7
HETATM    7  C   UNL     2     -10.664  11.652  63.504  1.00  0.00    -0.495 C  
BRANCH   7   8
HETATM    8  C   UNL     2     -10.270  11.105  64.873  1.00  0.00    -0.361 C  
BRANCH   8   9
HETATM    9  C   UNL     2      -9.564   9.761  64.739  1.00  0.00    -0.284 C  
BRANCH   9  10
HETATM   10  C   UNL     2      -9.424   9.080  66.098  1.00  0.00    -0.318 C  
BRANCH  10  11
HETATM   11  C   UNL     2      -9.121   7.595  65.926  1.00  0.00    -0.101 C  
BRANCH  11  12
HETATM   12  C   UNL     2      -9.925   6.750  66.908  1.00  0.00    -0.252 C  
BRANCH  12  13
HETATM   13  C   UNL     2      -9.344   6.855  68.315  1.00  0.00    -0.125 C  
BRANCH  13  14
HETATM   14  O   UNL     2     -10.182   7.669  69.141  1.00  0.00    -0.193 OA 
BRANCH  14  15
HETATM   15  C   UNL     2     -10.800   7.021  70.175  1.00  0.00    -0.256 C  
HETATM   16  O   UNL     2     -12.020   6.944  70.297  1.00  0.00    -0.305 OA 
BRANCH  15  17
HETATM   17  C   UNL     2      -9.814   6.583  71.196  1.00  0.00    -0.182 C  
HETATM   18  S   UNL     2      -9.769   7.717  72.537  1.00  0.00    -0.203 S  
HETATM   19  O   UNL     2      -9.374   8.983  71.926  1.00  0.00    -0.341 OA 
HETATM   20  O   UNL     2      -8.756   7.125  73.410  1.00  0.00    -0.127 OA 
HETATM   21  O   UNL     2     -11.126   7.688  73.081  1.00  0.00    -0.404 OA 
ENDBRANCH  15  17
ENDBRANCH  14  15
ENDBRANCH  13  14
ENDBRANCH  12  13
ENDBRANCH  11  12
ENDBRANCH  10  11
ENDBRANCH   9  10
ENDBRANCH   8   9
ENDBRANCH   7   8
ENDBRANCH   6   7
ENDBRANCH   5   6
ENDBRANCH   4   5
ENDBRANCH   3   4
TORSDOF 13
ENDMDL
MODEL      211
REMARK 921   NORMALIZED FREE ENERGY PREDICTED BY IDOCK:   -3.40 KCAL/MOL
REMARK 922        TOTAL FREE ENERGY PREDICTED BY IDOCK:   -7.55 KCAL/MOL
REMARK 923 INTER-LIGAND FREE ENERGY PREDICTED BY IDOCK:   -6.93 KCAL/MOL
REMARK 924 INTRA-LIGAND FREE ENERGY PREDICTED BY IDOCK:   -0.62 KCAL/MOL
REMARK 927      BINDING AFFINITY PREDICTED BY RF-SCORE:    0.00 PKD
ROOT
HETATM    1 NA   UNL     1      -9.553   2.686  66.110  1.00  0.00    -0.158 Na 
HETATM    2  C   UNL     2     -10.541   5.519  66.785  1.00  0.00    -0.360 C  
HETATM    3  C   UNL     2     -10.737   5.596  68.290  1.00  0.00    -0.227 C  
ENDROOT
BRANCH   3   4
HETATM    4  C   UNL     2      -9.900   6.723  68.886  1.00  0.00    -0.146 C  
BRANCH   4   5
HETATM    5  C   UNL     2      -9.473   7.729  67.820  1.00  0.00    -0.163 C  
BRANCH   5   6
HETATM    6  C   UNL     2     -10.162   9.071  68.052  1.00  0.00    -0.260 C  
BRANCH   6   7
HETATM    7  C   UNL     2      -9.290  10.006  68.881  1.00  0.00    -0.172 C  
BRANCH   7   8
HETATM    8  C   UNL     2      -9.718  11.457  68.681  1.00  0.00    -0.182 C  
BRANCH   8   9
HETATM    9  C   UNL     2     -11.163  11.663  69.121  1.00  0.00    -0.325 C  
BRANCH   9  10
HETATM   10  C   UNL     2     -11.946  12.446  68.070  1.00  0.00    -0.264 C  
BRANCH  10  11
HETATM   11  C   UNL     2     -11.129  12.591  66.790  1.00  0.00    -0.323 C  
BRANCH  11  12
HETATM   12  C   UNL     2     -12.024  12.916  65.599  1.00  0.00    -0.490 C  
BRANCH  12  13
HETATM   13  C   UNL     2     -11.187  13.294  64.380  1.00  0.00    -0.381 C  
BRANCH  13  14
HETATM   14  O   UNL     2     -10.371  14.433  64.670  1.00  0.00    -0.397 OA 
BRANCH  14  15
HETATM   15  C   UNL     2     -11.028  15.632  64.726  1.00  0.00    -0.400 C  
HETATM   16  O   UNL     2     -11.429  16.234  63.733  1.00  0.00    -0.888 OA 
BRANCH  15  17
HETATM   17  C   UNL     2     -11.034  16.173  66.109  1.00  0.00    -0.036 C  
HETATM   18  S   UNL     2     -10.057  17.628  66.208  1.00  0.00    -0.318 S  
HETATM   19  O   UNL     2      -8.719  17.193  65.814  1.00  0.00    -0.527 OA 
HETATM   20  O   UNL     2     -10.184  17.993  67.618  1.00  0.00    -0.333 OA 
HETATM   21  O   UNL     2     -10.701  18.561  65.284  1.00  0.00    -0.578 OA 
ENDBRANCH  15  17
ENDBRANCH  14  15
ENDBRANCH  13  14
ENDBRANCH  12  13
ENDBRANCH  11  12
ENDBRANCH  10  11
ENDBRANCH   9  10
ENDBRANCH   8   9
ENDBRANCH   7   8
ENDBRANCH   6   7
ENDBRANCH   5   6
ENDBRANCH   4   5
ENDBRANCH   3   4
TORSDOF 13
ENDMDL
MODEL      212
REMARK 921   NORMALIZED FREE ENERGY PREDICTED BY IDOCK:   -3.40 KCAL/MOL
REMARK 922        TOTAL FREE ENERGY PREDICTED BY IDOCK:   -7.55 KCAL/MOL
REMARK 923 INTER-LIGAND FREE ENERGY PREDICTED BY IDOCK:   -6.28 KCAL/MOL
REMARK 924 INTRA-LIGAND FREE ENERGY PREDICTED BY IDOCK:   -1.27 KCAL/MOL
REMARK 927      BINDING AFFINITY PREDICTED BY RF-SCORE:    0.00 PKD
ROOT
HETATM    1 NA   UNL     1     -12.613  16.731  71.973  1.00  0.00    -0.495 Na 
HETATM    2  C   UNL     2     -13.395  14.081  70.623  1.00  0.00     0.024 C  
HETATM    3  C   UNL     2     -12.425  13.013  71.100  1.00  0.00    -0.364 C  
ENDROOT
BRANCH   3   4
HETATM    4  C   UNL     2     -13.175  11.857  71.752  1.00  0.00    -0.426 C  
BRANCH   4   5
HETATM    5  C   UNL     2     -13.021  10.565  70.955  1.00  0.00    -0.455 C  
BRANCH   5   6
HETATM    6  C   UNL     2     -11.847   9.749  71.489  1.00  0.00    -0.476 C  
BRANCH   6   7
HETATM    7  C   UNL     2     -10.639   9.845  70.564  1.00  0.00    -0.359 C  
BRANCH   7   8
HETATM    8  C   UNL     2     -10.610   8.667  69.595  1.00  0.00    -0.219 C  
BRANCH   8   9
HETATM    9  C   UNL     2      -9.732   8.977  68.389  1.00  0.00    -0.170 C  
BRANCH   9  10
HETATM   10  C   UNL     2     -10.548   9.623  67.272  1.00  0.00    -0.315 C  
BRANCH  10  11
HETATM   11  C   UNL     2      -9.761  10.755  66.619  1.00  0.00    -0.227 C  
BRANCH  11  12
HETATM   12  C   UNL     2     -10.233  12.116  67.119  1.00  0.00    -0.226 C  
BRANCH  12  13
HETATM   13  C   UNL     2      -9.080  13.113  67.148  1.00  0.00    -0.230 C  
BRANCH  13  14
HETATM   14  O   UNL     2      -9.365  14.230  66.301  1.00  0.00    -0.272 OA 
BRANCH  14  15
HETATM   15  C   UNL     2      -8.919  15.442  66.753  1.00  0.00    -0.259 C  
HETATM   16  O   UNL     2      -8.320  16.251  66.049  1.00  0.00    -0.296 OA 
BRANCH  15  17
HETATM   17  C   UNL     2      -9.104  15.565  68.222  1.00  0.00    -0.186 C  
HETATM   18  S   UNL     2     -10.593  16.421  68.587  1.00  0.00    -0.326 S  
HETATM   19  O   UNL     2     -10.422  17.729  67.963  1.00  0.00    -0.373 OA 
HETATM   20  O   UNL     2     -10.589  16.443  70.049  1.00  0.00    -0.287 OA 
HETATM   21  O   UNL     2     -11.643  15.588  68.001  1.00  0.00    -0.342 OA 
ENDBRANCH  15  17
ENDBRANCH  14  15
ENDBRANCH  13  14
ENDBRANCH  12  13
ENDBRANCH  11  12
ENDBRANCH  10  11
ENDBRANCH   9  10
ENDBRANCH   8   9
ENDBRANCH   7   8
ENDBRANCH   6   7
ENDBRANCH   5   6
ENDBRANCH   4   5
ENDBRANCH   3   4
TORSDOF 13
ENDMDL
MODEL      213
REMARK 921   NORMALIZED FREE ENERGY PREDICTED BY IDOCK:   -3.40 KCAL/MOL
REMARK 922        TOTAL FREE ENERGY PREDICTED BY IDOCK:   -7.55 KCAL/MOL
REMARK 923 INTER-LIGAND FREE ENERGY PREDICTED BY IDOCK:   -6.84 KCAL/MOL
REMARK 924 INTRA-LIGAND FREE ENERGY PREDICTED BY IDOCK:   -0.71 KCAL/MOL
REMARK 927      BINDING AFFINITY PREDICTED BY RF-SCORE:    0.00 PKD
ROOT
HETATM    1 NA   UNL     1      -7.402  18.222  65.260  1.00  0.00    -0.226 Na 
HETATM    2  C   UNL     2     -10.150  17.217  66.205  1.00  0.00    -0.329 C  
HETATM    3  C   UNL     2     -10.565  16.074  65.294  1.00  0.00    -0.424 C  
ENDROOT
BRANCH   3   4
HETATM    4  C   UNL     2     -10.831  14.809  66.103  1.00  0.00    -0.321 C  
BRANCH   4   5
HETATM    5  C   UNL     2     -11.876  13.922  65.431  1.00  0.00    -0.363 C  
BRANCH   5   6
HETATM    6  C   UNL     2     -11.878  12.533  66.064  1.00  0.00    -0.478 C  
BRANCH   6   7
HETATM    7  C   UNL     2     -10.876  12.444  67.209  1.00  0.00    -0.279 C  
BRANCH   7   8
HETATM    8  C   UNL     2      -9.688  11.572  66.815  1.00  0.00    -0.220 C  
BRANCH   8   9
HETATM    9  C   UNL     2      -9.503  10.426  67.804  1.00  0.00    -0.159 C  
BRANCH   9  10
HETATM   10  C   UNL     2     -10.582   9.363  67.615  1.00  0.00    -0.333 C  
BRANCH  10  11
HETATM   11  C   UNL     2     -10.112   8.290  66.638  1.00  0.00    -0.351 C  
BRANCH  11  12
HETATM   12  C   UNL     2     -10.575   6.905  67.075  1.00  0.00    -0.403 C  
BRANCH  12  13
HETATM   13  C   UNL     2     -10.273   6.673  68.552  1.00  0.00    -0.171 C  
BRANCH  13  14
HETATM   14  O   UNL     2     -11.422   6.141  69.218  1.00  0.00    -0.404 OA 
BRANCH  14  15
HETATM   15  C   UNL     2     -11.384   6.185  70.585  1.00  0.00    -0.298 C  
HETATM   16  O   UNL     2     -10.623   5.503  71.266  1.00  0.00    -0.239 OA 
BRANCH  15  17
HETATM   17  C   UNL     2     -12.485   7.025  71.122  1.00  0.00    -0.362 C  
HETATM   18  S   UNL     2     -11.839   8.390  72.020  1.00  0.00    -0.380 S  
HETATM   19  O   UNL     2     -11.063   7.780  73.096  1.00  0.00    -0.409 OA 
HETATM   20  O   UNL     2     -13.053   9.074  72.462  1.00  0.00    -0.433 OA 
HETATM   21  O   UNL     2     -11.053   9.132  71.034  1.00  0.00    -0.256 OA 
ENDBRANCH  15  17
ENDBRANCH  14  15
ENDBRANCH  13  14
ENDBRANCH  12  13
ENDBRANCH  11  12
ENDBRANCH  10  11
ENDBRANCH   9  10
ENDBRANCH   8   9
ENDBRANCH   7   8
ENDBRANCH   6   7
ENDBRANCH   5   6
ENDBRANCH   4   5
ENDBRANCH   3   4
TORSDOF 13
ENDMDL
MODEL      214
REMARK 921   NORMALIZED FREE ENERGY PREDICTED BY IDOCK:   -3.38 KCAL/MOL
REMARK 922        TOTAL FREE ENERGY PREDICTED BY IDOCK:   -7.52 KCAL/MOL
REMARK 923 INTER-LIGAND FREE ENERGY PREDICTED BY IDOCK:   -6.49 KCAL/MOL
REMARK 924 INTRA-LIGAND FREE ENERGY PREDICTED BY IDOCK:   -1.03 KCAL/MOL
REMARK 927      BINDING AFFINITY PREDICTED BY RF-SCORE:    0.00 PKD
ROOT
HETATM    1 NA   UNL     1     -11.038  20.479  70.820  1.00  0.00    -0.750 Na 
HETATM    2  C   UNL     2      -9.769  19.603  68.160  1.00  0.00    -0.503 C  
HETATM    3  C   UNL     2      -8.283  19.393  68.402  1.00  0.00    -0.382 C  
ENDROOT
BRANCH   3   4
HETATM    4  C   UNL     2      -7.872  17.974  68.024  1.00  0.00    -0.257 C  
BRANCH   4   5
HETATM    5  C   UNL     2      -8.366  17.598  66.630  1.00  0.00    -0.288 C  
BRANCH   5   6
HETATM    6  C   UNL     2      -8.180  16.102  66.387  1.00  0.00    -0.336 C  
BRANCH   6   7
HETATM    7  C   UNL     2      -9.502  15.353  66.504  1.00  0.00    -0.298 C  
BRANCH   7   8
HETATM    8  C   UNL     2     -10.478  15.815  65.425  1.00  0.00    -0.438 C  
BRANCH   8   9
HETATM    9  C   UNL     2     -10.990  14.631  64.613  1.00  0.00    -0.340 C  
BRANCH   9  10
HETATM   10  C   UNL     2     -12.430  14.293  64.993  1.00  0.00    -0.409 C  
BRANCH  10  11
HETATM   11  C   UNL     2     -12.528  12.858  65.502  1.00  0.00    -0.462 C  
BRANCH  11  12
HETATM   12  C   UNL     2     -11.848  12.707  66.858  1.00  0.00    -0.425 C  
BRANCH  12  13
HETATM   13  C   UNL     2     -10.879  11.529  66.851  1.00  0.00    -0.284 C  
BRANCH  13  14
HETATM   14  O   UNL     2      -9.753  11.815  66.015  1.00  0.00    -0.221 OA 
BRANCH  14  15
HETATM   15  C   UNL     2      -9.464  10.868  65.070  1.00  0.00    -0.233 C  
HETATM   16  O   UNL     2      -9.374  11.112  63.870  1.00  0.00    -0.215 OA 
BRANCH  15  17
HETATM   17  C   UNL     2      -9.448   9.508  65.666  1.00  0.00    -0.261 C  
HETATM   18  S   UNL     2      -7.802   9.011  66.026  1.00  0.00    -0.103 S  
HETATM   19  O   UNL     2      -7.127   9.032  64.731  1.00  0.00    -0.089 OA 
HETATM   20  O   UNL     2      -7.996   7.674  66.586  1.00  0.00    -0.103 OA 
HETATM   21  O   UNL     2      -7.326  10.004  66.988  1.00  0.00    -0.090 OA 
ENDBRANCH  15  17
ENDBRANCH  14  15
ENDBRANCH  13  14
ENDBRANCH  12  13
ENDBRANCH  11  12
ENDBRANCH  10  11
ENDBRANCH   9  10
ENDBRANCH   8   9
ENDBRANCH   7   8
ENDBRANCH   6   7
ENDBRANCH   5   6
ENDBRANCH   4   5
ENDBRANCH   3   4
TORSDOF 13
ENDMDL
MODEL      215
REMARK 921   NORMALIZED FREE ENERGY PREDICTED BY IDOCK:   -3.37 KCAL/MOL
REMARK 922        TOTAL FREE ENERGY PREDICTED BY IDOCK:   -7.50 KCAL/MOL
REMARK 923 INTER-LIGAND FREE ENERGY PREDICTED BY IDOCK:   -6.55 KCAL/MOL
REMARK 924 INTRA-LIGAND FREE ENERGY PREDICTED BY IDOCK:   -0.94 KCAL/MOL
REMARK 927      BINDING AFFINITY PREDICTED BY RF-SCORE:    0.00 PKD
ROOT
HETATM    1 NA   UNL     1     -12.652  14.368  62.438  1.00  0.00    -0.814 Na 
HETATM    2  C   UNL     2     -12.054  12.612  64.891  1.00  0.00    -0.494 C  
HETATM    3  C   UNL     2     -11.367  13.483  65.929  1.00  0.00    -0.321 C  
ENDROOT
BRANCH   3   4
HETATM    4  C   UNL     2     -12.146  13.473  67.241  1.00  0.00    -0.367 C  
BRANCH   4   5
HETATM    5  C   UNL     2     -11.266  13.880  68.419  1.00  0.00    -0.291 C  
BRANCH   5   6
HETATM    6  C   UNL     2     -11.416  12.881  69.564  1.00  0.00    -0.292 C  
BRANCH   6   7
HETATM    7  C   UNL     2     -12.284  13.446  70.682  1.00  0.00    -0.427 C  
BRANCH   7   8
HETATM    8  C   UNL     2     -12.730  12.335  71.628  1.00  0.00    -0.309 C  
BRANCH   8   9
HETATM    9  C   UNL     2     -12.312  10.969  71.096  1.00  0.00    -0.465 C  
BRANCH   9  10
HETATM   10  C   UNL     2     -13.533  10.125  70.740  1.00  0.00    -0.063 C  
BRANCH  10  11
HETATM   11  C   UNL     2     -13.761   9.041  71.788  1.00  0.00    -0.474 C  
BRANCH  11  12
HETATM   12  C   UNL     2     -12.446   8.391  72.205  1.00  0.00    -0.422 C  
BRANCH  12  13
HETATM   13  C   UNL     2     -12.322   6.991  71.613  1.00  0.00    -0.368 C  
BRANCH  13  14
HETATM   14  O   UNL     2     -10.948   6.602  71.535  1.00  0.00    -0.234 OA 
BRANCH  14  15
HETATM   15  C   UNL     2     -10.336   6.833  70.333  1.00  0.00    -0.198 C  
HETATM   16  O   UNL     2     -10.909   6.744  69.251  1.00  0.00    -0.237 OA 
BRANCH  15  17
HETATM   17  C   UNL     2      -8.874   7.034  70.507  1.00  0.00    -0.154 C  
HETATM   18  S   UNL     2      -8.464   8.736  70.374  1.00  0.00    -0.171 S  
HETATM   19  O   UNL     2      -8.894   9.108  69.029  1.00  0.00    -0.135 OA 
HETATM   20  O   UNL     2      -7.014   8.722  70.565  1.00  0.00    -0.039 OA 
HETATM   21  O   UNL     2      -9.208   9.374  71.460  1.00  0.00    -0.276 OA 
ENDBRANCH  15  17
ENDBRANCH  14  15
ENDBRANCH  13  14
ENDBRANCH  12  13
ENDBRANCH  11  12
ENDBRANCH  10  11
ENDBRANCH   9  10
ENDBRANCH   8   9
ENDBRANCH   7   8
ENDBRANCH   6   7
ENDBRANCH   5   6
ENDBRANCH   4   5
ENDBRANCH   3   4
TORSDOF 13
ENDMDL
MODEL      216
REMARK 921   NORMALIZED FREE ENERGY PREDICTED BY IDOCK:   -3.37 KCAL/MOL
REMARK 922        TOTAL FREE ENERGY PREDICTED BY IDOCK:   -7.49 KCAL/MOL
REMARK 923 INTER-LIGAND FREE ENERGY PREDICTED BY IDOCK:   -6.49 KCAL/MOL
REMARK 924 INTRA-LIGAND FREE ENERGY PREDICTED BY IDOCK:   -1.00 KCAL/MOL
REMARK 927      BINDING AFFINITY PREDICTED BY RF-SCORE:    0.00 PKD
ROOT
HETATM    1 NA   UNL     1      -8.223  14.549  70.368  1.00  0.00    -0.387 Na 
HETATM    2  C   UNL     2      -8.083  16.368  67.893  1.00  0.00    -0.164 C  
HETATM    3  C   UNL     2      -8.545  15.556  66.694  1.00  0.00    -0.325 C  
ENDROOT
BRANCH   3   4
HETATM    4  C   UNL     2      -9.725  16.235  66.007  1.00  0.00    -0.370 C  
BRANCH   4   5
HETATM    5  C   UNL     2     -10.860  15.251  65.737  1.00  0.00    -0.363 C  
BRANCH   5   6
HETATM    6  C   UNL     2     -10.736  14.035  66.652  1.00  0.00    -0.281 C  
BRANCH   6   7
HETATM    7  C   UNL     2     -11.796  14.055  67.747  1.00  0.00    -0.419 C  
BRANCH   7   8
HETATM    8  C   UNL     2     -11.359  13.199  68.932  1.00  0.00    -0.335 C  
BRANCH   8   9
HETATM    9  C   UNL     2     -11.076  11.767  68.493  1.00  0.00    -0.288 C  
BRANCH   9  10
HETATM   10  C   UNL     2     -11.677  10.766  69.476  1.00  0.00    -0.384 C  
BRANCH  10  11
HETATM   11  C   UNL     2     -12.348  11.491  70.638  1.00  0.00    -0.457 C  
BRANCH  11  12
HETATM   12  C   UNL     2     -13.018  10.507  71.590  1.00  0.00    -0.581 C  
BRANCH  12  13
HETATM   13  C   UNL     2     -12.080   9.351  71.923  1.00  0.00    -0.357 C  
BRANCH  13  14
HETATM   14  O   UNL     2     -12.698   8.101  71.604  1.00  0.00    -0.307 OA 
BRANCH  14  15
HETATM   15  C   UNL     2     -11.931   6.990  71.829  1.00  0.00    -0.326 C  
HETATM   16  O   UNL     2     -12.381   5.926  72.244  1.00  0.00    -0.206 OA 
BRANCH  15  17
HETATM   17  C   UNL     2     -10.486   7.297  71.668  1.00  0.00    -0.198 C  
HETATM   18  S   UNL     2      -9.892   6.685  70.133  1.00  0.00    -0.166 S  
HETATM   19  O   UNL     2     -10.124   5.245  70.204  1.00  0.00    -0.218 OA 
HETATM   20  O   UNL     2      -8.483   7.074  70.167  1.00  0.00    -0.136 OA 
HETATM   21  O   UNL     2     -10.687   7.391  69.129  1.00  0.00    -0.217 OA 
ENDBRANCH  15  17
ENDBRANCH  14  15
ENDBRANCH  13  14
ENDBRANCH  12  13
ENDBRANCH  11  12
ENDBRANCH  10  11
ENDBRANCH   9  10
ENDBRANCH   8   9
ENDBRANCH   7   8
ENDBRANCH   6   7
ENDBRANCH   5   6
ENDBRANCH   4   5
ENDBRANCH   3   4
TORSDOF 13
ENDMDL
MODEL      217
REMARK 921   NORMALIZED FREE ENERGY PREDICTED BY IDOCK:   -3.36 KCAL/MOL
REMARK 922        TOTAL FREE ENERGY PREDICTED BY IDOCK:   -7.47 KCAL/MOL
REMARK 923 INTER-LIGAND FREE ENERGY PREDICTED BY IDOCK:   -6.36 KCAL/MOL
REMARK 924 INTRA-LIGAND FREE ENERGY PREDICTED BY IDOCK:   -1.11 KCAL/MOL
REMARK 927      BINDING AFFINITY PREDICTED BY RF-SCORE:    0.00 PKD
ROOT
HETATM    1 NA   UNL     1     -10.073   5.188  64.177  1.00  0.00    -0.379 Na 
HETATM    2  C   UNL     2      -9.353   6.154  67.006  1.00  0.00    -0.132 C  
HETATM    3  C   UNL     2     -10.449   7.101  67.467  1.00  0.00    -0.331 C  
ENDROOT
BRANCH   3   4
HETATM    4  C   UNL     2     -11.071   6.612  68.770  1.00  0.00    -0.297 C  
BRANCH   4   5
HETATM    5  C   UNL     2     -10.133   5.671  69.522  1.00  0.00    -0.292 C  
BRANCH   5   6
HETATM    6  C   UNL     2     -10.220   5.924  71.024  1.00  0.00    -0.266 C  
BRANCH   6   7
HETATM    7  C   UNL     2     -11.400   6.825  71.367  1.00  0.00    -0.322 C  
BRANCH   7   8
HETATM    8  C   UNL     2     -10.944   8.003  72.223  1.00  0.00    -0.377 C  
BRANCH   8   9
HETATM    9  C   UNL     2     -11.546   9.309  71.717  1.00  0.00    -0.458 C  
BRANCH   9  10
HETATM   10  C   UNL     2     -10.659   9.939  70.646  1.00  0.00    -0.341 C  
BRANCH  10  11
HETATM   11  C   UNL     2     -11.499  10.412  69.464  1.00  0.00    -0.311 C  
BRANCH  11  12
HETATM   12  C   UNL     2     -10.747  11.443  68.630  1.00  0.00    -0.241 C  
BRANCH  12  13
HETATM   13  C   UNL     2     -11.679  12.112  67.625  1.00  0.00    -0.316 C  
BRANCH  13  14
HETATM   14  O   UNL     2     -11.961  13.456  68.025  1.00  0.00    -0.350 OA 
BRANCH  14  15
HETATM   15  C   UNL     2     -11.722  14.416  67.079  1.00  0.00    -0.399 C  
HETATM   16  O   UNL     2     -11.693  14.188  65.873  1.00  0.00    -0.343 OA 
BRANCH  15  17
HETATM   17  C   UNL     2     -11.340  15.705  67.711  1.00  0.00    -0.261 C  
HETATM   18  S   UNL     2      -9.604  15.948  67.618  1.00  0.00    -0.222 S  
HETATM   19  O   UNL     2      -9.040  14.814  68.344  1.00  0.00    -0.176 OA 
HETATM   20  O   UNL     2      -9.434  17.239  68.285  1.00  0.00    -0.264 OA 
HETATM   21  O   UNL     2      -9.317  15.969  66.184  1.00  0.00    -0.289 OA 
ENDBRANCH  15  17
ENDBRANCH  14  15
ENDBRANCH  13  14
ENDBRANCH  12  13
ENDBRANCH  11  12
ENDBRANCH  10  11
ENDBRANCH   9  10
ENDBRANCH   8   9
ENDBRANCH   7   8
ENDBRANCH   6   7
ENDBRANCH   5   6
ENDBRANCH   4   5
ENDBRANCH   3   4
TORSDOF 13
ENDMDL
MODEL      218
REMARK 921   NORMALIZED FREE ENERGY PREDICTED BY IDOCK:   -3.36 KCAL/MOL
REMARK 922        TOTAL FREE ENERGY PREDICTED BY IDOCK:   -7.47 KCAL/MOL
REMARK 923 INTER-LIGAND FREE ENERGY PREDICTED BY IDOCK:   -6.92 KCAL/MOL
REMARK 924 INTRA-LIGAND FREE ENERGY PREDICTED BY IDOCK:   -0.55 KCAL/MOL
REMARK 927      BINDING AFFINITY PREDICTED BY RF-SCORE:    0.00 PKD
ROOT
HETATM    1 NA   UNL     1      -7.390   5.782  74.003  1.00  0.00    -0.082 Na 
HETATM    2  C   UNL     2     -10.247   6.850  73.611  1.00  0.00    -0.372 C  
HETATM    3  C   UNL     2     -10.156   8.133  72.801  1.00  0.00    -0.367 C  
ENDROOT
BRANCH   3   4
HETATM    4  C   UNL     2     -10.991   8.027  71.529  1.00  0.00    -0.279 C  
BRANCH   4   5
HETATM    5  C   UNL     2     -11.255   9.398  70.915  1.00  0.00    -0.393 C  
BRANCH   5   6
HETATM    6  C   UNL     2     -12.557   9.981  71.458  1.00  0.00    -0.525 C  
BRANCH   6   7
HETATM    7  C   UNL     2     -12.718  11.443  71.059  1.00  0.00    -0.447 C  
BRANCH   7   8
HETATM    8  C   UNL     2     -13.529  12.199  72.109  1.00  0.00    -0.383 C  
BRANCH   8   9
HETATM    9  C   UNL     2     -13.328  13.704  71.971  1.00  0.00    -0.548 C  
BRANCH   9  10
HETATM   10  C   UNL     2     -12.549  14.035  70.701  1.00  0.00    -0.414 C  
BRANCH  10  11
HETATM   11  C   UNL     2     -12.516  15.542  70.469  1.00  0.00    -0.472 C  
BRANCH  11  12
HETATM   12  C   UNL     2     -11.660  15.896  69.259  1.00  0.00    -0.372 C  
BRANCH  12  13
HETATM   13  C   UNL     2     -10.968  14.656  68.702  1.00  0.00    -0.256 C  
BRANCH  13  14
HETATM   14  O   UNL     2     -11.015  14.659  67.272  1.00  0.00    -0.300 OA 
BRANCH  14  15
HETATM   15  C   UNL     2     -10.086  15.450  66.653  1.00  0.00    -0.265 C  
HETATM   16  O   UNL     2     -10.353  16.217  65.732  1.00  0.00    -0.346 OA 
BRANCH  15  17
HETATM   17  C   UNL     2      -8.714  15.131  67.124  1.00  0.00    -0.216 C  
HETATM   18  S   UNL     2      -7.807  16.604  67.429  1.00  0.00    -0.174 S  
HETATM   19  O   UNL     2      -7.780  17.285  66.137  1.00  0.00    -0.333 OA 
HETATM   20  O   UNL     2      -6.512  16.087  67.868  1.00  0.00    -0.121 OA 
HETATM   21  O   UNL     2      -8.568  17.289  68.473  1.00  0.00    -0.256 OA 
ENDBRANCH  15  17
ENDBRANCH  14  15
ENDBRANCH  13  14
ENDBRANCH  12  13
ENDBRANCH  11  12
ENDBRANCH  10  11
ENDBRANCH   9  10
ENDBRANCH   8   9
ENDBRANCH   7   8
ENDBRANCH   6   7
ENDBRANCH   5   6
ENDBRANCH   4   5
ENDBRANCH   3   4
TORSDOF 13
ENDMDL
MODEL      219
REMARK 921   NORMALIZED FREE ENERGY PREDICTED BY IDOCK:   -3.36 KCAL/MOL
REMARK 922        TOTAL FREE ENERGY PREDICTED BY IDOCK:   -7.47 KCAL/MOL
REMARK 923 INTER-LIGAND FREE ENERGY PREDICTED BY IDOCK:   -6.70 KCAL/MOL
REMARK 924 INTRA-LIGAND FREE ENERGY PREDICTED BY IDOCK:   -0.77 KCAL/MOL
REMARK 927      BINDING AFFINITY PREDICTED BY RF-SCORE:    0.00 PKD
ROOT
HETATM    1 NA   UNL     1      -6.477   6.311  73.626  1.00  0.00    -0.059 Na 
HETATM    2  C   UNL     2      -8.867   7.422  72.041  1.00  0.00    -0.141 C  
HETATM    3  C   UNL     2      -9.406   6.302  71.168  1.00  0.00    -0.169 C  
ENDROOT
BRANCH   3   4
HETATM    4  C   UNL     2     -10.880   6.049  71.465  1.00  0.00    -0.322 C  
BRANCH   4   5
HETATM    5  C   UNL     2     -11.785   6.930  70.610  1.00  0.00    -0.417 C  
BRANCH   5   6
HETATM    6  C   UNL     2     -12.829   7.623  71.482  1.00  0.00    -0.376 C  
BRANCH   6   7
HETATM    7  C   UNL     2     -12.309   8.951  72.020  1.00  0.00    -0.460 C  
BRANCH   7   8
HETATM    8  C   UNL     2     -13.141  10.111  71.479  1.00  0.00    -0.529 C  
BRANCH   8   9
HETATM    9  C   UNL     2     -12.249  11.165  70.834  1.00  0.00    -0.468 C  
BRANCH   9  10
HETATM   10  C   UNL     2     -11.750  10.696  69.470  1.00  0.00    -0.356 C  
BRANCH  10  11
HETATM   11  C   UNL     2     -10.894  11.774  68.812  1.00  0.00    -0.268 C  
BRANCH  11  12
HETATM   12  C   UNL     2      -9.954  11.174  67.773  1.00  0.00    -0.193 C  
BRANCH  12  13
HETATM   13  C   UNL     2     -10.289  11.687  66.377  1.00  0.00    -0.230 C  
BRANCH  13  14
HETATM   14  O   UNL     2      -9.706  12.976  66.166  1.00  0.00    -0.274 OA 
BRANCH  14  15
HETATM   15  C   UNL     2     -10.550  13.932  65.669  1.00  0.00    -0.301 C  
HETATM   16  O   UNL     2     -10.740  14.114  64.470  1.00  0.00    -0.403 OA 
BRANCH  15  17
HETATM   17  C   UNL     2     -11.059  14.810  66.754  1.00  0.00    -0.338 C  
HETATM   18  S   UNL     2     -10.112  16.286  66.849  1.00  0.00    -0.286 S  
HETATM   19  O   UNL     2      -8.755  15.828  67.130  1.00  0.00    -0.182 OA 
HETATM   20  O   UNL     2     -10.753  16.996  67.956  1.00  0.00    -0.357 OA 
HETATM   21  O   UNL     2     -10.294  16.918  65.543  1.00  0.00    -0.572 OA 
ENDBRANCH  15  17
ENDBRANCH  14  15
ENDBRANCH  13  14
ENDBRANCH  12  13
ENDBRANCH  11  12
ENDBRANCH  10  11
ENDBRANCH   9  10
ENDBRANCH   8   9
ENDBRANCH   7   8
ENDBRANCH   6   7
ENDBRANCH   5   6
ENDBRANCH   4   5
ENDBRANCH   3   4
TORSDOF 13
ENDMDL
MODEL      220
REMARK 921   NORMALIZED FREE ENERGY PREDICTED BY IDOCK:   -3.35 KCAL/MOL
REMARK 922        TOTAL FREE ENERGY PREDICTED BY IDOCK:   -7.46 KCAL/MOL
REMARK 923 INTER-LIGAND FREE ENERGY PREDICTED BY IDOCK:   -6.83 KCAL/MOL
REMARK 924 INTRA-LIGAND FREE ENERGY PREDICTED BY IDOCK:   -0.63 KCAL/MOL
REMARK 927      BINDING AFFINITY PREDICTED BY RF-SCORE:    0.00 PKD
ROOT
HETATM    1 NA   UNL     1     -11.887  16.404  63.446  1.00  0.00    -0.836 Na 
HETATM    2  C   UNL     2     -11.811  13.629  64.768  1.00  0.00    -0.414 C  
HETATM    3  C   UNL     2     -12.553  12.662  63.861  1.00  0.00    -0.432 C  
ENDROOT
BRANCH   3   4
HETATM    4  C   UNL     2     -11.651  11.498  63.462  1.00  0.00    -0.294 C  
BRANCH   4   5
HETATM    5  C   UNL     2     -10.175  11.868  63.572  1.00  0.00    -0.485 C  
BRANCH   5   6
HETATM    6  C   UNL     2      -9.322  10.610  63.712  1.00  0.00    -0.304 C  
BRANCH   6   7
HETATM    7  C   UNL     2      -9.521   9.955  65.074  1.00  0.00    -0.343 C  
BRANCH   7   8
HETATM    8  C   UNL     2      -8.408   8.948  65.352  1.00  0.00    -0.155 C  
BRANCH   8   9
HETATM    9  C   UNL     2      -8.916   7.805  66.224  1.00  0.00    -0.209 C  
BRANCH   9  10
HETATM   10  C   UNL     2     -10.352   8.059  66.673  1.00  0.00    -0.273 C  
BRANCH  10  11
HETATM   11  C   UNL     2     -10.532   7.676  68.139  1.00  0.00    -0.233 C  
BRANCH  11  12
HETATM   12  C   UNL     2     -10.543   6.162  68.316  1.00  0.00    -0.324 C  
BRANCH  12  13
HETATM   13  C   UNL     2     -10.838   5.788  69.765  1.00  0.00    -0.349 C  
BRANCH  13  14
HETATM   14  O   UNL     2     -12.073   6.371  70.190  1.00  0.00    -0.266 OA 
BRANCH  14  15
HETATM   15  C   UNL     2     -12.083   6.872  71.463  1.00  0.00    -0.358 C  
HETATM   16  O   UNL     2     -12.347   6.199  72.456  1.00  0.00    -0.138 OA 
BRANCH  15  17
HETATM   17  C   UNL     2     -11.902   8.346  71.458  1.00  0.00    -0.297 C  
HETATM   18  S   UNL     2     -13.383   9.151  71.949  1.00  0.00    -0.458 S  
HETATM   19  O   UNL     2     -14.369   8.733  70.956  1.00  0.00    -0.179 OA 
HETATM   20  O   UNL     2     -13.009  10.563  71.874  1.00  0.00    -0.450 OA 
HETATM   21  O   UNL     2     -13.627   8.664  73.306  1.00  0.00    -0.030 OA 
ENDBRANCH  15  17
ENDBRANCH  14  15
ENDBRANCH  13  14
ENDBRANCH  12  13
ENDBRANCH  11  12
ENDBRANCH  10  11
ENDBRANCH   9  10
ENDBRANCH   8   9
ENDBRANCH   7   8
ENDBRANCH   6   7
ENDBRANCH   5   6
ENDBRANCH   4   5
ENDBRANCH   3   4
TORSDOF 13
ENDMDL
MODEL      221
REMARK 921   NORMALIZED FREE ENERGY PREDICTED BY IDOCK:   -3.35 KCAL/MOL
REMARK 922        TOTAL FREE ENERGY PREDICTED BY IDOCK:   -7.46 KCAL/MOL
REMARK 923 INTER-LIGAND FREE ENERGY PREDICTED BY IDOCK:   -6.22 KCAL/MOL
REMARK 924 INTRA-LIGAND FREE ENERGY PREDICTED BY IDOCK:   -1.24 KCAL/MOL
REMARK 927      BINDING AFFINITY PREDICTED BY RF-SCORE:    0.00 PKD
ROOT
HETATM    1 NA   UNL     1      -7.315  12.162  70.106  1.00  0.00    -0.352 Na 
HETATM    2  C   UNL     2      -9.531  12.794  68.069  1.00  0.00    -0.213 C  
HETATM    3  C   UNL     2     -10.617  13.573  68.791  1.00  0.00    -0.237 C  
ENDROOT
BRANCH   3   4
HETATM    4  C   UNL     2     -10.859  14.916  68.111  1.00  0.00    -0.256 C  
BRANCH   4   5
HETATM    5  C   UNL     2     -11.910  15.739  68.849  1.00  0.00    -0.354 C  
BRANCH   5   6
HETATM    6  C   UNL     2     -11.822  15.486  70.352  1.00  0.00    -0.379 C  
BRANCH   6   7
HETATM    7  C   UNL     2     -13.197  15.206  70.948  1.00  0.00    -0.488 C  
BRANCH   7   8
HETATM    8  C   UNL     2     -13.063  14.490  72.290  1.00  0.00    -0.458 C  
BRANCH   8   9
HETATM    9  C   UNL     2     -13.726  13.118  72.241  1.00  0.00    -0.647 C  
BRANCH   9  10
HETATM   10  C   UNL     2     -12.883  12.134  71.434  1.00  0.00    -0.378 C  
BRANCH  10  11
HETATM   11  C   UNL     2     -13.123  10.705  71.912  1.00  0.00    -0.563 C  
BRANCH  11  12
HETATM   12  C   UNL     2     -12.439   9.696  70.996  1.00  0.00    -0.382 C  
BRANCH  12  13
HETATM   13  C   UNL     2     -10.971  10.056  70.791  1.00  0.00    -0.305 C  
BRANCH  13  14
HETATM   14  O   UNL     2     -10.134   8.944  71.122  1.00  0.00    -0.222 OA 
BRANCH  14  15
HETATM   15  C   UNL     2      -8.854   9.006  70.640  1.00  0.00    -0.219 C  
HETATM   16  O   UNL     2      -8.087   9.937  70.868  1.00  0.00    -0.161 OA 
BRANCH  15  17
HETATM   17  C   UNL     2      -8.589   7.899  69.686  1.00  0.00    -0.133 C  
HETATM   18  S   UNL     2      -8.440   8.517  68.049  1.00  0.00    -0.131 S  
HETATM   19  O   UNL     2      -9.728   9.151  67.783  1.00  0.00    -0.146 OA 
HETATM   20  O   UNL     2      -8.193   7.300  67.278  1.00  0.00    -0.113 OA 
HETATM   21  O   UNL     2      -7.301   9.433  68.110  1.00  0.00    -0.078 OA 
ENDBRANCH  15  17
ENDBRANCH  14  15
ENDBRANCH  13  14
ENDBRANCH  12  13
ENDBRANCH  11  12
ENDBRANCH  10  11
ENDBRANCH   9  10
ENDBRANCH   8   9
ENDBRANCH   7   8
ENDBRANCH   6   7
ENDBRANCH   5   6
ENDBRANCH   4   5
ENDBRANCH   3   4
TORSDOF 13
ENDMDL
MODEL      222
REMARK 921   NORMALIZED FREE ENERGY PREDICTED BY IDOCK:   -3.34 KCAL/MOL
REMARK 922        TOTAL FREE ENERGY PREDICTED BY IDOCK:   -7.45 KCAL/MOL
REMARK 923 INTER-LIGAND FREE ENERGY PREDICTED BY IDOCK:   -6.57 KCAL/MOL
REMARK 924 INTRA-LIGAND FREE ENERGY PREDICTED BY IDOCK:   -0.88 KCAL/MOL
REMARK 927      BINDING AFFINITY PREDICTED BY RF-SCORE:    0.00 PKD
ROOT
HETATM    1 NA   UNL     1     -12.830   7.099  69.988  1.00  0.00    -0.570 Na 
HETATM    2  C   UNL     2     -10.463   6.637  68.080  1.00  0.00    -0.261 C  
HETATM    3  C   UNL     2     -10.388   7.826  67.137  1.00  0.00    -0.389 C  
ENDROOT
BRANCH   3   4
HETATM    4  C   UNL     2      -9.020   8.495  67.221  1.00  0.00    -0.141 C  
BRANCH   4   5
HETATM    5  C   UNL     2      -8.719   9.318  65.972  1.00  0.00    -0.175 C  
BRANCH   5   6
HETATM    6  C   UNL     2      -7.733  10.436  66.299  1.00  0.00    -0.129 C  
BRANCH   6   7
HETATM    7  C   UNL     2      -7.415  10.476  67.789  1.00  0.00    -0.087 C  
BRANCH   7   8
HETATM    8  C   UNL     2      -7.857  11.805  68.396  1.00  0.00    -0.141 C  
BRANCH   8   9
HETATM    9  C   UNL     2      -7.058  12.963  67.808  1.00  0.00    -0.137 C  
BRANCH   9  10
HETATM   10  C   UNL     2      -7.986  14.072  67.318  1.00  0.00    -0.157 C  
BRANCH  10  11
HETATM   11  C   UNL     2      -8.684  14.746  68.495  1.00  0.00    -0.174 C  
BRANCH  11  12
HETATM   12  C   UNL     2     -10.030  15.328  68.078  1.00  0.00    -0.224 C  
BRANCH  12  13
HETATM   13  C   UNL     2     -10.145  15.395  66.559  1.00  0.00    -0.271 C  
BRANCH  13  14
HETATM   14  O   UNL     2     -11.477  15.076  66.145  1.00  0.00    -0.321 OA 
BRANCH  14  15
HETATM   15  C   UNL     2     -11.615  14.708  64.834  1.00  0.00    -0.405 C  
HETATM   16  O   UNL     2     -12.428  15.217  64.068  1.00  0.00    -0.725 OA 
BRANCH  15  17
HETATM   17  C   UNL     2     -10.783  13.517  64.524  1.00  0.00    -0.418 C  
HETATM   18  S   UNL     2     -11.780  12.073  64.439  1.00  0.00    -0.295 S  
HETATM   19  O   UNL     2     -12.380  11.970  65.767  1.00  0.00    -0.469 OA 
HETATM   20  O   UNL     2     -10.796  11.034  64.138  1.00  0.00    -0.361 OA 
HETATM   21  O   UNL     2     -12.721  12.346  63.354  1.00  0.00    -0.722 OA 
ENDBRANCH  15  17
ENDBRANCH  14  15
ENDBRANCH  13  14
ENDBRANCH  12  13
ENDBRANCH  11  12
ENDBRANCH  10  11
ENDBRANCH   9  10
ENDBRANCH   8   9
ENDBRANCH   7   8
ENDBRANCH   6   7
ENDBRANCH   5   6
ENDBRANCH   4   5
ENDBRANCH   3   4
TORSDOF 13
ENDMDL
MODEL      223
REMARK 921   NORMALIZED FREE ENERGY PREDICTED BY IDOCK:   -3.34 KCAL/MOL
REMARK 922        TOTAL FREE ENERGY PREDICTED BY IDOCK:   -7.45 KCAL/MOL
REMARK 923 INTER-LIGAND FREE ENERGY PREDICTED BY IDOCK:   -6.78 KCAL/MOL
REMARK 924 INTRA-LIGAND FREE ENERGY PREDICTED BY IDOCK:   -0.67 KCAL/MOL
REMARK 927      BINDING AFFINITY PREDICTED BY RF-SCORE:    0.00 PKD
ROOT
HETATM    1 NA   UNL     1      -7.835  17.100  65.473  1.00  0.00    -0.272 Na 
HETATM    2  C   UNL     2      -9.691  16.310  67.794  1.00  0.00    -0.233 C  
HETATM    3  C   UNL     2     -10.575  15.171  67.315  1.00  0.00    -0.286 C  
ENDROOT
BRANCH   3   4
HETATM    4  C   UNL     2     -10.420  13.952  68.217  1.00  0.00    -0.252 C  
BRANCH   4   5
HETATM    5  C   UNL     2     -11.756  13.253  68.453  1.00  0.00    -0.389 C  
BRANCH   5   6
HETATM    6  C   UNL     2     -11.592  11.740  68.333  1.00  0.00    -0.380 C  
BRANCH   6   7
HETATM    7  C   UNL     2     -11.593  11.072  69.703  1.00  0.00    -0.390 C  
BRANCH   7   8
HETATM    8  C   UNL     2     -12.170  12.013  70.758  1.00  0.00    -0.382 C  
BRANCH   8   9
HETATM    9  C   UNL     2     -13.089  11.261  71.713  1.00  0.00    -0.527 C  
BRANCH   9  10
HETATM   10  C   UNL     2     -12.843   9.757  71.635  1.00  0.00    -0.519 C  
BRANCH  10  11
HETATM   11  C   UNL     2     -13.917   8.996  72.405  1.00  0.00    -0.517 C  
BRANCH  11  12
HETATM   12  C   UNL     2     -14.176   7.627  71.785  1.00  0.00    -0.549 C  
BRANCH  12  13
HETATM   13  C   UNL     2     -12.882   7.016  71.260  1.00  0.00    -0.323 C  
BRANCH  13  14
HETATM   14  O   UNL     2     -12.389   6.030  72.171  1.00  0.00    -0.254 OA 
BRANCH  14  15
HETATM   15  C   UNL     2     -11.027   5.953  72.279  1.00  0.00    -0.265 C  
HETATM   16  O   UNL     2     -10.392   4.912  72.134  1.00  0.00    -0.194 OA 
BRANCH  15  17
HETATM   17  C   UNL     2     -10.456   7.239  72.755  1.00  0.00    -0.260 C  
HETATM   18  S   UNL     2      -8.971   7.611  71.895  1.00  0.00    -0.124 S  
HETATM   19  O   UNL     2      -8.085   6.491  72.201  1.00  0.00    -0.106 OA 
HETATM   20  O   UNL     2      -8.572   8.881  72.499  1.00  0.00    -0.396 OA 
HETATM   21  O   UNL     2      -9.379   7.712  70.494  1.00  0.00    -0.163 OA 
ENDBRANCH  15  17
ENDBRANCH  14  15
ENDBRANCH  13  14
ENDBRANCH  12  13
ENDBRANCH  11  12
ENDBRANCH  10  11
ENDBRANCH   9  10
ENDBRANCH   8   9
ENDBRANCH   7   8
ENDBRANCH   6   7
ENDBRANCH   5   6
ENDBRANCH   4   5
ENDBRANCH   3   4
TORSDOF 13
ENDMDL
MODEL      224
REMARK 921   NORMALIZED FREE ENERGY PREDICTED BY IDOCK:   -3.34 KCAL/MOL
REMARK 922        TOTAL FREE ENERGY PREDICTED BY IDOCK:   -7.44 KCAL/MOL
REMARK 923 INTER-LIGAND FREE ENERGY PREDICTED BY IDOCK:   -6.66 KCAL/MOL
REMARK 924 INTRA-LIGAND FREE ENERGY PREDICTED BY IDOCK:   -0.78 KCAL/MOL
REMARK 927      BINDING AFFINITY PREDICTED BY RF-SCORE:    0.00 PKD
ROOT
HETATM    1 NA   UNL     1     -14.339   5.556  72.726  1.00  0.00    -0.446 Na 
HETATM    2  C   UNL     2     -11.974   6.791  71.195  1.00  0.00    -0.421 C  
HETATM    3  C   UNL     2     -10.907   5.719  71.047  1.00  0.00    -0.316 C  
ENDROOT
BRANCH   3   4
HETATM    4  C   UNL     2     -10.570   5.494  69.576  1.00  0.00    -0.366 C  
BRANCH   4   5
HETATM    5  C   UNL     2     -10.991   6.682  68.716  1.00  0.00    -0.322 C  
BRANCH   5   6
HETATM    6  C   UNL     2      -9.761   7.412  68.181  1.00  0.00    -0.163 C  
BRANCH   6   7
HETATM    7  C   UNL     2     -10.111   8.822  67.721  1.00  0.00    -0.261 C  
BRANCH   7   8
HETATM    8  C   UNL     2     -10.630   9.655  68.890  1.00  0.00    -0.239 C  
BRANCH   8   9
HETATM    9  C   UNL     2     -11.316  10.921  68.393  1.00  0.00    -0.370 C  
BRANCH   9  10
HETATM   10  C   UNL     2     -10.350  11.784  67.585  1.00  0.00    -0.219 C  
BRANCH  10  11
HETATM   11  C   UNL     2     -11.090  12.940  66.920  1.00  0.00    -0.312 C  
BRANCH  11  12
HETATM   12  C   UNL     2     -12.135  13.538  67.855  1.00  0.00    -0.304 C  
BRANCH  12  13
HETATM   13  C   UNL     2     -11.716  14.930  68.316  1.00  0.00    -0.315 C  
BRANCH  13  14
HETATM   14  O   UNL     2     -11.115  15.653  67.238  1.00  0.00    -0.309 OA 
BRANCH  14  15
HETATM   15  C   UNL     2      -9.993  16.367  67.559  1.00  0.00    -0.250 C  
HETATM   16  O   UNL     2      -8.851  15.940  67.414  1.00  0.00    -0.182 OA 
BRANCH  15  17
HETATM   17  C   UNL     2     -10.346  17.632  68.253  1.00  0.00    -0.384 C  
HETATM   18  S   UNL     2      -9.856  19.020  67.295  1.00  0.00    -0.343 S  
HETATM   19  O   UNL     2      -8.409  18.874  67.162  1.00  0.00    -0.267 OA 
HETATM   20  O   UNL     2     -10.277  20.141  68.134  1.00  0.00    -0.410 OA 
HETATM   21  O   UNL     2     -10.609  18.884  66.049  1.00  0.00    -0.457 OA 
ENDBRANCH  15  17
ENDBRANCH  14  15
ENDBRANCH  13  14
ENDBRANCH  12  13
ENDBRANCH  11  12
ENDBRANCH  10  11
ENDBRANCH   9  10
ENDBRANCH   8   9
ENDBRANCH   7   8
ENDBRANCH   6   7
ENDBRANCH   5   6
ENDBRANCH   4   5
ENDBRANCH   3   4
TORSDOF 13
ENDMDL
MODEL      225
REMARK 921   NORMALIZED FREE ENERGY PREDICTED BY IDOCK:   -3.33 KCAL/MOL
REMARK 922        TOTAL FREE ENERGY PREDICTED BY IDOCK:   -7.42 KCAL/MOL
REMARK 923 INTER-LIGAND FREE ENERGY PREDICTED BY IDOCK:   -6.98 KCAL/MOL
REMARK 924 INTRA-LIGAND FREE ENERGY PREDICTED BY IDOCK:   -0.44 KCAL/MOL
REMARK 927      BINDING AFFINITY PREDICTED BY RF-SCORE:    0.00 PKD
ROOT
HETATM    1 NA   UNL     1     -10.337   2.515  67.418  1.00  0.00    -0.349 Na 
HETATM    2  C   UNL     2      -9.868   4.580  69.649  1.00  0.00    -0.288 C  
HETATM    3  C   UNL     2     -10.515   5.885  69.216  1.00  0.00    -0.342 C  
ENDROOT
BRANCH   3   4
HETATM    4  C   UNL     2     -11.539   6.346  70.248  1.00  0.00    -0.451 C  
BRANCH   4   5
HETATM    5  C   UNL     2     -10.885   7.141  71.374  1.00  0.00    -0.253 C  
BRANCH   5   6
HETATM    6  C   UNL     2     -10.514   8.540  70.890  1.00  0.00    -0.248 C  
BRANCH   6   7
HETATM    7  C   UNL     2     -11.551   9.569  71.323  1.00  0.00    -0.445 C  
BRANCH   7   8
HETATM    8  C   UNL     2     -11.540  10.771  70.382  1.00  0.00    -0.431 C  
BRANCH   8   9
HETATM    9  C   UNL     2     -12.825  11.579  70.517  1.00  0.00    -0.091 C  
BRANCH   9  10
HETATM   10  C   UNL     2     -13.044  12.017  71.963  1.00  0.00    -0.456 C  
BRANCH  10  11
HETATM   11  C   UNL     2     -13.591  13.440  72.016  1.00  0.00    -0.577 C  
BRANCH  11  12
HETATM   12  C   UNL     2     -12.462  14.462  72.090  1.00  0.00    -0.341 C  
BRANCH  12  13
HETATM   13  C   UNL     2     -12.756  15.660  71.192  1.00  0.00    -0.465 C  
BRANCH  13  14
HETATM   14  O   UNL     2     -11.536  16.270  70.760  1.00  0.00    -0.401 OA 
BRANCH  14  15
HETATM   15  C   UNL     2     -11.279  16.192  69.419  1.00  0.00    -0.335 C  
HETATM   16  O   UNL     2     -11.720  15.305  68.693  1.00  0.00    -0.343 OA 
BRANCH  15  17
HETATM   17  C   UNL     2     -10.276  17.207  69.007  1.00  0.00    -0.315 C  
HETATM   18  S   UNL     2      -8.917  16.442  68.200  1.00  0.00    -0.201 S  
HETATM   19  O   UNL     2      -8.369  15.530  69.200  1.00  0.00    -0.215 OA 
HETATM   20  O   UNL     2      -8.059  17.583  67.886  1.00  0.00    -0.219 OA 
HETATM   21  O   UNL     2      -9.509  15.794  67.030  1.00  0.00    -0.215 OA 
ENDBRANCH  15  17
ENDBRANCH  14  15
ENDBRANCH  13  14
ENDBRANCH  12  13
ENDBRANCH  11  12
ENDBRANCH  10  11
ENDBRANCH   9  10
ENDBRANCH   8   9
ENDBRANCH   7   8
ENDBRANCH   6   7
ENDBRANCH   5   6
ENDBRANCH   4   5
ENDBRANCH   3   4
TORSDOF 13
ENDMDL
MODEL      226
REMARK 921   NORMALIZED FREE ENERGY PREDICTED BY IDOCK:   -3.32 KCAL/MOL
REMARK 922        TOTAL FREE ENERGY PREDICTED BY IDOCK:   -7.41 KCAL/MOL
REMARK 923 INTER-LIGAND FREE ENERGY PREDICTED BY IDOCK:   -6.93 KCAL/MOL
REMARK 924 INTRA-LIGAND FREE ENERGY PREDICTED BY IDOCK:   -0.49 KCAL/MOL
REMARK 927      BINDING AFFINITY PREDICTED BY RF-SCORE:    0.00 PKD
ROOT
HETATM    1 NA   UNL     1      -9.581   1.627  65.733  1.00  0.00    -0.176 Na 
HETATM    2  C   UNL     2      -9.197   4.375  67.060  1.00  0.00    -0.154 C  
HETATM    3  C   UNL     2     -10.006   5.390  66.269  1.00  0.00    -0.199 C  
ENDROOT
BRANCH   3   4
HETATM    4  C   UNL     2     -11.008   6.101  67.172  1.00  0.00    -0.420 C  
BRANCH   4   5
HETATM    5  C   UNL     2     -10.365   7.271  67.912  1.00  0.00    -0.253 C  
BRANCH   5   6
HETATM    6  C   UNL     2     -10.433   8.538  67.063  1.00  0.00    -0.362 C  
BRANCH   6   7
HETATM    7  C   UNL     2     -10.765   9.758  67.914  1.00  0.00    -0.312 C  
BRANCH   7   8
HETATM    8  C   UNL     2     -10.480  11.043  67.142  1.00  0.00    -0.274 C  
BRANCH   8   9
HETATM    9  C   UNL     2     -11.454  12.145  67.544  1.00  0.00    -0.410 C  
BRANCH   9  10
HETATM   10  C   UNL     2     -11.782  12.066  69.033  1.00  0.00    -0.382 C  
BRANCH  10  11
HETATM   11  C   UNL     2     -11.898  13.464  69.632  1.00  0.00    -0.394 C  
BRANCH  11  12
HETATM   12  C   UNL     2     -10.917  14.429  68.975  1.00  0.00    -0.274 C  
BRANCH  12  13
HETATM   13  C   UNL     2     -11.497  15.838  68.919  1.00  0.00    -0.378 C  
BRANCH  13  14
HETATM   14  O   UNL     2     -10.462  16.811  69.092  1.00  0.00    -0.307 OA 
BRANCH  14  15
HETATM   15  C   UNL     2      -9.555  16.895  68.071  1.00  0.00    -0.247 C  
HETATM   16  O   UNL     2      -8.348  17.037  68.245  1.00  0.00    -0.212 OA 
BRANCH  15  17
HETATM   17  C   UNL     2     -10.238  16.963  66.754  1.00  0.00    -0.306 C  
HETATM   18  S   UNL     2     -10.282  18.617  66.165  1.00  0.00    -0.377 S  
HETATM   19  O   UNL     2     -11.028  19.345  67.188  1.00  0.00    -0.483 OA 
HETATM   20  O   UNL     2     -10.985  18.474  64.890  1.00  0.00    -0.547 OA 
HETATM   21  O   UNL     2      -8.875  18.994  66.039  1.00  0.00    -0.460 OA 
ENDBRANCH  15  17
ENDBRANCH  14  15
ENDBRANCH  13  14
ENDBRANCH  12  13
ENDBRANCH  11  12
ENDBRANCH  10  11
ENDBRANCH   9  10
ENDBRANCH   8   9
ENDBRANCH   7   8
ENDBRANCH   6   7
ENDBRANCH   5   6
ENDBRANCH   4   5
ENDBRANCH   3   4
TORSDOF 13
ENDMDL
MODEL      227
REMARK 921   NORMALIZED FREE ENERGY PREDICTED BY IDOCK:   -3.32 KCAL/MOL
REMARK 922        TOTAL FREE ENERGY PREDICTED BY IDOCK:   -7.40 KCAL/MOL
REMARK 923 INTER-LIGAND FREE ENERGY PREDICTED BY IDOCK:   -6.98 KCAL/MOL
REMARK 924 INTRA-LIGAND FREE ENERGY PREDICTED BY IDOCK:   -0.43 KCAL/MOL
REMARK 927      BINDING AFFINITY PREDICTED BY RF-SCORE:    0.00 PKD
ROOT
HETATM    1 NA   UNL     1      -8.632   5.085  68.733  1.00  0.00    -0.085 Na 
HETATM    2  C   UNL     2     -11.280   6.217  69.814  1.00  0.00    -0.494 C  
HETATM    3  C   UNL     2     -11.163   6.308  71.326  1.00  0.00    -0.355 C  
ENDROOT
BRANCH   3   4
HETATM    4  C   UNL     2     -11.404   7.737  71.800  1.00  0.00    -0.302 C  
BRANCH   4   5
HETATM    5  C   UNL     2     -11.435   8.718  70.632  1.00  0.00    -0.263 C  
BRANCH   5   6
HETATM    6  C   UNL     2     -10.223   9.645  70.686  1.00  0.00    -0.346 C  
BRANCH   6   7
HETATM    7  C   UNL     2      -9.908  10.226  69.312  1.00  0.00    -0.244 C  
BRANCH   7   8
HETATM    8  C   UNL     2     -10.375   9.279  68.210  1.00  0.00    -0.257 C  
BRANCH   8   9
HETATM    9  C   UNL     2      -9.195   8.783  67.383  1.00  0.00    -0.158 C  
BRANCH   9  10
HETATM   10  C   UNL     2      -9.487   8.904  65.890  1.00  0.00    -0.303 C  
BRANCH  10  11
HETATM   11  C   UNL     2     -10.371  10.116  65.613  1.00  0.00    -0.210 C  
BRANCH  11  12
HETATM   12  C   UNL     2      -9.565  11.262  65.012  1.00  0.00    -0.267 C  
BRANCH  12  13
HETATM   13  C   UNL     2     -10.453  12.158  64.155  1.00  0.00    -0.362 C  
BRANCH  13  14
HETATM   14  O   UNL     2     -10.510  13.477  64.706  1.00  0.00    -0.379 OA 
BRANCH  14  15
HETATM   15  C   UNL     2     -11.711  13.835  65.257  1.00  0.00    -0.338 C  
HETATM   16  O   UNL     2     -12.786  13.346  64.920  1.00  0.00    -0.633 OA 
BRANCH  15  17
HETATM   17  C   UNL     2     -11.553  14.993  66.174  1.00  0.00    -0.159 C  
HETATM   18  S   UNL     2     -10.576  16.245  65.426  1.00  0.00    -0.282 S  
HETATM   19  O   UNL     2      -9.294  15.596  65.165  1.00  0.00    -0.104 OA 
HETATM   20  O   UNL     2     -10.535  17.271  66.467  1.00  0.00    -0.318 OA 
HETATM   21  O   UNL     2     -11.330  16.628  64.232  1.00  0.00    -1.116 OA 
ENDBRANCH  15  17
ENDBRANCH  14  15
ENDBRANCH  13  14
ENDBRANCH  12  13
ENDBRANCH  11  12
ENDBRANCH  10  11
ENDBRANCH   9  10
ENDBRANCH   8   9
ENDBRANCH   7   8
ENDBRANCH   6   7
ENDBRANCH   5   6
ENDBRANCH   4   5
ENDBRANCH   3   4
TORSDOF 13
ENDMDL
MODEL      228
REMARK 921   NORMALIZED FREE ENERGY PREDICTED BY IDOCK:   -3.32 KCAL/MOL
REMARK 922        TOTAL FREE ENERGY PREDICTED BY IDOCK:   -7.40 KCAL/MOL
REMARK 923 INTER-LIGAND FREE ENERGY PREDICTED BY IDOCK:   -6.42 KCAL/MOL
REMARK 924 INTRA-LIGAND FREE ENERGY PREDICTED BY IDOCK:   -0.98 KCAL/MOL
REMARK 927      BINDING AFFINITY PREDICTED BY RF-SCORE:    0.00 PKD
ROOT
HETATM    1 NA   UNL     1     -12.193  15.898  63.120  1.00  0.00    -0.831 Na 
HETATM    2  C   UNL     2     -11.628  12.992  63.953  1.00  0.00    -0.508 C  
HETATM    3  C   UNL     2     -10.890  13.025  65.280  1.00  0.00    -0.311 C  
ENDROOT
BRANCH   3   4
HETATM    4  C   UNL     2     -11.647  12.228  66.337  1.00  0.00    -0.445 C  
BRANCH   4   5
HETATM    5  C   UNL     2     -10.773  11.138  66.952  1.00  0.00    -0.322 C  
BRANCH   5   6
HETATM    6  C   UNL     2     -10.583  11.390  68.445  1.00  0.00    -0.230 C  
BRANCH   6   7
HETATM    7  C   UNL     2     -11.886  11.828  69.104  1.00  0.00    -0.389 C  
BRANCH   7   8
HETATM    8  C   UNL     2     -12.120  11.051  70.397  1.00  0.00    -0.463 C  
BRANCH   8   9
HETATM    9  C   UNL     2     -11.242   9.806  70.449  1.00  0.00    -0.362 C  
BRANCH   9  10
HETATM   10  C   UNL     2     -11.222   9.212  71.855  1.00  0.00    -0.400 C  
BRANCH  10  11
HETATM   11  C   UNL     2     -12.536   8.499  72.156  1.00  0.00    -0.431 C  
BRANCH  11  12
HETATM   12  C   UNL     2     -12.709   7.266  71.276  1.00  0.00    -0.400 C  
BRANCH  12  13
HETATM   13  C   UNL     2     -11.546   6.298  71.465  1.00  0.00    -0.287 C  
BRANCH  13  14
HETATM   14  O   UNL     2     -10.892   6.054  70.216  1.00  0.00    -0.276 OA 
BRANCH  14  15
HETATM   15  C   UNL     2      -9.545   6.294  70.199  1.00  0.00    -0.162 C  
HETATM   16  O   UNL     2      -8.912   6.688  71.175  1.00  0.00    -0.144 OA 
BRANCH  15  17
HETATM   17  C   UNL     2      -9.001   6.181  68.821  1.00  0.00    -0.123 C  
HETATM   18  S   UNL     2      -8.109   4.681  68.631  1.00  0.00    -0.082 S  
HETATM   19  O   UNL     2      -7.037   4.770  69.619  1.00  0.00    -0.052 OA 
HETATM   20  O   UNL     2      -7.659   4.761  67.241  1.00  0.00    -0.085 OA 
HETATM   21  O   UNL     2      -9.099   3.635  68.884  1.00  0.00    -0.115 OA 
ENDBRANCH  15  17
ENDBRANCH  14  15
ENDBRANCH  13  14
ENDBRANCH  12  13
ENDBRANCH  11  12
ENDBRANCH  10  11
ENDBRANCH   9  10
ENDBRANCH   8   9
ENDBRANCH   7   8
ENDBRANCH   6   7
ENDBRANCH   5   6
ENDBRANCH   4   5
ENDBRANCH   3   4
TORSDOF 13
ENDMDL
MODEL      229
REMARK 921   NORMALIZED FREE ENERGY PREDICTED BY IDOCK:   -3.31 KCAL/MOL
REMARK 922        TOTAL FREE ENERGY PREDICTED BY IDOCK:   -7.39 KCAL/MOL
REMARK 923 INTER-LIGAND FREE ENERGY PREDICTED BY IDOCK:   -6.17 KCAL/MOL
REMARK 924 INTRA-LIGAND FREE ENERGY PREDICTED BY IDOCK:   -1.23 KCAL/MOL
REMARK 927      BINDING AFFINITY PREDICTED BY RF-SCORE:    0.00 PKD
ROOT
HETATM    1 NA   UNL     1      -7.501  12.290  70.054  1.00  0.00    -0.336 Na 
HETATM    2  C   UNL     2      -5.848  14.883  70.091  1.00  0.00    -0.141 C  
HETATM    3  C   UNL     2      -6.187  15.668  68.834  1.00  0.00    -0.109 C  
ENDROOT
BRANCH   3   4
HETATM    4  C   UNL     2      -6.701  17.059  69.190  1.00  0.00    -0.241 C  
BRANCH   4   5
HETATM    5  C   UNL     2      -7.996  17.385  68.452  1.00  0.00    -0.259 C  
BRANCH   5   6
HETATM    6  C   UNL     2      -8.887  16.148  68.372  1.00  0.00    -0.188 C  
BRANCH   6   7
HETATM    7  C   UNL     2     -10.200  16.456  67.662  1.00  0.00    -0.272 C  
BRANCH   7   8
HETATM    8  C   UNL     2     -11.377  16.293  68.620  1.00  0.00    -0.333 C  
BRANCH   8   9
HETATM    9  C   UNL     2     -10.992  15.424  69.812  1.00  0.00    -0.294 C  
BRANCH   9  10
HETATM   10  C   UNL     2     -11.961  14.255  69.969  1.00  0.00    -0.396 C  
BRANCH  10  11
HETATM   11  C   UNL     2     -11.882  13.326  68.762  1.00  0.00    -0.371 C  
BRANCH  11  12
HETATM   12  C   UNL     2     -11.310  11.966  69.148  1.00  0.00    -0.338 C  
BRANCH  12  13
HETATM   13  C   UNL     2     -10.182  11.564  68.204  1.00  0.00    -0.194 C  
BRANCH  13  14
HETATM   14  O   UNL     2     -10.568  10.432  67.419  1.00  0.00    -0.231 OA 
BRANCH  14  15
HETATM   15  C   UNL     2     -10.211  10.479  66.099  1.00  0.00    -0.236 C  
HETATM   16  O   UNL     2     -10.026   9.481  65.409  1.00  0.00    -0.284 OA 
BRANCH  15  17
HETATM   17  C   UNL     2      -9.917  11.873  65.675  1.00  0.00    -0.241 C  
HETATM   18  S   UNL     2     -11.163  12.464  64.589  1.00  0.00    -0.327 S  
HETATM   19  O   UNL     2     -11.121  11.545  63.456  1.00  0.00    -0.407 OA 
HETATM   20  O   UNL     2     -10.697  13.818  64.289  1.00  0.00    -0.372 OA 
HETATM   21  O   UNL     2     -12.390  12.412  65.384  1.00  0.00    -0.596 OA 
ENDBRANCH  15  17
ENDBRANCH  14  15
ENDBRANCH  13  14
ENDBRANCH  12  13
ENDBRANCH  11  12
ENDBRANCH  10  11
ENDBRANCH   9  10
ENDBRANCH   8   9
ENDBRANCH   7   8
ENDBRANCH   6   7
ENDBRANCH   5   6
ENDBRANCH   4   5
ENDBRANCH   3   4
TORSDOF 13
ENDMDL
MODEL      230
REMARK 921   NORMALIZED FREE ENERGY PREDICTED BY IDOCK:   -3.31 KCAL/MOL
REMARK 922        TOTAL FREE ENERGY PREDICTED BY IDOCK:   -7.39 KCAL/MOL
REMARK 923 INTER-LIGAND FREE ENERGY PREDICTED BY IDOCK:   -6.77 KCAL/MOL
REMARK 924 INTRA-LIGAND FREE ENERGY PREDICTED BY IDOCK:   -0.61 KCAL/MOL
REMARK 927      BINDING AFFINITY PREDICTED BY RF-SCORE:    0.00 PKD
ROOT
HETATM    1 NA   UNL     1     -14.404   7.778  70.365  1.00  0.00    -0.621 Na 
HETATM    2  C   UNL     2     -12.448   6.388  72.289  1.00  0.00    -0.107 C  
HETATM    3  C   UNL     2     -11.046   6.557  71.727  1.00  0.00    -0.299 C  
ENDROOT
BRANCH   3   4
HETATM    4  C   UNL     2     -10.139   7.245  72.742  1.00  0.00    -0.253 C  
BRANCH   4   5
HETATM    5  C   UNL     2      -9.332   8.371  72.103  1.00  0.00    -0.339 C  
BRANCH   5   6
HETATM    6  C   UNL     2      -9.571   8.404  70.595  1.00  0.00    -0.195 C  
BRANCH   6   7
HETATM    7  C   UNL     2      -9.921   9.809  70.120  1.00  0.00    -0.315 C  
BRANCH   7   8
HETATM    8  C   UNL     2      -9.749   9.922  68.608  1.00  0.00    -0.163 C  
BRANCH   8   9
HETATM    9  C   UNL     2     -10.141  11.312  68.119  1.00  0.00    -0.195 C  
BRANCH   9  10
HETATM   10  C   UNL     2     -11.007  11.225  66.865  1.00  0.00    -0.348 C  
BRANCH  10  11
HETATM   11  C   UNL     2     -11.743  12.540  66.629  1.00  0.00    -0.453 C  
BRANCH  11  12
HETATM   12  C   UNL     2     -10.970  13.717  67.211  1.00  0.00    -0.302 C  
BRANCH  12  13
HETATM   13  C   UNL     2     -10.163  14.425  66.127  1.00  0.00    -0.306 C  
BRANCH  13  14
HETATM   14  O   UNL     2     -11.036  14.998  65.149  1.00  0.00    -0.356 OA 
BRANCH  14  15
HETATM   15  C   UNL     2     -10.924  16.351  64.978  1.00  0.00    -0.252 C  
HETATM   16  O   UNL     2     -11.598  16.993  64.178  1.00  0.00    -1.022 OA 
BRANCH  15  17
HETATM   17  C   UNL     2      -9.778  16.893  65.753  1.00  0.00    -0.092 C  
HETATM   18  S   UNL     2     -10.319  18.144  66.861  1.00  0.00    -0.366 S  
HETATM   19  O   UNL     2     -10.906  19.164  65.996  1.00  0.00    -0.376 OA 
HETATM   20  O   UNL     2      -9.072  18.545  67.511  1.00  0.00    -0.276 OA 
HETATM   21  O   UNL     2     -11.266  17.461  67.743  1.00  0.00    -0.135 OA 
ENDBRANCH  15  17
ENDBRANCH  14  15
ENDBRANCH  13  14
ENDBRANCH  12  13
ENDBRANCH  11  12
ENDBRANCH  10  11
ENDBRANCH   9  10
ENDBRANCH   8   9
ENDBRANCH   7   8
ENDBRANCH   6   7
ENDBRANCH   5   6
ENDBRANCH   4   5
ENDBRANCH   3   4
TORSDOF 13
ENDMDL
MODEL      231
REMARK 921   NORMALIZED FREE ENERGY PREDICTED BY IDOCK:   -3.30 KCAL/MOL
REMARK 922        TOTAL FREE ENERGY PREDICTED BY IDOCK:   -7.38 KCAL/MOL
REMARK 923 INTER-LIGAND FREE ENERGY PREDICTED BY IDOCK:   -6.76 KCAL/MOL
REMARK 924 INTRA-LIGAND FREE ENERGY PREDICTED BY IDOCK:   -0.62 KCAL/MOL
REMARK 927      BINDING AFFINITY PREDICTED BY RF-SCORE:    0.00 PKD
ROOT
HETATM    1 NA   UNL     1     -13.999   9.217  73.314  1.00  0.00    -0.588 Na 
HETATM    2  C   UNL     2     -11.530   7.425  72.924  1.00  0.00    -0.269 C  
HETATM    3  C   UNL     2     -11.649   6.761  71.562  1.00  0.00    -0.344 C  
ENDROOT
BRANCH   3   4
HETATM    4  C   UNL     2     -10.432   7.080  70.699  1.00  0.00    -0.229 C  
BRANCH   4   5
HETATM    5  C   UNL     2     -10.724   8.204  69.710  1.00  0.00    -0.229 C  
BRANCH   5   6
HETATM    6  C   UNL     2     -10.823   9.541  70.440  1.00  0.00    -0.338 C  
BRANCH   6   7
HETATM    7  C   UNL     2     -12.206  10.161  70.274  1.00  0.00    -0.248 C  
BRANCH   7   8
HETATM    8  C   UNL     2     -12.092  11.655  69.983  1.00  0.00    -0.395 C  
BRANCH   8   9
HETATM    9  C   UNL     2     -12.567  12.479  71.174  1.00  0.00    -0.349 C  
BRANCH   9  10
HETATM   10  C   UNL     2     -11.944  13.872  71.156  1.00  0.00    -0.201 C  
BRANCH  10  11
HETATM   11  C   UNL     2     -12.484  14.686  69.985  1.00  0.00    -0.333 C  
BRANCH  11  12
HETATM   12  C   UNL     2     -11.355  15.358  69.212  1.00  0.00    -0.323 C  
BRANCH  12  13
HETATM   13  C   UNL     2     -11.629  15.326  67.712  1.00  0.00    -0.265 C  
BRANCH  13  14
HETATM   14  O   UNL     2     -12.576  14.300  67.400  1.00  0.00    -0.054 OA 
BRANCH  14  15
HETATM   15  C   UNL     2     -12.467  13.756  66.149  1.00  0.00    -0.418 C  
HETATM   16  O   UNL     2     -13.110  14.149  65.179  1.00  0.00    -0.757 OA 
BRANCH  15  17
HETATM   17  C   UNL     2     -11.610  12.543  66.167  1.00  0.00    -0.395 C  
HETATM   18  S   UNL     2     -10.374  12.640  64.924  1.00  0.00    -0.298 S  
HETATM   19  O   UNL     2     -11.124  12.742  63.675  1.00  0.00    -0.432 OA 
HETATM   20  O   UNL     2      -9.657  11.378  65.098  1.00  0.00    -0.230 OA 
HETATM   21  O   UNL     2      -9.597  13.828  65.278  1.00  0.00    -0.061 OA 
ENDBRANCH  15  17
ENDBRANCH  14  15
ENDBRANCH  13  14
ENDBRANCH  12  13
ENDBRANCH  11  12
ENDBRANCH  10  11
ENDBRANCH   9  10
ENDBRANCH   8   9
ENDBRANCH   7   8
ENDBRANCH   6   7
ENDBRANCH   5   6
ENDBRANCH   4   5
ENDBRANCH   3   4
TORSDOF 13
ENDMDL
MODEL      232
REMARK 921   NORMALIZED FREE ENERGY PREDICTED BY IDOCK:   -3.30 KCAL/MOL
REMARK 922        TOTAL FREE ENERGY PREDICTED BY IDOCK:   -7.36 KCAL/MOL
REMARK 923 INTER-LIGAND FREE ENERGY PREDICTED BY IDOCK:   -6.67 KCAL/MOL
REMARK 924 INTRA-LIGAND FREE ENERGY PREDICTED BY IDOCK:   -0.69 KCAL/MOL
REMARK 927      BINDING AFFINITY PREDICTED BY RF-SCORE:    0.00 PKD
ROOT
HETATM    1 NA   UNL     1     -14.043   9.985  71.614  1.00  0.00    -0.297 Na 
HETATM    2  C   UNL     2     -12.478  12.510  70.819  1.00  0.00    -0.357 C  
HETATM    3  C   UNL     2     -13.272  13.716  71.292  1.00  0.00    -0.308 C  
ENDROOT
BRANCH   3   4
HETATM    4  C   UNL     2     -12.431  14.584  72.221  1.00  0.00    -0.353 C  
BRANCH   4   5
HETATM    5  C   UNL     2     -11.927  15.840  71.515  1.00  0.00    -0.506 C  
BRANCH   5   6
HETATM    6  C   UNL     2     -11.533  15.517  70.076  1.00  0.00    -0.344 C  
BRANCH   6   7
HETATM    7  C   UNL     2     -10.598  16.577  69.507  1.00  0.00    -0.321 C  
BRANCH   7   8
HETATM    8  C   UNL     2      -9.164  16.055  69.456  1.00  0.00    -0.124 C  
BRANCH   8   9
HETATM    9  C   UNL     2      -9.090  14.747  68.678  1.00  0.00    -0.186 C  
BRANCH   9  10
HETATM   10  C   UNL     2      -7.713  14.569  68.041  1.00  0.00    -0.138 C  
BRANCH  10  11
HETATM   11  C   UNL     2      -7.352  13.090  67.948  1.00  0.00    -0.128 C  
BRANCH  11  12
HETATM   12  C   UNL     2      -8.602  12.224  67.831  1.00  0.00    -0.169 C  
BRANCH  12  13
HETATM   13  C   UNL     2      -8.729  11.643  66.426  1.00  0.00    -0.170 C  
BRANCH  13  14
HETATM   14  O   UNL     2     -10.079  11.243  66.172  1.00  0.00    -0.220 OA 
BRANCH  14  15
HETATM   15  C   UNL     2     -10.454  11.235  64.856  1.00  0.00    -0.314 C  
HETATM   16  O   UNL     2     -10.470  10.223  64.161  1.00  0.00    -0.019 OA 
BRANCH  15  17
HETATM   17  C   UNL     2     -10.667  12.616  64.353  1.00  0.00    -0.359 C  
HETATM   18  S   UNL     2     -12.378  13.013  64.345  1.00  0.00    -0.360 S  
HETATM   19  O   UNL     2     -12.974  12.025  63.451  1.00  0.00    -0.772 OA 
HETATM   20  O   UNL     2     -12.378  14.379  63.823  1.00  0.00    -0.736 OA 
HETATM   21  O   UNL     2     -12.782  12.904  65.747  1.00  0.00    -0.492 OA 
ENDBRANCH  15  17
ENDBRANCH  14  15
ENDBRANCH  13  14
ENDBRANCH  12  13
ENDBRANCH  11  12
ENDBRANCH  10  11
ENDBRANCH   9  10
ENDBRANCH   8   9
ENDBRANCH   7   8
ENDBRANCH   6   7
ENDBRANCH   5   6
ENDBRANCH   4   5
ENDBRANCH   3   4
TORSDOF 13
ENDMDL
MODEL      233
REMARK 921   NORMALIZED FREE ENERGY PREDICTED BY IDOCK:   -3.29 KCAL/MOL
REMARK 922        TOTAL FREE ENERGY PREDICTED BY IDOCK:   -7.36 KCAL/MOL
REMARK 923 INTER-LIGAND FREE ENERGY PREDICTED BY IDOCK:   -6.16 KCAL/MOL
REMARK 924 INTRA-LIGAND FREE ENERGY PREDICTED BY IDOCK:   -1.20 KCAL/MOL
REMARK 927      BINDING AFFINITY PREDICTED BY RF-SCORE:    0.00 PKD
ROOT
HETATM    1 NA   UNL     1      -7.346  11.042  64.204  1.00  0.00    -0.326 Na 
HETATM    2  C   UNL     2      -8.130   8.250  65.229  1.00  0.00    -0.142 C  
HETATM    3  C   UNL     2      -7.910   8.229  66.733  1.00  0.00    -0.095 C  
ENDROOT
BRANCH   3   4
HETATM    4  C   UNL     2      -9.200   7.866  67.461  1.00  0.00    -0.152 C  
BRANCH   4   5
HETATM    5  C   UNL     2     -10.397   8.625  66.895  1.00  0.00    -0.355 C  
BRANCH   5   6
HETATM    6  C   UNL     2     -10.797   9.760  67.833  1.00  0.00    -0.298 C  
BRANCH   6   7
HETATM    7  C   UNL     2     -10.994  11.066  67.071  1.00  0.00    -0.333 C  
BRANCH   7   8
HETATM    8  C   UNL     2     -10.130  11.087  65.813  1.00  0.00    -0.305 C  
BRANCH   8   9
HETATM    9  C   UNL     2     -10.902  11.667  64.633  1.00  0.00    -0.373 C  
BRANCH   9  10
HETATM   10  C   UNL     2     -12.135  12.429  65.111  1.00  0.00    -0.464 C  
BRANCH  10  11
HETATM   11  C   UNL     2     -12.188  13.816  64.477  1.00  0.00    -0.441 C  
BRANCH  11  12
HETATM   12  C   UNL     2     -10.822  14.492  64.515  1.00  0.00    -0.239 C  
BRANCH  12  13
HETATM   13  C   UNL     2     -10.909  15.851  65.204  1.00  0.00    -0.421 C  
BRANCH  13  14
HETATM   14  O   UNL     2      -9.604  16.313  65.562  1.00  0.00    -0.474 OA 
BRANCH  14  15
HETATM   15  C   UNL     2      -9.495  16.863  66.810  1.00  0.00    -0.255 C  
HETATM   16  O   UNL     2      -8.462  17.367  67.243  1.00  0.00    -0.202 OA 
BRANCH  15  17
HETATM   17  C   UNL     2     -10.721  16.617  67.611  1.00  0.00    -0.306 C  
HETATM   18  S   UNL     2     -10.411  15.427  68.865  1.00  0.00    -0.249 S  
HETATM   19  O   UNL     2     -10.004  14.229  68.135  1.00  0.00    -0.218 OA 
HETATM   20  O   UNL     2     -11.713  15.322  69.523  1.00  0.00    -0.298 OA 
HETATM   21  O   UNL     2      -9.367  16.034  69.690  1.00  0.00    -0.210 OA 
ENDBRANCH  15  17
ENDBRANCH  14  15
ENDBRANCH  13  14
ENDBRANCH  12  13
ENDBRANCH  11  12
ENDBRANCH  10  11
ENDBRANCH   9  10
ENDBRANCH   8   9
ENDBRANCH   7   8
ENDBRANCH   6   7
ENDBRANCH   5   6
ENDBRANCH   4   5
ENDBRANCH   3   4
TORSDOF 13
ENDMDL
MODEL      234
REMARK 921   NORMALIZED FREE ENERGY PREDICTED BY IDOCK:   -3.29 KCAL/MOL
REMARK 922        TOTAL FREE ENERGY PREDICTED BY IDOCK:   -7.36 KCAL/MOL
REMARK 923 INTER-LIGAND FREE ENERGY PREDICTED BY IDOCK:   -6.35 KCAL/MOL
REMARK 924 INTRA-LIGAND FREE ENERGY PREDICTED BY IDOCK:   -1.00 KCAL/MOL
REMARK 927      BINDING AFFINITY PREDICTED BY RF-SCORE:    0.00 PKD
ROOT
HETATM    1 NA   UNL     1      -7.434  12.806  70.056  1.00  0.00    -0.326 Na 
HETATM    2  C   UNL     2      -9.498  13.156  67.803  1.00  0.00    -0.209 C  
HETATM    3  C   UNL     2     -10.824  13.533  68.443  1.00  0.00    -0.286 C  
ENDROOT
BRANCH   3   4
HETATM    4  C   UNL     2     -11.334  14.858  67.886  1.00  0.00    -0.340 C  
BRANCH   4   5
HETATM    5  C   UNL     2     -11.868  15.763  68.992  1.00  0.00    -0.367 C  
BRANCH   5   6
HETATM    6  C   UNL     2     -10.968  15.687  70.222  1.00  0.00    -0.363 C  
BRANCH   6   7
HETATM    7  C   UNL     2     -11.678  16.217  71.462  1.00  0.00    -0.533 C  
BRANCH   7   8
HETATM    8  C   UNL     2     -11.815  15.117  72.512  1.00  0.00    -0.485 C  
BRANCH   8   9
HETATM    9  C   UNL     2     -13.112  14.340  72.318  1.00  0.00    -0.493 C  
BRANCH   9  10
HETATM   10  C   UNL     2     -12.865  13.055  71.533  1.00  0.00    -0.386 C  
BRANCH  10  11
HETATM   11  C   UNL     2     -13.631  11.891  72.154  1.00  0.00    -0.188 C  
BRANCH  11  12
HETATM   12  C   UNL     2     -13.233  10.565  71.516  1.00  0.00    -0.470 C  
BRANCH  12  13
HETATM   13  C   UNL     2     -12.065  10.755  70.554  1.00  0.00    -0.366 C  
BRANCH  13  14
HETATM   14  O   UNL     2     -11.095   9.719  70.736  1.00  0.00    -0.293 OA 
BRANCH  14  15
HETATM   15  C   UNL     2     -10.283   9.475  69.662  1.00  0.00    -0.218 C  
HETATM   16  O   UNL     2     -10.510   9.893  68.530  1.00  0.00    -0.188 OA 
BRANCH  15  17
HETATM   17  C   UNL     2      -9.206   8.514  70.014  1.00  0.00    -0.155 C  
HETATM   18  S   UNL     2      -9.804   6.864  69.941  1.00  0.00    -0.165 S  
HETATM   19  O   UNL     2     -10.888   6.828  70.918  1.00  0.00    -0.234 OA 
HETATM   20  O   UNL     2      -8.623   6.089  70.318  1.00  0.00    -0.137 OA 
HETATM   21  O   UNL     2     -10.219   6.691  68.549  1.00  0.00    -0.153 OA 
ENDBRANCH  15  17
ENDBRANCH  14  15
ENDBRANCH  13  14
ENDBRANCH  12  13
ENDBRANCH  11  12
ENDBRANCH  10  11
ENDBRANCH   9  10
ENDBRANCH   8   9
ENDBRANCH   7   8
ENDBRANCH   6   7
ENDBRANCH   5   6
ENDBRANCH   4   5
ENDBRANCH   3   4
TORSDOF 13
ENDMDL
MODEL      235
REMARK 921   NORMALIZED FREE ENERGY PREDICTED BY IDOCK:   -3.28 KCAL/MOL
REMARK 922        TOTAL FREE ENERGY PREDICTED BY IDOCK:   -7.34 KCAL/MOL
REMARK 923 INTER-LIGAND FREE ENERGY PREDICTED BY IDOCK:   -6.29 KCAL/MOL
REMARK 924 INTRA-LIGAND FREE ENERGY PREDICTED BY IDOCK:   -1.06 KCAL/MOL
REMARK 927      BINDING AFFINITY PREDICTED BY RF-SCORE:    0.00 PKD
ROOT
HETATM    1 NA   UNL     1      -7.775   8.172  67.475  1.00  0.00    -0.085 Na 
HETATM    2  C   UNL     2      -7.303   9.406  64.698  1.00  0.00    -0.104 C  
HETATM    3  C   UNL     2      -8.559   9.185  63.872  1.00  0.00    -0.188 C  
ENDROOT
BRANCH   3   4
HETATM    4  C   UNL     2      -9.115  10.513  63.371  1.00  0.00    -0.264 C  
BRANCH   4   5
HETATM    5  C   UNL     2     -10.329  10.956  64.182  1.00  0.00    -0.432 C  
BRANCH   5   6
HETATM    6  C   UNL     2     -11.131  12.000  63.410  1.00  0.00    -0.476 C  
BRANCH   6   7
HETATM    7  C   UNL     2     -12.259  12.573  64.260  1.00  0.00    -0.535 C  
BRANCH   7   8
HETATM    8  C   UNL     2     -12.065  14.073  64.467  1.00  0.00    -0.484 C  
BRANCH   8   9
HETATM    9  C   UNL     2     -11.570  14.367  65.878  1.00  0.00    -0.361 C  
BRANCH   9  10
HETATM   10  C   UNL     2     -11.748  13.150  66.783  1.00  0.00    -0.439 C  
BRANCH  10  11
HETATM   11  C   UNL     2     -11.656  13.555  68.251  1.00  0.00    -0.381 C  
BRANCH  11  12
HETATM   12  C   UNL     2     -11.213  12.383  69.120  1.00  0.00    -0.295 C  
BRANCH  12  13
HETATM   13  C   UNL     2     -11.019  11.126  68.277  1.00  0.00    -0.226 C  
BRANCH  13  14
HETATM   14  O   UNL     2     -11.408   9.965  69.017  1.00  0.00    -0.147 OA 
BRANCH  14  15
HETATM   15  C   UNL     2     -10.381   9.217  69.525  1.00  0.00    -0.216 C  
HETATM   16  O   UNL     2      -9.197   9.438  69.287  1.00  0.00    -0.148 OA 
BRANCH  15  17
HETATM   17  C   UNL     2     -10.895   8.026  70.249  1.00  0.00    -0.241 C  
HETATM   18  S   UNL     2     -11.030   8.358  71.968  1.00  0.00    -0.348 S  
HETATM   19  O   UNL     2      -9.667   8.683  72.382  1.00  0.00    -0.295 OA 
HETATM   20  O   UNL     2     -11.535   7.089  72.491  1.00  0.00    -0.266 OA 
HETATM   21  O   UNL     2     -11.982   9.465  72.050  1.00  0.00    -0.355 OA 
ENDBRANCH  15  17
ENDBRANCH  14  15
ENDBRANCH  13  14
ENDBRANCH  12  13
ENDBRANCH  11  12
ENDBRANCH  10  11
ENDBRANCH   9  10
ENDBRANCH   8   9
ENDBRANCH   7   8
ENDBRANCH   6   7
ENDBRANCH   5   6
ENDBRANCH   4   5
ENDBRANCH   3   4
TORSDOF 13
ENDMDL
MODEL      236
REMARK 921   NORMALIZED FREE ENERGY PREDICTED BY IDOCK:   -3.28 KCAL/MOL
REMARK 922        TOTAL FREE ENERGY PREDICTED BY IDOCK:   -7.34 KCAL/MOL
REMARK 923 INTER-LIGAND FREE ENERGY PREDICTED BY IDOCK:   -5.61 KCAL/MOL
REMARK 924 INTRA-LIGAND FREE ENERGY PREDICTED BY IDOCK:   -1.72 KCAL/MOL
REMARK 927      BINDING AFFINITY PREDICTED BY RF-SCORE:    0.00 PKD
ROOT
HETATM    1 NA   UNL     1      -7.577  11.900  68.946  1.00  0.00    -0.093 Na 
HETATM    2  C   UNL     2      -9.345  14.319  68.253  1.00  0.00    -0.208 C  
HETATM    3  C   UNL     2      -8.455  15.381  67.629  1.00  0.00    -0.173 C  
ENDROOT
BRANCH   3   4
HETATM    4  C   UNL     2      -8.960  15.759  66.241  1.00  0.00    -0.381 C  
BRANCH   4   5
HETATM    5  C   UNL     2     -10.484  15.727  66.170  1.00  0.00    -0.326 C  
BRANCH   5   6
HETATM    6  C   UNL     2     -10.946  15.693  64.715  1.00  0.00    -0.418 C  
BRANCH   6   7
HETATM    7  C   UNL     2     -12.103  14.720  64.524  1.00  0.00    -0.460 C  
BRANCH   7   8
HETATM    8  C   UNL     2     -12.160  13.721  65.677  1.00  0.00    -0.444 C  
BRANCH   8   9
HETATM    9  C   UNL     2     -11.701  12.340  65.223  1.00  0.00    -0.413 C  
BRANCH   9  10
HETATM   10  C   UNL     2     -10.243  12.098  65.605  1.00  0.00    -0.285 C  
BRANCH  10  11
HETATM   11  C   UNL     2     -10.119  10.861  66.489  1.00  0.00    -0.269 C  
BRANCH  11  12
HETATM   12  C   UNL     2     -11.368  10.664  67.340  1.00  0.00    -0.185 C  
BRANCH  12  13
HETATM   13  C   UNL     2     -11.003  10.522  68.814  1.00  0.00    -0.251 C  
BRANCH  13  14
HETATM   14  O   UNL     2      -9.613  10.219  68.957  1.00  0.00    -0.182 OA 
BRANCH  14  15
HETATM   15  C   UNL     2      -9.223   9.808  70.203  1.00  0.00    -0.208 C  
HETATM   16  O   UNL     2      -8.060   9.840  70.596  1.00  0.00    -0.264 OA 
BRANCH  15  17
HETATM   17  C   UNL     2     -10.351   9.172  70.932  1.00  0.00    -0.280 C  
HETATM   18  S   UNL     2     -10.269   7.424  70.792  1.00  0.00    -0.197 S  
HETATM   19  O   UNL     2     -10.355   7.171  69.356  1.00  0.00    -0.187 OA 
HETATM   20  O   UNL     2     -11.441   6.995  71.554  1.00  0.00    -0.251 OA 
HETATM   21  O   UNL     2      -8.989   7.070  71.406  1.00  0.00    -0.139 OA 
ENDBRANCH  15  17
ENDBRANCH  14  15
ENDBRANCH  13  14
ENDBRANCH  12  13
ENDBRANCH  11  12
ENDBRANCH  10  11
ENDBRANCH   9  10
ENDBRANCH   8   9
ENDBRANCH   7   8
ENDBRANCH   6   7
ENDBRANCH   5   6
ENDBRANCH   4   5
ENDBRANCH   3   4
TORSDOF 13
ENDMDL
MODEL      237
REMARK 921   NORMALIZED FREE ENERGY PREDICTED BY IDOCK:   -3.28 KCAL/MOL
REMARK 922        TOTAL FREE ENERGY PREDICTED BY IDOCK:   -7.33 KCAL/MOL
REMARK 923 INTER-LIGAND FREE ENERGY PREDICTED BY IDOCK:   -6.46 KCAL/MOL
REMARK 924 INTRA-LIGAND FREE ENERGY PREDICTED BY IDOCK:   -0.87 KCAL/MOL
REMARK 927      BINDING AFFINITY PREDICTED BY RF-SCORE:    0.00 PKD
ROOT
HETATM    1 NA   UNL     1     -11.816   7.281  68.413  1.00  0.00    -0.428 Na 
HETATM    2  C   UNL     2     -11.278   7.968  71.362  1.00  0.00    -0.287 C  
HETATM    3  C   UNL     2      -9.934   7.369  71.740  1.00  0.00    -0.192 C  
ENDROOT
BRANCH   3   4
HETATM    4  C   UNL     2      -8.988   8.448  72.255  1.00  0.00    -0.303 C  
BRANCH   4   5
HETATM    5  C   UNL     2      -7.832   8.690  71.289  1.00  0.00    -0.156 C  
BRANCH   5   6
HETATM    6  C   UNL     2      -8.187   9.801  70.304  1.00  0.00    -0.178 C  
BRANCH   6   7
HETATM    7  C   UNL     2      -8.436   9.243  68.907  1.00  0.00    -0.129 C  
BRANCH   7   8
HETATM    8  C   UNL     2      -9.784   9.719  68.373  1.00  0.00    -0.162 C  
BRANCH   8   9
HETATM    9  C   UNL     2      -9.874   9.513  66.865  1.00  0.00    -0.262 C  
BRANCH   9  10
HETATM   10  C   UNL     2     -10.336  10.790  66.167  1.00  0.00    -0.300 C  
BRANCH  10  11
HETATM   11  C   UNL     2     -11.176  11.643  67.112  1.00  0.00    -0.371 C  
BRANCH  11  12
HETATM   12  C   UNL     2     -11.699  12.892  66.410  1.00  0.00    -0.454 C  
BRANCH  12  13
HETATM   13  C   UNL     2     -11.741  14.076  67.371  1.00  0.00    -0.388 C  
BRANCH  13  14
HETATM   14  O   UNL     2     -10.656  14.971  67.107  1.00  0.00    -0.283 OA 
BRANCH  14  15
HETATM   15  C   UNL     2     -10.648  16.123  67.845  1.00  0.00    -0.309 C  
HETATM   16  O   UNL     2     -11.495  16.393  68.692  1.00  0.00    -0.349 OA 
BRANCH  15  17
HETATM   17  C   UNL     2      -9.594  17.055  67.368  1.00  0.00    -0.246 C  
HETATM   18  S   UNL     2     -10.291  18.307  66.353  1.00  0.00    -0.381 S  
HETATM   19  O   UNL     2     -10.896  17.576  65.242  1.00  0.00    -0.592 OA 
HETATM   20  O   UNL     2      -9.118  19.100  65.988  1.00  0.00    -0.442 OA 
HETATM   21  O   UNL     2     -11.237  18.998  67.227  1.00  0.00    -0.249 OA 
ENDBRANCH  15  17
ENDBRANCH  14  15
ENDBRANCH  13  14
ENDBRANCH  12  13
ENDBRANCH  11  12
ENDBRANCH  10  11
ENDBRANCH   9  10
ENDBRANCH   8   9
ENDBRANCH   7   8
ENDBRANCH   6   7
ENDBRANCH   5   6
ENDBRANCH   4   5
ENDBRANCH   3   4
TORSDOF 13
ENDMDL
MODEL      238
REMARK 921   NORMALIZED FREE ENERGY PREDICTED BY IDOCK:   -3.27 KCAL/MOL
REMARK 922        TOTAL FREE ENERGY PREDICTED BY IDOCK:   -7.32 KCAL/MOL
REMARK 923 INTER-LIGAND FREE ENERGY PREDICTED BY IDOCK:   -5.82 KCAL/MOL
REMARK 924 INTRA-LIGAND FREE ENERGY PREDICTED BY IDOCK:   -1.50 KCAL/MOL
REMARK 927      BINDING AFFINITY PREDICTED BY RF-SCORE:    0.00 PKD
ROOT
HETATM    1 NA   UNL     1      -8.871   9.147  66.279  1.00  0.00    -0.118 Na 
HETATM    2  C   UNL     2     -11.026  11.293  66.735  1.00  0.00    -0.339 C  
HETATM    3  C   UNL     2     -11.556  11.125  68.150  1.00  0.00    -0.350 C  
ENDROOT
BRANCH   3   4
HETATM    4  C   UNL     2     -11.388  12.415  68.945  1.00  0.00    -0.342 C  
BRANCH   4   5
HETATM    5  C   UNL     2     -12.042  12.318  70.320  1.00  0.00    -0.376 C  
BRANCH   5   6
HETATM    6  C   UNL     2     -12.201  10.856  70.729  1.00  0.00    -0.483 C  
BRANCH   6   7
HETATM    7  C   UNL     2     -13.215  10.703  71.857  1.00  0.00    -0.528 C  
BRANCH   7   8
HETATM    8  C   UNL     2     -13.597   9.236  72.039  1.00  0.00    -0.519 C  
BRANCH   8   9
HETATM    9  C   UNL     2     -12.354   8.364  72.173  1.00  0.00    -0.426 C  
BRANCH   9  10
HETATM   10  C   UNL     2     -12.471   7.112  71.307  1.00  0.00    -0.425 C  
BRANCH  10  11
HETATM   11  C   UNL     2     -11.228   6.943  70.438  1.00  0.00    -0.359 C  
BRANCH  11  12
HETATM   12  C   UNL     2     -10.021   6.536  71.276  1.00  0.00    -0.200 C  
BRANCH  12  13
HETATM   13  C   UNL     2      -8.859   7.499  71.056  1.00  0.00    -0.146 C  
BRANCH  13  14
HETATM   14  O   UNL     2      -9.294   8.645  70.317  1.00  0.00    -0.157 OA 
BRANCH  14  15
HETATM   15  C   UNL     2      -8.518   8.983  69.242  1.00  0.00    -0.128 C  
HETATM   16  O   UNL     2      -8.068   8.165  68.444  1.00  0.00    -0.124 OA 
BRANCH  15  17
HETATM   17  C   UNL     2      -8.162  10.425  69.273  1.00  0.00    -0.158 C  
HETATM   18  S   UNL     2      -6.536  10.647  69.897  1.00  0.00    -0.147 S  
HETATM   19  O   UNL     2      -6.586  10.083  71.244  1.00  0.00    -0.327 OA 
HETATM   20  O   UNL     2      -6.382  12.100  69.855  1.00  0.00    -0.136 OA 
HETATM   21  O   UNL     2      -5.684   9.923  68.954  1.00  0.00    -0.036 OA 
ENDBRANCH  15  17
ENDBRANCH  14  15
ENDBRANCH  13  14
ENDBRANCH  12  13
ENDBRANCH  11  12
ENDBRANCH  10  11
ENDBRANCH   9  10
ENDBRANCH   8   9
ENDBRANCH   7   8
ENDBRANCH   6   7
ENDBRANCH   5   6
ENDBRANCH   4   5
ENDBRANCH   3   4
TORSDOF 13
ENDMDL
MODEL      239
REMARK 921   NORMALIZED FREE ENERGY PREDICTED BY IDOCK:   -3.27 KCAL/MOL
REMARK 922        TOTAL FREE ENERGY PREDICTED BY IDOCK:   -7.32 KCAL/MOL
REMARK 923 INTER-LIGAND FREE ENERGY PREDICTED BY IDOCK:   -6.18 KCAL/MOL
REMARK 924 INTRA-LIGAND FREE ENERGY PREDICTED BY IDOCK:   -1.13 KCAL/MOL
REMARK 927      BINDING AFFINITY PREDICTED BY RF-SCORE:    0.00 PKD
ROOT
HETATM    1 NA   UNL     1     -14.200   9.683  72.944  1.00  0.00    -0.575 Na 
HETATM    2  C   UNL     2     -12.755  11.805  71.252  1.00  0.00    -0.420 C  
HETATM    3  C   UNL     2     -13.503  13.118  71.416  1.00  0.00    -0.105 C  
ENDROOT
BRANCH   3   4
HETATM    4  C   UNL     2     -12.572  14.206  71.939  1.00  0.00    -0.371 C  
BRANCH   4   5
HETATM    5  C   UNL     2     -12.381  15.322  70.916  1.00  0.00    -0.433 C  
BRANCH   5   6
HETATM    6  C   UNL     2     -11.707  14.780  69.659  1.00  0.00    -0.354 C  
BRANCH   6   7
HETATM    7  C   UNL     2     -11.880  15.733  68.482  1.00  0.00    -0.233 C  
BRANCH   7   8
HETATM    8  C   UNL     2     -11.105  17.026  68.722  1.00  0.00    -0.086 C  
BRANCH   8   9
HETATM    9  C   UNL     2      -9.610  16.808  68.521  1.00  0.00    -0.245 C  
BRANCH   9  10
HETATM   10  C   UNL     2      -9.256  16.792  67.036  1.00  0.00    -0.238 C  
BRANCH  10  11
HETATM   11  C   UNL     2      -7.952  16.035  66.804  1.00  0.00    -0.302 C  
BRANCH  11  12
HETATM   12  C   UNL     2      -7.579  15.193  68.019  1.00  0.00    -0.127 C  
BRANCH  12  13
HETATM   13  C   UNL     2      -7.758  13.707  67.726  1.00  0.00    -0.164 C  
BRANCH  13  14
HETATM   14  O   UNL     2      -9.148  13.382  67.631  1.00  0.00    -0.184 OA 
BRANCH  14  15
HETATM   15  C   UNL     2      -9.521  12.711  66.498  1.00  0.00    -0.247 C  
HETATM   16  O   UNL     2      -9.022  11.647  66.143  1.00  0.00    -0.209 OA 
BRANCH  15  17
HETATM   17  C   UNL     2     -10.471  13.517  65.689  1.00  0.00    -0.293 C  
HETATM   18  S   UNL     2     -11.903  12.579  65.300  1.00  0.00    -0.419 S  
HETATM   19  O   UNL     2     -11.393  11.439  64.541  1.00  0.00    -0.242 OA 
HETATM   20  O   UNL     2     -12.691  13.526  64.512  1.00  0.00    -0.635 OA 
HETATM   21  O   UNL     2     -12.483  12.247  66.600  1.00  0.00    -0.300 OA 
ENDBRANCH  15  17
ENDBRANCH  14  15
ENDBRANCH  13  14
ENDBRANCH  12  13
ENDBRANCH  11  12
ENDBRANCH  10  11
ENDBRANCH   9  10
ENDBRANCH   8   9
ENDBRANCH   7   8
ENDBRANCH   6   7
ENDBRANCH   5   6
ENDBRANCH   4   5
ENDBRANCH   3   4
TORSDOF 13
ENDMDL
MODEL      240
REMARK 921   NORMALIZED FREE ENERGY PREDICTED BY IDOCK:   -3.27 KCAL/MOL
REMARK 922        TOTAL FREE ENERGY PREDICTED BY IDOCK:   -7.31 KCAL/MOL
REMARK 923 INTER-LIGAND FREE ENERGY PREDICTED BY IDOCK:   -5.35 KCAL/MOL
REMARK 924 INTRA-LIGAND FREE ENERGY PREDICTED BY IDOCK:   -1.97 KCAL/MOL
REMARK 927      BINDING AFFINITY PREDICTED BY RF-SCORE:    0.00 PKD
ROOT
HETATM    1 NA   UNL     1      -9.500  14.424  69.176  1.00  0.00    -0.185 Na 
HETATM    2  C   UNL     2      -7.918  12.573  67.298  1.00  0.00    -0.173 C  
HETATM    3  C   UNL     2      -8.084  11.149  67.802  1.00  0.00    -0.117 C  
ENDROOT
BRANCH   3   4
HETATM    4  C   UNL     2      -8.670  10.257  66.712  1.00  0.00    -0.132 C  
BRANCH   4   5
HETATM    5  C   UNL     2      -8.825  11.009  65.394  1.00  0.00    -0.157 C  
BRANCH   5   6
HETATM    6  C   UNL     2      -9.762  10.251  64.458  1.00  0.00    -0.395 C  
BRANCH   6   7
HETATM    7  C   UNL     2     -10.762  11.190  63.794  1.00  0.00    -0.399 C  
BRANCH   7   8
HETATM    8  C   UNL     2     -10.880  12.491  64.583  1.00  0.00    -0.343 C  
BRANCH   8   9
HETATM    9  C   UNL     2     -12.174  12.522  65.388  1.00  0.00    -0.475 C  
BRANCH   9  10
HETATM   10  C   UNL     2     -11.903  12.911  66.840  1.00  0.00    -0.444 C  
BRANCH  10  11
HETATM   11  C   UNL     2     -11.804  11.669  67.718  1.00  0.00    -0.247 C  
BRANCH  11  12
HETATM   12  C   UNL     2     -11.401  12.031  69.143  1.00  0.00    -0.338 C  
BRANCH  12  13
HETATM   13  C   UNL     2     -11.439  10.803  70.047  1.00  0.00    -0.331 C  
BRANCH  13  14
HETATM   14  O   UNL     2     -11.245   9.612  69.278  1.00  0.00    -0.168 OA 
BRANCH  14  15
HETATM   15  C   UNL     2     -10.315   8.737  69.769  1.00  0.00    -0.211 C  
HETATM   16  O   UNL     2      -9.242   9.087  70.253  1.00  0.00    -0.171 OA 
BRANCH  15  17
HETATM   17  C   UNL     2     -10.702   7.331  69.483  1.00  0.00    -0.232 C  
HETATM   18  S   UNL     2     -10.122   6.841  67.900  1.00  0.00    -0.172 S  
HETATM   19  O   UNL     2     -10.769   7.768  66.975  1.00  0.00    -0.347 OA 
HETATM   20  O   UNL     2     -10.599   5.462  67.807  1.00  0.00    -0.181 OA 
HETATM   21  O   UNL     2      -8.668   6.970  67.990  1.00  0.00    -0.126 OA 
ENDBRANCH  15  17
ENDBRANCH  14  15
ENDBRANCH  13  14
ENDBRANCH  12  13
ENDBRANCH  11  12
ENDBRANCH  10  11
ENDBRANCH   9  10
ENDBRANCH   8   9
ENDBRANCH   7   8
ENDBRANCH   6   7
ENDBRANCH   5   6
ENDBRANCH   4   5
ENDBRANCH   3   4
TORSDOF 13
ENDMDL
MODEL      241
REMARK 921   NORMALIZED FREE ENERGY PREDICTED BY IDOCK:   -3.26 KCAL/MOL
REMARK 922        TOTAL FREE ENERGY PREDICTED BY IDOCK:   -7.31 KCAL/MOL
REMARK 923 INTER-LIGAND FREE ENERGY PREDICTED BY IDOCK:   -7.04 KCAL/MOL
REMARK 924 INTRA-LIGAND FREE ENERGY PREDICTED BY IDOCK:   -0.27 KCAL/MOL
REMARK 927      BINDING AFFINITY PREDICTED BY RF-SCORE:    0.00 PKD
ROOT
HETATM    1 NA   UNL     1     -11.219  18.654  64.665  1.00  0.00    -0.439 Na 
HETATM    2  C   UNL     2     -10.968  15.602  64.941  1.00  0.00    -0.447 C  
HETATM    3  C   UNL     2     -11.010  15.264  66.422  1.00  0.00    -0.299 C  
ENDROOT
BRANCH   3   4
HETATM    4  C   UNL     2     -12.145  14.291  66.720  1.00  0.00    -0.446 C  
BRANCH   4   5
HETATM    5  C   UNL     2     -11.771  13.316  67.833  1.00  0.00    -0.395 C  
BRANCH   5   6
HETATM    6  C   UNL     2     -11.410  11.954  67.246  1.00  0.00    -0.393 C  
BRANCH   6   7
HETATM    7  C   UNL     2     -11.431  10.867  68.314  1.00  0.00    -0.376 C  
BRANCH   7   8
HETATM    8  C   UNL     2     -11.628  11.479  69.698  1.00  0.00    -0.403 C  
BRANCH   8   9
HETATM    9  C   UNL     2     -11.817  10.393  70.751  1.00  0.00    -0.466 C  
BRANCH   9  10
HETATM   10  C   UNL     2     -13.034  10.686  71.624  1.00  0.00    -0.582 C  
BRANCH  10  11
HETATM   11  C   UNL     2     -13.548   9.407  72.276  1.00  0.00    -0.532 C  
BRANCH  11  12
HETATM   12  C   UNL     2     -12.477   8.321  72.279  1.00  0.00    -0.384 C  
BRANCH  12  13
HETATM   13  C   UNL     2     -12.911   7.129  71.432  1.00  0.00    -0.368 C  
BRANCH  13  14
HETATM   14  O   UNL     2     -12.003   6.037  71.605  1.00  0.00    -0.205 OA 
BRANCH  14  15
HETATM   15  C   UNL     2     -10.778   6.190  71.015  1.00  0.00    -0.260 C  
HETATM   16  O   UNL     2     -10.576   6.917  70.046  1.00  0.00    -0.210 OA 
BRANCH  15  17
HETATM   17  C   UNL     2      -9.788   5.241  71.588  1.00  0.00    -0.170 C  
HETATM   18  S   UNL     2      -9.578   5.533  73.307  1.00  0.00    -0.147 S  
HETATM   19  O   UNL     2      -9.099   6.911  73.384  1.00  0.00    -0.127 OA 
HETATM   20  O   UNL     2      -8.583   4.525  73.673  1.00  0.00    -0.103 OA 
HETATM   21  O   UNL     2     -10.905   5.305  73.878  1.00  0.00    -0.287 OA 
ENDBRANCH  15  17
ENDBRANCH  14  15
ENDBRANCH  13  14
ENDBRANCH  12  13
ENDBRANCH  11  12
ENDBRANCH  10  11
ENDBRANCH   9  10
ENDBRANCH   8   9
ENDBRANCH   7   8
ENDBRANCH   6   7
ENDBRANCH   5   6
ENDBRANCH   4   5
ENDBRANCH   3   4
TORSDOF 13
ENDMDL
MODEL      242
REMARK 921   NORMALIZED FREE ENERGY PREDICTED BY IDOCK:   -3.26 KCAL/MOL
REMARK 922        TOTAL FREE ENERGY PREDICTED BY IDOCK:   -7.30 KCAL/MOL
REMARK 923 INTER-LIGAND FREE ENERGY PREDICTED BY IDOCK:   -6.05 KCAL/MOL
REMARK 924 INTRA-LIGAND FREE ENERGY PREDICTED BY IDOCK:   -1.26 KCAL/MOL
REMARK 927      BINDING AFFINITY PREDICTED BY RF-SCORE:    0.00 PKD
ROOT
HETATM    1 NA   UNL     1      -6.427  14.338  71.347  1.00  0.00    -0.203 Na 
HETATM    2  C   UNL     2      -8.216  14.758  68.881  1.00  0.00    -0.165 C  
HETATM    3  C   UNL     2      -8.290  13.439  68.131  1.00  0.00    -0.164 C  
ENDROOT
BRANCH   3   4
HETATM    4  C   UNL     2      -9.738  12.984  67.981  1.00  0.00    -0.224 C  
BRANCH   4   5
HETATM    5  C   UNL     2     -10.712  14.144  68.165  1.00  0.00    -0.251 C  
BRANCH   5   6
HETATM    6  C   UNL     2     -11.355  14.513  66.830  1.00  0.00    -0.355 C  
BRANCH   6   7
HETATM    7  C   UNL     2     -12.205  13.369  66.289  1.00  0.00    -0.456 C  
BRANCH   7   8
HETATM    8  C   UNL     2     -12.587  13.626  64.834  1.00  0.00    -0.380 C  
BRANCH   8   9
HETATM    9  C   UNL     2     -12.163  12.462  63.947  1.00  0.00    -0.603 C  
BRANCH   9  10
HETATM   10  C   UNL     2     -10.655  12.479  63.709  1.00  0.00    -0.471 C  
BRANCH  10  11
HETATM   11  C   UNL     2     -10.117  11.058  63.572  1.00  0.00    -0.428 C  
BRANCH  11  12
HETATM   12  C   UNL     2      -9.245  10.681  64.764  1.00  0.00    -0.255 C  
BRANCH  12  13
HETATM   13  C   UNL     2     -10.094  10.118  65.900  1.00  0.00    -0.254 C  
BRANCH  13  14
HETATM   14  O   UNL     2      -9.724   8.763  66.174  1.00  0.00    -0.258 OA 
BRANCH  14  15
HETATM   15  C   UNL     2     -10.420   8.155  67.184  1.00  0.00    -0.326 C  
HETATM   16  O   UNL     2     -11.024   7.094  67.049  1.00  0.00    -0.369 OA 
BRANCH  15  17
HETATM   17  C   UNL     2     -10.483   9.023  68.387  1.00  0.00    -0.192 C  
HETATM   18  S   UNL     2      -9.291   8.521  69.575  1.00  0.00    -0.161 S  
HETATM   19  O   UNL     2      -9.657   7.143  69.894  1.00  0.00    -0.163 OA 
HETATM   20  O   UNL     2      -9.514   9.474  70.661  1.00  0.00    -0.257 OA 
HETATM   21  O   UNL     2      -8.009   8.677  68.890  1.00  0.00    -0.109 OA 
ENDBRANCH  15  17
ENDBRANCH  14  15
ENDBRANCH  13  14
ENDBRANCH  12  13
ENDBRANCH  11  12
ENDBRANCH  10  11
ENDBRANCH   9  10
ENDBRANCH   8   9
ENDBRANCH   7   8
ENDBRANCH   6   7
ENDBRANCH   5   6
ENDBRANCH   4   5
ENDBRANCH   3   4
TORSDOF 13
ENDMDL
MODEL      243
REMARK 921   NORMALIZED FREE ENERGY PREDICTED BY IDOCK:   -3.26 KCAL/MOL
REMARK 922        TOTAL FREE ENERGY PREDICTED BY IDOCK:   -7.30 KCAL/MOL
REMARK 923 INTER-LIGAND FREE ENERGY PREDICTED BY IDOCK:   -5.59 KCAL/MOL
REMARK 924 INTRA-LIGAND FREE ENERGY PREDICTED BY IDOCK:   -1.71 KCAL/MOL
REMARK 927      BINDING AFFINITY PREDICTED BY RF-SCORE:    0.00 PKD
ROOT
HETATM    1 NA   UNL     1      -8.821  13.560  65.574  1.00  0.00    -0.419 Na 
HETATM    2  C   UNL     2      -7.193  14.987  67.758  1.00  0.00    -0.186 C  
HETATM    3  C   UNL     2      -6.656  16.280  67.167  1.00  0.00    -0.230 C  
ENDROOT
BRANCH   3   4
HETATM    4  C   UNL     2      -7.112  17.480  67.990  1.00  0.00    -0.201 C  
BRANCH   4   5
HETATM    5  C   UNL     2      -8.409  17.187  68.740  1.00  0.00    -0.236 C  
BRANCH   5   6
HETATM    6  C   UNL     2      -9.466  18.234  68.400  1.00  0.00    -0.336 C  
BRANCH   6   7
HETATM    7  C   UNL     2     -10.673  17.601  67.718  1.00  0.00    -0.336 C  
BRANCH   7   8
HETATM    8  C   UNL     2     -10.409  17.412  66.227  1.00  0.00    -0.330 C  
BRANCH   8   9
HETATM    9  C   UNL     2     -10.607  15.957  65.820  1.00  0.00    -0.368 C  
BRANCH   9  10
HETATM   10  C   UNL     2     -11.276  15.859  64.451  1.00  0.00    -0.242 C  
BRANCH  10  11
HETATM   11  C   UNL     2     -12.186  14.637  64.385  1.00  0.00    -0.473 C  
BRANCH  11  12
HETATM   12  C   UNL     2     -12.416  14.045  65.770  1.00  0.00    -0.523 C  
BRANCH  12  13
HETATM   13  C   UNL     2     -11.985  12.583  65.814  1.00  0.00    -0.420 C  
BRANCH  13  14
HETATM   14  O   UNL     2     -10.826  12.428  66.638  1.00  0.00    -0.235 OA 
BRANCH  14  15
HETATM   15  C   UNL     2     -10.008  11.380  66.315  1.00  0.00    -0.224 C  
HETATM   16  O   UNL     2      -8.955  11.135  66.899  1.00  0.00    -0.154 OA 
BRANCH  15  17
HETATM   17  C   UNL     2     -10.474  10.700  65.080  1.00  0.00    -0.208 C  
HETATM   18  S   UNL     2      -9.365  11.002  63.752  1.00  0.00    -0.213 S  
HETATM   19  O   UNL     2      -9.375  12.454  63.596  1.00  0.00     0.029 OA 
HETATM   20  O   UNL     2      -9.989  10.270  62.652  1.00  0.00    -0.119 OA 
HETATM   21  O   UNL     2      -8.094  10.438  64.207  1.00  0.00    -0.160 OA 
ENDBRANCH  15  17
ENDBRANCH  14  15
ENDBRANCH  13  14
ENDBRANCH  12  13
ENDBRANCH  11  12
ENDBRANCH  10  11
ENDBRANCH   9  10
ENDBRANCH   8   9
ENDBRANCH   7   8
ENDBRANCH   6   7
ENDBRANCH   5   6
ENDBRANCH   4   5
ENDBRANCH   3   4
TORSDOF 13
ENDMDL
MODEL      244
REMARK 921   NORMALIZED FREE ENERGY PREDICTED BY IDOCK:   -3.26 KCAL/MOL
REMARK 922        TOTAL FREE ENERGY PREDICTED BY IDOCK:   -7.30 KCAL/MOL
REMARK 923 INTER-LIGAND FREE ENERGY PREDICTED BY IDOCK:   -6.42 KCAL/MOL
REMARK 924 INTRA-LIGAND FREE ENERGY PREDICTED BY IDOCK:   -0.87 KCAL/MOL
REMARK 927      BINDING AFFINITY PREDICTED BY RF-SCORE:    0.00 PKD
ROOT
HETATM    1 NA   UNL     1     -13.647  11.039  72.322  1.00  0.00    -0.401 Na 
HETATM    2  C   UNL     2     -14.077  14.084  72.313  1.00  0.00    -0.633 C  
HETATM    3  C   UNL     2     -12.713  14.746  72.419  1.00  0.00    -0.432 C  
ENDROOT
BRANCH   3   4
HETATM    4  C   UNL     2     -12.477  15.685  71.241  1.00  0.00    -0.503 C  
BRANCH   4   5
HETATM    5  C   UNL     2     -11.131  15.420  70.572  1.00  0.00    -0.361 C  
BRANCH   5   6
HETATM    6  C   UNL     2     -10.680  16.646  69.783  1.00  0.00    -0.254 C  
BRANCH   6   7
HETATM    7  C   UNL     2      -9.399  16.365  69.007  1.00  0.00    -0.248 C  
BRANCH   7   8
HETATM    8  C   UNL     2      -9.510  16.894  67.580  1.00  0.00    -0.241 C  
BRANCH   8   9
HETATM    9  C   UNL     2      -9.437  15.754  66.571  1.00  0.00    -0.298 C  
BRANCH   9  10
HETATM   10  C   UNL     2      -9.832  14.429  67.217  1.00  0.00    -0.247 C  
BRANCH  10  11
HETATM   11  C   UNL     2     -11.323  14.166  67.031  1.00  0.00    -0.346 C  
BRANCH  11  12
HETATM   12  C   UNL     2     -11.580  12.728  66.595  1.00  0.00    -0.430 C  
BRANCH  12  13
HETATM   13  C   UNL     2     -10.648  11.765  67.323  1.00  0.00    -0.224 C  
BRANCH  13  14
HETATM   14  O   UNL     2     -11.136  10.424  67.221  1.00  0.00    -0.278 OA 
BRANCH  14  15
HETATM   15  C   UNL     2     -10.199   9.441  67.383  1.00  0.00    -0.239 C  
HETATM   16  O   UNL     2     -10.206   8.386  66.754  1.00  0.00    -0.280 OA 
BRANCH  15  17
HETATM   17  C   UNL     2      -9.294   9.748  68.520  1.00  0.00    -0.142 C  
HETATM   18  S   UNL     2      -9.896   9.022  70.001  1.00  0.00    -0.196 S  
HETATM   19  O   UNL     2     -11.211   9.628  70.192  1.00  0.00    -0.245 OA 
HETATM   20  O   UNL     2      -8.892   9.436  70.981  1.00  0.00    -0.250 OA 
HETATM   21  O   UNL     2      -9.910   7.587  69.723  1.00  0.00    -0.177 OA 
ENDBRANCH  15  17
ENDBRANCH  14  15
ENDBRANCH  13  14
ENDBRANCH  12  13
ENDBRANCH  11  12
ENDBRANCH  10  11
ENDBRANCH   9  10
ENDBRANCH   8   9
ENDBRANCH   7   8
ENDBRANCH   6   7
ENDBRANCH   5   6
ENDBRANCH   4   5
ENDBRANCH   3   4
TORSDOF 13
ENDMDL
MODEL      245
REMARK 921   NORMALIZED FREE ENERGY PREDICTED BY IDOCK:   -3.25 KCAL/MOL
REMARK 922        TOTAL FREE ENERGY PREDICTED BY IDOCK:   -7.29 KCAL/MOL
REMARK 923 INTER-LIGAND FREE ENERGY PREDICTED BY IDOCK:   -5.95 KCAL/MOL
REMARK 924 INTRA-LIGAND FREE ENERGY PREDICTED BY IDOCK:   -1.34 KCAL/MOL
REMARK 927      BINDING AFFINITY PREDICTED BY RF-SCORE:    0.00 PKD
ROOT
HETATM    1 NA   UNL     1     -11.241  11.582  67.165  1.00  0.00    -0.207 Na 
HETATM    2  C   UNL     2     -10.607  10.789  64.262  1.00  0.00    -0.225 C  
HETATM    3  C   UNL     2      -9.099  10.653  64.137  1.00  0.00    -0.245 C  
ENDROOT
BRANCH   3   4
HETATM    4  C   UNL     2      -8.723   9.259  63.647  1.00  0.00    -0.188 C  
BRANCH   4   5
HETATM    5  C   UNL     2      -7.592   8.656  64.476  1.00  0.00    -0.113 C  
BRANCH   5   6
HETATM    6  C   UNL     2      -8.095   7.445  65.257  1.00  0.00    -0.131 C  
BRANCH   6   7
HETATM    7  C   UNL     2      -7.639   7.494  66.711  1.00  0.00    -0.101 C  
BRANCH   7   8
HETATM    8  C   UNL     2      -8.843   7.486  67.650  1.00  0.00    -0.128 C  
BRANCH   8   9
HETATM    9  C   UNL     2      -9.578   8.820  67.601  1.00  0.00    -0.179 C  
BRANCH   9  10
HETATM   10  C   UNL     2      -8.840   9.879  68.417  1.00  0.00    -0.120 C  
BRANCH  10  11
HETATM   11  C   UNL     2      -8.383  11.025  67.519  1.00  0.00    -0.118 C  
BRANCH  11  12
HETATM   12  C   UNL     2      -8.812  12.374  68.085  1.00  0.00    -0.191 C  
BRANCH  12  13
HETATM   13  C   UNL     2      -8.890  13.424  66.981  1.00  0.00    -0.211 C  
BRANCH  13  14
HETATM   14  O   UNL     2     -10.038  14.257  67.166  1.00  0.00    -0.250 OA 
BRANCH  14  15
HETATM   15  C   UNL     2     -10.382  15.035  66.093  1.00  0.00    -0.299 C  
HETATM   16  O   UNL     2     -10.505  16.255  66.151  1.00  0.00    -0.321 OA 
BRANCH  15  17
HETATM   17  C   UNL     2     -10.745  14.197  64.922  1.00  0.00    -0.428 C  
HETATM   18  S   UNL     2     -12.374  14.565  64.380  1.00  0.00    -0.290 S  
HETATM   19  O   UNL     2     -13.217  14.259  65.533  1.00  0.00    -0.641 OA 
HETATM   20  O   UNL     2     -12.540  13.653  63.249  1.00  0.00    -0.816 OA 
HETATM   21  O   UNL     2     -12.321  15.979  64.010  1.00  0.00    -0.752 OA 
ENDBRANCH  15  17
ENDBRANCH  14  15
ENDBRANCH  13  14
ENDBRANCH  12  13
ENDBRANCH  11  12
ENDBRANCH  10  11
ENDBRANCH   9  10
ENDBRANCH   8   9
ENDBRANCH   7   8
ENDBRANCH   6   7
ENDBRANCH   5   6
ENDBRANCH   4   5
ENDBRANCH   3   4
TORSDOF 13
ENDMDL
MODEL      246
REMARK 921   NORMALIZED FREE ENERGY PREDICTED BY IDOCK:   -3.24 KCAL/MOL
REMARK 922        TOTAL FREE ENERGY PREDICTED BY IDOCK:   -7.27 KCAL/MOL
REMARK 923 INTER-LIGAND FREE ENERGY PREDICTED BY IDOCK:   -6.43 KCAL/MOL
REMARK 924 INTRA-LIGAND FREE ENERGY PREDICTED BY IDOCK:   -0.84 KCAL/MOL
REMARK 927      BINDING AFFINITY PREDICTED BY RF-SCORE:    0.00 PKD
ROOT
HETATM    1 NA   UNL     1     -12.830  15.342  68.384  1.00  0.00    -0.526 Na 
HETATM    2  C   UNL     2     -12.684  13.644  65.824  1.00  0.00    -0.470 C  
HETATM    3  C   UNL     2     -11.256  13.704  65.308  1.00  0.00    -0.307 C  
ENDROOT
BRANCH   3   4
HETATM    4  C   UNL     2     -10.667  12.303  65.190  1.00  0.00    -0.330 C  
BRANCH   4   5
HETATM    5  C   UNL     2      -9.314  12.201  65.888  1.00  0.00    -0.135 C  
BRANCH   5   6
HETATM    6  C   UNL     2      -9.375  11.176  67.017  1.00  0.00    -0.182 C  
BRANCH   6   7
HETATM    7  C   UNL     2     -10.798  10.677  67.235  1.00  0.00    -0.345 C  
BRANCH   7   8
HETATM    8  C   UNL     2     -10.829   9.602  68.319  1.00  0.00    -0.230 C  
BRANCH   8   9
HETATM    9  C   UNL     2     -10.657  10.220  69.702  1.00  0.00    -0.288 C  
BRANCH   9  10
HETATM   10  C   UNL     2     -11.767  11.228  69.990  1.00  0.00    -0.428 C  
BRANCH  10  11
HETATM   11  C   UNL     2     -12.970  10.536  70.622  1.00  0.00    -0.362 C  
BRANCH  11  12
HETATM   12  C   UNL     2     -12.699  10.181  72.080  1.00  0.00    -0.421 C  
BRANCH  12  13
HETATM   13  C   UNL     2     -12.631   8.669  72.266  1.00  0.00    -0.395 C  
BRANCH  13  14
HETATM   14  O   UNL     2     -12.617   8.009  70.997  1.00  0.00    -0.213 OA 
BRANCH  14  15
HETATM   15  C   UNL     2     -12.062   6.759  70.987  1.00  0.00    -0.372 C  
HETATM   16  O   UNL     2     -11.651   6.206  69.971  1.00  0.00    -0.392 OA 
BRANCH  15  17
HETATM   17  C   UNL     2     -12.183   6.111  72.319  1.00  0.00    -0.122 C  
HETATM   18  S   UNL     2     -10.617   5.537  72.870  1.00  0.00    -0.248 S  
HETATM   19  O   UNL     2     -10.203   4.579  71.849  1.00  0.00    -0.195 OA 
HETATM   20  O   UNL     2     -10.944   4.940  74.165  1.00  0.00    -0.310 OA 
HETATM   21  O   UNL     2      -9.797   6.746  72.954  1.00  0.00    -0.160 OA 
ENDBRANCH  15  17
ENDBRANCH  14  15
ENDBRANCH  13  14
ENDBRANCH  12  13
ENDBRANCH  11  12
ENDBRANCH  10  11
ENDBRANCH   9  10
ENDBRANCH   8   9
ENDBRANCH   7   8
ENDBRANCH   6   7
ENDBRANCH   5   6
ENDBRANCH   4   5
ENDBRANCH   3   4
TORSDOF 13
ENDMDL
MODEL      247
REMARK 921   NORMALIZED FREE ENERGY PREDICTED BY IDOCK:   -3.23 KCAL/MOL
REMARK 922        TOTAL FREE ENERGY PREDICTED BY IDOCK:   -7.25 KCAL/MOL
REMARK 923 INTER-LIGAND FREE ENERGY PREDICTED BY IDOCK:   -6.32 KCAL/MOL
REMARK 924 INTRA-LIGAND FREE ENERGY PREDICTED BY IDOCK:   -0.93 KCAL/MOL
REMARK 927      BINDING AFFINITY PREDICTED BY RF-SCORE:    0.00 PKD
ROOT
HETATM    1 NA   UNL     1     -10.329  20.534  69.779  1.00  0.00    -0.354 Na 
HETATM    2  C   UNL     2     -10.508  18.085  67.928  1.00  0.00    -0.408 C  
HETATM    3  C   UNL     2      -9.888  18.465  66.594  1.00  0.00    -0.362 C  
ENDROOT
BRANCH   3   4
HETATM    4  C   UNL     2      -8.746  17.518  66.241  1.00  0.00    -0.226 C  
BRANCH   4   5
HETATM    5  C   UNL     2      -7.475  18.281  65.880  1.00  0.00    -0.202 C  
BRANCH   5   6
HETATM    6  C   UNL     2      -7.161  19.325  66.948  1.00  0.00    -0.214 C  
BRANCH   6   7
HETATM    7  C   UNL     2      -5.995  18.886  67.827  1.00  0.00    -0.201 C  
BRANCH   7   8
HETATM    8  C   UNL     2      -6.473  18.601  69.248  1.00  0.00    -0.289 C  
BRANCH   8   9
HETATM    9  C   UNL     2      -6.252  17.138  69.613  1.00  0.00    -0.235 C  
BRANCH   9  10
HETATM   10  C   UNL     2      -5.811  16.333  68.393  1.00  0.00    -0.107 C  
BRANCH  10  11
HETATM   11  C   UNL     2      -6.411  14.931  68.430  1.00  0.00    -0.105 C  
BRANCH  11  12
HETATM   12  C   UNL     2      -7.367  14.709  67.263  1.00  0.00    -0.122 C  
BRANCH  12  13
HETATM   13  C   UNL     2      -8.379  13.617  67.591  1.00  0.00    -0.182 C  
BRANCH  13  14
HETATM   14  O   UNL     2      -9.674  13.972  67.098  1.00  0.00    -0.230 OA 
BRANCH  14  15
HETATM   15  C   UNL     2     -10.202  13.124  66.162  1.00  0.00    -0.290 C  
HETATM   16  O   UNL     2     -10.013  11.911  66.161  1.00  0.00    -0.216 OA 
BRANCH  15  17
HETATM   17  C   UNL     2     -10.875  13.881  65.076  1.00  0.00    -0.382 C  
HETATM   18  S   UNL     2     -11.865  12.810  64.098  1.00  0.00    -0.452 S  
HETATM   19  O   UNL     2     -10.919  11.836  63.558  1.00  0.00    -0.396 OA 
HETATM   20  O   UNL     2     -12.425  13.724  63.103  1.00  0.00    -0.786 OA 
HETATM   21  O   UNL     2     -12.846  12.265  65.036  1.00  0.00    -0.563 OA 
ENDBRANCH  15  17
ENDBRANCH  14  15
ENDBRANCH  13  14
ENDBRANCH  12  13
ENDBRANCH  11  12
ENDBRANCH  10  11
ENDBRANCH   9  10
ENDBRANCH   8   9
ENDBRANCH   7   8
ENDBRANCH   6   7
ENDBRANCH   5   6
ENDBRANCH   4   5
ENDBRANCH   3   4
TORSDOF 13
ENDMDL
MODEL      248
REMARK 921   NORMALIZED FREE ENERGY PREDICTED BY IDOCK:   -3.22 KCAL/MOL
REMARK 922        TOTAL FREE ENERGY PREDICTED BY IDOCK:   -7.24 KCAL/MOL
REMARK 923 INTER-LIGAND FREE ENERGY PREDICTED BY IDOCK:   -6.60 KCAL/MOL
REMARK 924 INTRA-LIGAND FREE ENERGY PREDICTED BY IDOCK:   -0.64 KCAL/MOL
REMARK 927      BINDING AFFINITY PREDICTED BY RF-SCORE:    0.00 PKD
ROOT
HETATM    1 NA   UNL     1      -9.615   7.881  69.225  1.00  0.00    -0.150 Na 
HETATM    2  C   UNL     2     -11.979   7.395  71.131  1.00  0.00    -0.351 C  
HETATM    3  C   UNL     2     -11.860   8.382  72.280  1.00  0.00    -0.456 C  
ENDROOT
BRANCH   3   4
HETATM    4  C   UNL     2     -13.119   9.236  72.390  1.00  0.00    -0.481 C  
BRANCH   4   5
HETATM    5  C   UNL     2     -13.473   9.889  71.056  1.00  0.00    -0.257 C  
BRANCH   5   6
HETATM    6  C   UNL     2     -12.481  11.002  70.731  1.00  0.00    -0.491 C  
BRANCH   6   7
HETATM    7  C   UNL     2     -11.908  10.842  69.328  1.00  0.00    -0.359 C  
BRANCH   7   8
HETATM    8  C   UNL     2     -10.854  11.911  69.054  1.00  0.00    -0.235 C  
BRANCH   8   9
HETATM    9  C   UNL     2     -11.500  13.282  68.890  1.00  0.00    -0.342 C  
BRANCH   9  10
HETATM   10  C   UNL     2     -11.216  13.855  67.503  1.00  0.00    -0.323 C  
BRANCH  10  11
HETATM   11  C   UNL     2      -9.714  13.970  67.267  1.00  0.00    -0.237 C  
BRANCH  11  12
HETATM   12  C   UNL     2      -9.313  15.407  66.955  1.00  0.00    -0.255 C  
BRANCH  12  13
HETATM   13  C   UNL     2      -8.817  16.118  68.210  1.00  0.00    -0.188 C  
BRANCH  13  14
HETATM   14  O   UNL     2      -9.729  17.153  68.590  1.00  0.00    -0.270 OA 
BRANCH  14  15
HETATM   15  C   UNL     2      -9.199  18.413  68.649  1.00  0.00    -0.306 C  
HETATM   16  O   UNL     2      -9.879  19.434  68.705  1.00  0.00    -0.413 OA 
BRANCH  15  17
HETATM   17  C   UNL     2      -7.725  18.382  68.465  1.00  0.00    -0.303 C  
HETATM   18  S   UNL     2      -7.256  19.347  67.076  1.00  0.00    -0.209 S  
HETATM   19  O   UNL     2      -7.944  18.721  65.950  1.00  0.00    -0.471 OA 
HETATM   20  O   UNL     2      -5.802  19.186  67.062  1.00  0.00    -0.164 OA 
HETATM   21  O   UNL     2      -7.709  20.699  67.403  1.00  0.00    -0.337 OA 
ENDBRANCH  15  17
ENDBRANCH  14  15
ENDBRANCH  13  14
ENDBRANCH  12  13
ENDBRANCH  11  12
ENDBRANCH  10  11
ENDBRANCH   9  10
ENDBRANCH   8   9
ENDBRANCH   7   8
ENDBRANCH   6   7
ENDBRANCH   5   6
ENDBRANCH   4   5
ENDBRANCH   3   4
TORSDOF 13
ENDMDL
MODEL      249
REMARK 921   NORMALIZED FREE ENERGY PREDICTED BY IDOCK:   -3.22 KCAL/MOL
REMARK 922        TOTAL FREE ENERGY PREDICTED BY IDOCK:   -7.22 KCAL/MOL
REMARK 923 INTER-LIGAND FREE ENERGY PREDICTED BY IDOCK:   -6.49 KCAL/MOL
REMARK 924 INTRA-LIGAND FREE ENERGY PREDICTED BY IDOCK:   -0.73 KCAL/MOL
REMARK 927      BINDING AFFINITY PREDICTED BY RF-SCORE:    0.00 PKD
ROOT
HETATM    1 NA   UNL     1      -7.622  18.255  65.738  1.00  0.00    -0.223 Na 
HETATM    2  C   UNL     2     -10.169  16.625  66.301  1.00  0.00    -0.344 C  
HETATM    3  C   UNL     2     -10.642  16.034  64.983  1.00  0.00    -0.342 C  
ENDROOT
BRANCH   3   4
HETATM    4  C   UNL     2     -10.736  14.515  65.078  1.00  0.00    -0.444 C  
BRANCH   4   5
HETATM    5  C   UNL     2     -12.145  14.019  64.764  1.00  0.00    -0.455 C  
BRANCH   5   6
HETATM    6  C   UNL     2     -12.271  12.535  65.099  1.00  0.00    -0.509 C  
BRANCH   6   7
HETATM    7  C   UNL     2     -11.296  12.130  66.198  1.00  0.00    -0.414 C  
BRANCH   7   8
HETATM    8  C   UNL     2     -10.394  10.994  65.722  1.00  0.00    -0.316 C  
BRANCH   8   9
HETATM    9  C   UNL     2      -9.787  10.250  66.906  1.00  0.00    -0.244 C  
BRANCH   9  10
HETATM   10  C   UNL     2     -10.701   9.117  67.364  1.00  0.00    -0.247 C  
BRANCH  10  11
HETATM   11  C   UNL     2      -9.881   7.957  67.919  1.00  0.00    -0.201 C  
BRANCH  11  12
HETATM   12  C   UNL     2     -10.769   6.944  68.633  1.00  0.00    -0.256 C  
BRANCH  12  13
HETATM   13  C   UNL     2     -10.676   7.112  70.146  1.00  0.00    -0.240 C  
BRANCH  13  14
HETATM   14  O   UNL     2     -11.941   7.510  70.682  1.00  0.00    -0.241 OA 
BRANCH  14  15
HETATM   15  C   UNL     2     -11.900   8.522  71.603  1.00  0.00    -0.311 C  
HETATM   16  O   UNL     2     -12.403   8.444  72.720  1.00  0.00    -0.319 OA 
BRANCH  15  17
HETATM   17  C   UNL     2     -11.326   9.758  71.012  1.00  0.00    -0.387 C  
HETATM   18  S   UNL     2     -12.578  10.964  70.765  1.00  0.00    -0.372 S  
HETATM   19  O   UNL     2     -13.520  10.325  69.849  1.00  0.00     0.170 OA 
HETATM   20  O   UNL     2     -11.829  12.077  70.184  1.00  0.00    -0.335 OA 
HETATM   21  O   UNL     2     -13.100  11.224  72.107  1.00  0.00    -0.458 OA 
ENDBRANCH  15  17
ENDBRANCH  14  15
ENDBRANCH  13  14
ENDBRANCH  12  13
ENDBRANCH  11  12
ENDBRANCH  10  11
ENDBRANCH   9  10
ENDBRANCH   8   9
ENDBRANCH   7   8
ENDBRANCH   6   7
ENDBRANCH   5   6
ENDBRANCH   4   5
ENDBRANCH   3   4
TORSDOF 13
ENDMDL
MODEL      250
REMARK 921   NORMALIZED FREE ENERGY PREDICTED BY IDOCK:   -3.21 KCAL/MOL
REMARK 922        TOTAL FREE ENERGY PREDICTED BY IDOCK:   -7.21 KCAL/MOL
REMARK 923 INTER-LIGAND FREE ENERGY PREDICTED BY IDOCK:   -5.87 KCAL/MOL
REMARK 924 INTRA-LIGAND FREE ENERGY PREDICTED BY IDOCK:   -1.33 KCAL/MOL
REMARK 927      BINDING AFFINITY PREDICTED BY RF-SCORE:    0.00 PKD
ROOT
HETATM    1 NA   UNL     1     -10.970  17.956  70.081  1.00  0.00    -0.499 Na 
HETATM    2  C   UNL     2      -9.348  17.977  67.468  1.00  0.00    -0.257 C  
HETATM    3  C   UNL     2      -8.760  16.589  67.276  1.00  0.00    -0.204 C  
ENDROOT
BRANCH   3   4
HETATM    4  C   UNL     2      -9.197  15.999  65.940  1.00  0.00    -0.321 C  
BRANCH   4   5
HETATM    5  C   UNL     2     -10.709  15.803  65.881  1.00  0.00    -0.320 C  
BRANCH   5   6
HETATM    6  C   UNL     2     -11.134  14.669  66.811  1.00  0.00    -0.335 C  
BRANCH   6   7
HETATM    7  C   UNL     2     -12.014  13.658  66.086  1.00  0.00    -0.453 C  
BRANCH   7   8
HETATM    8  C   UNL     2     -12.298  14.120  64.659  1.00  0.00    -0.432 C  
BRANCH   8   9
HETATM    9  C   UNL     2     -11.882  13.056  63.651  1.00  0.00    -0.580 C  
BRANCH   9  10
HETATM   10  C   UNL     2     -10.422  12.658  63.849  1.00  0.00    -0.441 C  
BRANCH  10  11
HETATM   11  C   UNL     2     -10.119  11.350  63.126  1.00  0.00    -0.390 C  
BRANCH  11  12
HETATM   12  C   UNL     2      -9.532  10.315  64.080  1.00  0.00    -0.356 C  
BRANCH  12  13
HETATM   13  C   UNL     2     -10.119  10.473  65.479  1.00  0.00    -0.283 C  
BRANCH  13  14
HETATM   14  O   UNL     2      -9.089  10.365  66.466  1.00  0.00    -0.152 OA 
BRANCH  14  15
HETATM   15  C   UNL     2      -8.945  11.450  67.288  1.00  0.00    -0.159 C  
HETATM   16  O   UNL     2      -9.660  11.663  68.264  1.00  0.00    -0.187 OA 
BRANCH  15  17
HETATM   17  C   UNL     2      -7.938  12.399  66.747  1.00  0.00     0.046 C  
HETATM   18  S   UNL     2      -6.804  12.877  68.000  1.00  0.00    -0.127 S  
HETATM   19  O   UNL     2      -7.637  13.510  69.019  1.00  0.00    -0.049 OA 
HETATM   20  O   UNL     2      -5.920  13.796  67.284  1.00  0.00    -0.327 OA 
HETATM   21  O   UNL     2      -6.169  11.625  68.410  1.00  0.00    -0.049 OA 
ENDBRANCH  15  17
ENDBRANCH  14  15
ENDBRANCH  13  14
ENDBRANCH  12  13
ENDBRANCH  11  12
ENDBRANCH  10  11
ENDBRANCH   9  10
ENDBRANCH   8   9
ENDBRANCH   7   8
ENDBRANCH   6   7
ENDBRANCH   5   6
ENDBRANCH   4   5
ENDBRANCH   3   4
TORSDOF 13
ENDMDL
MODEL      251
REMARK 921   NORMALIZED FREE ENERGY PREDICTED BY IDOCK:   -3.20 KCAL/MOL
REMARK 922        TOTAL FREE ENERGY PREDICTED BY IDOCK:   -7.19 KCAL/MOL
REMARK 923 INTER-LIGAND FREE ENERGY PREDICTED BY IDOCK:   -6.34 KCAL/MOL
REMARK 924 INTRA-LIGAND FREE ENERGY PREDICTED BY IDOCK:   -0.85 KCAL/MOL
REMARK 927      BINDING AFFINITY PREDICTED BY RF-SCORE:    0.00 PKD
ROOT
HETATM    1 NA   UNL     1     -13.978  14.586  65.254  1.00  0.00    -0.749 Na 
HETATM    2  C   UNL     2     -11.863  12.474  65.978  1.00  0.00    -0.478 C  
HETATM    3  C   UNL     2     -10.644  13.204  66.517  1.00  0.00    -0.290 C  
ENDROOT
BRANCH   3   4
HETATM    4  C   UNL     2     -10.302  12.716  67.921  1.00  0.00    -0.221 C  
BRANCH   4   5
HETATM    5  C   UNL     2     -11.225  11.584  68.363  1.00  0.00    -0.314 C  
BRANCH   5   6
HETATM    6  C   UNL     2     -11.826  11.894  69.731  1.00  0.00    -0.411 C  
BRANCH   6   7
HETATM    7  C   UNL     2     -12.069  10.619  70.531  1.00  0.00    -0.448 C  
BRANCH   7   8
HETATM    8  C   UNL     2     -10.809   9.759  70.564  1.00  0.00    -0.387 C  
BRANCH   8   9
HETATM    9  C   UNL     2     -10.862   8.760  71.714  1.00  0.00    -0.416 C  
BRANCH   9  10
HETATM   10  C   UNL     2     -12.223   8.070  71.773  1.00  0.00    -0.352 C  
BRANCH  10  11
HETATM   11  C   UNL     2     -12.053   6.558  71.880  1.00  0.00    -0.388 C  
BRANCH  11  12
HETATM   12  C   UNL     2     -10.850   6.197  72.745  1.00  0.00    -0.282 C  
BRANCH  12  13
HETATM   13  C   UNL     2     -10.167   4.936  72.226  1.00  0.00    -0.196 C  
BRANCH  13  14
HETATM   14  O   UNL     2     -10.403   4.782  70.824  1.00  0.00    -0.203 OA 
BRANCH  14  15
HETATM   15  C   UNL     2      -9.291   4.841  70.028  1.00  0.00    -0.146 C  
HETATM   16  O   UNL     2      -8.264   5.437  70.339  1.00  0.00    -0.101 OA 
BRANCH  15  17
HETATM   17  C   UNL     2      -9.557   4.242  68.695  1.00  0.00    -0.142 C  
HETATM   18  S   UNL     2     -10.068   5.476  67.554  1.00  0.00    -0.194 S  
HETATM   19  O   UNL     2     -11.286   6.029  68.140  1.00  0.00    -0.263 OA 
HETATM   20  O   UNL     2     -10.281   4.701  66.333  1.00  0.00    -0.244 OA 
HETATM   21  O   UNL     2      -8.936   6.401  67.491  1.00  0.00    -0.118 OA 
ENDBRANCH  15  17
ENDBRANCH  14  15
ENDBRANCH  13  14
ENDBRANCH  12  13
ENDBRANCH  11  12
ENDBRANCH  10  11
ENDBRANCH   9  10
ENDBRANCH   8   9
ENDBRANCH   7   8
ENDBRANCH   6   7
ENDBRANCH   5   6
ENDBRANCH   4   5
ENDBRANCH   3   4
TORSDOF 13
ENDMDL
MODEL      252
REMARK 921   NORMALIZED FREE ENERGY PREDICTED BY IDOCK:   -3.20 KCAL/MOL
REMARK 922        TOTAL FREE ENERGY PREDICTED BY IDOCK:   -7.19 KCAL/MOL
REMARK 923 INTER-LIGAND FREE ENERGY PREDICTED BY IDOCK:   -6.14 KCAL/MOL
REMARK 924 INTRA-LIGAND FREE ENERGY PREDICTED BY IDOCK:   -1.05 KCAL/MOL
REMARK 927      BINDING AFFINITY PREDICTED BY RF-SCORE:    0.00 PKD
ROOT
HETATM    1 NA   UNL     1      -7.685   9.577  67.164  1.00  0.00    -0.085 Na 
HETATM    2  C   UNL     2     -10.334  10.814  66.209  1.00  0.00    -0.303 C  
HETATM    3  C   UNL     2     -11.216  11.022  67.428  1.00  0.00    -0.355 C  
ENDROOT
BRANCH   3   4
HETATM    4  C   UNL     2     -11.623  12.486  67.555  1.00  0.00    -0.424 C  
BRANCH   4   5
HETATM    5  C   UNL     2     -11.863  12.879  69.010  1.00  0.00    -0.352 C  
BRANCH   5   6
HETATM    6  C   UNL     2     -11.884  11.638  69.898  1.00  0.00    -0.434 C  
BRANCH   6   7
HETATM    7  C   UNL     2     -12.767  11.847  71.122  1.00  0.00    -0.384 C  
BRANCH   7   8
HETATM    8  C   UNL     2     -13.151  10.506  71.742  1.00  0.00    -0.570 C  
BRANCH   8   9
HETATM    9  C   UNL     2     -12.024   9.492  71.584  1.00  0.00    -0.474 C  
BRANCH   9  10
HETATM   10  C   UNL     2     -12.515   8.079  71.891  1.00  0.00    -0.364 C  
BRANCH  10  11
HETATM   11  C   UNL     2     -11.955   7.085  70.879  1.00  0.00    -0.409 C  
BRANCH  11  12
HETATM   12  C   UNL     2     -11.134   6.001  71.568  1.00  0.00    -0.336 C  
BRANCH  12  13
HETATM   13  C   UNL     2     -10.177   5.337  70.582  1.00  0.00    -0.257 C  
BRANCH  13  14
HETATM   14  O   UNL     2      -9.014   6.149  70.392  1.00  0.00    -0.147 OA 
BRANCH  14  15
HETATM   15  C   UNL     2      -8.791   6.568  69.109  1.00  0.00    -0.128 C  
HETATM   16  O   UNL     2      -8.563   7.736  68.806  1.00  0.00    -0.128 OA 
BRANCH  15  17
HETATM   17  C   UNL     2      -9.028   5.469  68.139  1.00  0.00    -0.108 C  
HETATM   18  S   UNL     2     -10.075   6.009  66.837  1.00  0.00    -0.206 S  
HETATM   19  O   UNL     2     -11.312   6.403  67.506  1.00  0.00    -0.274 OA 
HETATM   20  O   UNL     2     -10.189   4.808  66.011  1.00  0.00    -0.236 OA 
HETATM   21  O   UNL     2      -9.335   7.104  66.209  1.00  0.00    -0.167 OA 
ENDBRANCH  15  17
ENDBRANCH  14  15
ENDBRANCH  13  14
ENDBRANCH  12  13
ENDBRANCH  11  12
ENDBRANCH  10  11
ENDBRANCH   9  10
ENDBRANCH   8   9
ENDBRANCH   7   8
ENDBRANCH   6   7
ENDBRANCH   5   6
ENDBRANCH   4   5
ENDBRANCH   3   4
TORSDOF 13
ENDMDL
MODEL      253
REMARK 921   NORMALIZED FREE ENERGY PREDICTED BY IDOCK:   -3.20 KCAL/MOL
REMARK 922        TOTAL FREE ENERGY PREDICTED BY IDOCK:   -7.19 KCAL/MOL
REMARK 923 INTER-LIGAND FREE ENERGY PREDICTED BY IDOCK:   -5.75 KCAL/MOL
REMARK 924 INTRA-LIGAND FREE ENERGY PREDICTED BY IDOCK:   -1.44 KCAL/MOL
REMARK 927      BINDING AFFINITY PREDICTED BY RF-SCORE:    0.00 PKD
ROOT
HETATM    1 NA   UNL     1     -12.984  13.732  67.301  1.00  0.00    -0.329 Na 
HETATM    2  C   UNL     2     -12.532  11.507  69.376  1.00  0.00    -0.003 C  
HETATM    3  C   UNL     2     -12.146  12.168  70.689  1.00  0.00    -0.344 C  
ENDROOT
BRANCH   3   4
HETATM    4  C   UNL     2     -13.110  11.764  71.800  1.00  0.00    -0.480 C  
BRANCH   4   5
HETATM    5  C   UNL     2     -13.996  12.930  72.226  1.00  0.00    -0.342 C  
BRANCH   5   6
HETATM    6  C   UNL     2     -13.140  14.118  72.656  1.00  0.00    -0.564 C  
BRANCH   6   7
HETATM    7  C   UNL     2     -13.664  15.422  72.065  1.00  0.00    -0.613 C  
BRANCH   7   8
HETATM    8  C   UNL     2     -12.992  15.711  70.725  1.00  0.00    -0.413 C  
BRANCH   8   9
HETATM    9  C   UNL     2     -11.548  16.156  70.926  1.00  0.00    -0.406 C  
BRANCH   9  10
HETATM   10  C   UNL     2     -10.606  15.374  70.014  1.00  0.00    -0.319 C  
BRANCH  10  11
HETATM   11  C   UNL     2     -11.219  15.202  68.629  1.00  0.00    -0.295 C  
BRANCH  11  12
HETATM   12  C   UNL     2     -10.254  15.651  67.538  1.00  0.00    -0.263 C  
BRANCH  12  13
HETATM   13  C   UNL     2      -9.453  14.469  67.002  1.00  0.00    -0.239 C  
BRANCH  13  14
HETATM   14  O   UNL     2     -10.330  13.409  66.610  1.00  0.00    -0.262 OA 
BRANCH  14  15
HETATM   15  C   UNL     2      -9.743  12.382  65.921  1.00  0.00    -0.228 C  
HETATM   16  O   UNL     2     -10.332  11.698  65.089  1.00  0.00    -0.255 OA 
BRANCH  15  17
HETATM   17  C   UNL     2      -8.377  12.106  66.436  1.00  0.00     0.106 C  
HETATM   18  S   UNL     2      -8.379  10.680  67.461  1.00  0.00    -0.115 S  
HETATM   19  O   UNL     2      -9.298  11.017  68.546  1.00  0.00    -0.174 OA 
HETATM   20  O   UNL     2      -6.977  10.584  67.863  1.00  0.00    -0.076 OA 
HETATM   21  O   UNL     2      -8.829   9.602  66.581  1.00  0.00    -0.135 OA 
ENDBRANCH  15  17
ENDBRANCH  14  15
ENDBRANCH  13  14
ENDBRANCH  12  13
ENDBRANCH  11  12
ENDBRANCH  10  11
ENDBRANCH   9  10
ENDBRANCH   8   9
ENDBRANCH   7   8
ENDBRANCH   6   7
ENDBRANCH   5   6
ENDBRANCH   4   5
ENDBRANCH   3   4
TORSDOF 13
ENDMDL
MODEL      254
REMARK 921   NORMALIZED FREE ENERGY PREDICTED BY IDOCK:   -3.19 KCAL/MOL
REMARK 922        TOTAL FREE ENERGY PREDICTED BY IDOCK:   -7.18 KCAL/MOL
REMARK 923 INTER-LIGAND FREE ENERGY PREDICTED BY IDOCK:   -5.92 KCAL/MOL
REMARK 924 INTRA-LIGAND FREE ENERGY PREDICTED BY IDOCK:   -1.27 KCAL/MOL
REMARK 927      BINDING AFFINITY PREDICTED BY RF-SCORE:    0.00 PKD
ROOT
HETATM    1 NA   UNL     1      -7.156  13.946  70.966  1.00  0.00    -0.391 Na 
HETATM    2  C   UNL     2      -9.090  15.161  68.907  1.00  0.00    -0.206 C  
HETATM    3  C   UNL     2      -8.597  14.775  67.522  1.00  0.00    -0.198 C  
ENDROOT
BRANCH   3   4
HETATM    4  C   UNL     2      -9.681  14.026  66.754  1.00  0.00    -0.283 C  
BRANCH   4   5
HETATM    5  C   UNL     2     -11.034  14.122  67.454  1.00  0.00    -0.306 C  
BRANCH   5   6
HETATM    6  C   UNL     2     -12.159  14.206  66.426  1.00  0.00    -0.475 C  
BRANCH   6   7
HETATM    7  C   UNL     2     -12.312  12.895  65.663  1.00  0.00    -0.482 C  
BRANCH   7   8
HETATM    8  C   UNL     2     -12.144  13.124  64.164  1.00  0.00    -0.496 C  
BRANCH   8   9
HETATM    9  C   UNL     2     -11.697  11.845  63.466  1.00  0.00    -0.550 C  
BRANCH   9  10
HETATM   10  C   UNL     2     -10.191  11.644  63.606  1.00  0.00    -0.451 C  
BRANCH  10  11
HETATM   11  C   UNL     2      -9.889  10.342  64.342  1.00  0.00    -0.395 C  
BRANCH  11  12
HETATM   12  C   UNL     2      -9.195  10.609  65.673  1.00  0.00    -0.227 C  
BRANCH  12  13
HETATM   13  C   UNL     2     -10.137  10.333  66.841  1.00  0.00    -0.221 C  
BRANCH  13  14
HETATM   14  O   UNL     2     -10.440   8.937  66.918  1.00  0.00    -0.271 OA 
BRANCH  14  15
HETATM   15  C   UNL     2     -10.132   8.331  68.106  1.00  0.00    -0.200 C  
HETATM   16  O   UNL     2     -10.814   8.438  69.120  1.00  0.00    -0.155 OA 
BRANCH  15  17
HETATM   17  C   UNL     2      -8.796   7.683  68.043  1.00  0.00    -0.127 C  
HETATM   18  S   UNL     2      -8.958   5.963  67.726  1.00  0.00    -0.109 S  
HETATM   19  O   UNL     2      -9.740   5.460  68.853  1.00  0.00    -0.132 OA 
HETATM   20  O   UNL     2      -7.566   5.518  67.709  1.00  0.00    -0.086 OA 
HETATM   21  O   UNL     2      -9.629   5.895  66.428  1.00  0.00    -0.156 OA 
ENDBRANCH  15  17
ENDBRANCH  14  15
ENDBRANCH  13  14
ENDBRANCH  12  13
ENDBRANCH  11  12
ENDBRANCH  10  11
ENDBRANCH   9  10
ENDBRANCH   8   9
ENDBRANCH   7   8
ENDBRANCH   6   7
ENDBRANCH   5   6
ENDBRANCH   4   5
ENDBRANCH   3   4
TORSDOF 13
ENDMDL
MODEL      255
REMARK 921   NORMALIZED FREE ENERGY PREDICTED BY IDOCK:   -3.17 KCAL/MOL
REMARK 922        TOTAL FREE ENERGY PREDICTED BY IDOCK:   -7.15 KCAL/MOL
REMARK 923 INTER-LIGAND FREE ENERGY PREDICTED BY IDOCK:   -5.94 KCAL/MOL
REMARK 924 INTRA-LIGAND FREE ENERGY PREDICTED BY IDOCK:   -1.21 KCAL/MOL
REMARK 927      BINDING AFFINITY PREDICTED BY RF-SCORE:    0.00 PKD
ROOT
HETATM    1 NA   UNL     1      -7.961  12.890  69.253  1.00  0.00    -0.271 Na 
HETATM    2  C   UNL     2      -6.125  11.735  67.073  1.00  0.00    -0.152 C  
HETATM    3  C   UNL     2      -5.664  10.362  67.534  1.00  0.00    -0.044 C  
ENDROOT
BRANCH   3   4
HETATM    4  C   UNL     2      -6.041   9.296  66.511  1.00  0.00    -0.064 C  
BRANCH   4   5
HETATM    5  C   UNL     2      -7.510   9.398  66.109  1.00  0.00    -0.096 C  
BRANCH   5   6
HETATM    6  C   UNL     2      -8.406   8.926  67.250  1.00  0.00    -0.104 C  
BRANCH   6   7
HETATM    7  C   UNL     2      -9.869   8.880  66.824  1.00  0.00    -0.308 C  
BRANCH   7   8
HETATM    8  C   UNL     2     -10.312  10.237  66.284  1.00  0.00    -0.256 C  
BRANCH   8   9
HETATM    9  C   UNL     2     -11.294  10.908  67.238  1.00  0.00    -0.230 C  
BRANCH   9  10
HETATM   10  C   UNL     2     -10.555  11.637  68.357  1.00  0.00    -0.235 C  
BRANCH  10  11
HETATM   11  C   UNL     2     -11.535  12.415  69.229  1.00  0.00    -0.349 C  
BRANCH  11  12
HETATM   12  C   UNL     2     -12.128  13.598  68.472  1.00  0.00    -0.321 C  
BRANCH  12  13
HETATM   13  C   UNL     2     -11.091  14.702  68.292  1.00  0.00    -0.271 C  
BRANCH  13  14
HETATM   14  O   UNL     2     -11.310  15.396  67.060  1.00  0.00    -0.288 OA 
BRANCH  14  15
HETATM   15  C   UNL     2     -10.673  14.873  65.968  1.00  0.00    -0.323 C  
HETATM   16  O   UNL     2      -9.530  14.424  65.998  1.00  0.00    -0.282 OA 
BRANCH  15  17
HETATM   17  C   UNL     2     -11.474  15.079  64.734  1.00  0.00    -0.403 C  
HETATM   18  S   UNL     2     -11.932  13.537  64.030  1.00  0.00    -0.416 S  
HETATM   19  O   UNL     2     -10.660  12.883  63.734  1.00  0.00    -0.390 OA 
HETATM   20  O   UNL     2     -12.691  13.947  62.849  1.00  0.00    -0.521 OA 
HETATM   21  O   UNL     2     -12.735  12.890  65.067  1.00  0.00    -0.613 OA 
ENDBRANCH  15  17
ENDBRANCH  14  15
ENDBRANCH  13  14
ENDBRANCH  12  13
ENDBRANCH  11  12
ENDBRANCH  10  11
ENDBRANCH   9  10
ENDBRANCH   8   9
ENDBRANCH   7   8
ENDBRANCH   6   7
ENDBRANCH   5   6
ENDBRANCH   4   5
ENDBRANCH   3   4
TORSDOF 13
ENDMDL
MODEL      256
REMARK 921   NORMALIZED FREE ENERGY PREDICTED BY IDOCK:   -3.17 KCAL/MOL
REMARK 922        TOTAL FREE ENERGY PREDICTED BY IDOCK:   -7.14 KCAL/MOL
REMARK 923 INTER-LIGAND FREE ENERGY PREDICTED BY IDOCK:   -5.86 KCAL/MOL
REMARK 924 INTRA-LIGAND FREE ENERGY PREDICTED BY IDOCK:   -1.28 KCAL/MOL
REMARK 927      BINDING AFFINITY PREDICTED BY RF-SCORE:    0.00 PKD
ROOT
HETATM    1 NA   UNL     1     -13.112  15.451  63.674  1.00  0.00    -0.696 Na 
HETATM    2  C   UNL     2     -11.398  14.609  66.085  1.00  0.00    -0.350 C  
HETATM    3  C   UNL     2     -12.095  13.443  66.765  1.00  0.00    -0.419 C  
ENDROOT
BRANCH   3   4
HETATM    4  C   UNL     2     -11.174  12.231  66.835  1.00  0.00    -0.367 C  
BRANCH   4   5
HETATM    5  C   UNL     2      -9.775  12.558  66.320  1.00  0.00    -0.259 C  
BRANCH   5   6
HETATM    6  C   UNL     2      -9.317  11.499  65.320  1.00  0.00    -0.155 C  
BRANCH   6   7
HETATM    7  C   UNL     2     -10.129  10.217  65.460  1.00  0.00    -0.338 C  
BRANCH   7   8
HETATM    8  C   UNL     2      -9.256   9.085  65.994  1.00  0.00    -0.284 C  
BRANCH   8   9
HETATM    9  C   UNL     2      -9.466   8.897  67.492  1.00  0.00    -0.172 C  
BRANCH   9  10
HETATM   10  C   UNL     2      -8.408   9.654  68.290  1.00  0.00    -0.117 C  
BRANCH  10  11
HETATM   11  C   UNL     2      -8.900   9.930  69.707  1.00  0.00    -0.229 C  
BRANCH  11  12
HETATM   12  C   UNL     2     -10.421  10.017  69.756  1.00  0.00    -0.291 C  
BRANCH  12  13
HETATM   13  C   UNL     2     -10.978   9.155  70.884  1.00  0.00    -0.282 C  
BRANCH  13  14
HETATM   14  O   UNL     2     -10.024   8.161  71.270  1.00  0.00    -0.174 OA 
BRANCH  14  15
HETATM   15  C   UNL     2      -9.796   8.053  72.615  1.00  0.00    -0.279 C  
HETATM   16  O   UNL     2      -8.814   8.528  73.178  1.00  0.00    -0.320 OA 
BRANCH  15  17
HETATM   17  C   UNL     2     -10.792   7.155  73.255  1.00  0.00    -0.338 C  
HETATM   18  S   UNL     2     -10.167   5.517  73.361  1.00  0.00    -0.220 S  
HETATM   19  O   UNL     2      -9.920   5.133  71.974  1.00  0.00    -0.174 OA 
HETATM   20  O   UNL     2     -11.273   4.803  73.999  1.00  0.00    -0.273 OA 
HETATM   21  O   UNL     2      -8.970   5.640  74.193  1.00  0.00    -0.122 OA 
ENDBRANCH  15  17
ENDBRANCH  14  15
ENDBRANCH  13  14
ENDBRANCH  12  13
ENDBRANCH  11  12
ENDBRANCH  10  11
ENDBRANCH   9  10
ENDBRANCH   8   9
ENDBRANCH   7   8
ENDBRANCH   6   7
ENDBRANCH   5   6
ENDBRANCH   4   5
ENDBRANCH   3   4
TORSDOF 13
ENDMDL
MODEL      257
REMARK 921   NORMALIZED FREE ENERGY PREDICTED BY IDOCK:   -3.17 KCAL/MOL
REMARK 922        TOTAL FREE ENERGY PREDICTED BY IDOCK:   -7.14 KCAL/MOL
REMARK 923 INTER-LIGAND FREE ENERGY PREDICTED BY IDOCK:   -6.03 KCAL/MOL
REMARK 924 INTRA-LIGAND FREE ENERGY PREDICTED BY IDOCK:   -1.12 KCAL/MOL
REMARK 927      BINDING AFFINITY PREDICTED BY RF-SCORE:    0.00 PKD
ROOT
HETATM    1 NA   UNL     1     -10.941  20.184  70.955  1.00  0.00    -0.787 Na 
HETATM    2  C   UNL     2      -9.660  19.185  68.343  1.00  0.00    -0.437 C  
HETATM    3  C   UNL     2      -8.174  19.494  68.407  1.00  0.00    -0.379 C  
ENDROOT
BRANCH   3   4
HETATM    4  C   UNL     2      -7.351  18.221  68.237  1.00  0.00    -0.277 C  
BRANCH   4   5
HETATM    5  C   UNL     2      -7.593  17.574  66.877  1.00  0.00    -0.245 C  
BRANCH   5   6
HETATM    6  C   UNL     2      -7.134  16.118  66.893  1.00  0.00    -0.222 C  
BRANCH   6   7
HETATM    7  C   UNL     2      -8.321  15.163  66.924  1.00  0.00    -0.267 C  
BRANCH   7   8
HETATM    8  C   UNL     2      -9.421  15.645  65.981  1.00  0.00    -0.390 C  
BRANCH   8   9
HETATM    9  C   UNL     2     -10.313  14.487  65.551  1.00  0.00    -0.379 C  
BRANCH   9  10
HETATM   10  C   UNL     2     -11.764  14.738  65.954  1.00  0.00    -0.248 C  
BRANCH  10  11
HETATM   11  C   UNL     2     -12.264  13.632  66.877  1.00  0.00    -0.398 C  
BRANCH  11  12
HETATM   12  C   UNL     2     -11.945  13.943  68.335  1.00  0.00    -0.391 C  
BRANCH  12  13
HETATM   13  C   UNL     2     -11.253  12.760  69.004  1.00  0.00    -0.264 C  
BRANCH  13  14
HETATM   14  O   UNL     2      -9.915  12.624  68.516  1.00  0.00    -0.219 OA 
BRANCH  14  15
HETATM   15  C   UNL     2      -9.646  11.460  67.849  1.00  0.00    -0.177 C  
HETATM   16  O   UNL     2      -9.062  11.415  66.769  1.00  0.00    -0.166 OA 
BRANCH  15  17
HETATM   17  C   UNL     2     -10.296  10.301  68.512  1.00  0.00    -0.178 C  
HETATM   18  S   UNL     2      -9.098   9.106  68.983  1.00  0.00    -0.145 S  
HETATM   19  O   UNL     2      -8.467   8.713  67.726  1.00  0.00    -0.124 OA 
HETATM   20  O   UNL     2      -9.921   8.066  69.599  1.00  0.00    -0.182 OA 
HETATM   21  O   UNL     2      -8.226   9.817  69.918  1.00  0.00    -0.152 OA 
ENDBRANCH  15  17
ENDBRANCH  14  15
ENDBRANCH  13  14
ENDBRANCH  12  13
ENDBRANCH  11  12
ENDBRANCH  10  11
ENDBRANCH   9  10
ENDBRANCH   8   9
ENDBRANCH   7   8
ENDBRANCH   6   7
ENDBRANCH   5   6
ENDBRANCH   4   5
ENDBRANCH   3   4
TORSDOF 13
ENDMDL
MODEL      258
REMARK 921   NORMALIZED FREE ENERGY PREDICTED BY IDOCK:   -3.17 KCAL/MOL
REMARK 922        TOTAL FREE ENERGY PREDICTED BY IDOCK:   -7.14 KCAL/MOL
REMARK 923 INTER-LIGAND FREE ENERGY PREDICTED BY IDOCK:   -6.35 KCAL/MOL
REMARK 924 INTRA-LIGAND FREE ENERGY PREDICTED BY IDOCK:   -0.79 KCAL/MOL
REMARK 927      BINDING AFFINITY PREDICTED BY RF-SCORE:    0.00 PKD
ROOT
HETATM    1 NA   UNL     1     -12.796   6.483  69.672  1.00  0.00    -0.575 Na 
HETATM    2  C   UNL     2     -10.432   6.570  67.706  1.00  0.00    -0.279 C  
HETATM    3  C   UNL     2     -10.580   7.821  66.857  1.00  0.00    -0.347 C  
ENDROOT
BRANCH   3   4
HETATM    4  C   UNL     2      -9.342   8.703  66.976  1.00  0.00    -0.202 C  
BRANCH   4   5
HETATM    5  C   UNL     2      -9.162   9.588  65.747  1.00  0.00    -0.267 C  
BRANCH   5   6
HETATM    6  C   UNL     2      -8.056  10.612  65.987  1.00  0.00    -0.159 C  
BRANCH   6   7
HETATM    7  C   UNL     2      -7.287  10.306  67.268  1.00  0.00    -0.090 C  
BRANCH   7   8
HETATM    8  C   UNL     2      -7.635  11.319  68.356  1.00  0.00    -0.120 C  
BRANCH   8   9
HETATM    9  C   UNL     2      -8.070  12.645  67.745  1.00  0.00    -0.166 C  
BRANCH   9  10
HETATM   10  C   UNL     2      -9.427  13.079  68.293  1.00  0.00    -0.208 C  
BRANCH  10  11
HETATM   11  C   UNL     2      -9.500  14.598  68.406  1.00  0.00    -0.209 C  
BRANCH  11  12
HETATM   12  C   UNL     2     -10.801  15.040  69.066  1.00  0.00    -0.242 C  
BRANCH  12  13
HETATM   13  C   UNL     2     -11.691  13.839  69.370  1.00  0.00    -0.325 C  
BRANCH  13  14
HETATM   14  O   UNL     2     -12.910  14.265  69.985  1.00  0.00    -0.233 OA 
BRANCH  14  15
HETATM   15  C   UNL     2     -13.161  13.740  71.224  1.00  0.00    -0.261 C  
HETATM   16  O   UNL     2     -12.967  12.563  71.515  1.00  0.00    -0.376 OA 
BRANCH  15  17
HETATM   17  C   UNL     2     -13.847  14.730  72.094  1.00  0.00    -0.475 C  
HETATM   18  S   UNL     2     -12.683  15.588  73.090  1.00  0.00    -0.543 S  
HETATM   19  O   UNL     2     -12.042  14.541  73.881  1.00  0.00    -0.330 OA 
HETATM   20  O   UNL     2     -13.538  16.490  73.860  1.00  0.00    -0.432 OA 
HETATM   21  O   UNL     2     -11.809  16.260  72.129  1.00  0.00    -0.507 OA 
ENDBRANCH  15  17
ENDBRANCH  14  15
ENDBRANCH  13  14
ENDBRANCH  12  13
ENDBRANCH  11  12
ENDBRANCH  10  11
ENDBRANCH   9  10
ENDBRANCH   8   9
ENDBRANCH   7   8
ENDBRANCH   6   7
ENDBRANCH   5   6
ENDBRANCH   4   5
ENDBRANCH   3   4
TORSDOF 13
ENDMDL
MODEL      259
REMARK 921   NORMALIZED FREE ENERGY PREDICTED BY IDOCK:   -3.17 KCAL/MOL
REMARK 922        TOTAL FREE ENERGY PREDICTED BY IDOCK:   -7.14 KCAL/MOL
REMARK 923 INTER-LIGAND FREE ENERGY PREDICTED BY IDOCK:   -5.86 KCAL/MOL
REMARK 924 INTRA-LIGAND FREE ENERGY PREDICTED BY IDOCK:   -1.28 KCAL/MOL
REMARK 927      BINDING AFFINITY PREDICTED BY RF-SCORE:    0.00 PKD
ROOT
HETATM    1 NA   UNL     1      -9.204  14.962  70.375  1.00  0.00    -0.420 Na 
HETATM    2  C   UNL     2      -8.263  13.370  67.918  1.00  0.00    -0.162 C  
HETATM    3  C   UNL     2      -6.845  13.810  67.596  1.00  0.00    -0.187 C  
ENDROOT
BRANCH   3   4
HETATM    4  C   UNL     2      -5.895  12.616  67.605  1.00  0.00    -0.140 C  
BRANCH   4   5
HETATM    5  C   UNL     2      -6.548  11.374  67.005  1.00  0.00    -0.125 C  
BRANCH   5   6
HETATM    6  C   UNL     2      -5.579  10.195  67.042  1.00  0.00    -0.045 C  
BRANCH   6   7
HETATM    7  C   UNL     2      -6.065   9.051  66.161  1.00  0.00    -0.059 C  
BRANCH   7   8
HETATM    8  C   UNL     2      -7.590   9.016  66.119  1.00  0.00    -0.095 C  
BRANCH   8   9
HETATM    9  C   UNL     2      -8.134   7.939  67.051  1.00  0.00    -0.116 C  
BRANCH   9  10
HETATM   10  C   UNL     2      -9.093   8.540  68.076  1.00  0.00    -0.144 C  
BRANCH  10  11
HETATM   11  C   UNL     2     -10.307   9.150  67.383  1.00  0.00    -0.330 C  
BRANCH  11  12
HETATM   12  C   UNL     2     -10.612  10.540  67.929  1.00  0.00    -0.271 C  
BRANCH  12  13
HETATM   13  C   UNL     2     -11.265  11.411  66.860  1.00  0.00    -0.264 C  
BRANCH  13  14
HETATM   14  O   UNL     2     -10.383  11.580  65.747  1.00  0.00    -0.232 OA 
BRANCH  14  15
HETATM   15  C   UNL     2     -10.899  12.271  64.684  1.00  0.00    -0.308 C  
HETATM   16  O   UNL     2     -11.646  11.772  63.848  1.00  0.00    -0.390 OA 
BRANCH  15  17
HETATM   17  C   UNL     2     -10.305  13.629  64.592  1.00  0.00    -0.384 C  
HETATM   18  S   UNL     2     -11.528  14.859  64.869  1.00  0.00    -0.391 S  
HETATM   19  O   UNL     2     -12.510  14.636  63.811  1.00  0.00    -0.799 OA 
HETATM   20  O   UNL     2     -10.761  16.096  64.732  1.00  0.00    -0.648 OA 
HETATM   21  O   UNL     2     -12.008  14.594  66.225  1.00  0.00    -0.348 OA 
ENDBRANCH  15  17
ENDBRANCH  14  15
ENDBRANCH  13  14
ENDBRANCH  12  13
ENDBRANCH  11  12
ENDBRANCH  10  11
ENDBRANCH   9  10
ENDBRANCH   8   9
ENDBRANCH   7   8
ENDBRANCH   6   7
ENDBRANCH   5   6
ENDBRANCH   4   5
ENDBRANCH   3   4
TORSDOF 13
ENDMDL
MODEL      260
REMARK 921   NORMALIZED FREE ENERGY PREDICTED BY IDOCK:   -3.17 KCAL/MOL
REMARK 922        TOTAL FREE ENERGY PREDICTED BY IDOCK:   -7.13 KCAL/MOL
REMARK 923 INTER-LIGAND FREE ENERGY PREDICTED BY IDOCK:   -5.73 KCAL/MOL
REMARK 924 INTRA-LIGAND FREE ENERGY PREDICTED BY IDOCK:   -1.40 KCAL/MOL
REMARK 927      BINDING AFFINITY PREDICTED BY RF-SCORE:    0.00 PKD
ROOT
HETATM    1 NA   UNL     1     -11.153  10.646  65.917  1.00  0.00    -0.226 Na 
HETATM    2  C   UNL     2      -8.988   9.495  64.061  1.00  0.00    -0.228 C  
HETATM    3  C   UNL     2      -8.028   8.683  64.915  1.00  0.00    -0.138 C  
ENDROOT
BRANCH   3   4
HETATM    4  C   UNL     2      -7.944   7.246  64.413  1.00  0.00    -0.106 C  
BRANCH   4   5
HETATM    5  C   UNL     2      -7.656   6.269  65.549  1.00  0.00    -0.087 C  
BRANCH   5   6
HETATM    6  C   UNL     2      -8.926   5.514  65.935  1.00  0.00    -0.158 C  
BRANCH   6   7
HETATM    7  C   UNL     2      -9.271   5.726  67.404  1.00  0.00    -0.109 C  
BRANCH   7   8
HETATM    8  C   UNL     2     -10.623   6.420  67.542  1.00  0.00    -0.350 C  
BRANCH   8   9
HETATM    9  C   UNL     2     -10.500   7.912  67.254  1.00  0.00    -0.390 C  
BRANCH   9  10
HETATM   10  C   UNL     2      -9.931   8.655  68.460  1.00  0.00    -0.201 C  
BRANCH  10  11
HETATM   11  C   UNL     2      -9.403  10.024  68.047  1.00  0.00    -0.139 C  
BRANCH  11  12
HETATM   12  C   UNL     2     -10.244  11.145  68.647  1.00  0.00    -0.216 C  
BRANCH  12  13
HETATM   13  C   UNL     2     -10.026  12.452  67.891  1.00  0.00    -0.204 C  
BRANCH  13  14
HETATM   14  O   UNL     2     -11.197  13.270  67.961  1.00  0.00    -0.252 OA 
BRANCH  14  15
HETATM   15  C   UNL     2     -11.532  13.923  66.806  1.00  0.00    -0.352 C  
HETATM   16  O   UNL     2     -11.187  15.074  66.552  1.00  0.00    -0.340 OA 
BRANCH  15  17
HETATM   17  C   UNL     2     -12.491  13.124  66.000  1.00  0.00    -0.260 C  
HETATM   18  S   UNL     2     -12.043  13.151  64.302  1.00  0.00    -0.421 S  
HETATM   19  O   UNL     2     -12.092  14.564  63.938  1.00  0.00    -0.457 OA 
HETATM   20  O   UNL     2     -13.090  12.332  63.692  1.00  0.00    -0.780 OA 
HETATM   21  O   UNL     2     -10.711  12.549  64.269  1.00  0.00    -0.318 OA 
ENDBRANCH  15  17
ENDBRANCH  14  15
ENDBRANCH  13  14
ENDBRANCH  12  13
ENDBRANCH  11  12
ENDBRANCH  10  11
ENDBRANCH   9  10
ENDBRANCH   8   9
ENDBRANCH   7   8
ENDBRANCH   6   7
ENDBRANCH   5   6
ENDBRANCH   4   5
ENDBRANCH   3   4
TORSDOF 13
ENDMDL
MODEL      261
REMARK 921   NORMALIZED FREE ENERGY PREDICTED BY IDOCK:   -3.15 KCAL/MOL
REMARK 922        TOTAL FREE ENERGY PREDICTED BY IDOCK:   -7.10 KCAL/MOL
REMARK 923 INTER-LIGAND FREE ENERGY PREDICTED BY IDOCK:   -6.28 KCAL/MOL
REMARK 924 INTRA-LIGAND FREE ENERGY PREDICTED BY IDOCK:   -0.82 KCAL/MOL
REMARK 927      BINDING AFFINITY PREDICTED BY RF-SCORE:    0.00 PKD
ROOT
HETATM    1 NA   UNL     1      -8.640  18.705  65.767  1.00  0.00    -0.277 Na 
HETATM    2  C   UNL     2      -9.943  15.975  66.320  1.00  0.00    -0.329 C  
HETATM    3  C   UNL     2     -10.908  15.682  65.183  1.00  0.00    -0.448 C  
ENDROOT
BRANCH   3   4
HETATM    4  C   UNL     2     -10.556  14.363  64.505  1.00  0.00    -0.186 C  
BRANCH   4   5
HETATM    5  C   UNL     2     -11.597  13.286  64.797  1.00  0.00    -0.364 C  
BRANCH   5   6
HETATM    6  C   UNL     2     -10.921  12.028  65.337  1.00  0.00    -0.347 C  
BRANCH   6   7
HETATM    7  C   UNL     2     -11.400  11.702  66.746  1.00  0.00    -0.354 C  
BRANCH   7   8
HETATM    8  C   UNL     2     -11.870  12.968  67.458  1.00  0.00    -0.408 C  
BRANCH   8   9
HETATM    9  C   UNL     2     -11.819  12.790  68.971  1.00  0.00    -0.344 C  
BRANCH   9  10
HETATM   10  C   UNL     2     -11.656  11.318  69.343  1.00  0.00    -0.390 C  
BRANCH  10  11
HETATM   11  C   UNL     2     -12.422  10.999  70.622  1.00  0.00    -0.465 C  
BRANCH  11  12
HETATM   12  C   UNL     2     -11.729   9.902  71.421  1.00  0.00    -0.449 C  
BRANCH  12  13
HETATM   13  C   UNL     2     -10.402   9.516  70.776  1.00  0.00    -0.306 C  
BRANCH  13  14
HETATM   14  O   UNL     2     -10.322   8.097  70.611  1.00  0.00    -0.196 OA 
BRANCH  14  15
HETATM   15  C   UNL     2      -9.436   7.456  71.433  1.00  0.00    -0.152 C  
HETATM   16  O   UNL     2      -8.383   7.957  71.819  1.00  0.00    -0.105 OA 
BRANCH  15  17
HETATM   17  C   UNL     2      -9.834   6.041  71.648  1.00  0.00    -0.170 C  
HETATM   18  S   UNL     2     -11.061   5.928  72.899  1.00  0.00    -0.252 S  
HETATM   19  O   UNL     2     -10.419   6.485  74.087  1.00  0.00    -0.337 OA 
HETATM   20  O   UNL     2     -11.308   4.488  72.963  1.00  0.00    -0.220 OA 
HETATM   21  O   UNL     2     -12.183   6.709  72.378  1.00  0.00    -0.181 OA 
ENDBRANCH  15  17
ENDBRANCH  14  15
ENDBRANCH  13  14
ENDBRANCH  12  13
ENDBRANCH  11  12
ENDBRANCH  10  11
ENDBRANCH   9  10
ENDBRANCH   8   9
ENDBRANCH   7   8
ENDBRANCH   6   7
ENDBRANCH   5   6
ENDBRANCH   4   5
ENDBRANCH   3   4
TORSDOF 13
ENDMDL
MODEL      262
REMARK 921   NORMALIZED FREE ENERGY PREDICTED BY IDOCK:   -3.15 KCAL/MOL
REMARK 922        TOTAL FREE ENERGY PREDICTED BY IDOCK:   -7.10 KCAL/MOL
REMARK 923 INTER-LIGAND FREE ENERGY PREDICTED BY IDOCK:   -6.04 KCAL/MOL
REMARK 924 INTRA-LIGAND FREE ENERGY PREDICTED BY IDOCK:   -1.06 KCAL/MOL
REMARK 927      BINDING AFFINITY PREDICTED BY RF-SCORE:    0.00 PKD
ROOT
HETATM    1 NA   UNL     1     -12.359  14.654  62.773  1.00  0.00    -0.885 Na 
HETATM    2  C   UNL     2     -10.835  14.762  65.442  1.00  0.00    -0.372 C  
HETATM    3  C   UNL     2     -11.782  14.301  66.537  1.00  0.00    -0.409 C  
ENDROOT
BRANCH   3   4
HETATM    4  C   UNL     2     -11.197  13.111  67.289  1.00  0.00    -0.319 C  
BRANCH   4   5
HETATM    5  C   UNL     2      -9.910  12.612  66.638  1.00  0.00    -0.245 C  
BRANCH   5   6
HETATM    6  C   UNL     2     -10.123  11.227  66.034  1.00  0.00    -0.283 C  
BRANCH   6   7
HETATM    7  C   UNL     2     -10.810  10.291  67.022  1.00  0.00    -0.248 C  
BRANCH   7   8
HETATM    8  C   UNL     2     -10.437   8.840  66.734  1.00  0.00    -0.283 C  
BRANCH   8   9
HETATM    9  C   UNL     2     -10.105   8.098  68.024  1.00  0.00    -0.241 C  
BRANCH   9  10
HETATM   10  C   UNL     2      -8.649   7.639  68.029  1.00  0.00    -0.123 C  
BRANCH  10  11
HETATM   11  C   UNL     2      -8.024   7.849  69.405  1.00  0.00    -0.117 C  
BRANCH  11  12
HETATM   12  C   UNL     2      -8.809   8.874  70.216  1.00  0.00    -0.191 C  
BRANCH  12  13
HETATM   13  C   UNL     2      -9.120   8.339  71.610  1.00  0.00    -0.185 C  
BRANCH  13  14
HETATM   14  O   UNL     2      -9.987   7.204  71.527  1.00  0.00    -0.183 OA 
BRANCH  14  15
HETATM   15  C   UNL     2     -11.024   7.187  72.419  1.00  0.00    -0.251 C  
HETATM   16  O   UNL     2     -10.871   7.185  73.638  1.00  0.00    -0.352 OA 
BRANCH  15  17
HETATM   17  C   UNL     2     -12.323   7.000  71.724  1.00  0.00    -0.354 C  
HETATM   18  S   UNL     2     -13.178   8.528  71.591  1.00  0.00    -0.328 S  
HETATM   19  O   UNL     2     -13.373   8.955  72.974  1.00  0.00    -0.308 OA 
HETATM   20  O   UNL     2     -14.406   8.138  70.899  1.00  0.00    -0.099 OA 
HETATM   21  O   UNL     2     -12.285   9.375  70.801  1.00  0.00    -0.259 OA 
ENDBRANCH  15  17
ENDBRANCH  14  15
ENDBRANCH  13  14
ENDBRANCH  12  13
ENDBRANCH  11  12
ENDBRANCH  10  11
ENDBRANCH   9  10
ENDBRANCH   8   9
ENDBRANCH   7   8
ENDBRANCH   6   7
ENDBRANCH   5   6
ENDBRANCH   4   5
ENDBRANCH   3   4
TORSDOF 13
ENDMDL
MODEL      263
REMARK 921   NORMALIZED FREE ENERGY PREDICTED BY IDOCK:   -3.12 KCAL/MOL
REMARK 922        TOTAL FREE ENERGY PREDICTED BY IDOCK:   -7.06 KCAL/MOL
REMARK 923 INTER-LIGAND FREE ENERGY PREDICTED BY IDOCK:   -6.08 KCAL/MOL
REMARK 924 INTRA-LIGAND FREE ENERGY PREDICTED BY IDOCK:   -0.98 KCAL/MOL
REMARK 927      BINDING AFFINITY PREDICTED BY RF-SCORE:    0.00 PKD
ROOT
HETATM    1 NA   UNL     1      -8.305  18.789  65.989  1.00  0.00    -0.262 Na 
HETATM    2  C   UNL     2      -9.662  16.070  66.463  1.00  0.00    -0.284 C  
HETATM    3  C   UNL     2     -10.815  15.949  65.481  1.00  0.00    -0.325 C  
ENDROOT
BRANCH   3   4
HETATM    4  C   UNL     2     -10.658  14.701  64.617  1.00  0.00    -0.268 C  
BRANCH   4   5
HETATM    5  C   UNL     2     -11.689  13.636  64.978  1.00  0.00    -0.354 C  
BRANCH   5   6
HETATM    6  C   UNL     2     -10.992  12.335  65.370  1.00  0.00    -0.341 C  
BRANCH   6   7
HETATM    7  C   UNL     2     -11.457  11.849  66.738  1.00  0.00    -0.384 C  
BRANCH   7   8
HETATM    8  C   UNL     2     -11.909  13.024  67.600  1.00  0.00    -0.401 C  
BRANCH   8   9
HETATM    9  C   UNL     2     -11.782  12.691  69.082  1.00  0.00    -0.375 C  
BRANCH   9  10
HETATM   10  C   UNL     2     -12.010  11.202  69.328  1.00  0.00    -0.421 C  
BRANCH  10  11
HETATM   11  C   UNL     2     -12.620  10.973  70.706  1.00  0.00    -0.463 C  
BRANCH  11  12
HETATM   12  C   UNL     2     -11.983   9.773  71.399  1.00  0.00    -0.493 C  
BRANCH  12  13
HETATM   13  C   UNL     2     -10.519   9.628  70.997  1.00  0.00    -0.257 C  
BRANCH  13  14
HETATM   14  O   UNL     2     -10.086   8.276  71.170  1.00  0.00    -0.183 OA 
BRANCH  14  15
HETATM   15  C   UNL     2     -10.386   7.423  70.143  1.00  0.00    -0.214 C  
HETATM   16  O   UNL     2     -10.531   7.787  68.979  1.00  0.00    -0.216 OA 
BRANCH  15  17
HETATM   17  C   UNL     2     -10.675   6.057  70.650  1.00  0.00    -0.276 C  
HETATM   18  S   UNL     2      -9.326   4.980  70.326  1.00  0.00    -0.166 S  
HETATM   19  O   UNL     2      -9.197   4.990  68.871  1.00  0.00    -0.105 OA 
HETATM   20  O   UNL     2      -9.799   3.714  70.883  1.00  0.00    -0.174 OA 
HETATM   21  O   UNL     2      -8.204   5.576  71.051  1.00  0.00    -0.115 OA 
ENDBRANCH  15  17
ENDBRANCH  14  15
ENDBRANCH  13  14
ENDBRANCH  12  13
ENDBRANCH  11  12
ENDBRANCH  10  11
ENDBRANCH   9  10
ENDBRANCH   8   9
ENDBRANCH   7   8
ENDBRANCH   6   7
ENDBRANCH   5   6
ENDBRANCH   4   5
ENDBRANCH   3   4
TORSDOF 13
ENDMDL
MODEL      264
REMARK 921   NORMALIZED FREE ENERGY PREDICTED BY IDOCK:   -3.12 KCAL/MOL
REMARK 922        TOTAL FREE ENERGY PREDICTED BY IDOCK:   -7.05 KCAL/MOL
REMARK 923 INTER-LIGAND FREE ENERGY PREDICTED BY IDOCK:   -6.45 KCAL/MOL
REMARK 924 INTRA-LIGAND FREE ENERGY PREDICTED BY IDOCK:   -0.60 KCAL/MOL
REMARK 927      BINDING AFFINITY PREDICTED BY RF-SCORE:    0.00 PKD
ROOT
HETATM    1 NA   UNL     1      -9.102   4.897  70.252  1.00  0.00    -0.097 Na 
HETATM    2  C   UNL     2     -11.703   6.483  70.680  1.00  0.00    -0.436 C  
HETATM    3  C   UNL     2     -11.759   6.897  72.141  1.00  0.00    -0.327 C  
ENDROOT
BRANCH   3   4
HETATM    4  C   UNL     2     -11.880   8.411  72.268  1.00  0.00    -0.456 C  
BRANCH   4   5
HETATM    5  C   UNL     2     -11.369   9.122  71.018  1.00  0.00    -0.377 C  
BRANCH   5   6
HETATM    6  C   UNL     2      -9.863   9.350  71.115  1.00  0.00    -0.287 C  
BRANCH   6   7
HETATM    7  C   UNL     2      -9.292   9.849  69.793  1.00  0.00    -0.248 C  
BRANCH   7   8
HETATM    8  C   UNL     2     -10.415  10.271  68.849  1.00  0.00    -0.231 C  
BRANCH   8   9
HETATM    9  C   UNL     2     -10.324   9.518  67.527  1.00  0.00    -0.306 C  
BRANCH   9  10
HETATM   10  C   UNL     2     -10.775  10.400  66.365  1.00  0.00    -0.134 C  
BRANCH  10  11
HETATM   11  C   UNL     2     -11.080  11.813  66.852  1.00  0.00    -0.361 C  
BRANCH  11  12
HETATM   12  C   UNL     2     -12.094  12.502  65.946  1.00  0.00    -0.420 C  
BRANCH  12  13
HETATM   13  C   UNL     2     -12.196  13.988  66.276  1.00  0.00    -0.462 C  
BRANCH  13  14
HETATM   14  O   UNL     2     -10.891  14.566  66.380  1.00  0.00    -0.306 OA 
BRANCH  14  15
HETATM   15  C   UNL     2     -10.548  15.031  67.620  1.00  0.00    -0.267 C  
HETATM   16  O   UNL     2      -9.435  14.883  68.117  1.00  0.00    -0.194 OA 
BRANCH  15  17
HETATM   17  C   UNL     2     -11.733  15.573  68.334  1.00  0.00    -0.309 C  
HETATM   18  S   UNL     2     -11.876  14.854  69.929  1.00  0.00    -0.332 S  
HETATM   19  O   UNL     2     -12.021  13.424  69.671  1.00  0.00    -0.308 OA 
HETATM   20  O   UNL     2     -13.079  15.499  70.455  1.00  0.00    -0.342 OA 
HETATM   21  O   UNL     2     -10.640  15.238  70.611  1.00  0.00    -0.255 OA 
ENDBRANCH  15  17
ENDBRANCH  14  15
ENDBRANCH  13  14
ENDBRANCH  12  13
ENDBRANCH  11  12
ENDBRANCH  10  11
ENDBRANCH   9  10
ENDBRANCH   8   9
ENDBRANCH   7   8
ENDBRANCH   6   7
ENDBRANCH   5   6
ENDBRANCH   4   5
ENDBRANCH   3   4
TORSDOF 13
ENDMDL
MODEL      265
REMARK 921   NORMALIZED FREE ENERGY PREDICTED BY IDOCK:   -3.10 KCAL/MOL
REMARK 922        TOTAL FREE ENERGY PREDICTED BY IDOCK:   -7.03 KCAL/MOL
REMARK 923 INTER-LIGAND FREE ENERGY PREDICTED BY IDOCK:   -6.12 KCAL/MOL
REMARK 924 INTRA-LIGAND FREE ENERGY PREDICTED BY IDOCK:   -0.91 KCAL/MOL
REMARK 927      BINDING AFFINITY PREDICTED BY RF-SCORE:    0.00 PKD
ROOT
HETATM    1 NA   UNL     1      -5.509  15.200  72.296  1.00  0.00    -0.150 Na 
HETATM    2  C   UNL     2      -6.616  14.811  69.453  1.00  0.00    -0.142 C  
HETATM    3  C   UNL     2      -6.190  13.433  68.974  1.00  0.00    -0.092 C  
ENDROOT
BRANCH   3   4
HETATM    4  C   UNL     2      -7.406  12.598  68.587  1.00  0.00    -0.101 C  
BRANCH   4   5
HETATM    5  C   UNL     2      -7.240  11.969  67.207  1.00  0.00    -0.150 C  
BRANCH   5   6
HETATM    6  C   UNL     2      -7.821  10.557  67.194  1.00  0.00    -0.112 C  
BRANCH   6   7
HETATM    7  C   UNL     2      -9.201  10.532  66.549  1.00  0.00    -0.183 C  
BRANCH   7   8
HETATM    8  C   UNL     2     -10.206   9.830  67.459  1.00  0.00    -0.271 C  
BRANCH   8   9
HETATM    9  C   UNL     2     -11.346  10.769  67.835  1.00  0.00    -0.372 C  
BRANCH   9  10
HETATM   10  C   UNL     2     -10.930  11.706  68.966  1.00  0.00    -0.283 C  
BRANCH  10  11
HETATM   11  C   UNL     2     -11.367  13.136  68.666  1.00  0.00    -0.327 C  
BRANCH  11  12
HETATM   12  C   UNL     2     -10.750  13.641  67.367  1.00  0.00    -0.272 C  
BRANCH  12  13
HETATM   13  C   UNL     2     -11.376  14.967  66.948  1.00  0.00    -0.302 C  
BRANCH  13  14
HETATM   14  O   UNL     2     -10.624  15.560  65.885  1.00  0.00    -0.309 OA 
BRANCH  14  15
HETATM   15  C   UNL     2     -10.643  16.928  65.841  1.00  0.00    -0.233 C  
HETATM   16  O   UNL     2     -10.932  17.571  64.835  1.00  0.00    -0.887 OA 
BRANCH  15  17
HETATM   17  C   UNL     2     -10.109  17.510  67.099  1.00  0.00    -0.321 C  
HETATM   18  S   UNL     2      -9.438  19.106  66.805  1.00  0.00    -0.347 S  
HETATM   19  O   UNL     2      -8.373  18.877  65.832  1.00  0.00    -0.483 OA 
HETATM   20  O   UNL     2      -8.971  19.497  68.134  1.00  0.00    -0.314 OA 
HETATM   21  O   UNL     2     -10.570  19.889  66.310  1.00  0.00    -0.467 OA 
ENDBRANCH  15  17
ENDBRANCH  14  15
ENDBRANCH  13  14
ENDBRANCH  12  13
ENDBRANCH  11  12
ENDBRANCH  10  11
ENDBRANCH   9  10
ENDBRANCH   8   9
ENDBRANCH   7   8
ENDBRANCH   6   7
ENDBRANCH   5   6
ENDBRANCH   4   5
ENDBRANCH   3   4
TORSDOF 13
ENDMDL
MODEL      266
REMARK 921   NORMALIZED FREE ENERGY PREDICTED BY IDOCK:   -3.10 KCAL/MOL
REMARK 922        TOTAL FREE ENERGY PREDICTED BY IDOCK:   -7.02 KCAL/MOL
REMARK 923 INTER-LIGAND FREE ENERGY PREDICTED BY IDOCK:   -6.33 KCAL/MOL
REMARK 924 INTRA-LIGAND FREE ENERGY PREDICTED BY IDOCK:   -0.68 KCAL/MOL
REMARK 927      BINDING AFFINITY PREDICTED BY RF-SCORE:    0.00 PKD
ROOT
HETATM    1 NA   UNL     1      -9.901   7.094  69.331  1.00  0.00    -0.154 Na 
HETATM    2  C   UNL     2     -12.196   6.949  71.373  1.00  0.00    -0.418 C  
HETATM    3  C   UNL     2     -11.985   8.059  72.389  1.00  0.00    -0.405 C  
ENDROOT
BRANCH   3   4
HETATM    4  C   UNL     2     -13.201   8.978  72.443  1.00  0.00    -0.507 C  
BRANCH   4   5
HETATM    5  C   UNL     2     -13.400   9.726  71.128  1.00  0.00    -0.360 C  
BRANCH   5   6
HETATM    6  C   UNL     2     -12.579  11.013  71.120  1.00  0.00    -0.522 C  
BRANCH   6   7
HETATM    7  C   UNL     2     -11.598  11.036  69.953  1.00  0.00    -0.416 C  
BRANCH   7   8
HETATM    8  C   UNL     2     -12.020  12.077  68.920  1.00  0.00    -0.303 C  
BRANCH   8   9
HETATM    9  C   UNL     2     -11.486  13.456  69.288  1.00  0.00    -0.345 C  
BRANCH   9  10
HETATM   10  C   UNL     2     -12.135  14.539  68.430  1.00  0.00    -0.249 C  
BRANCH  10  11
HETATM   11  C   UNL     2     -11.073  15.345  67.689  1.00  0.00    -0.316 C  
BRANCH  11  12
HETATM   12  C   UNL     2      -9.670  14.875  68.053  1.00  0.00    -0.212 C  
BRANCH  12  13
HETATM   13  C   UNL     2      -9.000  14.196  66.863  1.00  0.00    -0.230 C  
BRANCH  13  14
HETATM   14  O   UNL     2      -9.968  13.882  65.857  1.00  0.00    -0.299 OA 
BRANCH  14  15
HETATM   15  C   UNL     2     -10.273  12.555  65.725  1.00  0.00    -0.270 C  
HETATM   16  O   UNL     2     -11.373  12.143  65.367  1.00  0.00    -0.324 OA 
BRANCH  15  17
HETATM   17  C   UNL     2      -9.167  11.700  66.230  1.00  0.00    -0.217 C  
HETATM   18  S   UNL     2      -9.513  10.004  65.933  1.00  0.00    -0.224 S  
HETATM   19  O   UNL     2     -10.753   9.755  66.664  1.00  0.00    -0.147 OA 
HETATM   20  O   UNL     2      -8.335   9.344  66.496  1.00  0.00    -0.117 OA 
HETATM   21  O   UNL     2      -9.621   9.906  64.478  1.00  0.00    -0.299 OA 
ENDBRANCH  15  17
ENDBRANCH  14  15
ENDBRANCH  13  14
ENDBRANCH  12  13
ENDBRANCH  11  12
ENDBRANCH  10  11
ENDBRANCH   9  10
ENDBRANCH   8   9
ENDBRANCH   7   8
ENDBRANCH   6   7
ENDBRANCH   5   6
ENDBRANCH   4   5
ENDBRANCH   3   4
TORSDOF 13
ENDMDL
MODEL      267
REMARK 921   NORMALIZED FREE ENERGY PREDICTED BY IDOCK:   -3.10 KCAL/MOL
REMARK 922        TOTAL FREE ENERGY PREDICTED BY IDOCK:   -7.01 KCAL/MOL
REMARK 923 INTER-LIGAND FREE ENERGY PREDICTED BY IDOCK:   -5.90 KCAL/MOL
REMARK 924 INTRA-LIGAND FREE ENERGY PREDICTED BY IDOCK:   -1.11 KCAL/MOL
REMARK 927      BINDING AFFINITY PREDICTED BY RF-SCORE:    0.00 PKD
ROOT
HETATM    1 NA   UNL     1     -13.669   8.819  73.796  1.00  0.00    -0.778 Na 
HETATM    2  C   UNL     2     -11.341   7.069  72.812  1.00  0.00    -0.256 C  
HETATM    3  C   UNL     2     -11.551   6.807  71.330  1.00  0.00    -0.350 C  
ENDROOT
BRANCH   3   4
HETATM    4  C   UNL     2     -10.347   7.280  70.523  1.00  0.00    -0.215 C  
BRANCH   4   5
HETATM    5  C   UNL     2     -10.662   8.550  69.737  1.00  0.00    -0.213 C  
BRANCH   5   6
HETATM    6  C   UNL     2     -10.448   9.782  70.612  1.00  0.00    -0.358 C  
BRANCH   6   7
HETATM    7  C   UNL     2     -11.773  10.337  71.121  1.00  0.00    -0.430 C  
BRANCH   7   8
HETATM    8  C   UNL     2     -12.264  11.464  70.217  1.00  0.00    -0.433 C  
BRANCH   8   9
HETATM    9  C   UNL     2     -12.508  12.737  71.019  1.00  0.00    -0.369 C  
BRANCH   9  10
HETATM   10  C   UNL     2     -12.142  13.975  70.203  1.00  0.00    -0.419 C  
BRANCH  10  11
HETATM   11  C   UNL     2     -11.625  13.575  68.826  1.00  0.00    -0.362 C  
BRANCH  11  12
HETATM   12  C   UNL     2     -10.388  14.381  68.445  1.00  0.00    -0.244 C  
BRANCH  12  13
HETATM   13  C   UNL     2      -9.382  13.512  67.699  1.00  0.00    -0.216 C  
BRANCH  13  14
HETATM   14  O   UNL     2      -9.689  12.126  67.880  1.00  0.00    -0.188 OA 
BRANCH  14  15
HETATM   15  C   UNL     2      -8.687  11.252  67.555  1.00  0.00    -0.138 C  
HETATM   16  O   UNL     2      -8.079  10.578  68.381  1.00  0.00    -0.109 OA 
BRANCH  15  17
HETATM   17  C   UNL     2      -8.330  11.360  66.117  1.00  0.00    -0.071 C  
HETATM   18  S   UNL     2      -9.078  10.066  65.196  1.00  0.00    -0.225 S  
HETATM   19  O   UNL     2      -8.539   8.844  65.786  1.00  0.00    -0.141 OA 
HETATM   20  O   UNL     2      -8.610  10.340  63.838  1.00  0.00    -0.168 OA 
HETATM   21  O   UNL     2     -10.514  10.266  65.390  1.00  0.00    -0.217 OA 
ENDBRANCH  15  17
ENDBRANCH  14  15
ENDBRANCH  13  14
ENDBRANCH  12  13
ENDBRANCH  11  12
ENDBRANCH  10  11
ENDBRANCH   9  10
ENDBRANCH   8   9
ENDBRANCH   7   8
ENDBRANCH   6   7
ENDBRANCH   5   6
ENDBRANCH   4   5
ENDBRANCH   3   4
TORSDOF 13
ENDMDL
MODEL      268
REMARK 921   NORMALIZED FREE ENERGY PREDICTED BY IDOCK:   -3.09 KCAL/MOL
REMARK 922        TOTAL FREE ENERGY PREDICTED BY IDOCK:   -7.01 KCAL/MOL
REMARK 923 INTER-LIGAND FREE ENERGY PREDICTED BY IDOCK:   -6.31 KCAL/MOL
REMARK 924 INTRA-LIGAND FREE ENERGY PREDICTED BY IDOCK:   -0.70 KCAL/MOL
REMARK 927      BINDING AFFINITY PREDICTED BY RF-SCORE:    0.00 PKD
ROOT
HETATM    1 NA   UNL     1      -7.732  17.045  65.407  1.00  0.00    -0.254 Na 
HETATM    2  C   UNL     2      -9.743  16.095  67.531  1.00  0.00    -0.233 C  
HETATM    3  C   UNL     2     -10.513  14.921  66.949  1.00  0.00    -0.280 C  
ENDROOT
BRANCH   3   4
HETATM    4  C   UNL     2     -10.370  13.690  67.838  1.00  0.00    -0.249 C  
BRANCH   4   5
HETATM    5  C   UNL     2     -11.702  13.295  68.469  1.00  0.00    -0.388 C  
BRANCH   5   6
HETATM    6  C   UNL     2     -11.863  11.777  68.463  1.00  0.00    -0.365 C  
BRANCH   6   7
HETATM    7  C   UNL     2     -11.416  11.168  69.787  1.00  0.00    -0.388 C  
BRANCH   7   8
HETATM    8  C   UNL     2     -12.533  11.257  70.823  1.00  0.00    -0.471 C  
BRANCH   8   9
HETATM    9  C   UNL     2     -12.522  10.039  71.739  1.00  0.00    -0.475 C  
BRANCH   9  10
HETATM   10  C   UNL     2     -11.201   9.284  71.627  1.00  0.00    -0.449 C  
BRANCH  10  11
HETATM   11  C   UNL     2     -11.321   7.897  72.249  1.00  0.00    -0.393 C  
BRANCH  11  12
HETATM   12  C   UNL     2     -11.672   6.849  71.199  1.00  0.00    -0.381 C  
BRANCH  12  13
HETATM   13  C   UNL     2     -11.018   7.180  69.862  1.00  0.00    -0.253 C  
BRANCH  13  14
HETATM   14  O   UNL     2     -11.302   6.160  68.901  1.00  0.00    -0.367 OA 
BRANCH  14  15
HETATM   15  C   UNL     2     -10.975   6.460  67.606  1.00  0.00    -0.349 C  
HETATM   16  O   UNL     2     -10.990   5.639  66.694  1.00  0.00    -0.263 OA 
BRANCH  15  17
HETATM   17  C   UNL     2     -10.446   7.844  67.497  1.00  0.00    -0.262 C  
HETATM   18  S   UNL     2      -8.782   7.827  66.936  1.00  0.00    -0.137 S  
HETATM   19  O   UNL     2      -8.065   7.063  67.954  1.00  0.00    -0.113 OA 
HETATM   20  O   UNL     2      -8.450   9.250  66.903  1.00  0.00    -0.125 OA 
HETATM   21  O   UNL     2      -8.850   7.193  65.620  1.00  0.00    -0.121 OA 
ENDBRANCH  15  17
ENDBRANCH  14  15
ENDBRANCH  13  14
ENDBRANCH  12  13
ENDBRANCH  11  12
ENDBRANCH  10  11
ENDBRANCH   9  10
ENDBRANCH   8   9
ENDBRANCH   7   8
ENDBRANCH   6   7
ENDBRANCH   5   6
ENDBRANCH   4   5
ENDBRANCH   3   4
TORSDOF 13
ENDMDL
MODEL      269
REMARK 921   NORMALIZED FREE ENERGY PREDICTED BY IDOCK:   -3.09 KCAL/MOL
REMARK 922        TOTAL FREE ENERGY PREDICTED BY IDOCK:   -7.00 KCAL/MOL
REMARK 923 INTER-LIGAND FREE ENERGY PREDICTED BY IDOCK:   -5.73 KCAL/MOL
REMARK 924 INTRA-LIGAND FREE ENERGY PREDICTED BY IDOCK:   -1.27 KCAL/MOL
REMARK 927      BINDING AFFINITY PREDICTED BY RF-SCORE:    0.00 PKD
ROOT
HETATM    1 NA   UNL     1      -7.162   7.188  63.845  1.00  0.00    -0.052 Na 
HETATM    2  C   UNL     2      -8.287   9.713  65.192  1.00  0.00    -0.142 C  
HETATM    3  C   UNL     2      -9.686   9.389  65.690  1.00  0.00    -0.336 C  
ENDROOT
BRANCH   3   4
HETATM    4  C   UNL     2      -9.794   9.637  67.191  1.00  0.00    -0.238 C  
BRANCH   4   5
HETATM    5  C   UNL     2     -10.414   8.445  67.914  1.00  0.00    -0.255 C  
BRANCH   5   6
HETATM    6  C   UNL     2      -9.442   7.891  68.954  1.00  0.00    -0.150 C  
BRANCH   6   7
HETATM    7  C   UNL     2     -10.029   6.683  69.673  1.00  0.00    -0.191 C  
BRANCH   7   8
HETATM    8  C   UNL     2     -11.479   6.948  70.070  1.00  0.00    -0.328 C  
BRANCH   8   9
HETATM    9  C   UNL     2     -11.553   7.648  71.422  1.00  0.00    -0.300 C  
BRANCH   9  10
HETATM   10  C   UNL     2     -12.441   8.888  71.346  1.00  0.00    -0.357 C  
BRANCH  10  11
HETATM   11  C   UNL     2     -11.616  10.118  70.981  1.00  0.00    -0.462 C  
BRANCH  11  12
HETATM   12  C   UNL     2     -12.301  10.940  69.895  1.00  0.00    -0.354 C  
BRANCH  12  13
HETATM   13  C   UNL     2     -11.803  12.381  69.911  1.00  0.00    -0.305 C  
BRANCH  13  14
HETATM   14  O   UNL     2     -11.808  12.925  68.588  1.00  0.00    -0.305 OA 
BRANCH  14  15
HETATM   15  C   UNL     2     -10.641  13.518  68.189  1.00  0.00    -0.245 C  
HETATM   16  O   UNL     2      -9.528  13.072  68.454  1.00  0.00    -0.215 OA 
BRANCH  15  17
HETATM   17  C   UNL     2     -10.901  14.835  67.554  1.00  0.00    -0.287 C  
HETATM   18  S   UNL     2     -10.737  16.130  68.729  1.00  0.00    -0.316 S  
HETATM   19  O   UNL     2     -11.739  15.824  69.746  1.00  0.00    -0.326 OA 
HETATM   20  O   UNL     2     -11.032  17.317  67.927  1.00  0.00    -0.336 OA 
HETATM   21  O   UNL     2      -9.349  16.037  69.179  1.00  0.00    -0.228 OA 
ENDBRANCH  15  17
ENDBRANCH  14  15
ENDBRANCH  13  14
ENDBRANCH  12  13
ENDBRANCH  11  12
ENDBRANCH  10  11
ENDBRANCH   9  10
ENDBRANCH   8   9
ENDBRANCH   7   8
ENDBRANCH   6   7
ENDBRANCH   5   6
ENDBRANCH   4   5
ENDBRANCH   3   4
TORSDOF 13
ENDMDL
MODEL      270
REMARK 921   NORMALIZED FREE ENERGY PREDICTED BY IDOCK:   -3.09 KCAL/MOL
REMARK 922        TOTAL FREE ENERGY PREDICTED BY IDOCK:   -7.00 KCAL/MOL
REMARK 923 INTER-LIGAND FREE ENERGY PREDICTED BY IDOCK:   -6.25 KCAL/MOL
REMARK 924 INTRA-LIGAND FREE ENERGY PREDICTED BY IDOCK:   -0.75 KCAL/MOL
REMARK 927      BINDING AFFINITY PREDICTED BY RF-SCORE:    0.00 PKD
ROOT
HETATM    1 NA   UNL     1      -6.308   7.853  72.606  1.00  0.00    -0.051 Na 
HETATM    2  C   UNL     2      -8.501   9.138  70.874  1.00  0.00    -0.251 C  
HETATM    3  C   UNL     2      -8.909   8.126  69.816  1.00  0.00    -0.143 C  
ENDROOT
BRANCH   3   4
HETATM    4  C   UNL     2     -10.404   7.837  69.896  1.00  0.00    -0.223 C  
BRANCH   4   5
HETATM    5  C   UNL     2     -10.760   7.059  71.159  1.00  0.00    -0.253 C  
BRANCH   5   6
HETATM    6  C   UNL     2     -12.062   7.585  71.758  1.00  0.00    -0.340 C  
BRANCH   6   7
HETATM    7  C   UNL     2     -11.918   9.034  72.210  1.00  0.00    -0.332 C  
BRANCH   7   8
HETATM    8  C   UNL     2     -13.040   9.890  71.630  1.00  0.00    -0.538 C  
BRANCH   8   9
HETATM    9  C   UNL     2     -12.493  10.884  70.611  1.00  0.00    -0.460 C  
BRANCH   9  10
HETATM   10  C   UNL     2     -12.424  12.289  71.203  1.00  0.00    -0.328 C  
BRANCH  10  11
HETATM   11  C   UNL     2     -12.659  13.339  70.122  1.00  0.00    -0.112 C  
BRANCH  11  12
HETATM   12  C   UNL     2     -12.891  14.717  70.732  1.00  0.00    -0.418 C  
BRANCH  12  13
HETATM   13  C   UNL     2     -12.373  15.814  69.807  1.00  0.00    -0.137 C  
BRANCH  13  14
HETATM   14  O   UNL     2     -11.877  15.247  68.590  1.00  0.00    -0.346 OA 
BRANCH  14  15
HETATM   15  C   UNL     2     -10.645  15.689  68.192  1.00  0.00    -0.274 C  
HETATM   16  O   UNL     2      -9.603  15.072  68.396  1.00  0.00    -0.200 OA 
BRANCH  15  17
HETATM   17  C   UNL     2     -10.724  17.069  67.645  1.00  0.00    -0.295 C  
HETATM   18  S   UNL     2      -9.912  17.164  66.091  1.00  0.00    -0.251 S  
HETATM   19  O   UNL     2      -8.531  16.786  66.381  1.00  0.00    -0.251 OA 
HETATM   20  O   UNL     2     -10.092  18.570  65.733  1.00  0.00    -0.537 OA 
HETATM   21  O   UNL     2     -10.645  16.227  65.241  1.00  0.00    -0.508 OA 
ENDBRANCH  15  17
ENDBRANCH  14  15
ENDBRANCH  13  14
ENDBRANCH  12  13
ENDBRANCH  11  12
ENDBRANCH  10  11
ENDBRANCH   9  10
ENDBRANCH   8   9
ENDBRANCH   7   8
ENDBRANCH   6   7
ENDBRANCH   5   6
ENDBRANCH   4   5
ENDBRANCH   3   4
TORSDOF 13
ENDMDL
MODEL      271
REMARK 921   NORMALIZED FREE ENERGY PREDICTED BY IDOCK:   -3.08 KCAL/MOL
REMARK 922        TOTAL FREE ENERGY PREDICTED BY IDOCK:   -6.99 KCAL/MOL
REMARK 923 INTER-LIGAND FREE ENERGY PREDICTED BY IDOCK:   -5.46 KCAL/MOL
REMARK 924 INTRA-LIGAND FREE ENERGY PREDICTED BY IDOCK:   -1.53 KCAL/MOL
REMARK 927      BINDING AFFINITY PREDICTED BY RF-SCORE:    0.00 PKD
ROOT
HETATM    1 NA   UNL     1      -5.300  15.660  68.731  1.00  0.00    -0.091 Na 
HETATM    2  C   UNL     2      -6.154  17.563  66.470  1.00  0.00    -0.248 C  
HETATM    3  C   UNL     2      -7.656  17.421  66.287  1.00  0.00    -0.348 C  
ENDROOT
BRANCH   3   4
HETATM    4  C   UNL     2      -8.349  18.768  66.458  1.00  0.00    -0.307 C  
BRANCH   4   5
HETATM    5  C   UNL     2      -9.480  18.692  67.480  1.00  0.00    -0.311 C  
BRANCH   5   6
HETATM    6  C   UNL     2      -9.368  17.410  68.301  1.00  0.00    -0.278 C  
BRANCH   6   7
HETATM    7  C   UNL     2     -10.743  16.865  68.668  1.00  0.00    -0.345 C  
BRANCH   7   8
HETATM    8  C   UNL     2     -11.024  15.568  67.916  1.00  0.00    -0.316 C  
BRANCH   8   9
HETATM    9  C   UNL     2      -9.838  14.615  68.014  1.00  0.00    -0.216 C  
BRANCH   9  10
HETATM   10  C   UNL     2      -9.385  14.164  66.627  1.00  0.00    -0.299 C  
BRANCH  10  11
HETATM   11  C   UNL     2     -10.293  14.748  65.550  1.00  0.00    -0.387 C  
BRANCH  11  12
HETATM   12  C   UNL     2     -10.651  13.701  64.502  1.00  0.00    -0.428 C  
BRANCH  12  13
HETATM   13  C   UNL     2     -11.514  12.599  65.108  1.00  0.00    -0.326 C  
BRANCH  13  14
HETATM   14  O   UNL     2     -10.791  11.365  65.151  1.00  0.00    -0.286 OA 
BRANCH  14  15
HETATM   15  C   UNL     2     -10.758  10.743  66.369  1.00  0.00    -0.163 C  
HETATM   16  O   UNL     2     -11.311  11.184  67.373  1.00  0.00    -0.377 OA 
BRANCH  15  17
HETATM   17  C   UNL     2      -9.839   9.576  66.347  1.00  0.00    -0.253 C  
HETATM   18  S   UNL     2      -8.328   9.965  67.153  1.00  0.00    -0.121 S  
HETATM   19  O   UNL     2      -7.786  11.083  66.385  1.00  0.00    -0.150 OA 
HETATM   20  O   UNL     2      -7.575   8.719  67.021  1.00  0.00    -0.087 OA 
HETATM   21  O   UNL     2      -8.722  10.289  68.523  1.00  0.00    -0.120 OA 
ENDBRANCH  15  17
ENDBRANCH  14  15
ENDBRANCH  13  14
ENDBRANCH  12  13
ENDBRANCH  11  12
ENDBRANCH  10  11
ENDBRANCH   9  10
ENDBRANCH   8   9
ENDBRANCH   7   8
ENDBRANCH   6   7
ENDBRANCH   5   6
ENDBRANCH   4   5
ENDBRANCH   3   4
TORSDOF 13
ENDMDL
MODEL      272
REMARK 921   NORMALIZED FREE ENERGY PREDICTED BY IDOCK:   -3.08 KCAL/MOL
REMARK 922        TOTAL FREE ENERGY PREDICTED BY IDOCK:   -6.98 KCAL/MOL
REMARK 923 INTER-LIGAND FREE ENERGY PREDICTED BY IDOCK:   -6.46 KCAL/MOL
REMARK 924 INTRA-LIGAND FREE ENERGY PREDICTED BY IDOCK:   -0.53 KCAL/MOL
REMARK 927      BINDING AFFINITY PREDICTED BY RF-SCORE:    0.00 PKD
ROOT
HETATM    1 NA   UNL     1     -10.863  20.384  70.546  1.00  0.00    -0.853 Na 
HETATM    2  C   UNL     2     -10.467  19.613  67.596  1.00  0.00    -0.579 C  
HETATM    3  C   UNL     2      -9.050  19.085  67.440  1.00  0.00    -0.325 C  
ENDROOT
BRANCH   3   4
HETATM    4  C   UNL     2      -9.062  17.671  66.869  1.00  0.00    -0.262 C  
BRANCH   4   5
HETATM    5  C   UNL     2     -10.485  17.166  66.650  1.00  0.00    -0.259 C  
BRANCH   5   6
HETATM    6  C   UNL     2     -10.484  15.654  66.437  1.00  0.00    -0.309 C  
BRANCH   6   7
HETATM    7  C   UNL     2     -11.291  14.942  67.517  1.00  0.00    -0.351 C  
BRANCH   7   8
HETATM    8  C   UNL     2     -10.361  14.293  68.539  1.00  0.00    -0.244 C  
BRANCH   8   9
HETATM    9  C   UNL     2      -9.465  13.254  67.876  1.00  0.00    -0.214 C  
BRANCH   9  10
HETATM   10  C   UNL     2      -9.961  11.840  68.169  1.00  0.00    -0.196 C  
BRANCH  10  11
HETATM   11  C   UNL     2     -10.234  11.087  66.870  1.00  0.00    -0.263 C  
BRANCH  11  12
HETATM   12  C   UNL     2     -10.035   9.586  67.050  1.00  0.00    -0.273 C  
BRANCH  12  13
HETATM   13  C   UNL     2     -10.600   9.121  68.388  1.00  0.00    -0.172 C  
BRANCH  13  14
HETATM   14  O   UNL     2      -9.908   7.953  68.842  1.00  0.00    -0.166 OA 
BRANCH  14  15
HETATM   15  C   UNL     2     -10.181   7.568  70.127  1.00  0.00    -0.206 C  
HETATM   16  O   UNL     2      -9.329   7.155  70.908  1.00  0.00    -0.159 OA 
BRANCH  15  17
HETATM   17  C   UNL     2     -11.645   7.557  70.381  1.00  0.00    -0.149 C  
HETATM   18  S   UNL     2     -12.042   8.583  71.749  1.00  0.00    -0.358 S  
HETATM   19  O   UNL     2     -11.305   7.999  72.866  1.00  0.00    -0.408 OA 
HETATM   20  O   UNL     2     -13.494   8.435  71.838  1.00  0.00    -0.340 OA 
HETATM   21  O   UNL     2     -11.597   9.916  71.344  1.00  0.00    -0.374 OA 
ENDBRANCH  15  17
ENDBRANCH  14  15
ENDBRANCH  13  14
ENDBRANCH  12  13
ENDBRANCH  11  12
ENDBRANCH  10  11
ENDBRANCH   9  10
ENDBRANCH   8   9
ENDBRANCH   7   8
ENDBRANCH   6   7
ENDBRANCH   5   6
ENDBRANCH   4   5
ENDBRANCH   3   4
TORSDOF 13
ENDMDL
MODEL      273
REMARK 921   NORMALIZED FREE ENERGY PREDICTED BY IDOCK:   -3.08 KCAL/MOL
REMARK 922        TOTAL FREE ENERGY PREDICTED BY IDOCK:   -6.98 KCAL/MOL
REMARK 923 INTER-LIGAND FREE ENERGY PREDICTED BY IDOCK:   -6.37 KCAL/MOL
REMARK 924 INTRA-LIGAND FREE ENERGY PREDICTED BY IDOCK:   -0.61 KCAL/MOL
REMARK 927      BINDING AFFINITY PREDICTED BY RF-SCORE:    0.00 PKD
ROOT
HETATM    1 NA   UNL     1     -13.860   9.937  73.285  1.00  0.00    -0.632 Na 
HETATM    2  C   UNL     2     -13.273  12.585  71.835  1.00  0.00    -0.495 C  
HETATM    3  C   UNL     2     -14.155  13.658  72.452  1.00  0.00    -0.586 C  
ENDROOT
BRANCH   3   4
HETATM    4  C   UNL     2     -13.309  14.809  72.986  1.00  0.00    -0.543 C  
BRANCH   4   5
HETATM    5  C   UNL     2     -12.864  15.746  71.867  1.00  0.00    -0.514 C  
BRANCH   5   6
HETATM    6  C   UNL     2     -11.348  15.690  71.700  1.00  0.00    -0.446 C  
BRANCH   6   7
HETATM    7  C   UNL     2     -10.962  15.238  70.296  1.00  0.00    -0.313 C  
BRANCH   7   8
HETATM    8  C   UNL     2     -10.892  16.432  69.349  1.00  0.00    -0.327 C  
BRANCH   8   9
HETATM    9  C   UNL     2      -9.526  16.515  68.678  1.00  0.00    -0.243 C  
BRANCH   9  10
HETATM   10  C   UNL     2      -9.666  16.561  67.159  1.00  0.00    -0.246 C  
BRANCH  10  11
HETATM   11  C   UNL     2      -8.919  15.397  66.516  1.00  0.00    -0.344 C  
BRANCH  11  12
HETATM   12  C   UNL     2      -8.713  14.258  67.509  1.00  0.00    -0.204 C  
BRANCH  12  13
HETATM   13  C   UNL     2      -9.439  12.999  67.049  1.00  0.00    -0.237 C  
BRANCH  13  14
HETATM   14  O   UNL     2      -8.697  11.832  67.416  1.00  0.00    -0.151 OA 
BRANCH  14  15
HETATM   15  C   UNL     2      -9.062  10.676  66.781  1.00  0.00    -0.152 C  
HETATM   16  O   UNL     2      -8.936   9.560  67.277  1.00  0.00    -0.130 OA 
BRANCH  15  17
HETATM   17  C   UNL     2      -9.461  10.943  65.375  1.00  0.00    -0.214 C  
HETATM   18  S   UNL     2      -8.530   9.946  64.269  1.00  0.00    -0.189 S  
HETATM   19  O   UNL     2      -7.143  10.336  64.510  1.00  0.00    -0.134 OA 
HETATM   20  O   UNL     2      -9.055  10.353  62.966  1.00  0.00    -0.209 OA 
HETATM   21  O   UNL     2      -8.863   8.574  64.651  1.00  0.00    -0.061 OA 
ENDBRANCH  15  17
ENDBRANCH  14  15
ENDBRANCH  13  14
ENDBRANCH  12  13
ENDBRANCH  11  12
ENDBRANCH  10  11
ENDBRANCH   9  10
ENDBRANCH   8   9
ENDBRANCH   7   8
ENDBRANCH   6   7
ENDBRANCH   5   6
ENDBRANCH   4   5
ENDBRANCH   3   4
TORSDOF 13
ENDMDL
MODEL      274
REMARK 921   NORMALIZED FREE ENERGY PREDICTED BY IDOCK:   -3.07 KCAL/MOL
REMARK 922        TOTAL FREE ENERGY PREDICTED BY IDOCK:   -6.97 KCAL/MOL
REMARK 923 INTER-LIGAND FREE ENERGY PREDICTED BY IDOCK:   -6.17 KCAL/MOL
REMARK 924 INTRA-LIGAND FREE ENERGY PREDICTED BY IDOCK:   -0.80 KCAL/MOL
REMARK 927      BINDING AFFINITY PREDICTED BY RF-SCORE:    0.00 PKD
ROOT
HETATM    1 NA   UNL     1     -10.137   7.911  65.570  1.00  0.00    -0.435 Na 
HETATM    2  C   UNL     2     -11.136   6.051  67.807  1.00  0.00    -0.216 C  
HETATM    3  C   UNL     2     -10.034   5.048  68.103  1.00  0.00    -0.190 C  
ENDROOT
BRANCH   3   4
HETATM    4  C   UNL     2      -9.630   5.109  69.572  1.00  0.00    -0.226 C  
BRANCH   4   5
HETATM    5  C   UNL     2     -10.639   5.899  70.400  1.00  0.00    -0.353 C  
BRANCH   5   6
HETATM    6  C   UNL     2      -9.917   6.864  71.337  1.00  0.00    -0.190 C  
BRANCH   6   7
HETATM    7  C   UNL     2      -8.913   7.725  70.580  1.00  0.00    -0.150 C  
BRANCH   7   8
HETATM    8  C   UNL     2      -9.629   8.840  69.822  1.00  0.00    -0.173 C  
BRANCH   8   9
HETATM    9  C   UNL     2     -10.360   9.769  70.784  1.00  0.00    -0.298 C  
BRANCH   9  10
HETATM   10  C   UNL     2     -11.353  10.655  70.037  1.00  0.00    -0.400 C  
BRANCH  10  11
HETATM   11  C   UNL     2     -10.648  11.440  68.935  1.00  0.00    -0.234 C  
BRANCH  11  12
HETATM   12  C   UNL     2     -11.194  11.072  67.560  1.00  0.00    -0.372 C  
BRANCH  12  13
HETATM   13  C   UNL     2     -10.419  11.790  66.459  1.00  0.00    -0.230 C  
BRANCH  13  14
HETATM   14  O   UNL     2     -10.897  13.129  66.306  1.00  0.00    -0.277 OA 
BRANCH  14  15
HETATM   15  C   UNL     2      -9.935  14.079  66.096  1.00  0.00    -0.312 C  
HETATM   16  O   UNL     2      -8.802  14.013  66.566  1.00  0.00    -0.159 OA 
BRANCH  15  17
HETATM   17  C   UNL     2     -10.493  15.256  65.383  1.00  0.00    -0.398 C  
HETATM   18  S   UNL     2     -10.143  16.735  66.263  1.00  0.00    -0.335 S  
HETATM   19  O   UNL     2     -10.788  16.545  67.559  1.00  0.00    -0.313 OA 
HETATM   20  O   UNL     2     -10.767  17.754  65.419  1.00  0.00    -0.626 OA 
HETATM   21  O   UNL     2      -8.682  16.797  66.301  1.00  0.00    -0.284 OA 
ENDBRANCH  15  17
ENDBRANCH  14  15
ENDBRANCH  13  14
ENDBRANCH  12  13
ENDBRANCH  11  12
ENDBRANCH  10  11
ENDBRANCH   9  10
ENDBRANCH   8   9
ENDBRANCH   7   8
ENDBRANCH   6   7
ENDBRANCH   5   6
ENDBRANCH   4   5
ENDBRANCH   3   4
TORSDOF 13
ENDMDL
MODEL      275
REMARK 921   NORMALIZED FREE ENERGY PREDICTED BY IDOCK:   -3.07 KCAL/MOL
REMARK 922        TOTAL FREE ENERGY PREDICTED BY IDOCK:   -6.97 KCAL/MOL
REMARK 923 INTER-LIGAND FREE ENERGY PREDICTED BY IDOCK:   -5.98 KCAL/MOL
REMARK 924 INTRA-LIGAND FREE ENERGY PREDICTED BY IDOCK:   -0.98 KCAL/MOL
REMARK 927      BINDING AFFINITY PREDICTED BY RF-SCORE:    0.00 PKD
ROOT
HETATM    1 NA   UNL     1      -8.765  12.285  66.467  1.00  0.00    -0.173 Na 
HETATM    2  C   UNL     2      -6.787  13.481  68.495  1.00  0.00    -0.099 C  
HETATM    3  C   UNL     2      -5.497  13.794  67.756  1.00  0.00    -0.047 C  
ENDROOT
BRANCH   3   4
HETATM    4  C   UNL     2      -5.137  15.269  67.901  1.00  0.00    -0.110 C  
BRANCH   4   5
HETATM    5  C   UNL     2      -5.342  15.760  69.331  1.00  0.00    -0.108 C  
BRANCH   5   6
HETATM    6  C   UNL     2      -5.557  17.271  69.348  1.00  0.00    -0.195 C  
BRANCH   6   7
HETATM    7  C   UNL     2      -7.032  17.622  69.193  1.00  0.00    -0.217 C  
BRANCH   7   8
HETATM    8  C   UNL     2      -7.192  18.953  68.462  1.00  0.00    -0.320 C  
BRANCH   8   9
HETATM    9  C   UNL     2      -7.445  18.729  66.976  1.00  0.00    -0.229 C  
BRANCH   9  10
HETATM   10  C   UNL     2      -8.287  19.860  66.390  1.00  0.00    -0.368 C  
BRANCH  10  11
HETATM   11  C   UNL     2      -9.763  19.477  66.371  1.00  0.00    -0.485 C  
BRANCH  11  12
HETATM   12  C   UNL     2      -9.971  18.057  66.886  1.00  0.00    -0.340 C  
BRANCH  12  13
HETATM   13  C   UNL     2     -10.747  17.221  65.875  1.00  0.00    -0.126 C  
BRANCH  13  14
HETATM   14  O   UNL     2     -10.347  15.849  65.949  1.00  0.00    -0.323 OA 
BRANCH  14  15
HETATM   15  C   UNL     2     -11.247  15.003  66.537  1.00  0.00    -0.312 C  
HETATM   16  O   UNL     2     -11.164  14.626  67.703  1.00  0.00    -0.295 OA 
BRANCH  15  17
HETATM   17  C   UNL     2     -12.217  14.480  65.541  1.00  0.00    -0.282 C  
HETATM   18  S   UNL     2     -11.748  12.874  65.007  1.00  0.00    -0.367 S  
HETATM   19  O   UNL     2     -10.427  13.062  64.413  1.00  0.00    -0.378 OA 
HETATM   20  O   UNL     2     -12.802  12.546  64.047  1.00  0.00    -0.707 OA 
HETATM   21  O   UNL     2     -11.770  12.066  66.225  1.00  0.00    -0.504 OA 
ENDBRANCH  15  17
ENDBRANCH  14  15
ENDBRANCH  13  14
ENDBRANCH  12  13
ENDBRANCH  11  12
ENDBRANCH  10  11
ENDBRANCH   9  10
ENDBRANCH   8   9
ENDBRANCH   7   8
ENDBRANCH   6   7
ENDBRANCH   5   6
ENDBRANCH   4   5
ENDBRANCH   3   4
TORSDOF 13
ENDMDL
MODEL      276
REMARK 921   NORMALIZED FREE ENERGY PREDICTED BY IDOCK:   -3.06 KCAL/MOL
REMARK 922        TOTAL FREE ENERGY PREDICTED BY IDOCK:   -6.95 KCAL/MOL
REMARK 923 INTER-LIGAND FREE ENERGY PREDICTED BY IDOCK:   -6.46 KCAL/MOL
REMARK 924 INTRA-LIGAND FREE ENERGY PREDICTED BY IDOCK:   -0.50 KCAL/MOL
REMARK 927      BINDING AFFINITY PREDICTED BY RF-SCORE:    0.00 PKD
ROOT
HETATM    1 NA   UNL     1     -10.431  15.526  64.132  1.00  0.00    -0.552 Na 
HETATM    2  C   UNL     2      -8.311  16.571  66.099  1.00  0.00    -0.305 C  
HETATM    3  C   UNL     2      -9.025  17.396  67.156  1.00  0.00    -0.248 C  
ENDROOT
BRANCH   3   4
HETATM    4  C   UNL     2      -8.743  16.847  68.551  1.00  0.00    -0.251 C  
BRANCH   4   5
HETATM    5  C   UNL     2      -9.709  15.725  68.919  1.00  0.00    -0.225 C  
BRANCH   5   6
HETATM    6  C   UNL     2     -11.063  15.951  68.252  1.00  0.00    -0.345 C  
BRANCH   6   7
HETATM    7  C   UNL     2     -11.880  14.665  68.208  1.00  0.00    -0.333 C  
BRANCH   7   8
HETATM    8  C   UNL     2     -11.851  14.059  66.807  1.00  0.00    -0.450 C  
BRANCH   8   9
HETATM    9  C   UNL     2     -10.822  12.938  66.721  1.00  0.00    -0.288 C  
BRANCH   9  10
HETATM   10  C   UNL     2     -11.501  11.592  66.481  1.00  0.00    -0.260 C  
BRANCH  10  11
HETATM   11  C   UNL     2     -11.059  10.574  67.527  1.00  0.00    -0.358 C  
BRANCH  11  12
HETATM   12  C   UNL     2     -11.627  10.912  68.900  1.00  0.00    -0.378 C  
BRANCH  12  13
HETATM   13  C   UNL     2     -10.752  10.333  70.007  1.00  0.00    -0.292 C  
BRANCH  13  14
HETATM   14  O   UNL     2     -11.547   9.589  70.935  1.00  0.00    -0.282 OA 
BRANCH  14  15
HETATM   15  C   UNL     2     -10.858   8.734  71.750  1.00  0.00    -0.345 C  
HETATM   16  O   UNL     2      -9.675   8.879  72.043  1.00  0.00    -0.316 OA 
BRANCH  15  17
HETATM   17  C   UNL     2     -11.676   7.539  72.084  1.00  0.00    -0.303 C  
HETATM   18  S   UNL     2     -10.657   6.240  72.682  1.00  0.00    -0.229 S  
HETATM   19  O   UNL     2      -9.739   5.964  71.580  1.00  0.00    -0.159 OA 
HETATM   20  O   UNL     2     -11.628   5.178  72.942  1.00  0.00    -0.297 OA 
HETATM   21  O   UNL     2     -10.033   6.793  73.884  1.00  0.00    -0.243 OA 
ENDBRANCH  15  17
ENDBRANCH  14  15
ENDBRANCH  13  14
ENDBRANCH  12  13
ENDBRANCH  11  12
ENDBRANCH  10  11
ENDBRANCH   9  10
ENDBRANCH   8   9
ENDBRANCH   7   8
ENDBRANCH   6   7
ENDBRANCH   5   6
ENDBRANCH   4   5
ENDBRANCH   3   4
TORSDOF 13
ENDMDL
MODEL      277
REMARK 921   NORMALIZED FREE ENERGY PREDICTED BY IDOCK:   -3.06 KCAL/MOL
REMARK 922        TOTAL FREE ENERGY PREDICTED BY IDOCK:   -6.95 KCAL/MOL
REMARK 923 INTER-LIGAND FREE ENERGY PREDICTED BY IDOCK:   -5.75 KCAL/MOL
REMARK 924 INTRA-LIGAND FREE ENERGY PREDICTED BY IDOCK:   -1.20 KCAL/MOL
REMARK 927      BINDING AFFINITY PREDICTED BY RF-SCORE:    0.00 PKD
ROOT
HETATM    1 NA   UNL     1     -10.894  15.712  67.979  1.00  0.00    -0.244 Na 
HETATM    2  C   UNL     2     -12.415  13.754  66.159  1.00  0.00    -0.466 C  
HETATM    3  C   UNL     2     -12.571  14.412  64.798  1.00  0.00    -0.282 C  
ENDROOT
BRANCH   3   4
HETATM    4  C   UNL     2     -11.962  13.539  63.705  1.00  0.00    -0.475 C  
BRANCH   4   5
HETATM    5  C   UNL     2     -12.237  12.058  63.951  1.00  0.00    -0.555 C  
BRANCH   5   6
HETATM    6  C   UNL     2     -10.947  11.251  63.825  1.00  0.00    -0.381 C  
BRANCH   6   7
HETATM    7  C   UNL     2      -9.747  12.041  64.335  1.00  0.00    -0.097 C  
BRANCH   7   8
HETATM    8  C   UNL     2      -9.358  11.579  65.736  1.00  0.00    -0.238 C  
BRANCH   8   9
HETATM    9  C   UNL     2     -10.175  10.362  66.154  1.00  0.00    -0.288 C  
BRANCH   9  10
HETATM   10  C   UNL     2     -10.923  10.628  67.458  1.00  0.00    -0.371 C  
BRANCH  10  11
HETATM   11  C   UNL     2     -10.652   9.519  68.468  1.00  0.00    -0.247 C  
BRANCH  11  12
HETATM   12  C   UNL     2      -9.913  10.053  69.689  1.00  0.00    -0.263 C  
BRANCH  12  13
HETATM   13  C   UNL     2     -10.691   9.758  70.967  1.00  0.00    -0.272 C  
BRANCH  13  14
HETATM   14  O   UNL     2      -9.950   8.871  71.810  1.00  0.00    -0.300 OA 
BRANCH  14  15
HETATM   15  C   UNL     2     -10.493   7.626  71.980  1.00  0.00    -0.213 C  
HETATM   16  O   UNL     2     -11.699   7.419  72.077  1.00  0.00    -0.274 OA 
BRANCH  15  17
HETATM   17  C   UNL     2      -9.435   6.607  72.198  1.00  0.00    -0.144 C  
HETATM   18  S   UNL     2      -9.103   5.733  70.712  1.00  0.00    -0.149 S  
HETATM   19  O   UNL     2     -10.377   5.109  70.367  1.00  0.00    -0.266 OA 
HETATM   20  O   UNL     2      -8.062   4.794  71.129  1.00  0.00    -0.088 OA 
HETATM   21  O   UNL     2      -8.646   6.763  69.780  1.00  0.00    -0.138 OA 
ENDBRANCH  15  17
ENDBRANCH  14  15
ENDBRANCH  13  14
ENDBRANCH  12  13
ENDBRANCH  11  12
ENDBRANCH  10  11
ENDBRANCH   9  10
ENDBRANCH   8   9
ENDBRANCH   7   8
ENDBRANCH   6   7
ENDBRANCH   5   6
ENDBRANCH   4   5
ENDBRANCH   3   4
TORSDOF 13
ENDMDL
MODEL      278
REMARK 921   NORMALIZED FREE ENERGY PREDICTED BY IDOCK:   -3.05 KCAL/MOL
REMARK 922        TOTAL FREE ENERGY PREDICTED BY IDOCK:   -6.93 KCAL/MOL
REMARK 923 INTER-LIGAND FREE ENERGY PREDICTED BY IDOCK:   -6.11 KCAL/MOL
REMARK 924 INTRA-LIGAND FREE ENERGY PREDICTED BY IDOCK:   -0.82 KCAL/MOL
REMARK 927      BINDING AFFINITY PREDICTED BY RF-SCORE:    0.00 PKD
ROOT
HETATM    1 NA   UNL     1     -10.795  20.502  70.385  1.00  0.00    -0.848 Na 
HETATM    2  C   UNL     2     -10.498  20.064  67.355  1.00  0.00    -0.490 C  
HETATM    3  C   UNL     2      -9.067  19.630  67.087  1.00  0.00    -0.393 C  
ENDROOT
BRANCH   3   4
HETATM    4  C   UNL     2      -9.038  18.284  66.370  1.00  0.00    -0.260 C  
BRANCH   4   5
HETATM    5  C   UNL     2     -10.429  17.663  66.285  1.00  0.00    -0.292 C  
BRANCH   5   6
HETATM    6  C   UNL     2     -10.412  16.450  65.359  1.00  0.00    -0.333 C  
BRANCH   6   7
HETATM    7  C   UNL     2     -10.015  15.184  66.110  1.00  0.00    -0.317 C  
BRANCH   7   8
HETATM    8  C   UNL     2     -10.821  15.051  67.399  1.00  0.00    -0.305 C  
BRANCH   8   9
HETATM    9  C   UNL     2     -11.789  13.876  67.315  1.00  0.00    -0.442 C  
BRANCH   9  10
HETATM   10  C   UNL     2     -11.991  13.238  68.688  1.00  0.00    -0.345 C  
BRANCH  10  11
HETATM   11  C   UNL     2     -11.698  11.742  68.633  1.00  0.00    -0.389 C  
BRANCH  11  12
HETATM   12  C   UNL     2     -10.201  11.477  68.523  1.00  0.00    -0.219 C  
BRANCH  12  13
HETATM   13  C   UNL     2      -9.936  10.135  67.849  1.00  0.00    -0.162 C  
BRANCH  13  14
HETATM   14  O   UNL     2     -10.857   9.148  68.323  1.00  0.00    -0.163 OA 
BRANCH  14  15
HETATM   15  C   UNL     2     -10.371   8.298  69.278  1.00  0.00    -0.218 C  
HETATM   16  O   UNL     2     -10.871   8.170  70.392  1.00  0.00    -0.231 OA 
BRANCH  15  17
HETATM   17  C   UNL     2      -9.082   7.695  68.851  1.00  0.00    -0.140 C  
HETATM   18  S   UNL     2      -9.352   6.135  68.092  1.00  0.00    -0.114 S  
HETATM   19  O   UNL     2      -9.993   5.333  69.131  1.00  0.00    -0.170 OA 
HETATM   20  O   UNL     2      -7.993   5.713  67.755  1.00  0.00    -0.097 OA 
HETATM   21  O   UNL     2     -10.193   6.435  66.934  1.00  0.00    -0.179 OA 
ENDBRANCH  15  17
ENDBRANCH  14  15
ENDBRANCH  13  14
ENDBRANCH  12  13
ENDBRANCH  11  12
ENDBRANCH  10  11
ENDBRANCH   9  10
ENDBRANCH   8   9
ENDBRANCH   7   8
ENDBRANCH   6   7
ENDBRANCH   5   6
ENDBRANCH   4   5
ENDBRANCH   3   4
TORSDOF 13
ENDMDL
MODEL      279
REMARK 921   NORMALIZED FREE ENERGY PREDICTED BY IDOCK:   -3.05 KCAL/MOL
REMARK 922        TOTAL FREE ENERGY PREDICTED BY IDOCK:   -6.93 KCAL/MOL
REMARK 923 INTER-LIGAND FREE ENERGY PREDICTED BY IDOCK:   -5.96 KCAL/MOL
REMARK 924 INTRA-LIGAND FREE ENERGY PREDICTED BY IDOCK:   -0.97 KCAL/MOL
REMARK 927      BINDING AFFINITY PREDICTED BY RF-SCORE:    0.00 PKD
ROOT
HETATM    1 NA   UNL     1      -7.390   5.776  63.531  1.00  0.00    -0.044 Na 
HETATM    2  C   UNL     2      -7.558   8.819  63.115  1.00  0.00    -0.109 C  
HETATM    3  C   UNL     2      -8.938   9.273  63.560  1.00  0.00    -0.069 C  
ENDROOT
BRANCH   3   4
HETATM    4  C   UNL     2      -8.831  10.337  64.646  1.00  0.00    -0.220 C  
BRANCH   4   5
HETATM    5  C   UNL     2      -9.442   9.862  65.961  1.00  0.00    -0.258 C  
BRANCH   5   6
HETATM    6  C   UNL     2      -8.441  10.026  67.101  1.00  0.00    -0.125 C  
BRANCH   6   7
HETATM    7  C   UNL     2      -8.772   9.101  68.267  1.00  0.00    -0.129 C  
BRANCH   7   8
HETATM    8  C   UNL     2     -10.274   9.095  68.536  1.00  0.00    -0.223 C  
BRANCH   8   9
HETATM    9  C   UNL     2     -10.612   9.955  69.749  1.00  0.00    -0.296 C  
BRANCH   9  10
HETATM   10  C   UNL     2     -11.799  10.869  69.455  1.00  0.00    -0.400 C  
BRANCH  10  11
HETATM   11  C   UNL     2     -11.318  12.234  68.973  1.00  0.00    -0.333 C  
BRANCH  11  12
HETATM   12  C   UNL     2     -11.782  12.511  67.547  1.00  0.00    -0.439 C  
BRANCH  12  13
HETATM   13  C   UNL     2     -11.945  14.009  67.311  1.00  0.00    -0.413 C  
BRANCH  13  14
HETATM   14  O   UNL     2     -12.017  14.288  65.910  1.00  0.00    -0.375 OA 
BRANCH  14  15
HETATM   15  C   UNL     2     -10.878  14.801  65.351  1.00  0.00    -0.363 C  
HETATM   16  O   UNL     2      -9.796  14.221  65.361  1.00  0.00    -0.313 OA 
BRANCH  15  17
HETATM   17  C   UNL     2     -11.089  16.199  64.896  1.00  0.00    -0.325 C  
HETATM   18  S   UNL     2     -10.257  17.326  65.955  1.00  0.00    -0.189 S  
HETATM   19  O   UNL     2     -10.856  17.099  67.267  1.00  0.00    -0.251 OA 
HETATM   20  O   UNL     2     -10.587  18.618  65.355  1.00  0.00    -0.572 OA 
HETATM   21  O   UNL     2      -8.847  16.953  65.845  1.00  0.00    -0.516 OA 
ENDBRANCH  15  17
ENDBRANCH  14  15
ENDBRANCH  13  14
ENDBRANCH  12  13
ENDBRANCH  11  12
ENDBRANCH  10  11
ENDBRANCH   9  10
ENDBRANCH   8   9
ENDBRANCH   7   8
ENDBRANCH   6   7
ENDBRANCH   5   6
ENDBRANCH   4   5
ENDBRANCH   3   4
TORSDOF 13
ENDMDL
MODEL      280
REMARK 921   NORMALIZED FREE ENERGY PREDICTED BY IDOCK:   -3.04 KCAL/MOL
REMARK 922        TOTAL FREE ENERGY PREDICTED BY IDOCK:   -6.92 KCAL/MOL
REMARK 923 INTER-LIGAND FREE ENERGY PREDICTED BY IDOCK:   -5.62 KCAL/MOL
REMARK 924 INTRA-LIGAND FREE ENERGY PREDICTED BY IDOCK:   -1.30 KCAL/MOL
REMARK 927      BINDING AFFINITY PREDICTED BY RF-SCORE:    0.00 PKD
ROOT
HETATM    1 NA   UNL     1     -12.178  10.230  67.966  1.00  0.00    -0.471 Na 
HETATM    2  C   UNL     2     -11.273  12.665  66.321  1.00  0.00    -0.354 C  
HETATM    3  C   UNL     2     -12.154  13.840  66.708  1.00  0.00    -0.460 C  
ENDROOT
BRANCH   3   4
HETATM    4  C   UNL     2     -11.309  15.005  67.213  1.00  0.00    -0.337 C  
BRANCH   4   5
HETATM    5  C   UNL     2     -11.781  15.490  68.581  1.00  0.00    -0.363 C  
BRANCH   5   6
HETATM    6  C   UNL     2     -11.133  14.663  69.689  1.00  0.00    -0.284 C  
BRANCH   6   7
HETATM    7  C   UNL     2     -12.159  13.782  70.393  1.00  0.00    -0.421 C  
BRANCH   7   8
HETATM    8  C   UNL     2     -11.843  12.306  70.166  1.00  0.00    -0.352 C  
BRANCH   8   9
HETATM    9  C   UNL     2     -12.986  11.425  70.657  1.00  0.00    -0.071 C  
BRANCH   9  10
HETATM   10  C   UNL     2     -12.672  10.842  72.033  1.00  0.00    -0.247 C  
BRANCH  10  11
HETATM   11  C   UNL     2     -12.630   9.318  71.973  1.00  0.00    -0.465 C  
BRANCH  11  12
HETATM   12  C   UNL     2     -11.207   8.814  71.757  1.00  0.00    -0.410 C  
BRANCH  12  13
HETATM   13  C   UNL     2     -11.039   8.253  70.349  1.00  0.00    -0.235 C  
BRANCH  13  14
HETATM   14  O   UNL     2     -10.185   9.099  69.573  1.00  0.00    -0.190 OA 
BRANCH  14  15
HETATM   15  C   UNL     2      -9.803   8.599  68.358  1.00  0.00    -0.172 C  
HETATM   16  O   UNL     2     -10.592   8.153  67.529  1.00  0.00    -0.253 OA 
BRANCH  15  17
HETATM   17  C   UNL     2      -8.324   8.513  68.257  1.00  0.00    -0.124 C  
HETATM   18  S   UNL     2      -7.799   8.810  66.608  1.00  0.00    -0.100 S  
HETATM   19  O   UNL     2      -8.445   7.758  65.828  1.00  0.00    -0.133 OA 
HETATM   20  O   UNL     2      -6.346   8.678  66.716  1.00  0.00    -0.057 OA 
HETATM   21  O   UNL     2      -8.261  10.167  66.320  1.00  0.00    -0.121 OA 
ENDBRANCH  15  17
ENDBRANCH  14  15
ENDBRANCH  13  14
ENDBRANCH  12  13
ENDBRANCH  11  12
ENDBRANCH  10  11
ENDBRANCH   9  10
ENDBRANCH   8   9
ENDBRANCH   7   8
ENDBRANCH   6   7
ENDBRANCH   5   6
ENDBRANCH   4   5
ENDBRANCH   3   4
TORSDOF 13
ENDMDL
MODEL      281
REMARK 921   NORMALIZED FREE ENERGY PREDICTED BY IDOCK:   -3.04 KCAL/MOL
REMARK 922        TOTAL FREE ENERGY PREDICTED BY IDOCK:   -6.91 KCAL/MOL
REMARK 923 INTER-LIGAND FREE ENERGY PREDICTED BY IDOCK:   -5.75 KCAL/MOL
REMARK 924 INTRA-LIGAND FREE ENERGY PREDICTED BY IDOCK:   -1.15 KCAL/MOL
REMARK 927      BINDING AFFINITY PREDICTED BY RF-SCORE:    0.00 PKD
ROOT
HETATM    1 NA   UNL     1      -5.523   9.349  69.320  1.00  0.00    -0.034 Na 
HETATM    2  C   UNL     2      -7.666  11.379  68.454  1.00  0.00    -0.127 C  
HETATM    3  C   UNL     2      -7.865  11.232  66.954  1.00  0.00    -0.156 C  
ENDROOT
BRANCH   3   4
HETATM    4  C   UNL     2      -9.323  10.920  66.633  1.00  0.00    -0.191 C  
BRANCH   4   5
HETATM    5  C   UNL     2      -9.968  10.067  67.721  1.00  0.00    -0.203 C  
BRANCH   5   6
HETATM    6  C   UNL     2     -11.340  10.626  68.090  1.00  0.00    -0.354 C  
BRANCH   6   7
HETATM    7  C   UNL     2     -11.234  12.054  68.615  1.00  0.00    -0.309 C  
BRANCH   7   8
HETATM    8  C   UNL     2     -11.682  12.123  70.072  1.00  0.00    -0.330 C  
BRANCH   8   9
HETATM    9  C   UNL     2     -12.110  10.750  70.575  1.00  0.00    -0.459 C  
BRANCH   9  10
HETATM   10  C   UNL     2     -13.160  10.875  71.676  1.00  0.00    -0.538 C  
BRANCH  10  11
HETATM   11  C   UNL     2     -13.301   9.560  72.436  1.00  0.00    -0.469 C  
BRANCH  11  12
HETATM   12  C   UNL     2     -13.950   8.489  71.567  1.00  0.00    -0.410 C  
BRANCH  12  13
HETATM   13  C   UNL     2     -13.312   7.126  71.818  1.00  0.00    -0.283 C  
BRANCH  13  14
HETATM   14  O   UNL     2     -12.515   6.735  70.697  1.00  0.00    -0.320 OA 
BRANCH  14  15
HETATM   15  C   UNL     2     -11.201   6.468  70.971  1.00  0.00    -0.309 C  
HETATM   16  O   UNL     2     -10.828   5.514  71.648  1.00  0.00    -0.245 OA 
BRANCH  15  17
HETATM   17  C   UNL     2     -10.322   7.566  70.492  1.00  0.00    -0.215 C  
HETATM   18  S   UNL     2      -9.264   8.117  71.780  1.00  0.00    -0.194 S  
HETATM   19  O   UNL     2     -10.175   8.583  72.823  1.00  0.00    -0.256 OA 
HETATM   20  O   UNL     2      -8.502   9.178  71.124  1.00  0.00    -0.239 OA 
HETATM   21  O   UNL     2      -8.475   6.937  72.131  1.00  0.00    -0.113 OA 
ENDBRANCH  15  17
ENDBRANCH  14  15
ENDBRANCH  13  14
ENDBRANCH  12  13
ENDBRANCH  11  12
ENDBRANCH  10  11
ENDBRANCH   9  10
ENDBRANCH   8   9
ENDBRANCH   7   8
ENDBRANCH   6   7
ENDBRANCH   5   6
ENDBRANCH   4   5
ENDBRANCH   3   4
TORSDOF 13
ENDMDL
MODEL      282
REMARK 921   NORMALIZED FREE ENERGY PREDICTED BY IDOCK:   -3.03 KCAL/MOL
REMARK 922        TOTAL FREE ENERGY PREDICTED BY IDOCK:   -6.90 KCAL/MOL
REMARK 923 INTER-LIGAND FREE ENERGY PREDICTED BY IDOCK:   -6.14 KCAL/MOL
REMARK 924 INTRA-LIGAND FREE ENERGY PREDICTED BY IDOCK:   -0.76 KCAL/MOL
REMARK 927      BINDING AFFINITY PREDICTED BY RF-SCORE:    0.00 PKD
ROOT
HETATM    1 NA   UNL     1      -5.824  16.010  68.634  1.00  0.00    -0.096 Na 
HETATM    2  C   UNL     2      -7.359  17.298  66.301  1.00  0.00    -0.342 C  
HETATM    3  C   UNL     2      -8.798  16.816  66.369  1.00  0.00    -0.331 C  
ENDROOT
BRANCH   3   4
HETATM    4  C   UNL     2      -9.758  17.996  66.466  1.00  0.00    -0.338 C  
BRANCH   4   5
HETATM    5  C   UNL     2     -10.763  17.812  67.599  1.00  0.00    -0.330 C  
BRANCH   5   6
HETATM    6  C   UNL     2     -10.283  16.730  68.563  1.00  0.00    -0.298 C  
BRANCH   6   7
HETATM    7  C   UNL     2     -11.452  16.083  69.296  1.00  0.00    -0.350 C  
BRANCH   7   8
HETATM    8  C   UNL     2     -11.550  14.601  68.947  1.00  0.00    -0.340 C  
BRANCH   8   9
HETATM    9  C   UNL     2     -10.247  14.100  68.334  1.00  0.00    -0.247 C  
BRANCH   9  10
HETATM   10  C   UNL     2     -10.516  13.008  67.301  1.00  0.00    -0.238 C  
BRANCH  10  11
HETATM   11  C   UNL     2     -11.684  12.131  67.739  1.00  0.00    -0.390 C  
BRANCH  11  12
HETATM   12  C   UNL     2     -11.259  10.673  67.874  1.00  0.00    -0.376 C  
BRANCH  12  13
HETATM   13  C   UNL     2     -11.111  10.284  69.341  1.00  0.00    -0.252 C  
BRANCH  13  14
HETATM   14  O   UNL     2     -10.995   8.864  69.471  1.00  0.00    -0.195 OA 
BRANCH  14  15
HETATM   15  C   UNL     2     -11.098   8.378  70.746  1.00  0.00    -0.258 C  
HETATM   16  O   UNL     2     -11.983   7.609  71.111  1.00  0.00    -0.296 OA 
BRANCH  15  17
HETATM   17  C   UNL     2     -10.114   9.031  71.648  1.00  0.00    -0.335 C  
HETATM   18  S   UNL     2      -9.401   7.855  72.740  1.00  0.00    -0.265 S  
HETATM   19  O   UNL     2     -10.536   7.324  73.490  1.00  0.00    -0.368 OA 
HETATM   20  O   UNL     2      -8.486   8.678  73.529  1.00  0.00    -0.370 OA 
HETATM   21  O   UNL     2      -8.739   6.895  71.857  1.00  0.00    -0.126 OA 
ENDBRANCH  15  17
ENDBRANCH  14  15
ENDBRANCH  13  14
ENDBRANCH  12  13
ENDBRANCH  11  12
ENDBRANCH  10  11
ENDBRANCH   9  10
ENDBRANCH   8   9
ENDBRANCH   7   8
ENDBRANCH   6   7
ENDBRANCH   5   6
ENDBRANCH   4   5
ENDBRANCH   3   4
TORSDOF 13
ENDMDL
MODEL      283
REMARK 921   NORMALIZED FREE ENERGY PREDICTED BY IDOCK:   -3.02 KCAL/MOL
REMARK 922        TOTAL FREE ENERGY PREDICTED BY IDOCK:   -6.87 KCAL/MOL
REMARK 923 INTER-LIGAND FREE ENERGY PREDICTED BY IDOCK:   -5.26 KCAL/MOL
REMARK 924 INTRA-LIGAND FREE ENERGY PREDICTED BY IDOCK:   -1.61 KCAL/MOL
REMARK 927      BINDING AFFINITY PREDICTED BY RF-SCORE:    0.00 PKD
ROOT
HETATM    1 NA   UNL     1      -7.594  12.434  69.897  1.00  0.00    -0.331 Na 
HETATM    2  C   UNL     2      -5.550  14.733  69.871  1.00  0.00    -0.105 C  
HETATM    3  C   UNL     2      -5.958  15.704  68.776  1.00  0.00    -0.100 C  
ENDROOT
BRANCH   3   4
HETATM    4  C   UNL     2      -6.168  17.102  69.346  1.00  0.00    -0.234 C  
BRANCH   4   5
HETATM    5  C   UNL     2      -7.123  17.923  68.484  1.00  0.00    -0.254 C  
BRANCH   5   6
HETATM    6  C   UNL     2      -8.114  17.007  67.771  1.00  0.00    -0.196 C  
BRANCH   6   7
HETATM    7  C   UNL     2      -9.233  17.806  67.113  1.00  0.00    -0.253 C  
BRANCH   7   8
HETATM    8  C   UNL     2     -10.596  17.236  67.495  1.00  0.00    -0.329 C  
BRANCH   8   9
HETATM    9  C   UNL     2     -10.503  15.737  67.757  1.00  0.00    -0.283 C  
BRANCH   9  10
HETATM   10  C   UNL     2     -11.447  14.964  66.840  1.00  0.00    -0.318 C  
BRANCH  10  11
HETATM   11  C   UNL     2     -11.152  15.279  65.378  1.00  0.00    -0.351 C  
BRANCH  11  12
HETATM   12  C   UNL     2     -10.302  14.187  64.738  1.00  0.00    -0.387 C  
BRANCH  12  13
HETATM   13  C   UNL     2     -10.965  12.823  64.894  1.00  0.00    -0.294 C  
BRANCH  13  14
HETATM   14  O   UNL     2      -9.983  11.819  65.167  1.00  0.00    -0.244 OA 
BRANCH  14  15
HETATM   15  C   UNL     2     -10.403  10.780  65.952  1.00  0.00    -0.238 C  
HETATM   16  O   UNL     2     -10.202   9.600  65.681  1.00  0.00    -0.253 OA 
BRANCH  15  17
HETATM   17  C   UNL     2     -11.264  11.264  67.062  1.00  0.00    -0.255 C  
HETATM   18  S   UNL     2     -10.335  11.411  68.545  1.00  0.00    -0.211 S  
HETATM   19  O   UNL     2      -9.849  10.058  68.802  1.00  0.00    -0.156 OA 
HETATM   20  O   UNL     2     -11.341  11.883  69.496  1.00  0.00    -0.263 OA 
HETATM   21  O   UNL     2      -9.298  12.392  68.228  1.00  0.00    -0.207 OA 
ENDBRANCH  15  17
ENDBRANCH  14  15
ENDBRANCH  13  14
ENDBRANCH  12  13
ENDBRANCH  11  12
ENDBRANCH  10  11
ENDBRANCH   9  10
ENDBRANCH   8   9
ENDBRANCH   7   8
ENDBRANCH   6   7
ENDBRANCH   5   6
ENDBRANCH   4   5
ENDBRANCH   3   4
TORSDOF 13
ENDMDL
MODEL      284
REMARK 921   NORMALIZED FREE ENERGY PREDICTED BY IDOCK:   -3.02 KCAL/MOL
REMARK 922        TOTAL FREE ENERGY PREDICTED BY IDOCK:   -6.87 KCAL/MOL
REMARK 923 INTER-LIGAND FREE ENERGY PREDICTED BY IDOCK:   -5.42 KCAL/MOL
REMARK 924 INTRA-LIGAND FREE ENERGY PREDICTED BY IDOCK:   -1.45 KCAL/MOL
REMARK 927      BINDING AFFINITY PREDICTED BY RF-SCORE:    0.00 PKD
ROOT
HETATM    1 NA   UNL     1      -8.622  18.228  65.603  1.00  0.00    -0.202 Na 
HETATM    2  C   UNL     2      -9.786  15.463  66.278  1.00  0.00    -0.325 C  
HETATM    3  C   UNL     2     -10.576  14.984  65.072  1.00  0.00    -0.437 C  
ENDROOT
BRANCH   3   4
HETATM    4  C   UNL     2     -10.048  13.640  64.581  1.00  0.00    -0.228 C  
BRANCH   4   5
HETATM    5  C   UNL     2     -11.003  12.501  64.926  1.00  0.00    -0.335 C  
BRANCH   5   6
HETATM    6  C   UNL     2     -10.332  11.517  65.881  1.00  0.00    -0.293 C  
BRANCH   6   7
HETATM    7  C   UNL     2     -11.071  11.445  67.212  1.00  0.00    -0.363 C  
BRANCH   7   8
HETATM    8  C   UNL     2     -12.005  12.642  67.372  1.00  0.00    -0.309 C  
BRANCH   8   9
HETATM    9  C   UNL     2     -12.277  12.926  68.845  1.00  0.00    -0.044 C  
BRANCH   9  10
HETATM   10  C   UNL     2     -11.254  13.909  69.408  1.00  0.00    -0.273 C  
BRANCH  10  11
HETATM   11  C   UNL     2     -11.788  14.572  70.674  1.00  0.00    -0.367 C  
BRANCH  11  12
HETATM   12  C   UNL     2     -10.994  15.828  71.015  1.00  0.00    -0.235 C  
BRANCH  12  13
HETATM   13  C   UNL     2     -10.166  16.288  69.820  1.00  0.00    -0.169 C  
BRANCH  13  14
HETATM   14  O   UNL     2     -10.648  17.544  69.332  1.00  0.00    -0.226 OA 
BRANCH  14  15
HETATM   15  C   UNL     2      -9.834  18.180  68.435  1.00  0.00    -0.370 C  
HETATM   16  O   UNL     2     -10.251  18.897  67.529  1.00  0.00    -0.347 OA 
BRANCH  15  17
HETATM   17  C   UNL     2      -8.421  17.754  68.601  1.00  0.00    -0.269 C  
HETATM   18  S   UNL     2      -7.365  19.152  68.726  1.00  0.00    -0.342 S  
HETATM   19  O   UNL     2      -7.560  19.866  67.468  1.00  0.00    -0.264 OA 
HETATM   20  O   UNL     2      -6.048  18.534  68.874  1.00  0.00    -0.209 OA 
HETATM   21  O   UNL     2      -7.837  19.857  69.918  1.00  0.00     0.184 OA 
ENDBRANCH  15  17
ENDBRANCH  14  15
ENDBRANCH  13  14
ENDBRANCH  12  13
ENDBRANCH  11  12
ENDBRANCH  10  11
ENDBRANCH   9  10
ENDBRANCH   8   9
ENDBRANCH   7   8
ENDBRANCH   6   7
ENDBRANCH   5   6
ENDBRANCH   4   5
ENDBRANCH   3   4
TORSDOF 13
ENDMDL
MODEL      285
REMARK 921   NORMALIZED FREE ENERGY PREDICTED BY IDOCK:   -3.01 KCAL/MOL
REMARK 922        TOTAL FREE ENERGY PREDICTED BY IDOCK:   -6.86 KCAL/MOL
REMARK 923 INTER-LIGAND FREE ENERGY PREDICTED BY IDOCK:   -6.36 KCAL/MOL
REMARK 924 INTRA-LIGAND FREE ENERGY PREDICTED BY IDOCK:   -0.51 KCAL/MOL
REMARK 927      BINDING AFFINITY PREDICTED BY RF-SCORE:    0.00 PKD
ROOT
HETATM    1 NA   UNL     1     -11.265  20.970  70.111  1.00  0.00    -0.900 Na 
HETATM    2  C   UNL     2     -10.688  19.356  67.558  1.00  0.00    -0.570 C  
HETATM    3  C   UNL     2      -9.651  20.119  66.751  1.00  0.00    -0.559 C  
ENDROOT
BRANCH   3   4
HETATM    4  C   UNL     2      -8.424  19.251  66.492  1.00  0.00    -0.336 C  
BRANCH   4   5
HETATM    5  C   UNL     2      -7.204  20.095  66.135  1.00  0.00    -0.313 C  
BRANCH   5   6
HETATM    6  C   UNL     2      -6.739  20.895  67.350  1.00  0.00    -0.427 C  
BRANCH   6   7
HETATM    7  C   UNL     2      -5.867  20.049  68.270  1.00  0.00    -0.270 C  
BRANCH   7   8
HETATM    8  C   UNL     2      -6.730  19.268  69.257  1.00  0.00    -0.356 C  
BRANCH   8   9
HETATM    9  C   UNL     2      -6.146  17.883  69.511  1.00  0.00    -0.249 C  
BRANCH   9  10
HETATM   10  C   UNL     2      -5.219  17.465  68.372  1.00  0.00    -0.141 C  
BRANCH  10  11
HETATM   11  C   UNL     2      -5.513  16.032  67.940  1.00  0.00    -0.145 C  
BRANCH  11  12
HETATM   12  C   UNL     2      -6.978  15.861  67.555  1.00  0.00    -0.209 C  
BRANCH  12  13
HETATM   13  C   UNL     2      -7.784  15.298  68.721  1.00  0.00    -0.147 C  
BRANCH  13  14
HETATM   14  O   UNL     2      -9.027  15.994  68.849  1.00  0.00    -0.211 OA 
BRANCH  14  15
HETATM   15  C   UNL     2     -10.106  15.218  69.176  1.00  0.00    -0.240 C  
HETATM   16  O   UNL     2     -10.970  15.558  69.980  1.00  0.00    -0.267 OA 
BRANCH  15  17
HETATM   17  C   UNL     2      -9.997  13.867  68.565  1.00  0.00    -0.221 C  
HETATM   18  S   UNL     2     -11.490  12.969  68.781  1.00  0.00    -0.319 S  
HETATM   19  O   UNL     2     -11.655  12.885  70.230  1.00  0.00    -0.160 OA 
HETATM   20  O   UNL     2     -11.183  11.695  68.132  1.00  0.00    -0.223 OA 
HETATM   21  O   UNL     2     -12.498  13.770  68.089  1.00  0.00    -0.091 OA 
ENDBRANCH  15  17
ENDBRANCH  14  15
ENDBRANCH  13  14
ENDBRANCH  12  13
ENDBRANCH  11  12
ENDBRANCH  10  11
ENDBRANCH   9  10
ENDBRANCH   8   9
ENDBRANCH   7   8
ENDBRANCH   6   7
ENDBRANCH   5   6
ENDBRANCH   4   5
ENDBRANCH   3   4
TORSDOF 13
ENDMDL
MODEL      286
REMARK 921   NORMALIZED FREE ENERGY PREDICTED BY IDOCK:   -3.01 KCAL/MOL
REMARK 922        TOTAL FREE ENERGY PREDICTED BY IDOCK:   -6.86 KCAL/MOL
REMARK 923 INTER-LIGAND FREE ENERGY PREDICTED BY IDOCK:   -6.33 KCAL/MOL
REMARK 924 INTRA-LIGAND FREE ENERGY PREDICTED BY IDOCK:   -0.53 KCAL/MOL
REMARK 927      BINDING AFFINITY PREDICTED BY RF-SCORE:    0.00 PKD
ROOT
HETATM    1 NA   UNL     1      -8.047   2.280  64.670  1.00  0.00    -0.069 Na 
HETATM    2  C   UNL     2      -8.434   4.601  66.651  1.00  0.00    -0.105 C  
HETATM    3  C   UNL     2      -9.428   5.573  66.038  1.00  0.00    -0.147 C  
ENDROOT
BRANCH   3   4
HETATM    4  C   UNL     2     -10.623   5.777  66.964  1.00  0.00    -0.373 C  
BRANCH   4   5
HETATM    5  C   UNL     2     -10.489   7.060  67.780  1.00  0.00    -0.282 C  
BRANCH   5   6
HETATM    6  C   UNL     2     -10.355   8.265  66.853  1.00  0.00    -0.391 C  
BRANCH   6   7
HETATM    7  C   UNL     2     -10.683   9.563  67.582  1.00  0.00    -0.314 C  
BRANCH   7   8
HETATM    8  C   UNL     2     -10.542  10.757  66.641  1.00  0.00    -0.291 C  
BRANCH   8   9
HETATM    9  C   UNL     2     -11.468  11.892  67.061  1.00  0.00    -0.384 C  
BRANCH   9  10
HETATM   10  C   UNL     2     -11.575  11.974  68.582  1.00  0.00    -0.372 C  
BRANCH  10  11
HETATM   11  C   UNL     2     -11.776  13.418  69.029  1.00  0.00    -0.368 C  
BRANCH  11  12
HETATM   12  C   UNL     2     -12.036  14.333  67.837  1.00  0.00    -0.364 C  
BRANCH  12  13
HETATM   13  C   UNL     2     -11.388  15.698  68.050  1.00  0.00    -0.324 C  
BRANCH  13  14
HETATM   14  O   UNL     2     -10.178  15.799  67.295  1.00  0.00    -0.258 OA 
BRANCH  14  15
HETATM   15  C   UNL     2      -9.953  17.011  66.700  1.00  0.00    -0.302 C  
HETATM   16  O   UNL     2     -10.304  17.280  65.554  1.00  0.00    -0.614 OA 
BRANCH  15  17
HETATM   17  C   UNL     2      -9.094  17.872  67.552  1.00  0.00    -0.245 C  
HETATM   18  S   UNL     2      -7.469  17.967  66.893  1.00  0.00    -0.220 S  
HETATM   19  O   UNL     2      -6.998  16.585  66.891  1.00  0.00    -0.194 OA 
HETATM   20  O   UNL     2      -6.793  18.835  67.856  1.00  0.00    -0.209 OA 
HETATM   21  O   UNL     2      -7.648  18.562  65.569  1.00  0.00    -0.499 OA 
ENDBRANCH  15  17
ENDBRANCH  14  15
ENDBRANCH  13  14
ENDBRANCH  12  13
ENDBRANCH  11  12
ENDBRANCH  10  11
ENDBRANCH   9  10
ENDBRANCH   8   9
ENDBRANCH   7   8
ENDBRANCH   6   7
ENDBRANCH   5   6
ENDBRANCH   4   5
ENDBRANCH   3   4
TORSDOF 13
ENDMDL
MODEL      287
REMARK 921   NORMALIZED FREE ENERGY PREDICTED BY IDOCK:   -3.00 KCAL/MOL
REMARK 922        TOTAL FREE ENERGY PREDICTED BY IDOCK:   -6.85 KCAL/MOL
REMARK 923 INTER-LIGAND FREE ENERGY PREDICTED BY IDOCK:   -5.97 KCAL/MOL
REMARK 924 INTRA-LIGAND FREE ENERGY PREDICTED BY IDOCK:   -0.88 KCAL/MOL
REMARK 927      BINDING AFFINITY PREDICTED BY RF-SCORE:    0.00 PKD
ROOT
HETATM    1 NA   UNL     1     -12.230  16.094  63.629  1.00  0.00    -0.738 Na 
HETATM    2  C   UNL     2     -12.224  13.022  63.489  1.00  0.00    -0.580 C  
HETATM    3  C   UNL     2     -11.033  12.523  64.289  1.00  0.00    -0.401 C  
ENDROOT
BRANCH   3   4
HETATM    4  C   UNL     2     -11.485  11.571  65.391  1.00  0.00    -0.080 C  
BRANCH   4   5
HETATM    5  C   UNL     2     -10.296  10.946  66.116  1.00  0.00    -0.305 C  
BRANCH   5   6
HETATM    6  C   UNL     2     -10.261  11.407  67.571  1.00  0.00    -0.210 C  
BRANCH   6   7
HETATM    7  C   UNL     2     -11.561  12.097  67.965  1.00  0.00    -0.411 C  
BRANCH   7   8
HETATM    8  C   UNL     2     -11.809  11.957  69.465  1.00  0.00    -0.395 C  
BRANCH   8   9
HETATM    9  C   UNL     2     -11.193  10.669  69.999  1.00  0.00    -0.382 C  
BRANCH   9  10
HETATM   10  C   UNL     2     -11.824  10.275  71.332  1.00  0.00    -0.371 C  
BRANCH  10  11
HETATM   11  C   UNL     2     -13.308   9.969  71.153  1.00  0.00    -0.379 C  
BRANCH  11  12
HETATM   12  C   UNL     2     -13.601   8.494  71.400  1.00  0.00    -0.268 C  
BRANCH  12  13
HETATM   13  C   UNL     2     -12.709   7.942  72.507  1.00  0.00     0.016 C  
BRANCH  13  14
HETATM   14  O   UNL     2     -12.013   6.777  72.053  1.00  0.00    -0.307 OA 
BRANCH  14  15
HETATM   15  C   UNL     2     -10.691   6.706  72.402  1.00  0.00    -0.223 C  
HETATM   16  O   UNL     2     -10.135   7.527  73.126  1.00  0.00    -0.247 OA 
BRANCH  15  17
HETATM   17  C   UNL     2     -10.001   5.620  71.660  1.00  0.00    -0.174 C  
HETATM   18  S   UNL     2      -9.643   4.273  72.727  1.00  0.00    -0.131 S  
HETATM   19  O   UNL     2      -8.779   4.846  73.756  1.00  0.00    -0.107 OA 
HETATM   20  O   UNL     2      -8.975   3.333  71.829  1.00  0.00    -0.090 OA 
HETATM   21  O   UNL     2     -10.954   3.827  73.199  1.00  0.00    -0.183 OA 
ENDBRANCH  15  17
ENDBRANCH  14  15
ENDBRANCH  13  14
ENDBRANCH  12  13
ENDBRANCH  11  12
ENDBRANCH  10  11
ENDBRANCH   9  10
ENDBRANCH   8   9
ENDBRANCH   7   8
ENDBRANCH   6   7
ENDBRANCH   5   6
ENDBRANCH   4   5
ENDBRANCH   3   4
TORSDOF 13
ENDMDL
MODEL      288
REMARK 921   NORMALIZED FREE ENERGY PREDICTED BY IDOCK:   -3.00 KCAL/MOL
REMARK 922        TOTAL FREE ENERGY PREDICTED BY IDOCK:   -6.85 KCAL/MOL
REMARK 923 INTER-LIGAND FREE ENERGY PREDICTED BY IDOCK:   -5.88 KCAL/MOL
REMARK 924 INTRA-LIGAND FREE ENERGY PREDICTED BY IDOCK:   -0.96 KCAL/MOL
REMARK 927      BINDING AFFINITY PREDICTED BY RF-SCORE:    0.00 PKD
ROOT
HETATM    1 NA   UNL     1     -12.819  15.543  68.362  1.00  0.00    -0.533 Na 
HETATM    2  C   UNL     2     -12.909  13.880  65.776  1.00  0.00    -0.437 C  
HETATM    3  C   UNL     2     -11.479  13.681  65.303  1.00  0.00    -0.320 C  
ENDROOT
BRANCH   3   4
HETATM    4  C   UNL     2     -11.156  12.196  65.175  1.00  0.00    -0.369 C  
BRANCH   4   5
HETATM    5  C   UNL     2      -9.743  11.885  65.659  1.00  0.00    -0.248 C  
BRANCH   5   6
HETATM    6  C   UNL     2      -9.789  10.953  66.867  1.00  0.00    -0.222 C  
BRANCH   6   7
HETATM    7  C   UNL     2     -11.200  10.850  67.434  1.00  0.00    -0.345 C  
BRANCH   7   8
HETATM    8  C   UNL     2     -11.262   9.786  68.527  1.00  0.00    -0.069 C  
BRANCH   8   9
HETATM    9  C   UNL     2     -10.710  10.325  69.842  1.00  0.00    -0.344 C  
BRANCH   9  10
HETATM   10  C   UNL     2     -11.833  10.556  70.850  1.00  0.00    -0.455 C  
BRANCH  10  11
HETATM   11  C   UNL     2     -12.604   9.264  71.099  1.00  0.00    -0.324 C  
BRANCH  11  12
HETATM   12  C   UNL     2     -11.910   8.398  72.143  1.00  0.00    -0.441 C  
BRANCH  12  13
HETATM   13  C   UNL     2     -11.719   6.975  71.629  1.00  0.00    -0.297 C  
BRANCH  13  14
HETATM   14  O   UNL     2     -12.166   6.871  70.274  1.00  0.00    -0.243 OA 
BRANCH  14  15
HETATM   15  C   UNL     2     -11.316   6.223  69.420  1.00  0.00    -0.378 C  
HETATM   16  O   UNL     2     -11.414   6.271  68.197  1.00  0.00    -0.150 OA 
BRANCH  15  17
HETATM   17  C   UNL     2     -10.385   5.336  70.164  1.00  0.00    -0.284 C  
HETATM   18  S   UNL     2      -8.722   5.663  69.706  1.00  0.00    -0.126 S  
HETATM   19  O   UNL     2      -8.681   5.390  68.272  1.00  0.00    -0.103 OA 
HETATM   20  O   UNL     2      -7.980   4.705  70.525  1.00  0.00    -0.060 OA 
HETATM   21  O   UNL     2      -8.512   7.062  70.077  1.00  0.00    -0.136 OA 
ENDBRANCH  15  17
ENDBRANCH  14  15
ENDBRANCH  13  14
ENDBRANCH  12  13
ENDBRANCH  11  12
ENDBRANCH  10  11
ENDBRANCH   9  10
ENDBRANCH   8   9
ENDBRANCH   7   8
ENDBRANCH   6   7
ENDBRANCH   5   6
ENDBRANCH   4   5
ENDBRANCH   3   4
TORSDOF 13
ENDMDL
MODEL      289
REMARK 921   NORMALIZED FREE ENERGY PREDICTED BY IDOCK:   -3.00 KCAL/MOL
REMARK 922        TOTAL FREE ENERGY PREDICTED BY IDOCK:   -6.84 KCAL/MOL
REMARK 923 INTER-LIGAND FREE ENERGY PREDICTED BY IDOCK:   -6.10 KCAL/MOL
REMARK 924 INTRA-LIGAND FREE ENERGY PREDICTED BY IDOCK:   -0.74 KCAL/MOL
REMARK 927      BINDING AFFINITY PREDICTED BY RF-SCORE:    0.00 PKD
ROOT
HETATM    1 NA   UNL     1     -10.960  20.248  69.879  1.00  0.00    -0.634 Na 
HETATM    2  C   UNL     2      -9.776  19.574  67.122  1.00  0.00    -0.447 C  
HETATM    3  C   UNL     2      -8.851  18.381  67.294  1.00  0.00    -0.261 C  
ENDROOT
BRANCH   3   4
HETATM    4  C   UNL     2      -9.278  17.233  66.386  1.00  0.00    -0.278 C  
BRANCH   4   5
HETATM    5  C   UNL     2     -10.606  16.627  66.834  1.00  0.00    -0.229 C  
BRANCH   5   6
HETATM    6  C   UNL     2     -10.496  15.107  66.911  1.00  0.00    -0.282 C  
BRANCH   6   7
HETATM    7  C   UNL     2     -11.779  14.485  67.449  1.00  0.00    -0.425 C  
BRANCH   7   8
HETATM    8  C   UNL     2     -11.463  13.440  68.516  1.00  0.00    -0.345 C  
BRANCH   8   9
HETATM    9  C   UNL     2     -10.258  12.599  68.111  1.00  0.00    -0.240 C  
BRANCH   9  10
HETATM   10  C   UNL     2     -10.698  11.240  67.571  1.00  0.00    -0.275 C  
BRANCH  10  11
HETATM   11  C   UNL     2     -10.562  11.196  66.053  1.00  0.00    -0.298 C  
BRANCH  11  12
HETATM   12  C   UNL     2      -9.889   9.906  65.597  1.00  0.00    -0.368 C  
BRANCH  12  13
HETATM   13  C   UNL     2     -10.046   8.812  66.647  1.00  0.00    -0.288 C  
BRANCH  13  14
HETATM   14  O   UNL     2      -9.187   7.707  66.348  1.00  0.00    -0.170 OA 
BRANCH  14  15
HETATM   15  C   UNL     2      -9.709   6.468  66.603  1.00  0.00    -0.154 C  
HETATM   16  O   UNL     2      -9.333   5.443  66.040  1.00  0.00    -0.156 OA 
BRANCH  15  17
HETATM   17  C   UNL     2     -10.884   6.560  67.508  1.00  0.00    -0.352 C  
HETATM   18  S   UNL     2     -10.491   5.926  69.097  1.00  0.00    -0.298 S  
HETATM   19  O   UNL     2     -10.118   4.535  68.850  1.00  0.00    -0.117 OA 
HETATM   20  O   UNL     2     -11.750   6.096  69.820  1.00  0.00    -0.340 OA 
HETATM   21  O   UNL     2      -9.404   6.783  69.570  1.00  0.00    -0.147 OA 
ENDBRANCH  15  17
ENDBRANCH  14  15
ENDBRANCH  13  14
ENDBRANCH  12  13
ENDBRANCH  11  12
ENDBRANCH  10  11
ENDBRANCH   9  10
ENDBRANCH   8   9
ENDBRANCH   7   8
ENDBRANCH   6   7
ENDBRANCH   5   6
ENDBRANCH   4   5
ENDBRANCH   3   4
TORSDOF 13
ENDMDL
MODEL      290
REMARK 921   NORMALIZED FREE ENERGY PREDICTED BY IDOCK:   -2.99 KCAL/MOL
REMARK 922        TOTAL FREE ENERGY PREDICTED BY IDOCK:   -6.83 KCAL/MOL
REMARK 923 INTER-LIGAND FREE ENERGY PREDICTED BY IDOCK:   -5.58 KCAL/MOL
REMARK 924 INTRA-LIGAND FREE ENERGY PREDICTED BY IDOCK:   -1.25 KCAL/MOL
REMARK 927      BINDING AFFINITY PREDICTED BY RF-SCORE:    0.00 PKD
ROOT
HETATM    1 NA   UNL     1     -12.893  14.616  67.329  1.00  0.00    -0.605 Na 
HETATM    2  C   UNL     2     -10.956  16.754  68.393  1.00  0.00    -0.325 C  
HETATM    3  C   UNL     2     -10.532  17.622  67.219  1.00  0.00    -0.338 C  
ENDROOT
BRANCH   3   4
HETATM    4  C   UNL     2     -10.865  19.086  67.484  1.00  0.00    -0.478 C  
BRANCH   4   5
HETATM    5  C   UNL     2      -9.610  19.954  67.493  1.00  0.00    -0.493 C  
BRANCH   5   6
HETATM    6  C   UNL     2      -8.997  20.016  66.097  1.00  0.00    -0.338 C  
BRANCH   6   7
HETATM    7  C   UNL     2      -7.474  19.999  66.159  1.00  0.00    -0.324 C  
BRANCH   7   8
HETATM    8  C   UNL     2      -6.986  18.851  67.038  1.00  0.00    -0.211 C  
BRANCH   8   9
HETATM    9  C   UNL     2      -6.913  17.552  66.245  1.00  0.00    -0.332 C  
BRANCH   9  10
HETATM   10  C   UNL     2      -6.311  16.431  67.089  1.00  0.00    -0.215 C  
BRANCH  10  11
HETATM   11  C   UNL     2      -7.381  15.779  67.958  1.00  0.00    -0.135 C  
BRANCH  11  12
HETATM   12  C   UNL     2      -8.169  14.735  67.173  1.00  0.00    -0.239 C  
BRANCH  12  13
HETATM   13  C   UNL     2      -7.714  13.326  67.537  1.00  0.00    -0.171 C  
BRANCH  13  14
HETATM   14  O   UNL     2      -8.679  12.693  68.383  1.00  0.00    -0.175 OA 
BRANCH  14  15
HETATM   15  C   UNL     2      -9.486  11.773  67.771  1.00  0.00    -0.181 C  
HETATM   16  O   UNL     2     -10.519  12.065  67.175  1.00  0.00    -0.214 OA 
BRANCH  15  17
HETATM   17  C   UNL     2      -9.039  10.388  68.070  1.00  0.00    -0.136 C  
HETATM   18  S   UNL     2      -8.802   9.481  66.585  1.00  0.00    -0.136 S  
HETATM   19  O   UNL     2     -10.114   9.488  65.943  1.00  0.00    -0.294 OA 
HETATM   20  O   UNL     2      -8.379   8.173  67.084  1.00  0.00    -0.118 OA 
HETATM   21  O   UNL     2      -7.760  10.220  65.872  1.00  0.00    -0.124 OA 
ENDBRANCH  15  17
ENDBRANCH  14  15
ENDBRANCH  13  14
ENDBRANCH  12  13
ENDBRANCH  11  12
ENDBRANCH  10  11
ENDBRANCH   9  10
ENDBRANCH   8   9
ENDBRANCH   7   8
ENDBRANCH   6   7
ENDBRANCH   5   6
ENDBRANCH   4   5
ENDBRANCH   3   4
TORSDOF 13
ENDMDL
MODEL      291
REMARK 921   NORMALIZED FREE ENERGY PREDICTED BY IDOCK:   -2.99 KCAL/MOL
REMARK 922        TOTAL FREE ENERGY PREDICTED BY IDOCK:   -6.82 KCAL/MOL
REMARK 923 INTER-LIGAND FREE ENERGY PREDICTED BY IDOCK:   -5.42 KCAL/MOL
REMARK 924 INTRA-LIGAND FREE ENERGY PREDICTED BY IDOCK:   -1.40 KCAL/MOL
REMARK 927      BINDING AFFINITY PREDICTED BY RF-SCORE:    0.00 PKD
ROOT
HETATM    1 NA   UNL     1      -9.081  12.921  65.247  1.00  0.00    -0.429 Na 
HETATM    2  C   UNL     2      -7.818  13.804  67.908  1.00  0.00    -0.159 C  
HETATM    3  C   UNL     2      -6.995  15.054  67.639  1.00  0.00    -0.205 C  
ENDROOT
BRANCH   3   4
HETATM    4  C   UNL     2      -7.465  16.207  68.519  1.00  0.00    -0.167 C  
BRANCH   4   5
HETATM    5  C   UNL     2      -8.905  16.011  68.982  1.00  0.00    -0.244 C  
BRANCH   5   6
HETATM    6  C   UNL     2      -9.748  17.234  68.628  1.00  0.00    -0.301 C  
BRANCH   6   7
HETATM    7  C   UNL     2     -10.908  16.861  67.712  1.00  0.00    -0.281 C  
BRANCH   7   8
HETATM    8  C   UNL     2     -10.467  16.883  66.251  1.00  0.00    -0.263 C  
BRANCH   8   9
HETATM    9  C   UNL     2     -10.262  15.467  65.725  1.00  0.00    -0.378 C  
BRANCH   9  10
HETATM   10  C   UNL     2     -11.233  15.163  64.587  1.00  0.00    -0.352 C  
BRANCH  10  11
HETATM   11  C   UNL     2     -12.148  14.000  64.959  1.00  0.00    -0.427 C  
BRANCH  11  12
HETATM   12  C   UNL     2     -12.064  13.687  66.449  1.00  0.00    -0.478 C  
BRANCH  12  13
HETATM   13  C   UNL     2     -11.899  12.188  66.680  1.00  0.00    -0.237 C  
BRANCH  13  14
HETATM   14  O   UNL     2     -10.531  11.875  66.960  1.00  0.00    -0.216 OA 
BRANCH  14  15
HETATM   15  C   UNL     2      -9.950  10.966  66.118  1.00  0.00    -0.233 C  
HETATM   16  O   UNL     2     -10.413  10.662  65.022  1.00  0.00    -0.295 OA 
BRANCH  15  17
HETATM   17  C   UNL     2      -8.802  10.289  66.775  1.00  0.00    -0.133 C  
HETATM   18  S   UNL     2      -9.270   8.694  67.342  1.00  0.00    -0.138 S  
HETATM   19  O   UNL     2     -10.349   8.949  68.291  1.00  0.00    -0.199 OA 
HETATM   20  O   UNL     2      -8.032   8.205  67.949  1.00  0.00    -0.122 OA 
HETATM   21  O   UNL     2      -9.668   7.980  66.129  1.00  0.00    -0.164 OA 
ENDBRANCH  15  17
ENDBRANCH  14  15
ENDBRANCH  13  14
ENDBRANCH  12  13
ENDBRANCH  11  12
ENDBRANCH  10  11
ENDBRANCH   9  10
ENDBRANCH   8   9
ENDBRANCH   7   8
ENDBRANCH   6   7
ENDBRANCH   5   6
ENDBRANCH   4   5
ENDBRANCH   3   4
TORSDOF 13
ENDMDL
MODEL      292
REMARK 921   NORMALIZED FREE ENERGY PREDICTED BY IDOCK:   -2.98 KCAL/MOL
REMARK 922        TOTAL FREE ENERGY PREDICTED BY IDOCK:   -6.80 KCAL/MOL
REMARK 923 INTER-LIGAND FREE ENERGY PREDICTED BY IDOCK:   -5.58 KCAL/MOL
REMARK 924 INTRA-LIGAND FREE ENERGY PREDICTED BY IDOCK:   -1.22 KCAL/MOL
REMARK 927      BINDING AFFINITY PREDICTED BY RF-SCORE:    0.00 PKD
ROOT
HETATM    1 NA   UNL     1     -12.154  11.952  62.335  1.00  0.00    -0.565 Na 
HETATM    2  C   UNL     2     -10.953  11.605  65.145  1.00  0.00    -0.326 C  
HETATM    3  C   UNL     2     -10.212  10.279  65.173  1.00  0.00    -0.295 C  
ENDROOT
BRANCH   3   4
HETATM    4  C   UNL     2      -8.751  10.487  65.559  1.00  0.00    -0.197 C  
BRANCH   4   5
HETATM    5  C   UNL     2      -8.310   9.499  66.636  1.00  0.00    -0.116 C  
BRANCH   5   6
HETATM    6  C   UNL     2      -9.402   8.464  66.886  1.00  0.00    -0.221 C  
BRANCH   6   7
HETATM    7  C   UNL     2      -9.460   8.063  68.356  1.00  0.00    -0.148 C  
BRANCH   7   8
HETATM    8  C   UNL     2      -9.152   9.261  69.250  1.00  0.00    -0.151 C  
BRANCH   8   9
HETATM    9  C   UNL     2     -10.040   9.255  70.490  1.00  0.00    -0.313 C  
BRANCH   9  10
HETATM   10  C   UNL     2     -11.257  10.155  70.292  1.00  0.00    -0.387 C  
BRANCH  10  11
HETATM   11  C   UNL     2     -10.873  11.416  69.523  1.00  0.00    -0.165 C  
BRANCH  11  12
HETATM   12  C   UNL     2     -11.833  11.670  68.367  1.00  0.00    -0.346 C  
BRANCH  12  13
HETATM   13  C   UNL     2     -12.125  13.160  68.223  1.00  0.00    -0.179 C  
BRANCH  13  14
HETATM   14  O   UNL     2     -10.914  13.917  68.307  1.00  0.00    -0.241 OA 
BRANCH  14  15
HETATM   15  C   UNL     2     -10.727  14.845  67.319  1.00  0.00    -0.294 C  
HETATM   16  O   UNL     2     -10.154  14.605  66.261  1.00  0.00    -0.270 OA 
BRANCH  15  17
HETATM   17  C   UNL     2     -11.152  16.196  67.770  1.00  0.00    -0.254 C  
HETATM   18  S   UNL     2      -9.754  17.184  68.162  1.00  0.00    -0.288 S  
HETATM   19  O   UNL     2      -9.085  16.453  69.235  1.00  0.00    -0.235 OA 
HETATM   20  O   UNL     2     -10.370  18.442  68.580  1.00  0.00    -0.365 OA 
HETATM   21  O   UNL     2      -9.005  17.267  66.908  1.00  0.00    -0.225 OA 
ENDBRANCH  15  17
ENDBRANCH  14  15
ENDBRANCH  13  14
ENDBRANCH  12  13
ENDBRANCH  11  12
ENDBRANCH  10  11
ENDBRANCH   9  10
ENDBRANCH   8   9
ENDBRANCH   7   8
ENDBRANCH   6   7
ENDBRANCH   5   6
ENDBRANCH   4   5
ENDBRANCH   3   4
TORSDOF 13
ENDMDL
MODEL      293
REMARK 921   NORMALIZED FREE ENERGY PREDICTED BY IDOCK:   -2.97 KCAL/MOL
REMARK 922        TOTAL FREE ENERGY PREDICTED BY IDOCK:   -6.79 KCAL/MOL
REMARK 923 INTER-LIGAND FREE ENERGY PREDICTED BY IDOCK:   -5.79 KCAL/MOL
REMARK 924 INTRA-LIGAND FREE ENERGY PREDICTED BY IDOCK:   -1.00 KCAL/MOL
REMARK 927      BINDING AFFINITY PREDICTED BY RF-SCORE:    0.00 PKD
ROOT
HETATM    1 NA   UNL     1      -9.781   8.370  65.319  1.00  0.00    -0.388 Na 
HETATM    2  C   UNL     2     -10.789   6.126  67.164  1.00  0.00    -0.442 C  
HETATM    3  C   UNL     2      -9.583   5.319  67.616  1.00  0.00    -0.151 C  
ENDROOT
BRANCH   3   4
HETATM    4  C   UNL     2      -9.490   5.295  69.137  1.00  0.00    -0.184 C  
BRANCH   4   5
HETATM    5  C   UNL     2     -10.829   5.632  69.788  1.00  0.00    -0.370 C  
BRANCH   5   6
HETATM    6  C   UNL     2     -10.618   6.095  71.227  1.00  0.00    -0.295 C  
BRANCH   6   7
HETATM    7  C   UNL     2      -9.577   7.205  71.305  1.00  0.00    -0.163 C  
BRANCH   7   8
HETATM    8  C   UNL     2     -10.162   8.524  70.809  1.00  0.00    -0.237 C  
BRANCH   8   9
HETATM    9  C   UNL     2     -11.270   9.010  71.736  1.00  0.00    -0.448 C  
BRANCH   9  10
HETATM   10  C   UNL     2     -12.350   9.752  70.953  1.00  0.00    -0.379 C  
BRANCH  10  11
HETATM   11  C   UNL     2     -11.898  11.172  70.629  1.00  0.00    -0.403 C  
BRANCH  11  12
HETATM   12  C   UNL     2     -12.260  11.554  69.198  1.00  0.00    -0.221 C  
BRANCH  12  13
HETATM   13  C   UNL     2     -11.366  12.683  68.696  1.00  0.00    -0.291 C  
BRANCH  13  14
HETATM   14  O   UNL     2     -11.971  13.953  68.958  1.00  0.00    -0.336 OA 
BRANCH  14  15
HETATM   15  C   UNL     2     -11.201  14.840  69.659  1.00  0.00    -0.275 C  
HETATM   16  O   UNL     2     -10.443  14.512  70.568  1.00  0.00     0.317 OA 
BRANCH  15  17
HETATM   17  C   UNL     2     -11.531  16.241  69.291  1.00  0.00    -0.251 C  
HETATM   18  S   UNL     2     -10.386  16.856  68.111  1.00  0.00    -0.354 S  
HETATM   19  O   UNL     2      -9.093  16.775  68.785  1.00  0.00    -0.251 OA 
HETATM   20  O   UNL     2     -10.869  18.218  67.889  1.00  0.00    -0.363 OA 
HETATM   21  O   UNL     2     -10.539  15.967  66.959  1.00  0.00    -0.305 OA 
ENDBRANCH  15  17
ENDBRANCH  14  15
ENDBRANCH  13  14
ENDBRANCH  12  13
ENDBRANCH  11  12
ENDBRANCH  10  11
ENDBRANCH   9  10
ENDBRANCH   8   9
ENDBRANCH   7   8
ENDBRANCH   6   7
ENDBRANCH   5   6
ENDBRANCH   4   5
ENDBRANCH   3   4
TORSDOF 13
ENDMDL
MODEL      294
REMARK 921   NORMALIZED FREE ENERGY PREDICTED BY IDOCK:   -2.97 KCAL/MOL
REMARK 922        TOTAL FREE ENERGY PREDICTED BY IDOCK:   -6.78 KCAL/MOL
REMARK 923 INTER-LIGAND FREE ENERGY PREDICTED BY IDOCK:   -6.06 KCAL/MOL
REMARK 924 INTRA-LIGAND FREE ENERGY PREDICTED BY IDOCK:   -0.73 KCAL/MOL
REMARK 927      BINDING AFFINITY PREDICTED BY RF-SCORE:    0.00 PKD
ROOT
HETATM    1 NA   UNL     1      -8.572   5.300  69.318  1.00  0.00    -0.092 Na 
HETATM    2  C   UNL     2     -11.339   6.466  69.985  1.00  0.00    -0.496 C  
HETATM    3  C   UNL     2     -11.391   6.710  71.484  1.00  0.00    -0.326 C  
ENDROOT
BRANCH   3   4
HETATM    4  C   UNL     2     -11.705   8.173  71.780  1.00  0.00    -0.343 C  
BRANCH   4   5
HETATM    5  C   UNL     2     -11.422   9.064  70.574  1.00  0.00    -0.248 C  
BRANCH   5   6
HETATM    6  C   UNL     2      -9.936   9.404  70.502  1.00  0.00    -0.328 C  
BRANCH   6   7
HETATM    7  C   UNL     2      -9.602  10.158  69.220  1.00  0.00    -0.239 C  
BRANCH   7   8
HETATM    8  C   UNL     2     -10.685   9.933  68.168  1.00  0.00    -0.279 C  
BRANCH   8   9
HETATM    9  C   UNL     2     -10.141   9.132  66.991  1.00  0.00    -0.316 C  
BRANCH   9  10
HETATM   10  C   UNL     2     -10.097   9.984  65.725  1.00  0.00    -0.320 C  
BRANCH  10  11
HETATM   11  C   UNL     2     -10.173  11.467  66.074  1.00  0.00    -0.289 C  
BRANCH  11  12
HETATM   12  C   UNL     2     -11.124  12.205  65.139  1.00  0.00    -0.369 C  
BRANCH  12  13
HETATM   13  C   UNL     2     -12.380  12.649  65.883  1.00  0.00    -0.176 C  
BRANCH  13  14
HETATM   14  O   UNL     2     -12.281  14.029  66.249  1.00  0.00    -0.433 OA 
BRANCH  14  15
HETATM   15  C   UNL     2     -11.836  14.272  67.520  1.00  0.00    -0.395 C  
HETATM   16  O   UNL     2     -11.948  13.471  68.444  1.00  0.00    -0.354 OA 
BRANCH  15  17
HETATM   17  C   UNL     2     -11.366  15.674  67.661  1.00  0.00    -0.228 C  
HETATM   18  S   UNL     2      -9.711  15.714  68.246  1.00  0.00    -0.202 S  
HETATM   19  O   UNL     2      -9.768  15.040  69.540  1.00  0.00    -0.185 OA 
HETATM   20  O   UNL     2      -9.442  17.150  68.322  1.00  0.00    -0.258 OA 
HETATM   21  O   UNL     2      -8.945  15.012  67.216  1.00  0.00    -0.181 OA 
ENDBRANCH  15  17
ENDBRANCH  14  15
ENDBRANCH  13  14
ENDBRANCH  12  13
ENDBRANCH  11  12
ENDBRANCH  10  11
ENDBRANCH   9  10
ENDBRANCH   8   9
ENDBRANCH   7   8
ENDBRANCH   6   7
ENDBRANCH   5   6
ENDBRANCH   4   5
ENDBRANCH   3   4
TORSDOF 13
ENDMDL
MODEL      295
REMARK 921   NORMALIZED FREE ENERGY PREDICTED BY IDOCK:   -2.96 KCAL/MOL
REMARK 922        TOTAL FREE ENERGY PREDICTED BY IDOCK:   -6.78 KCAL/MOL
REMARK 923 INTER-LIGAND FREE ENERGY PREDICTED BY IDOCK:   -5.34 KCAL/MOL
REMARK 924 INTRA-LIGAND FREE ENERGY PREDICTED BY IDOCK:   -1.43 KCAL/MOL
REMARK 927      BINDING AFFINITY PREDICTED BY RF-SCORE:    0.00 PKD
ROOT
HETATM    1 NA   UNL     1     -12.220  11.396  62.379  1.00  0.00    -0.724 Na 
HETATM    2  C   UNL     2     -10.247  10.829  64.669  1.00  0.00    -0.419 C  
HETATM    3  C   UNL     2      -9.245   9.799  64.174  1.00  0.00    -0.277 C  
ENDROOT
BRANCH   3   4
HETATM    4  C   UNL     2      -7.822  10.334  64.289  1.00  0.00    -0.117 C  
BRANCH   4   5
HETATM    5  C   UNL     2      -6.803   9.202  64.388  1.00  0.00    -0.087 C  
BRANCH   5   6
HETATM    6  C   UNL     2      -7.412   7.895  63.888  1.00  0.00    -0.110 C  
BRANCH   6   7
HETATM    7  C   UNL     2      -7.221   6.772  64.900  1.00  0.00    -0.075 C  
BRANCH   7   8
HETATM    8  C   UNL     2      -7.449   7.285  66.319  1.00  0.00    -0.083 C  
BRANCH   8   9
HETATM    9  C   UNL     2      -8.492   6.440  67.042  1.00  0.00    -0.112 C  
BRANCH   9  10
HETATM   10  C   UNL     2      -9.792   7.218  67.225  1.00  0.00    -0.224 C  
BRANCH  10  11
HETATM   11  C   UNL     2      -9.505   8.635  67.713  1.00  0.00    -0.165 C  
BRANCH  11  12
HETATM   12  C   UNL     2     -10.143   8.890  69.073  1.00  0.00    -0.205 C  
BRANCH  12  13
HETATM   13  C   UNL     2      -9.922  10.334  69.514  1.00  0.00    -0.228 C  
BRANCH  13  14
HETATM   14  O   UNL     2     -10.062  11.222  68.401  1.00  0.00    -0.181 OA 
BRANCH  14  15
HETATM   15  C   UNL     2     -11.325  11.701  68.183  1.00  0.00    -0.292 C  
HETATM   16  O   UNL     2     -12.098  11.228  67.354  1.00  0.00    -0.450 OA 
BRANCH  15  17
HETATM   17  C   UNL     2     -11.561  12.952  68.949  1.00  0.00    -0.315 C  
HETATM   18  S   UNL     2     -11.268  14.358  67.940  1.00  0.00    -0.301 S  
HETATM   19  O   UNL     2      -9.868  14.235  67.544  1.00  0.00    -0.226 OA 
HETATM   20  O   UNL     2     -11.542  15.463  68.859  1.00  0.00    -0.315 OA 
HETATM   21  O   UNL     2     -12.234  14.229  66.850  1.00  0.00    -0.438 OA 
ENDBRANCH  15  17
ENDBRANCH  14  15
ENDBRANCH  13  14
ENDBRANCH  12  13
ENDBRANCH  11  12
ENDBRANCH  10  11
ENDBRANCH   9  10
ENDBRANCH   8   9
ENDBRANCH   7   8
ENDBRANCH   6   7
ENDBRANCH   5   6
ENDBRANCH   4   5
ENDBRANCH   3   4
TORSDOF 13
ENDMDL
MODEL      296
REMARK 921   NORMALIZED FREE ENERGY PREDICTED BY IDOCK:   -2.95 KCAL/MOL
REMARK 922        TOTAL FREE ENERGY PREDICTED BY IDOCK:   -6.76 KCAL/MOL
REMARK 923 INTER-LIGAND FREE ENERGY PREDICTED BY IDOCK:   -5.87 KCAL/MOL
REMARK 924 INTRA-LIGAND FREE ENERGY PREDICTED BY IDOCK:   -0.89 KCAL/MOL
REMARK 927      BINDING AFFINITY PREDICTED BY RF-SCORE:    0.00 PKD
ROOT
HETATM    1 NA   UNL     1     -10.262   5.133  62.994  1.00  0.00    -0.369 Na 
HETATM    2  C   UNL     2      -9.090   5.442  65.821  1.00  0.00    -0.160 C  
HETATM    3  C   UNL     2      -9.965   6.424  66.581  1.00  0.00    -0.207 C  
ENDROOT
BRANCH   3   4
HETATM    4  C   UNL     2     -10.508   5.787  67.856  1.00  0.00    -0.290 C  
BRANCH   4   5
HETATM    5  C   UNL     2      -9.981   4.367  68.043  1.00  0.00    -0.076 C  
BRANCH   5   6
HETATM    6  C   UNL     2      -9.223   4.253  69.363  1.00  0.00    -0.203 C  
BRANCH   6   7
HETATM    7  C   UNL     2     -10.027   4.840  70.516  1.00  0.00    -0.306 C  
BRANCH   7   8
HETATM    8  C   UNL     2      -9.329   6.074  71.082  1.00  0.00    -0.174 C  
BRANCH   8   9
HETATM    9  C   UNL     2     -10.345   7.140  71.475  1.00  0.00    -0.218 C  
BRANCH   9  10
HETATM   10  C   UNL     2      -9.790   8.541  71.225  1.00  0.00    -0.279 C  
BRANCH  10  11
HETATM   11  C   UNL     2     -10.896   9.479  70.752  1.00  0.00    -0.386 C  
BRANCH  11  12
HETATM   12  C   UNL     2     -10.392  10.423  69.666  1.00  0.00    -0.261 C  
BRANCH  12  13
HETATM   13  C   UNL     2     -10.674   9.853  68.279  1.00  0.00    -0.234 C  
BRANCH  13  14
HETATM   14  O   UNL     2     -11.270  10.850  67.443  1.00  0.00    -0.316 OA 
BRANCH  14  15
HETATM   15  C   UNL     2     -10.410  11.509  66.607  1.00  0.00    -0.226 C  
HETATM   16  O   UNL     2      -9.452  10.973  66.056  1.00  0.00    -0.192 OA 
BRANCH  15  17
HETATM   17  C   UNL     2     -10.689  12.968  66.598  1.00  0.00    -0.274 C  
HETATM   18  S   UNL     2     -11.621  13.410  65.177  1.00  0.00    -0.321 S  
HETATM   19  O   UNL     2     -10.771  13.025  64.054  1.00  0.00    -0.400 OA 
HETATM   20  O   UNL     2     -11.782  14.854  65.348  1.00  0.00    -0.326 OA 
HETATM   21  O   UNL     2     -12.861  12.646  65.306  1.00  0.00    -0.656 OA 
ENDBRANCH  15  17
ENDBRANCH  14  15
ENDBRANCH  13  14
ENDBRANCH  12  13
ENDBRANCH  11  12
ENDBRANCH  10  11
ENDBRANCH   9  10
ENDBRANCH   8   9
ENDBRANCH   7   8
ENDBRANCH   6   7
ENDBRANCH   5   6
ENDBRANCH   4   5
ENDBRANCH   3   4
TORSDOF 13
ENDMDL
MODEL      297
REMARK 921   NORMALIZED FREE ENERGY PREDICTED BY IDOCK:   -2.95 KCAL/MOL
REMARK 922        TOTAL FREE ENERGY PREDICTED BY IDOCK:   -6.76 KCAL/MOL
REMARK 923 INTER-LIGAND FREE ENERGY PREDICTED BY IDOCK:   -5.49 KCAL/MOL
REMARK 924 INTRA-LIGAND FREE ENERGY PREDICTED BY IDOCK:   -1.27 KCAL/MOL
REMARK 927      BINDING AFFINITY PREDICTED BY RF-SCORE:    0.00 PKD
ROOT
HETATM    1 NA   UNL     1      -7.962   4.237  65.816  1.00  0.00    -0.086 Na 
HETATM    2  C   UNL     2      -9.130   6.285  67.790  1.00  0.00    -0.114 C  
HETATM    3  C   UNL     2     -10.633   6.071  67.846  1.00  0.00    -0.337 C  
ENDROOT
BRANCH   3   4
HETATM    4  C   UNL     2     -11.085   5.788  69.274  1.00  0.00    -0.242 C  
BRANCH   4   5
HETATM    5  C   UNL     2      -9.903   5.740  70.238  1.00  0.00    -0.244 C  
BRANCH   5   6
HETATM    6  C   UNL     2     -10.316   5.084  71.553  1.00  0.00    -0.252 C  
BRANCH   6   7
HETATM    7  C   UNL     2     -11.522   5.785  72.167  1.00  0.00    -0.295 C  
BRANCH   7   8
HETATM    8  C   UNL     2     -11.086   7.037  72.923  1.00  0.00    -0.314 C  
BRANCH   8   9
HETATM    9  C   UNL     2     -11.904   8.247  72.487  1.00  0.00    -0.439 C  
BRANCH   9  10
HETATM   10  C   UNL     2     -11.015   9.296  71.824  1.00  0.00    -0.383 C  
BRANCH  10  11
HETATM   11  C   UNL     2     -10.935   9.058  70.319  1.00  0.00    -0.274 C  
BRANCH  11  12
HETATM   12  C   UNL     2      -9.497   9.149  69.821  1.00  0.00    -0.191 C  
BRANCH  12  13
HETATM   13  C   UNL     2      -9.364  10.217  68.741  1.00  0.00    -0.166 C  
BRANCH  13  14
HETATM   14  O   UNL     2     -10.653  10.587  68.243  1.00  0.00    -0.181 OA 
BRANCH  14  15
HETATM   15  C   UNL     2     -10.670  11.109  66.979  1.00  0.00    -0.268 C  
HETATM   16  O   UNL     2      -9.926  10.732  66.078  1.00  0.00    -0.223 OA 
BRANCH  15  17
HETATM   17  C   UNL     2     -11.574  12.286  66.899  1.00  0.00    -0.361 C  
HETATM   18  S   UNL     2     -10.645  13.776  66.859  1.00  0.00    -0.276 S  
HETATM   19  O   UNL     2      -9.893  13.768  68.110  1.00  0.00    -0.225 OA 
HETATM   20  O   UNL     2     -11.693  14.793  66.789  1.00  0.00    -0.366 OA 
HETATM   21  O   UNL     2      -9.833  13.663  65.647  1.00  0.00    -0.256 OA 
ENDBRANCH  15  17
ENDBRANCH  14  15
ENDBRANCH  13  14
ENDBRANCH  12  13
ENDBRANCH  11  12
ENDBRANCH  10  11
ENDBRANCH   9  10
ENDBRANCH   8   9
ENDBRANCH   7   8
ENDBRANCH   6   7
ENDBRANCH   5   6
ENDBRANCH   4   5
ENDBRANCH   3   4
TORSDOF 13
ENDMDL
MODEL      298
REMARK 921   NORMALIZED FREE ENERGY PREDICTED BY IDOCK:   -2.95 KCAL/MOL
REMARK 922        TOTAL FREE ENERGY PREDICTED BY IDOCK:   -6.75 KCAL/MOL
REMARK 923 INTER-LIGAND FREE ENERGY PREDICTED BY IDOCK:   -5.57 KCAL/MOL
REMARK 924 INTRA-LIGAND FREE ENERGY PREDICTED BY IDOCK:   -1.18 KCAL/MOL
REMARK 927      BINDING AFFINITY PREDICTED BY RF-SCORE:    0.00 PKD
ROOT
HETATM    1 NA   UNL     1     -11.538  10.824  68.033  1.00  0.00    -0.225 Na 
HETATM    2  C   UNL     2     -12.028  12.218  65.336  1.00  0.00    -0.395 C  
HETATM    3  C   UNL     2     -10.677  12.442  64.677  1.00  0.00    -0.339 C  
ENDROOT
BRANCH   3   4
HETATM    4  C   UNL     2     -10.634  11.784  63.302  1.00  0.00    -0.427 C  
BRANCH   4   5
HETATM    5  C   UNL     2      -9.281  11.131  63.034  1.00  0.00    -0.329 C  
BRANCH   5   6
HETATM    6  C   UNL     2      -9.242   9.727  63.633  1.00  0.00    -0.229 C  
BRANCH   6   7
HETATM    7  C   UNL     2      -8.109   9.587  64.643  1.00  0.00    -0.136 C  
BRANCH   7   8
HETATM    8  C   UNL     2      -8.661   9.231  66.021  1.00  0.00    -0.175 C  
BRANCH   8   9
HETATM    9  C   UNL     2      -8.953  10.490  66.830  1.00  0.00    -0.151 C  
BRANCH   9  10
HETATM   10  C   UNL     2      -7.689  10.999  67.520  1.00  0.00    -0.114 C  
BRANCH  10  11
HETATM   11  C   UNL     2      -7.355  12.412  67.052  1.00  0.00    -0.016 C  
BRANCH  11  12
HETATM   12  C   UNL     2      -7.996  13.459  67.957  1.00  0.00    -0.148 C  
BRANCH  12  13
HETATM   13  C   UNL     2      -8.459  14.665  67.148  1.00  0.00    -0.221 C  
BRANCH  13  14
HETATM   14  O   UNL     2      -9.857  14.894  67.349  1.00  0.00    -0.220 OA 
BRANCH  14  15
HETATM   15  C   UNL     2     -10.371  15.996  66.722  1.00  0.00    -0.300 C  
HETATM   16  O   UNL     2     -10.476  16.097  65.502  1.00  0.00    -0.371 OA 
BRANCH  15  17
HETATM   17  C   UNL     2     -10.618  17.095  67.691  1.00  0.00    -0.343 C  
HETATM   18  S   UNL     2      -9.759  18.548  67.208  1.00  0.00    -0.311 S  
HETATM   19  O   UNL     2      -8.353  18.151  67.202  1.00  0.00    -0.230 OA 
HETATM   20  O   UNL     2     -10.118  19.488  68.269  1.00  0.00    -0.390 OA 
HETATM   21  O   UNL     2     -10.314  18.879  65.897  1.00  0.00    -0.503 OA 
ENDBRANCH  15  17
ENDBRANCH  14  15
ENDBRANCH  13  14
ENDBRANCH  12  13
ENDBRANCH  11  12
ENDBRANCH  10  11
ENDBRANCH   9  10
ENDBRANCH   8   9
ENDBRANCH   7   8
ENDBRANCH   6   7
ENDBRANCH   5   6
ENDBRANCH   4   5
ENDBRANCH   3   4
TORSDOF 13
ENDMDL
MODEL      299
REMARK 921   NORMALIZED FREE ENERGY PREDICTED BY IDOCK:   -2.95 KCAL/MOL
REMARK 922        TOTAL FREE ENERGY PREDICTED BY IDOCK:   -6.75 KCAL/MOL
REMARK 923 INTER-LIGAND FREE ENERGY PREDICTED BY IDOCK:   -5.44 KCAL/MOL
REMARK 924 INTRA-LIGAND FREE ENERGY PREDICTED BY IDOCK:   -1.31 KCAL/MOL
REMARK 927      BINDING AFFINITY PREDICTED BY RF-SCORE:    0.00 PKD
ROOT
HETATM    1 NA   UNL     1      -7.766  12.664  70.076  1.00  0.00    -0.218 Na 
HETATM    2  C   UNL     2      -6.131  15.241  69.691  1.00  0.00    -0.137 C  
HETATM    3  C   UNL     2      -6.749  16.015  68.538  1.00  0.00    -0.124 C  
ENDROOT
BRANCH   3   4
HETATM    4  C   UNL     2      -7.156  17.415  68.986  1.00  0.00    -0.233 C  
BRANCH   4   5
HETATM    5  C   UNL     2      -8.339  17.941  68.179  1.00  0.00    -0.267 C  
BRANCH   5   6
HETATM    6  C   UNL     2      -9.126  16.782  67.574  1.00  0.00    -0.211 C  
BRANCH   6   7
HETATM    7  C   UNL     2     -10.627  16.980  67.750  1.00  0.00    -0.350 C  
BRANCH   7   8
HETATM    8  C   UNL     2     -11.278  15.702  68.273  1.00  0.00    -0.353 C  
BRANCH   8   9
HETATM    9  C   UNL     2     -10.511  14.471  67.806  1.00  0.00    -0.242 C  
BRANCH   9  10
HETATM   10  C   UNL     2     -11.413  13.542  66.996  1.00  0.00    -0.369 C  
BRANCH  10  11
HETATM   11  C   UNL     2     -12.039  14.290  65.824  1.00  0.00    -0.414 C  
BRANCH  11  12
HETATM   12  C   UNL     2     -11.303  13.992  64.522  1.00  0.00    -0.365 C  
BRANCH  12  13
HETATM   13  C   UNL     2     -11.353  12.502  64.200  1.00  0.00    -0.380 C  
BRANCH  13  14
HETATM   14  O   UNL     2     -10.178  12.107  63.487  1.00  0.00    -0.423 OA 
BRANCH  14  15
HETATM   15  C   UNL     2      -9.837  10.786  63.596  1.00  0.00    -0.350 C  
HETATM   16  O   UNL     2      -9.463  10.100  62.649  1.00  0.00    -0.295 OA 
BRANCH  15  17
HETATM   17  C   UNL     2     -10.144  10.267  64.954  1.00  0.00    -0.276 C  
HETATM   18  S   UNL     2      -8.731  10.379  65.991  1.00  0.00    -0.157 S  
HETATM   19  O   UNL     2      -7.726   9.557  65.323  1.00  0.00    -0.105 OA 
HETATM   20  O   UNL     2      -9.226   9.825  67.251  1.00  0.00    -0.134 OA 
HETATM   21  O   UNL     2      -8.429  11.809  66.039  1.00  0.00    -0.041 OA 
ENDBRANCH  15  17
ENDBRANCH  14  15
ENDBRANCH  13  14
ENDBRANCH  12  13
ENDBRANCH  11  12
ENDBRANCH  10  11
ENDBRANCH   9  10
ENDBRANCH   8   9
ENDBRANCH   7   8
ENDBRANCH   6   7
ENDBRANCH   5   6
ENDBRANCH   4   5
ENDBRANCH   3   4
TORSDOF 13
ENDMDL
MODEL      300
REMARK 921   NORMALIZED FREE ENERGY PREDICTED BY IDOCK:   -2.94 KCAL/MOL
REMARK 922        TOTAL FREE ENERGY PREDICTED BY IDOCK:   -6.74 KCAL/MOL
REMARK 923 INTER-LIGAND FREE ENERGY PREDICTED BY IDOCK:   -6.01 KCAL/MOL
REMARK 924 INTRA-LIGAND FREE ENERGY PREDICTED BY IDOCK:   -0.73 KCAL/MOL
REMARK 927      BINDING AFFINITY PREDICTED BY RF-SCORE:    0.00 PKD
ROOT
HETATM    1 NA   UNL     1     -11.074   4.442  72.292  1.00  0.00    -0.185 Na 
HETATM    2  C   UNL     2     -10.548   7.349  73.149  1.00  0.00    -0.424 C  
HETATM    3  C   UNL     2      -9.050   7.511  73.345  1.00  0.00    -0.264 C  
ENDROOT
BRANCH   3   4
HETATM    4  C   UNL     2      -8.509   8.628  72.458  1.00  0.00    -0.097 C  
BRANCH   4   5
HETATM    5  C   UNL     2      -8.810   8.371  70.984  1.00  0.00    -0.193 C  
BRANCH   5   6
HETATM    6  C   UNL     2      -9.335   9.642  70.321  1.00  0.00    -0.292 C  
BRANCH   6   7
HETATM    7  C   UNL     2     -10.818   9.522  69.989  1.00  0.00    -0.286 C  
BRANCH   7   8
HETATM    8  C   UNL     2     -11.482  10.896  70.003  1.00  0.00    -0.411 C  
BRANCH   8   9
HETATM    9  C   UNL     2     -12.026  11.251  68.624  1.00  0.00    -0.314 C  
BRANCH   9  10
HETATM   10  C   UNL     2     -10.898  11.671  67.685  1.00  0.00    -0.273 C  
BRANCH  10  11
HETATM   11  C   UNL     2     -11.289  12.919  66.901  1.00  0.00    -0.358 C  
BRANCH  11  12
HETATM   12  C   UNL     2     -12.257  13.789  67.696  1.00  0.00    -0.229 C  
BRANCH  12  13
HETATM   13  C   UNL     2     -11.532  14.980  68.315  1.00  0.00    -0.332 C  
BRANCH  13  14
HETATM   14  O   UNL     2     -10.641  15.571  67.364  1.00  0.00    -0.279 OA 
BRANCH  14  15
HETATM   15  C   UNL     2      -9.459  16.035  67.873  1.00  0.00    -0.210 C  
HETATM   16  O   UNL     2      -9.327  16.439  69.025  1.00  0.00    -0.244 OA 
BRANCH  15  17
HETATM   17  C   UNL     2      -8.426  16.142  66.810  1.00  0.00    -0.254 C  
HETATM   18  S   UNL     2      -8.145  17.824  66.390  1.00  0.00    -0.245 S  
HETATM   19  O   UNL     2      -9.442  18.301  65.919  1.00  0.00    -0.508 OA 
HETATM   20  O   UNL     2      -7.124  17.717  65.348  1.00  0.00    -0.382 OA 
HETATM   21  O   UNL     2      -7.674  18.434  67.633  1.00  0.00    -0.226 OA 
ENDBRANCH  15  17
ENDBRANCH  14  15
ENDBRANCH  13  14
ENDBRANCH  12  13
ENDBRANCH  11  12
ENDBRANCH  10  11
ENDBRANCH   9  10
ENDBRANCH   8   9
ENDBRANCH   7   8
ENDBRANCH   6   7
ENDBRANCH   5   6
ENDBRANCH   4   5
ENDBRANCH   3   4
TORSDOF 13
ENDMDL
MODEL      301
REMARK 921   NORMALIZED FREE ENERGY PREDICTED BY IDOCK:   -2.94 KCAL/MOL
REMARK 922        TOTAL FREE ENERGY PREDICTED BY IDOCK:   -6.73 KCAL/MOL
REMARK 923 INTER-LIGAND FREE ENERGY PREDICTED BY IDOCK:   -6.16 KCAL/MOL
REMARK 924 INTRA-LIGAND FREE ENERGY PREDICTED BY IDOCK:   -0.58 KCAL/MOL
REMARK 927      BINDING AFFINITY PREDICTED BY RF-SCORE:    0.00 PKD
ROOT
HETATM    1 NA   UNL     1     -11.322  12.333  62.450  1.00  0.00    -0.570 Na 
HETATM    2  C   UNL     2     -11.267  12.342  65.525  1.00  0.00    -0.376 C  
HETATM    3  C   UNL     2     -10.564  11.073  65.980  1.00  0.00    -0.275 C  
ENDROOT
BRANCH   3   4
HETATM    4  C   UNL     2      -9.363  11.408  66.858  1.00  0.00    -0.191 C  
BRANCH   4   5
HETATM    5  C   UNL     2      -9.427  10.682  68.198  1.00  0.00    -0.158 C  
BRANCH   5   6
HETATM    6  C   UNL     2     -10.578   9.679  68.204  1.00  0.00    -0.273 C  
BRANCH   6   7
HETATM    7  C   UNL     2     -10.559   8.821  69.463  1.00  0.00    -0.224 C  
BRANCH   7   8
HETATM    8  C   UNL     2     -10.739   9.689  70.706  1.00  0.00    -0.401 C  
BRANCH   8   9
HETATM    9  C   UNL     2     -11.900   9.186  71.556  1.00  0.00    -0.428 C  
BRANCH   9  10
HETATM   10  C   UNL     2     -13.088  10.142  71.477  1.00  0.00    -0.529 C  
BRANCH  10  11
HETATM   11  C   UNL     2     -12.759  11.465  72.161  1.00  0.00     0.098 C  
BRANCH  11  12
HETATM   12  C   UNL     2     -13.446  12.633  71.463  1.00  0.00    -0.058 C  
BRANCH  12  13
HETATM   13  C   UNL     2     -13.543  13.839  72.392  1.00  0.00    -0.588 C  
BRANCH  13  14
HETATM   14  O   UNL     2     -12.331  14.599  72.350  1.00  0.00    -0.329 OA 
BRANCH  14  15
HETATM   15  C   UNL     2     -12.146  15.352  71.223  1.00  0.00    -0.366 C  
HETATM   16  O   UNL     2     -13.040  15.999  70.683  1.00  0.00    -0.338 OA 
BRANCH  15  17
HETATM   17  C   UNL     2     -10.788  15.144  70.659  1.00  0.00    -0.179 C  
HETATM   18  S   UNL     2     -10.654  15.895  69.077  1.00  0.00    -0.268 S  
HETATM   19  O   UNL     2     -11.671  15.225  68.271  1.00  0.00    -0.343 OA 
HETATM   20  O   UNL     2      -9.277  15.579  68.699  1.00  0.00    -0.185 OA 
HETATM   21  O   UNL     2     -10.899  17.315  69.328  1.00  0.00    -0.178 OA 
ENDBRANCH  15  17
ENDBRANCH  14  15
ENDBRANCH  13  14
ENDBRANCH  12  13
ENDBRANCH  11  12
ENDBRANCH  10  11
ENDBRANCH   9  10
ENDBRANCH   8   9
ENDBRANCH   7   8
ENDBRANCH   6   7
ENDBRANCH   5   6
ENDBRANCH   4   5
ENDBRANCH   3   4
TORSDOF 13
ENDMDL
MODEL      302
REMARK 921   NORMALIZED FREE ENERGY PREDICTED BY IDOCK:   -2.94 KCAL/MOL
REMARK 922        TOTAL FREE ENERGY PREDICTED BY IDOCK:   -6.73 KCAL/MOL
REMARK 923 INTER-LIGAND FREE ENERGY PREDICTED BY IDOCK:   -5.94 KCAL/MOL
REMARK 924 INTRA-LIGAND FREE ENERGY PREDICTED BY IDOCK:   -0.79 KCAL/MOL
REMARK 927      BINDING AFFINITY PREDICTED BY RF-SCORE:    0.00 PKD
ROOT
HETATM    1 NA   UNL     1     -13.633  10.846  72.764  1.00  0.00    -0.626 Na 
HETATM    2  C   UNL     2     -11.943   9.974  70.346  1.00  0.00    -0.318 C  
HETATM    3  C   UNL     2     -10.823   9.085  70.860  1.00  0.00    -0.323 C  
ENDROOT
BRANCH   3   4
HETATM    4  C   UNL     2     -10.862   7.722  70.179  1.00  0.00    -0.248 C  
BRANCH   4   5
HETATM    5  C   UNL     2      -9.698   7.545  69.208  1.00  0.00    -0.163 C  
BRANCH   5   6
HETATM    6  C   UNL     2      -8.566   8.508  69.556  1.00  0.00    -0.131 C  
BRANCH   6   7
HETATM    7  C   UNL     2      -7.919   9.080  68.300  1.00  0.00    -0.104 C  
BRANCH   7   8
HETATM    8  C   UNL     2      -8.979   9.398  67.248  1.00  0.00    -0.143 C  
BRANCH   8   9
HETATM    9  C   UNL     2      -8.822  10.824  66.733  1.00  0.00    -0.147 C  
BRANCH   9  10
HETATM   10  C   UNL     2     -10.026  11.233  65.888  1.00  0.00    -0.277 C  
BRANCH  10  11
HETATM   11  C   UNL     2     -10.260  12.738  65.981  1.00  0.00    -0.290 C  
BRANCH  11  12
HETATM   12  C   UNL     2      -9.145  13.422  66.764  1.00  0.00    -0.221 C  
BRANCH  12  13
HETATM   13  C   UNL     2      -9.106  14.916  66.459  1.00  0.00    -0.277 C  
BRANCH  13  14
HETATM   14  O   UNL     2     -10.418  15.479  66.558  1.00  0.00    -0.287 OA 
BRANCH  14  15
HETATM   15  C   UNL     2     -10.680  16.163  67.714  1.00  0.00    -0.325 C  
HETATM   16  O   UNL     2     -11.775  16.161  68.271  1.00  0.00    -0.281 OA 
BRANCH  15  17
HETATM   17  C   UNL     2      -9.533  17.025  68.097  1.00  0.00    -0.262 C  
HETATM   18  S   UNL     2      -9.573  18.538  67.206  1.00  0.00    -0.302 S  
HETATM   19  O   UNL     2      -9.490  18.135  65.805  1.00  0.00    -0.483 OA 
HETATM   20  O   UNL     2      -8.385  19.227  67.709  1.00  0.00    -0.286 OA 
HETATM   21  O   UNL     2     -10.839  19.156  67.598  1.00  0.00    -0.448 OA 
ENDBRANCH  15  17
ENDBRANCH  14  15
ENDBRANCH  13  14
ENDBRANCH  12  13
ENDBRANCH  11  12
ENDBRANCH  10  11
ENDBRANCH   9  10
ENDBRANCH   8   9
ENDBRANCH   7   8
ENDBRANCH   6   7
ENDBRANCH   5   6
ENDBRANCH   4   5
ENDBRANCH   3   4
TORSDOF 13
ENDMDL
MODEL      303
REMARK 921   NORMALIZED FREE ENERGY PREDICTED BY IDOCK:   -2.93 KCAL/MOL
REMARK 922        TOTAL FREE ENERGY PREDICTED BY IDOCK:   -6.72 KCAL/MOL
REMARK 923 INTER-LIGAND FREE ENERGY PREDICTED BY IDOCK:   -5.76 KCAL/MOL
REMARK 924 INTRA-LIGAND FREE ENERGY PREDICTED BY IDOCK:   -0.97 KCAL/MOL
REMARK 927      BINDING AFFINITY PREDICTED BY RF-SCORE:    0.00 PKD
ROOT
HETATM    1 NA   UNL     1      -9.031  13.106  65.475  1.00  0.00    -0.425 Na 
HETATM    2  C   UNL     2      -7.909  11.035  67.453  1.00  0.00    -0.118 C  
HETATM    3  C   UNL     2      -8.507  11.327  68.819  1.00  0.00    -0.112 C  
ENDROOT
BRANCH   3   4
HETATM    4  C   UNL     2      -9.243  10.104  69.358  1.00  0.00    -0.229 C  
BRANCH   4   5
HETATM    5  C   UNL     2     -10.733  10.158  69.034  1.00  0.00    -0.249 C  
BRANCH   5   6
HETATM    6  C   UNL     2     -11.168  11.599  68.775  1.00  0.00    -0.304 C  
BRANCH   6   7
HETATM    7  C   UNL     2     -11.678  11.776  67.350  1.00  0.00    -0.304 C  
BRANCH   7   8
HETATM    8  C   UNL     2     -11.670  13.251  66.957  1.00  0.00    -0.439 C  
BRANCH   8   9
HETATM    9  C   UNL     2     -11.124  14.112  68.090  1.00  0.00    -0.276 C  
BRANCH   9  10
HETATM   10  C   UNL     2     -10.256  15.243  67.546  1.00  0.00    -0.239 C  
BRANCH  10  11
HETATM   11  C   UNL     2     -10.480  16.523  68.344  1.00  0.00    -0.307 C  
BRANCH  11  12
HETATM   12  C   UNL     2     -10.636  17.728  67.423  1.00  0.00    -0.341 C  
BRANCH  12  13
HETATM   13  C   UNL     2      -9.279  18.188  66.898  1.00  0.00    -0.278 C  
BRANCH  13  14
HETATM   14  O   UNL     2      -8.710  19.164  67.776  1.00  0.00    -0.290 OA 
BRANCH  14  15
HETATM   15  C   UNL     2      -7.778  19.993  67.213  1.00  0.00    -0.294 C  
HETATM   16  O   UNL     2      -7.246  20.923  67.811  1.00  0.00    -0.284 OA 
BRANCH  15  17
HETATM   17  C   UNL     2      -7.633  19.722  65.759  1.00  0.00    -0.289 C  
HETATM   18  S   UNL     2      -6.000  19.192  65.390  1.00  0.00    -0.236 S  
HETATM   19  O   UNL     2      -5.154  20.306  65.809  1.00  0.00    -0.165 OA 
HETATM   20  O   UNL     2      -6.059  18.988  63.943  1.00  0.00    -0.416 OA 
HETATM   21  O   UNL     2      -5.835  17.962  66.165  1.00  0.00    -0.165 OA 
ENDBRANCH  15  17
ENDBRANCH  14  15
ENDBRANCH  13  14
ENDBRANCH  12  13
ENDBRANCH  11  12
ENDBRANCH  10  11
ENDBRANCH   9  10
ENDBRANCH   8   9
ENDBRANCH   7   8
ENDBRANCH   6   7
ENDBRANCH   5   6
ENDBRANCH   4   5
ENDBRANCH   3   4
TORSDOF 13
ENDMDL
MODEL      304
REMARK 921   NORMALIZED FREE ENERGY PREDICTED BY IDOCK:   -2.92 KCAL/MOL
REMARK 922        TOTAL FREE ENERGY PREDICTED BY IDOCK:   -6.71 KCAL/MOL
REMARK 923 INTER-LIGAND FREE ENERGY PREDICTED BY IDOCK:   -5.91 KCAL/MOL
REMARK 924 INTRA-LIGAND FREE ENERGY PREDICTED BY IDOCK:   -0.80 KCAL/MOL
REMARK 927      BINDING AFFINITY PREDICTED BY RF-SCORE:    0.00 PKD
ROOT
HETATM    1 NA   UNL     1     -10.830  20.443  69.936  1.00  0.00    -0.645 Na 
HETATM    2  C   UNL     2     -10.761  19.144  67.149  1.00  0.00    -0.567 C  
HETATM    3  C   UNL     2      -9.307  18.880  66.796  1.00  0.00    -0.343 C  
ENDROOT
BRANCH   3   4
HETATM    4  C   UNL     2      -9.085  17.401  66.497  1.00  0.00    -0.288 C  
BRANCH   4   5
HETATM    5  C   UNL     2     -10.365  16.728  66.009  1.00  0.00    -0.346 C  
BRANCH   5   6
HETATM    6  C   UNL     2     -10.082  15.286  65.597  1.00  0.00    -0.401 C  
BRANCH   6   7
HETATM    7  C   UNL     2      -9.856  14.396  66.814  1.00  0.00    -0.269 C  
BRANCH   7   8
HETATM    8  C   UNL     2     -11.059  14.455  67.751  1.00  0.00    -0.299 C  
BRANCH   8   9
HETATM    9  C   UNL     2     -11.757  13.101  67.824  1.00  0.00    -0.401 C  
BRANCH   9  10
HETATM   10  C   UNL     2     -11.956  12.668  69.274  1.00  0.00    -0.301 C  
BRANCH  10  11
HETATM   11  C   UNL     2     -11.743  11.165  69.419  1.00  0.00    -0.402 C  
BRANCH  11  12
HETATM   12  C   UNL     2     -10.293  10.784  69.141  1.00  0.00    -0.238 C  
BRANCH  12  13
HETATM   13  C   UNL     2     -10.217   9.507  68.310  1.00  0.00    -0.193 C  
BRANCH  13  14
HETATM   14  O   UNL     2      -8.857   9.195  67.997  1.00  0.00    -0.129 OA 
BRANCH  14  15
HETATM   15  C   UNL     2      -8.184  10.146  67.278  1.00  0.00    -0.117 C  
HETATM   16  O   UNL     2      -7.126  10.651  67.643  1.00  0.00    -0.081 OA 
BRANCH  15  17
HETATM   17  C   UNL     2      -8.982  10.593  66.108  1.00  0.00    -0.168 C  
HETATM   18  S   UNL     2      -8.421   9.807  64.641  1.00  0.00    -0.188 S  
HETATM   19  O   UNL     2      -7.025  10.219  64.521  1.00  0.00    -0.128 OA 
HETATM   20  O   UNL     2      -9.309  10.373  63.626  1.00  0.00    -0.243 OA 
HETATM   21  O   UNL     2      -8.626   8.381  64.893  1.00  0.00    -0.161 OA 
ENDBRANCH  15  17
ENDBRANCH  14  15
ENDBRANCH  13  14
ENDBRANCH  12  13
ENDBRANCH  11  12
ENDBRANCH  10  11
ENDBRANCH   9  10
ENDBRANCH   8   9
ENDBRANCH   7   8
ENDBRANCH   6   7
ENDBRANCH   5   6
ENDBRANCH   4   5
ENDBRANCH   3   4
TORSDOF 13
ENDMDL
MODEL      305
REMARK 921   NORMALIZED FREE ENERGY PREDICTED BY IDOCK:   -2.91 KCAL/MOL
REMARK 922        TOTAL FREE ENERGY PREDICTED BY IDOCK:   -6.69 KCAL/MOL
REMARK 923 INTER-LIGAND FREE ENERGY PREDICTED BY IDOCK:   -6.38 KCAL/MOL
REMARK 924 INTRA-LIGAND FREE ENERGY PREDICTED BY IDOCK:   -0.31 KCAL/MOL
REMARK 927      BINDING AFFINITY PREDICTED BY RF-SCORE:    0.00 PKD
ROOT
HETATM    1 NA   UNL     1     -10.379   1.611  67.771  1.00  0.00    -0.415 Na 
HETATM    2  C   UNL     2      -8.832   3.558  65.961  1.00  0.00    -0.129 C  
HETATM    3  C   UNL     2      -9.549   4.897  66.000  1.00  0.00    -0.185 C  
ENDROOT
BRANCH   3   4
HETATM    4  C   UNL     2      -8.604   6.000  66.464  1.00  0.00    -0.124 C  
BRANCH   4   5
HETATM    5  C   UNL     2      -8.245   6.950  65.324  1.00  0.00    -0.129 C  
BRANCH   5   6
HETATM    6  C   UNL     2      -8.525   8.395  65.730  1.00  0.00    -0.169 C  
BRANCH   6   7
HETATM    7  C   UNL     2      -9.156   8.469  67.115  1.00  0.00    -0.164 C  
BRANCH   7   8
HETATM    8  C   UNL     2     -10.393   9.363  67.093  1.00  0.00    -0.326 C  
BRANCH   8   9
HETATM    9  C   UNL     2      -9.999  10.836  67.102  1.00  0.00    -0.230 C  
BRANCH   9  10
HETATM   10  C   UNL     2     -10.890  11.633  68.051  1.00  0.00    -0.259 C  
BRANCH  10  11
HETATM   11  C   UNL     2     -10.067  12.655  68.828  1.00  0.00    -0.057 C  
BRANCH  11  12
HETATM   12  C   UNL     2     -10.592  14.069  68.606  1.00  0.00    -0.263 C  
BRANCH  12  13
HETATM   13  C   UNL     2     -11.441  14.140  67.341  1.00  0.00    -0.345 C  
BRANCH  13  14
HETATM   14  O   UNL     2     -11.054  15.263  66.543  1.00  0.00    -0.325 OA 
BRANCH  14  15
HETATM   15  C   UNL     2     -10.996  15.036  65.194  1.00  0.00    -0.406 C  
HETATM   16  O   UNL     2     -11.302  15.875  64.351  1.00  0.00    -0.435 OA 
BRANCH  15  17
HETATM   17  C   UNL     2     -10.685  13.613  64.905  1.00  0.00    -0.391 C  
HETATM   18  S   UNL     2     -12.068  12.813  64.178  1.00  0.00    -0.464 S  
HETATM   19  O   UNL     2     -13.123  12.933  65.181  1.00  0.00    -0.753 OA 
HETATM   20  O   UNL     2     -11.573  11.452  63.980  1.00  0.00    -0.272 OA 
HETATM   21  O   UNL     2     -12.305  13.554  62.939  1.00  0.00    -0.542 OA 
ENDBRANCH  15  17
ENDBRANCH  14  15
ENDBRANCH  13  14
ENDBRANCH  12  13
ENDBRANCH  11  12
ENDBRANCH  10  11
ENDBRANCH   9  10
ENDBRANCH   8   9
ENDBRANCH   7   8
ENDBRANCH   6   7
ENDBRANCH   5   6
ENDBRANCH   4   5
ENDBRANCH   3   4
TORSDOF 13
ENDMDL
MODEL      306
REMARK 921   NORMALIZED FREE ENERGY PREDICTED BY IDOCK:   -2.91 KCAL/MOL
REMARK 922        TOTAL FREE ENERGY PREDICTED BY IDOCK:   -6.68 KCAL/MOL
REMARK 923 INTER-LIGAND FREE ENERGY PREDICTED BY IDOCK:   -5.60 KCAL/MOL
REMARK 924 INTRA-LIGAND FREE ENERGY PREDICTED BY IDOCK:   -1.08 KCAL/MOL
REMARK 927      BINDING AFFINITY PREDICTED BY RF-SCORE:    0.00 PKD
ROOT
HETATM    1 NA   UNL     1     -11.617  16.199  67.871  1.00  0.00    -0.319 Na 
HETATM    2  C   UNL     2      -8.888  15.804  66.509  1.00  0.00    -0.345 C  
HETATM    3  C   UNL     2      -7.831  15.735  67.599  1.00  0.00    -0.168 C  
ENDROOT
BRANCH   3   4
HETATM    4  C   UNL     2      -7.050  14.428  67.509  1.00  0.00    -0.197 C  
BRANCH   4   5
HETATM    5  C   UNL     2      -6.828  13.811  68.887  1.00  0.00    -0.110 C  
BRANCH   5   6
HETATM    6  C   UNL     2      -6.506  12.324  68.756  1.00  0.00    -0.082 C  
BRANCH   6   7
HETATM    7  C   UNL     2      -7.053  11.751  67.454  1.00  0.00    -0.126 C  
BRANCH   7   8
HETATM    8  C   UNL     2      -5.917  11.451  66.481  1.00  0.00    -0.130 C  
BRANCH   8   9
HETATM    9  C   UNL     2      -5.987  10.009  65.993  1.00  0.00    -0.074 C  
BRANCH   9  10
HETATM   10  C   UNL     2      -6.309   9.954  64.501  1.00  0.00    -0.119 C  
BRANCH  10  11
HETATM   11  C   UNL     2      -7.296   8.828  64.207  1.00  0.00    -0.103 C  
BRANCH  11  12
HETATM   12  C   UNL     2      -8.623   9.377  63.696  1.00  0.00    -0.220 C  
BRANCH  12  13
HETATM   13  C   UNL     2      -9.459   9.931  64.845  1.00  0.00    -0.291 C  
BRANCH  13  14
HETATM   14  O   UNL     2     -10.564  10.687  64.339  1.00  0.00    -0.308 OA 
BRANCH  14  15
HETATM   15  C   UNL     2     -10.378  12.042  64.289  1.00  0.00    -0.322 C  
HETATM   16  O   UNL     2      -9.792  12.615  63.374  1.00  0.00    -0.262 OA 
BRANCH  15  17
HETATM   17  C   UNL     2     -10.821  12.688  65.552  1.00  0.00    -0.279 C  
HETATM   18  S   UNL     2     -12.262  13.653  65.279  1.00  0.00    -0.469 S  
HETATM   19  O   UNL     2     -11.851  14.646  64.290  1.00  0.00    -0.405 OA 
HETATM   20  O   UNL     2     -12.528  14.198  66.610  1.00  0.00    -0.426 OA 
HETATM   21  O   UNL     2     -13.259  12.691  64.811  1.00  0.00    -0.846 OA 
ENDBRANCH  15  17
ENDBRANCH  14  15
ENDBRANCH  13  14
ENDBRANCH  12  13
ENDBRANCH  11  12
ENDBRANCH  10  11
ENDBRANCH   9  10
ENDBRANCH   8   9
ENDBRANCH   7   8
ENDBRANCH   6   7
ENDBRANCH   5   6
ENDBRANCH   4   5
ENDBRANCH   3   4
TORSDOF 13
ENDMDL
MODEL      307
REMARK 921   NORMALIZED FREE ENERGY PREDICTED BY IDOCK:   -2.91 KCAL/MOL
REMARK 922        TOTAL FREE ENERGY PREDICTED BY IDOCK:   -6.68 KCAL/MOL
REMARK 923 INTER-LIGAND FREE ENERGY PREDICTED BY IDOCK:   -5.91 KCAL/MOL
REMARK 924 INTRA-LIGAND FREE ENERGY PREDICTED BY IDOCK:   -0.77 KCAL/MOL
REMARK 927      BINDING AFFINITY PREDICTED BY RF-SCORE:    0.00 PKD
ROOT
HETATM    1 NA   UNL     1      -7.593  17.303  65.833  1.00  0.00    -0.210 Na 
HETATM    2  C   UNL     2      -9.762  16.477  67.850  1.00  0.00    -0.236 C  
HETATM    3  C   UNL     2     -10.537  15.316  67.249  1.00  0.00    -0.290 C  
ENDROOT
BRANCH   3   4
HETATM    4  C   UNL     2     -10.493  14.104  68.173  1.00  0.00    -0.244 C  
BRANCH   4   5
HETATM    5  C   UNL     2     -11.864  13.447  68.304  1.00  0.00    -0.393 C  
BRANCH   5   6
HETATM    6  C   UNL     2     -11.744  11.933  68.145  1.00  0.00    -0.388 C  
BRANCH   6   7
HETATM    7  C   UNL     2     -11.378  11.265  69.465  1.00  0.00    -0.362 C  
BRANCH   7   8
HETATM    8  C   UNL     2     -12.278  11.770  70.589  1.00  0.00    -0.443 C  
BRANCH   8   9
HETATM    9  C   UNL     2     -12.649  10.636  71.538  1.00  0.00    -0.517 C  
BRANCH   9  10
HETATM   10  C   UNL     2     -11.567   9.560  71.552  1.00  0.00    -0.465 C  
BRANCH  10  11
HETATM   11  C   UNL     2     -12.055   8.318  72.290  1.00  0.00    -0.439 C  
BRANCH  11  12
HETATM   12  C   UNL     2     -12.465   7.220  71.314  1.00  0.00    -0.402 C  
BRANCH  12  13
HETATM   13  C   UNL     2     -11.511   7.168  70.126  1.00  0.00    -0.205 C  
BRANCH  13  14
HETATM   14  O   UNL     2     -11.225   5.810  69.775  1.00  0.00    -0.355 OA 
BRANCH  14  15
HETATM   15  C   UNL     2      -9.913   5.535  69.501  1.00  0.00    -0.210 C  
HETATM   16  O   UNL     2      -9.549   4.815  68.576  1.00  0.00    -0.140 OA 
BRANCH  15  17
HETATM   17  C   UNL     2      -9.022   6.076  70.560  1.00  0.00    -0.146 C  
HETATM   18  S   UNL     2      -8.789   4.892  71.836  1.00  0.00    -0.129 S  
HETATM   19  O   UNL     2     -10.134   4.644  72.349  1.00  0.00    -0.169 OA 
HETATM   20  O   UNL     2      -7.909   5.602  72.762  1.00  0.00    -0.100 OA 
HETATM   21  O   UNL     2      -8.164   3.753  71.163  1.00  0.00    -0.066 OA 
ENDBRANCH  15  17
ENDBRANCH  14  15
ENDBRANCH  13  14
ENDBRANCH  12  13
ENDBRANCH  11  12
ENDBRANCH  10  11
ENDBRANCH   9  10
ENDBRANCH   8   9
ENDBRANCH   7   8
ENDBRANCH   6   7
ENDBRANCH   5   6
ENDBRANCH   4   5
ENDBRANCH   3   4
TORSDOF 13
ENDMDL
MODEL      308
REMARK 921   NORMALIZED FREE ENERGY PREDICTED BY IDOCK:   -2.90 KCAL/MOL
REMARK 922        TOTAL FREE ENERGY PREDICTED BY IDOCK:   -6.68 KCAL/MOL
REMARK 923 INTER-LIGAND FREE ENERGY PREDICTED BY IDOCK:   -6.06 KCAL/MOL
REMARK 924 INTRA-LIGAND FREE ENERGY PREDICTED BY IDOCK:   -0.62 KCAL/MOL
REMARK 927      BINDING AFFINITY PREDICTED BY RF-SCORE:    0.00 PKD
ROOT
HETATM    1 NA   UNL     1      -9.089  12.243  64.622  1.00  0.00    -0.410 Na 
HETATM    2  C   UNL     2      -7.376  11.685  67.114  1.00  0.00    -0.143 C  
HETATM    3  C   UNL     2      -8.306  11.642  68.316  1.00  0.00    -0.159 C  
ENDROOT
BRANCH   3   4
HETATM    4  C   UNL     2      -8.183  10.308  69.044  1.00  0.00    -0.139 C  
BRANCH   4   5
HETATM    5  C   UNL     2      -9.435   9.453  68.866  1.00  0.00    -0.154 C  
BRANCH   5   6
HETATM    6  C   UNL     2     -10.659  10.342  68.659  1.00  0.00    -0.234 C  
BRANCH   6   7
HETATM    7  C   UNL     2     -10.993  10.490  67.179  1.00  0.00    -0.294 C  
BRANCH   7   8
HETATM    8  C   UNL     2     -11.638  11.847  66.908  1.00  0.00    -0.358 C  
BRANCH   8   9
HETATM    9  C   UNL     2     -11.977  12.557  68.214  1.00  0.00    -0.274 C  
BRANCH   9  10
HETATM   10  C   UNL     2     -11.828  14.069  68.066  1.00  0.00    -0.403 C  
BRANCH  10  11
HETATM   11  C   UNL     2     -11.794  14.463  66.593  1.00  0.00    -0.417 C  
BRANCH  11  12
HETATM   12  C   UNL     2     -10.384  14.846  66.157  1.00  0.00    -0.312 C  
BRANCH  12  13
HETATM   13  C   UNL     2     -10.188  16.358  66.221  1.00  0.00    -0.330 C  
BRANCH  13  14
HETATM   14  O   UNL     2      -8.868  16.708  65.796  1.00  0.00    -0.493 OA 
BRANCH  14  15
HETATM   15  C   UNL     2      -8.378  17.883  66.299  1.00  0.00    -0.196 C  
HETATM   16  O   UNL     2      -7.181  18.113  66.444  1.00  0.00    -0.212 OA 
BRANCH  15  17
HETATM   17  C   UNL     2      -9.478  18.750  66.796  1.00  0.00    -0.319 C  
HETATM   18  S   UNL     2      -9.197  19.207  68.468  1.00  0.00    -0.388 S  
HETATM   19  O   UNL     2      -9.156  17.938  69.188  1.00  0.00    -0.085 OA 
HETATM   20  O   UNL     2     -10.365  20.035  68.765  1.00  0.00    -0.433 OA 
HETATM   21  O   UNL     2      -7.932  19.941  68.435  1.00  0.00    -0.305 OA 
ENDBRANCH  15  17
ENDBRANCH  14  15
ENDBRANCH  13  14
ENDBRANCH  12  13
ENDBRANCH  11  12
ENDBRANCH  10  11
ENDBRANCH   9  10
ENDBRANCH   8   9
ENDBRANCH   7   8
ENDBRANCH   6   7
ENDBRANCH   5   6
ENDBRANCH   4   5
ENDBRANCH   3   4
TORSDOF 13
ENDMDL
MODEL      309
REMARK 921   NORMALIZED FREE ENERGY PREDICTED BY IDOCK:   -2.90 KCAL/MOL
REMARK 922        TOTAL FREE ENERGY PREDICTED BY IDOCK:   -6.66 KCAL/MOL
REMARK 923 INTER-LIGAND FREE ENERGY PREDICTED BY IDOCK:   -5.79 KCAL/MOL
REMARK 924 INTRA-LIGAND FREE ENERGY PREDICTED BY IDOCK:   -0.87 KCAL/MOL
REMARK 927      BINDING AFFINITY PREDICTED BY RF-SCORE:    0.00 PKD
ROOT
HETATM    1 NA   UNL     1     -11.354  15.998  67.125  1.00  0.00    -0.320 Na 
HETATM    2  C   UNL     2     -12.465  13.645  65.485  1.00  0.00    -0.544 C  
HETATM    3  C   UNL     2     -12.029  13.839  64.042  1.00  0.00    -0.451 C  
ENDROOT
BRANCH   3   4
HETATM    4  C   UNL     2     -11.239  12.631  63.551  1.00  0.00    -0.489 C  
BRANCH   4   5
HETATM    5  C   UNL     2     -11.479  11.407  64.430  1.00  0.00    -0.148 C  
BRANCH   5   6
HETATM    6  C   UNL     2     -10.184  10.618  64.606  1.00  0.00    -0.404 C  
BRANCH   6   7
HETATM    7  C   UNL     2      -9.646  10.746  66.027  1.00  0.00    -0.244 C  
BRANCH   7   8
HETATM    8  C   UNL     2     -10.335   9.747  66.953  1.00  0.00    -0.301 C  
BRANCH   8   9
HETATM    9  C   UNL     2      -9.746   8.352  66.781  1.00  0.00    -0.309 C  
BRANCH   9  10
HETATM   10  C   UNL     2     -10.778   7.279  67.122  1.00  0.00    -0.413 C  
BRANCH  10  11
HETATM   11  C   UNL     2     -10.311   6.444  68.310  1.00  0.00    -0.228 C  
BRANCH  11  12
HETATM   12  C   UNL     2     -11.307   6.517  69.461  1.00  0.00    -0.419 C  
BRANCH  12  13
HETATM   13  C   UNL     2     -10.700   5.950  70.740  1.00  0.00    -0.277 C  
BRANCH  13  14
HETATM   14  O   UNL     2      -9.914   6.945  71.403  1.00  0.00    -0.182 OA 
BRANCH  14  15
HETATM   15  C   UNL     2      -8.565   6.712  71.427  1.00  0.00    -0.125 C  
HETATM   16  O   UNL     2      -8.067   5.594  71.325  1.00  0.00    -0.109 OA 
BRANCH  15  17
HETATM   17  C   UNL     2      -7.816   7.950  71.760  1.00  0.00    -0.099 C  
HETATM   18  S   UNL     2      -7.806   9.053  70.393  1.00  0.00    -0.134 S  
HETATM   19  O   UNL     2      -7.146   8.302  69.328  1.00  0.00    -0.057 OA 
HETATM   20  O   UNL     2      -7.032  10.181  70.909  1.00  0.00    -0.341 OA 
HETATM   21  O   UNL     2      -9.219   9.349  70.157  1.00  0.00    -0.198 OA 
ENDBRANCH  15  17
ENDBRANCH  14  15
ENDBRANCH  13  14
ENDBRANCH  12  13
ENDBRANCH  11  12
ENDBRANCH  10  11
ENDBRANCH   9  10
ENDBRANCH   8   9
ENDBRANCH   7   8
ENDBRANCH   6   7
ENDBRANCH   5   6
ENDBRANCH   4   5
ENDBRANCH   3   4
TORSDOF 13
ENDMDL
MODEL      310
REMARK 921   NORMALIZED FREE ENERGY PREDICTED BY IDOCK:   -2.89 KCAL/MOL
REMARK 922        TOTAL FREE ENERGY PREDICTED BY IDOCK:   -6.66 KCAL/MOL
REMARK 923 INTER-LIGAND FREE ENERGY PREDICTED BY IDOCK:   -5.34 KCAL/MOL
REMARK 924 INTRA-LIGAND FREE ENERGY PREDICTED BY IDOCK:   -1.32 KCAL/MOL
REMARK 927      BINDING AFFINITY PREDICTED BY RF-SCORE:    0.00 PKD
ROOT
HETATM    1 NA   UNL     1      -9.574  15.323  70.664  1.00  0.00    -0.357 Na 
HETATM    2  C   UNL     2      -8.293  14.427  68.015  1.00  0.00    -0.157 C  
HETATM    3  C   UNL     2      -7.448  13.197  68.301  1.00  0.00    -0.129 C  
ENDROOT
BRANCH   3   4
HETATM    4  C   UNL     2      -7.894  12.023  67.436  1.00  0.00    -0.162 C  
BRANCH   4   5
HETATM    5  C   UNL     2      -9.004  12.427  66.470  1.00  0.00    -0.145 C  
BRANCH   5   6
HETATM    6  C   UNL     2      -9.550  11.199  65.746  1.00  0.00    -0.255 C  
BRANCH   6   7
HETATM    7  C   UNL     2     -10.769  11.551  64.900  1.00  0.00    -0.357 C  
BRANCH   7   8
HETATM    8  C   UNL     2     -10.923  13.065  64.786  1.00  0.00    -0.349 C  
BRANCH   8   9
HETATM    9  C   UNL     2     -12.212  13.532  65.452  1.00  0.00    -0.482 C  
BRANCH   9  10
HETATM   10  C   UNL     2     -11.932  14.107  66.839  1.00  0.00    -0.479 C  
BRANCH  10  11
HETATM   11  C   UNL     2     -12.381  13.134  67.924  1.00  0.00     0.098 C  
BRANCH  11  12
HETATM   12  C   UNL     2     -11.469  13.210  69.144  1.00  0.00    -0.358 C  
BRANCH  12  13
HETATM   13  C   UNL     2     -11.952  12.266  70.241  1.00  0.00    -0.290 C  
BRANCH  13  14
HETATM   14  O   UNL     2     -12.220  10.969  69.700  1.00  0.00    -0.330 OA 
BRANCH  14  15
HETATM   15  C   UNL     2     -11.804   9.913  70.465  1.00  0.00    -0.270 C  
HETATM   16  O   UNL     2     -12.554   9.257  71.183  1.00  0.00    -0.308 OA 
BRANCH  15  17
HETATM   17  C   UNL     2     -10.324   9.785  70.438  1.00  0.00    -0.293 C  
HETATM   18  S   UNL     2      -9.854   8.141  70.036  1.00  0.00    -0.183 S  
HETATM   19  O   UNL     2     -10.438   7.328  71.099  1.00  0.00    -0.210 OA 
HETATM   20  O   UNL     2      -8.394   8.219  70.066  1.00  0.00    -0.117 OA 
HETATM   21  O   UNL     2     -10.418   7.919  68.705  1.00  0.00    -0.203 OA 
ENDBRANCH  15  17
ENDBRANCH  14  15
ENDBRANCH  13  14
ENDBRANCH  12  13
ENDBRANCH  11  12
ENDBRANCH  10  11
ENDBRANCH   9  10
ENDBRANCH   8   9
ENDBRANCH   7   8
ENDBRANCH   6   7
ENDBRANCH   5   6
ENDBRANCH   4   5
ENDBRANCH   3   4
TORSDOF 13
ENDMDL
MODEL      311
REMARK 921   NORMALIZED FREE ENERGY PREDICTED BY IDOCK:   -2.89 KCAL/MOL
REMARK 922        TOTAL FREE ENERGY PREDICTED BY IDOCK:   -6.65 KCAL/MOL
REMARK 923 INTER-LIGAND FREE ENERGY PREDICTED BY IDOCK:   -5.76 KCAL/MOL
REMARK 924 INTRA-LIGAND FREE ENERGY PREDICTED BY IDOCK:   -0.89 KCAL/MOL
REMARK 927      BINDING AFFINITY PREDICTED BY RF-SCORE:    0.00 PKD
ROOT
HETATM    1 NA   UNL     1     -11.277  18.645  64.640  1.00  0.00    -0.439 Na 
HETATM    2  C   UNL     2      -9.159  17.154  66.298  1.00  0.00    -0.260 C  
HETATM    3  C   UNL     2      -8.559  18.144  67.282  1.00  0.00    -0.240 C  
ENDROOT
BRANCH   3   4
HETATM    4  C   UNL     2      -8.723  17.647  68.714  1.00  0.00    -0.207 C  
BRANCH   4   5
HETATM    5  C   UNL     2      -7.867  16.412  68.981  1.00  0.00    -0.231 C  
BRANCH   5   6
HETATM    6  C   UNL     2      -8.753  15.187  69.191  1.00  0.00    -0.216 C  
BRANCH   6   7
HETATM    7  C   UNL     2      -8.205  13.973  68.450  1.00  0.00    -0.150 C  
BRANCH   7   8
HETATM    8  C   UNL     2      -9.343  13.159  67.840  1.00  0.00    -0.215 C  
BRANCH   8   9
HETATM    9  C   UNL     2     -10.645  13.952  67.853  1.00  0.00    -0.248 C  
BRANCH   9  10
HETATM   10  C   UNL     2     -11.769  13.143  68.498  1.00  0.00    -0.387 C  
BRANCH  10  11
HETATM   11  C   UNL     2     -11.246  11.798  68.991  1.00  0.00    -0.324 C  
BRANCH  11  12
HETATM   12  C   UNL     2     -12.368  10.956  69.588  1.00  0.00    -0.290 C  
BRANCH  12  13
HETATM   13  C   UNL     2     -12.206  10.829  71.099  1.00  0.00    -0.352 C  
BRANCH  13  14
HETATM   14  O   UNL     2     -11.402   9.690  71.421  1.00  0.00    -0.361 OA 
BRANCH  14  15
HETATM   15  C   UNL     2     -12.091   8.568  71.793  1.00  0.00    -0.333 C  
HETATM   16  O   UNL     2     -12.744   8.483  72.829  1.00  0.00    -0.289 OA 
BRANCH  15  17
HETATM   17  C   UNL     2     -11.802   7.436  70.875  1.00  0.00    -0.290 C  
HETATM   18  S   UNL     2     -10.754   6.262  71.653  1.00  0.00    -0.248 S  
HETATM   19  O   UNL     2      -9.541   7.012  71.969  1.00  0.00    -0.141 OA 
HETATM   20  O   UNL     2     -10.586   5.253  70.607  1.00  0.00    -0.253 OA 
HETATM   21  O   UNL     2     -11.519   5.805  72.813  1.00  0.00    -0.290 OA 
ENDBRANCH  15  17
ENDBRANCH  14  15
ENDBRANCH  13  14
ENDBRANCH  12  13
ENDBRANCH  11  12
ENDBRANCH  10  11
ENDBRANCH   9  10
ENDBRANCH   8   9
ENDBRANCH   7   8
ENDBRANCH   6   7
ENDBRANCH   5   6
ENDBRANCH   4   5
ENDBRANCH   3   4
TORSDOF 13
ENDMDL
MODEL      312
REMARK 921   NORMALIZED FREE ENERGY PREDICTED BY IDOCK:   -2.88 KCAL/MOL
REMARK 922        TOTAL FREE ENERGY PREDICTED BY IDOCK:   -6.63 KCAL/MOL
REMARK 923 INTER-LIGAND FREE ENERGY PREDICTED BY IDOCK:   -6.08 KCAL/MOL
REMARK 924 INTRA-LIGAND FREE ENERGY PREDICTED BY IDOCK:   -0.55 KCAL/MOL
REMARK 927      BINDING AFFINITY PREDICTED BY RF-SCORE:    0.00 PKD
ROOT
HETATM    1 NA   UNL     1     -10.888  20.346  70.672  1.00  0.00    -0.865 Na 
HETATM    2  C   UNL     2     -10.338  18.877  68.027  1.00  0.00    -0.457 C  
HETATM    3  C   UNL     2      -9.837  17.483  68.366  1.00  0.00    -0.325 C  
ENDROOT
BRANCH   3   4
HETATM    4  C   UNL     2     -10.723  16.421  67.724  1.00  0.00    -0.328 C  
BRANCH   4   5
HETATM    5  C   UNL     2     -11.673  15.793  68.740  1.00  0.00    -0.387 C  
BRANCH   5   6
HETATM    6  C   UNL     2     -11.676  14.274  68.596  1.00  0.00    -0.380 C  
BRANCH   6   7
HETATM    7  C   UNL     2     -10.272  13.740  68.335  1.00  0.00    -0.248 C  
BRANCH   7   8
HETATM    8  C   UNL     2     -10.330  12.472  67.486  1.00  0.00    -0.225 C  
BRANCH   8   9
HETATM    9  C   UNL     2     -11.580  11.661  67.806  1.00  0.00    -0.359 C  
BRANCH   9  10
HETATM   10  C   UNL     2     -11.218  10.353  68.504  1.00  0.00    -0.308 C  
BRANCH  10  11
HETATM   11  C   UNL     2     -11.075  10.569  70.007  1.00  0.00    -0.376 C  
BRANCH  11  12
HETATM   12  C   UNL     2     -11.616   9.378  70.790  1.00  0.00    -0.364 C  
BRANCH  12  13
HETATM   13  C   UNL     2     -11.024   8.072  70.270  1.00  0.00    -0.242 C  
BRANCH  13  14
HETATM   14  O   UNL     2     -11.366   6.989  71.139  1.00  0.00    -0.259 OA 
BRANCH  14  15
HETATM   15  C   UNL     2     -10.330   6.167  71.494  1.00  0.00    -0.209 C  
HETATM   16  O   UNL     2      -9.492   6.459  72.343  1.00  0.00    -0.145 OA 
BRANCH  15  17
HETATM   17  C   UNL     2     -10.265   4.977  70.607  1.00  0.00    -0.235 C  
HETATM   18  S   UNL     2      -8.678   4.844  69.868  1.00  0.00    -0.095 S  
HETATM   19  O   UNL     2      -8.529   6.082  69.107  1.00  0.00    -0.113 OA 
HETATM   20  O   UNL     2      -8.817   3.642  69.047  1.00  0.00    -0.086 OA 
HETATM   21  O   UNL     2      -7.762   4.699  70.999  1.00  0.00    -0.075 OA 
ENDBRANCH  15  17
ENDBRANCH  14  15
ENDBRANCH  13  14
ENDBRANCH  12  13
ENDBRANCH  11  12
ENDBRANCH  10  11
ENDBRANCH   9  10
ENDBRANCH   8   9
ENDBRANCH   7   8
ENDBRANCH   6   7
ENDBRANCH   5   6
ENDBRANCH   4   5
ENDBRANCH   3   4
TORSDOF 13
ENDMDL
MODEL      313
REMARK 921   NORMALIZED FREE ENERGY PREDICTED BY IDOCK:   -2.88 KCAL/MOL
REMARK 922        TOTAL FREE ENERGY PREDICTED BY IDOCK:   -6.62 KCAL/MOL
REMARK 923 INTER-LIGAND FREE ENERGY PREDICTED BY IDOCK:   -5.88 KCAL/MOL
REMARK 924 INTRA-LIGAND FREE ENERGY PREDICTED BY IDOCK:   -0.74 KCAL/MOL
REMARK 927      BINDING AFFINITY PREDICTED BY RF-SCORE:    0.00 PKD
ROOT
HETATM    1 NA   UNL     1      -6.308   8.960  73.376  1.00  0.00    -0.103 Na 
HETATM    2  C   UNL     2      -8.267   8.832  71.009  1.00  0.00    -0.194 C  
HETATM    3  C   UNL     2      -7.787   7.739  70.068  1.00  0.00    -0.103 C  
ENDROOT
BRANCH   3   4
HETATM    4  C   UNL     2      -8.877   6.694  69.857  1.00  0.00    -0.144 C  
BRANCH   4   5
HETATM    5  C   UNL     2      -8.971   5.733  71.038  1.00  0.00    -0.150 C  
BRANCH   5   6
HETATM    6  C   UNL     2     -10.394   5.200  71.177  1.00  0.00    -0.276 C  
BRANCH   6   7
HETATM    7  C   UNL     2     -11.214   6.053  72.137  1.00  0.00    -0.341 C  
BRANCH   7   8
HETATM    8  C   UNL     2     -11.965   7.144  71.378  1.00  0.00    -0.364 C  
BRANCH   8   9
HETATM    9  C   UNL     2     -11.774   8.501  72.046  1.00  0.00    -0.431 C  
BRANCH   9  10
HETATM   10  C   UNL     2     -12.678   9.554  71.409  1.00  0.00    -0.445 C  
BRANCH  10  11
HETATM   11  C   UNL     2     -11.849  10.713  70.866  1.00  0.00    -0.433 C  
BRANCH  11  12
HETATM   12  C   UNL     2     -12.343  11.148  69.491  1.00  0.00    -0.262 C  
BRANCH  12  13
HETATM   13  C   UNL     2     -11.469  12.264  68.928  1.00  0.00    -0.304 C  
BRANCH  13  14
HETATM   14  O   UNL     2     -11.849  12.565  67.582  1.00  0.00    -0.362 OA 
BRANCH  14  15
HETATM   15  C   UNL     2     -11.088  13.511  66.951  1.00  0.00    -0.296 C  
HETATM   16  O   UNL     2     -10.038  13.260  66.367  1.00  0.00    -0.276 OA 
BRANCH  15  17
HETATM   17  C   UNL     2     -11.610  14.877  67.215  1.00  0.00    -0.324 C  
HETATM   18  S   UNL     2     -10.333  15.920  67.820  1.00  0.00    -0.285 S  
HETATM   19  O   UNL     2      -9.891  15.273  69.052  1.00  0.00    -0.208 OA 
HETATM   20  O   UNL     2     -11.034  17.187  68.019  1.00  0.00    -0.362 OA 
HETATM   21  O   UNL     2      -9.343  15.942  66.743  1.00  0.00    -0.217 OA 
ENDBRANCH  15  17
ENDBRANCH  14  15
ENDBRANCH  13  14
ENDBRANCH  12  13
ENDBRANCH  11  12
ENDBRANCH  10  11
ENDBRANCH   9  10
ENDBRANCH   8   9
ENDBRANCH   7   8
ENDBRANCH   6   7
ENDBRANCH   5   6
ENDBRANCH   4   5
ENDBRANCH   3   4
TORSDOF 13
ENDMDL
MODEL      314
REMARK 921   NORMALIZED FREE ENERGY PREDICTED BY IDOCK:   -2.88 KCAL/MOL
REMARK 922        TOTAL FREE ENERGY PREDICTED BY IDOCK:   -6.62 KCAL/MOL
REMARK 923 INTER-LIGAND FREE ENERGY PREDICTED BY IDOCK:   -6.01 KCAL/MOL
REMARK 924 INTRA-LIGAND FREE ENERGY PREDICTED BY IDOCK:   -0.61 KCAL/MOL
REMARK 927      BINDING AFFINITY PREDICTED BY RF-SCORE:    0.00 PKD
ROOT
HETATM    1 NA   UNL     1     -11.237  17.505  70.722  1.00  0.00    -0.561 Na 
HETATM    2  C   UNL     2     -10.172  18.618  68.060  1.00  0.00    -0.426 C  
HETATM    3  C   UNL     2      -9.187  17.608  67.495  1.00  0.00    -0.243 C  
ENDROOT
BRANCH   3   4
HETATM    4  C   UNL     2      -9.611  17.164  66.100  1.00  0.00    -0.242 C  
BRANCH   4   5
HETATM    5  C   UNL     2     -10.756  16.157  66.154  1.00  0.00    -0.222 C  
BRANCH   5   6
HETATM    6  C   UNL     2     -10.499  15.120  67.244  1.00  0.00    -0.271 C  
BRANCH   6   7
HETATM    7  C   UNL     2     -11.480  13.957  67.145  1.00  0.00    -0.370 C  
BRANCH   7   8
HETATM    8  C   UNL     2     -12.386  14.123  65.928  1.00  0.00    -0.486 C  
BRANCH   8   9
HETATM    9  C   UNL     2     -12.355  12.876  65.053  1.00  0.00    -0.541 C  
BRANCH   9  10
HETATM   10  C   UNL     2     -10.932  12.339  64.920  1.00  0.00    -0.344 C  
BRANCH  10  11
HETATM   11  C   UNL     2     -10.750  11.626  63.584  1.00  0.00    -0.500 C  
BRANCH  11  12
HETATM   12  C   UNL     2      -9.629  10.595  63.657  1.00  0.00    -0.360 C  
BRANCH  12  13
HETATM   13  C   UNL     2      -9.285  10.270  65.107  1.00  0.00    -0.206 C  
BRANCH  13  14
HETATM   14  O   UNL     2      -8.126   9.434  65.169  1.00  0.00    -0.117 OA 
BRANCH  14  15
HETATM   15  C   UNL     2      -8.083   8.561  66.222  1.00  0.00    -0.107 C  
HETATM   16  O   UNL     2      -7.724   7.391  66.120  1.00  0.00    -0.088 OA 
BRANCH  15  17
HETATM   17  C   UNL     2      -8.682   9.165  67.440  1.00  0.00    -0.115 C  
HETATM   18  S   UNL     2      -9.926   8.117  68.100  1.00  0.00    -0.193 S  
HETATM   19  O   UNL     2     -10.910   8.002  67.027  1.00  0.00    -0.283 OA 
HETATM   20  O   UNL     2     -10.386   8.875  69.264  1.00  0.00    -0.205 OA 
HETATM   21  O   UNL     2      -9.221   6.879  68.429  1.00  0.00    -0.127 OA 
ENDBRANCH  15  17
ENDBRANCH  14  15
ENDBRANCH  13  14
ENDBRANCH  12  13
ENDBRANCH  11  12
ENDBRANCH  10  11
ENDBRANCH   9  10
ENDBRANCH   8   9
ENDBRANCH   7   8
ENDBRANCH   6   7
ENDBRANCH   5   6
ENDBRANCH   4   5
ENDBRANCH   3   4
TORSDOF 13
ENDMDL
MODEL      315
REMARK 921   NORMALIZED FREE ENERGY PREDICTED BY IDOCK:   -2.87 KCAL/MOL
REMARK 922        TOTAL FREE ENERGY PREDICTED BY IDOCK:   -6.62 KCAL/MOL
REMARK 923 INTER-LIGAND FREE ENERGY PREDICTED BY IDOCK:   -5.60 KCAL/MOL
REMARK 924 INTRA-LIGAND FREE ENERGY PREDICTED BY IDOCK:   -1.02 KCAL/MOL
REMARK 927      BINDING AFFINITY PREDICTED BY RF-SCORE:    0.00 PKD
ROOT
HETATM    1 NA   UNL     1     -12.551   6.514  69.328  1.00  0.00    -0.586 Na 
HETATM    2  C   UNL     2     -10.086   5.121  68.130  1.00  0.00    -0.192 C  
HETATM    3  C   UNL     2      -9.818   5.740  66.768  1.00  0.00    -0.188 C  
ENDROOT
BRANCH   3   4
HETATM    4  C   UNL     2      -8.405   6.309  66.704  1.00  0.00    -0.112 C  
BRANCH   4   5
HETATM    5  C   UNL     2      -8.039   6.745  65.288  1.00  0.00    -0.130 C  
BRANCH   5   6
HETATM    6  C   UNL     2      -7.342   8.103  65.314  1.00  0.00    -0.073 C  
BRANCH   6   7
HETATM    7  C   UNL     2      -7.153   8.601  66.742  1.00  0.00    -0.078 C  
BRANCH   7   8
HETATM    8  C   UNL     2      -7.873   9.930  66.946  1.00  0.00    -0.102 C  
BRANCH   8   9
HETATM    9  C   UNL     2      -8.429  10.455  65.627  1.00  0.00    -0.169 C  
BRANCH   9  10
HETATM   10  C   UNL     2      -9.927  10.730  65.738  1.00  0.00    -0.306 C  
BRANCH  10  11
HETATM   11  C   UNL     2     -10.368  11.734  64.677  1.00  0.00    -0.336 C  
BRANCH  11  12
HETATM   12  C   UNL     2     -11.645  12.453  65.095  1.00  0.00    -0.408 C  
BRANCH  12  13
HETATM   13  C   UNL     2     -11.795  12.454  66.613  1.00  0.00    -0.325 C  
BRANCH  13  14
HETATM   14  O   UNL     2     -11.997  13.786  67.094  1.00  0.00    -0.385 OA 
BRANCH  14  15
HETATM   15  C   UNL     2     -10.922  14.356  67.720  1.00  0.00    -0.274 C  
HETATM   16  O   UNL     2     -10.112  13.723  68.391  1.00  0.00    -0.233 OA 
BRANCH  15  17
HETATM   17  C   UNL     2     -10.970  15.838  67.621  1.00  0.00    -0.302 C  
HETATM   18  S   UNL     2     -10.094  16.390  66.203  1.00  0.00    -0.362 S  
HETATM   19  O   UNL     2      -8.728  15.916  66.414  1.00  0.00    -0.275 OA 
HETATM   20  O   UNL     2     -10.250  17.841  66.286  1.00  0.00    -0.350 OA 
HETATM   21  O   UNL     2     -10.797  15.772  65.079  1.00  0.00    -0.419 OA 
ENDBRANCH  15  17
ENDBRANCH  14  15
ENDBRANCH  13  14
ENDBRANCH  12  13
ENDBRANCH  11  12
ENDBRANCH  10  11
ENDBRANCH   9  10
ENDBRANCH   8   9
ENDBRANCH   7   8
ENDBRANCH   6   7
ENDBRANCH   5   6
ENDBRANCH   4   5
ENDBRANCH   3   4
TORSDOF 13
ENDMDL
MODEL      316
REMARK 921   NORMALIZED FREE ENERGY PREDICTED BY IDOCK:   -2.87 KCAL/MOL
REMARK 922        TOTAL FREE ENERGY PREDICTED BY IDOCK:   -6.61 KCAL/MOL
REMARK 923 INTER-LIGAND FREE ENERGY PREDICTED BY IDOCK:   -5.76 KCAL/MOL
REMARK 924 INTRA-LIGAND FREE ENERGY PREDICTED BY IDOCK:   -0.86 KCAL/MOL
REMARK 927      BINDING AFFINITY PREDICTED BY RF-SCORE:    0.00 PKD
ROOT
HETATM    1 NA   UNL     1     -10.376   6.818  67.513  1.00  0.00    -0.135 Na 
HETATM    2  C   UNL     2      -9.126   9.328  66.249  1.00  0.00    -0.213 C  
HETATM    3  C   UNL     2      -8.704   8.973  64.833  1.00  0.00    -0.200 C  
ENDROOT
BRANCH   3   4
HETATM    4  C   UNL     2      -9.371   9.901  63.823  1.00  0.00    -0.250 C  
BRANCH   4   5
HETATM    5  C   UNL     2      -9.855  11.191  64.480  1.00  0.00    -0.330 C  
BRANCH   5   6
HETATM    6  C   UNL     2     -10.757  11.967  63.523  1.00  0.00    -0.504 C  
BRANCH   6   7
HETATM    7  C   UNL     2     -12.034  12.426  64.217  1.00  0.00    -0.489 C  
BRANCH   7   8
HETATM    8  C   UNL     2     -11.988  13.928  64.483  1.00  0.00    -0.464 C  
BRANCH   8   9
HETATM    9  C   UNL     2     -12.287  14.229  65.948  1.00  0.00    -0.420 C  
BRANCH   9  10
HETATM   10  C   UNL     2     -11.869  13.063  66.840  1.00  0.00    -0.442 C  
BRANCH  10  11
HETATM   11  C   UNL     2     -10.813  13.510  67.846  1.00  0.00    -0.262 C  
BRANCH  11  12
HETATM   12  C   UNL     2      -9.406  13.297  67.301  1.00  0.00    -0.226 C  
BRANCH  12  13
HETATM   13  C   UNL     2      -8.605  14.594  67.344  1.00  0.00    -0.199 C  
BRANCH  13  14
HETATM   14  O   UNL     2      -9.371  15.633  67.961  1.00  0.00    -0.192 OA 
BRANCH  14  15
HETATM   15  C   UNL     2      -8.739  16.840  68.082  1.00  0.00    -0.219 C  
HETATM   16  O   UNL     2      -9.158  17.759  68.780  1.00  0.00    -0.275 OA 
BRANCH  15  17
HETATM   17  C   UNL     2      -7.597  16.941  67.137  1.00  0.00    -0.179 C  
HETATM   18  S   UNL     2      -6.551  18.282  67.574  1.00  0.00    -0.196 S  
HETATM   19  O   UNL     2      -7.414  19.457  67.490  1.00  0.00    -0.235 OA 
HETATM   20  O   UNL     2      -5.516  18.218  66.543  1.00  0.00    -0.135 OA 
HETATM   21  O   UNL     2      -6.083  17.953  68.919  1.00  0.00    -0.192 OA 
ENDBRANCH  15  17
ENDBRANCH  14  15
ENDBRANCH  13  14
ENDBRANCH  12  13
ENDBRANCH  11  12
ENDBRANCH  10  11
ENDBRANCH   9  10
ENDBRANCH   8   9
ENDBRANCH   7   8
ENDBRANCH   6   7
ENDBRANCH   5   6
ENDBRANCH   4   5
ENDBRANCH   3   4
TORSDOF 13
ENDMDL
MODEL      317
REMARK 921   NORMALIZED FREE ENERGY PREDICTED BY IDOCK:   -2.86 KCAL/MOL
REMARK 922        TOTAL FREE ENERGY PREDICTED BY IDOCK:   -6.59 KCAL/MOL
REMARK 923 INTER-LIGAND FREE ENERGY PREDICTED BY IDOCK:   -5.88 KCAL/MOL
REMARK 924 INTRA-LIGAND FREE ENERGY PREDICTED BY IDOCK:   -0.71 KCAL/MOL
REMARK 927      BINDING AFFINITY PREDICTED BY RF-SCORE:    0.00 PKD
ROOT
HETATM    1 NA   UNL     1      -8.817   7.565  69.206  1.00  0.00    -0.127 Na 
HETATM    2  C   UNL     2     -11.474   8.194  70.622  1.00  0.00    -0.237 C  
HETATM    3  C   UNL     2     -11.244   9.393  71.527  1.00  0.00    -0.457 C  
ENDROOT
BRANCH   3   4
HETATM    4  C   UNL     2     -12.206  10.524  71.177  1.00  0.00    -0.496 C  
BRANCH   4   5
HETATM    5  C   UNL     2     -12.354  10.688  69.667  1.00  0.00    -0.209 C  
BRANCH   5   6
HETATM    6  C   UNL     2     -11.286  11.638  69.130  1.00  0.00    -0.325 C  
BRANCH   6   7
HETATM    7  C   UNL     2     -10.808  11.210  67.747  1.00  0.00    -0.288 C  
BRANCH   7   8
HETATM    8  C   UNL     2     -10.316  12.416  66.953  1.00  0.00    -0.240 C  
BRANCH   8   9
HETATM    9  C   UNL     2     -11.301  12.776  65.846  1.00  0.00    -0.363 C  
BRANCH   9  10
HETATM   10  C   UNL     2     -10.634  13.648  64.785  1.00  0.00    -0.436 C  
BRANCH  10  11
HETATM   11  C   UNL     2      -9.900  14.817  65.435  1.00  0.00    -0.295 C  
BRANCH  11  12
HETATM   12  C   UNL     2     -10.803  16.039  65.551  1.00  0.00    -0.301 C  
BRANCH  12  13
HETATM   13  C   UNL     2     -10.796  16.586  66.975  1.00  0.00    -0.113 C  
BRANCH  13  14
HETATM   14  O   UNL     2     -10.502  17.986  66.970  1.00  0.00    -0.362 OA 
BRANCH  14  15
HETATM   15  C   UNL     2      -9.457  18.372  67.765  1.00  0.00    -0.280 C  
HETATM   16  O   UNL     2      -8.832  19.417  67.605  1.00  0.00    -0.296 OA 
BRANCH  15  17
HETATM   17  C   UNL     2      -9.084  17.294  68.717  1.00  0.00    -0.232 C  
HETATM   18  S   UNL     2      -7.374  16.915  68.581  1.00  0.00    -0.233 S  
HETATM   19  O   UNL     2      -7.209  16.482  67.196  1.00  0.00    -0.149 OA 
HETATM   20  O   UNL     2      -7.212  15.852  69.572  1.00  0.00    -0.207 OA 
HETATM   21  O   UNL     2      -6.698  18.166  68.923  1.00  0.00    -0.236 OA 
ENDBRANCH  15  17
ENDBRANCH  14  15
ENDBRANCH  13  14
ENDBRANCH  12  13
ENDBRANCH  11  12
ENDBRANCH  10  11
ENDBRANCH   9  10
ENDBRANCH   8   9
ENDBRANCH   7   8
ENDBRANCH   6   7
ENDBRANCH   5   6
ENDBRANCH   4   5
ENDBRANCH   3   4
TORSDOF 13
ENDMDL
MODEL      318
REMARK 921   NORMALIZED FREE ENERGY PREDICTED BY IDOCK:   -2.85 KCAL/MOL
REMARK 922        TOTAL FREE ENERGY PREDICTED BY IDOCK:   -6.58 KCAL/MOL
REMARK 923 INTER-LIGAND FREE ENERGY PREDICTED BY IDOCK:   -6.09 KCAL/MOL
REMARK 924 INTRA-LIGAND FREE ENERGY PREDICTED BY IDOCK:   -0.49 KCAL/MOL
REMARK 927      BINDING AFFINITY PREDICTED BY RF-SCORE:    0.00 PKD
ROOT
HETATM    1 NA   UNL     1     -11.151  16.290  63.434  1.00  0.00    -0.611 Na 
HETATM    2  C   UNL     2     -10.317  14.362  65.680  1.00  0.00    -0.360 C  
HETATM    3  C   UNL     2     -11.224  14.619  66.872  1.00  0.00    -0.345 C  
ENDROOT
BRANCH   3   4
HETATM    4  C   UNL     2     -11.952  13.343  67.280  1.00  0.00    -0.393 C  
BRANCH   4   5
HETATM    5  C   UNL     2     -11.678  12.981  68.737  1.00  0.00    -0.363 C  
BRANCH   5   6
HETATM    6  C   UNL     2     -12.109  11.543  69.017  1.00  0.00    -0.303 C  
BRANCH   6   7
HETATM    7  C   UNL     2     -11.790  11.138  70.451  1.00  0.00    -0.462 C  
BRANCH   7   8
HETATM    8  C   UNL     2     -13.035  11.245  71.328  1.00  0.00    -0.427 C  
BRANCH   8   9
HETATM    9  C   UNL     2     -13.129  10.062  72.284  1.00  0.00    -0.385 C  
BRANCH   9  10
HETATM   10  C   UNL     2     -13.862   8.892  71.632  1.00  0.00    -0.432 C  
BRANCH  10  11
HETATM   11  C   UNL     2     -13.056   7.605  71.779  1.00  0.00    -0.359 C  
BRANCH  11  12
HETATM   12  C   UNL     2     -11.586   7.903  72.050  1.00  0.00    -0.357 C  
BRANCH  12  13
HETATM   13  C   UNL     2     -10.729   7.552  70.838  1.00  0.00    -0.235 C  
BRANCH  13  14
HETATM   14  O   UNL     2      -9.694   8.524  70.661  1.00  0.00    -0.166 OA 
BRANCH  14  15
HETATM   15  C   UNL     2      -9.285   8.722  69.370  1.00  0.00    -0.146 C  
HETATM   16  O   UNL     2      -9.067   7.810  68.579  1.00  0.00    -0.133 OA 
BRANCH  15  17
HETATM   17  C   UNL     2      -8.984  10.156  69.121  1.00  0.00    -0.175 C  
HETATM   18  S   UNL     2      -7.250  10.433  69.131  1.00  0.00    -0.101 S  
HETATM   19  O   UNL     2      -6.827  10.026  70.469  1.00  0.00    -0.162 OA 
HETATM   20  O   UNL     2      -7.163  11.871  68.880  1.00  0.00    -0.109 OA 
HETATM   21  O   UNL     2      -6.743   9.599  68.042  1.00  0.00    -0.061 OA 
ENDBRANCH  15  17
ENDBRANCH  14  15
ENDBRANCH  13  14
ENDBRANCH  12  13
ENDBRANCH  11  12
ENDBRANCH  10  11
ENDBRANCH   9  10
ENDBRANCH   8   9
ENDBRANCH   7   8
ENDBRANCH   6   7
ENDBRANCH   5   6
ENDBRANCH   4   5
ENDBRANCH   3   4
TORSDOF 13
ENDMDL
MODEL      319
REMARK 921   NORMALIZED FREE ENERGY PREDICTED BY IDOCK:   -2.85 KCAL/MOL
REMARK 922        TOTAL FREE ENERGY PREDICTED BY IDOCK:   -6.57 KCAL/MOL
REMARK 923 INTER-LIGAND FREE ENERGY PREDICTED BY IDOCK:   -5.80 KCAL/MOL
REMARK 924 INTRA-LIGAND FREE ENERGY PREDICTED BY IDOCK:   -0.77 KCAL/MOL
REMARK 927      BINDING AFFINITY PREDICTED BY RF-SCORE:    0.00 PKD
ROOT
HETATM    1 NA   UNL     1      -7.557   8.248  71.039  1.00  0.00    -0.058 Na 
HETATM    2  C   UNL     2      -8.836   5.657  69.985  1.00  0.00    -0.136 C  
HETATM    3  C   UNL     2      -8.619   4.574  71.030  1.00  0.00    -0.126 C  
ENDROOT
BRANCH   3   4
HETATM    4  C   UNL     2      -9.951   3.982  71.476  1.00  0.00    -0.220 C  
BRANCH   4   5
HETATM    5  C   UNL     2      -9.993   3.767  72.986  1.00  0.00    -0.201 C  
BRANCH   5   6
HETATM    6  C   UNL     2     -10.641   4.966  73.674  1.00  0.00    -0.321 C  
BRANCH   6   7
HETATM    7  C   UNL     2     -11.435   5.811  72.685  1.00  0.00    -0.337 C  
BRANCH   7   8
HETATM    8  C   UNL     2     -11.130   7.293  72.881  1.00  0.00    -0.369 C  
BRANCH   8   9
HETATM    9  C   UNL     2     -11.734   8.125  71.755  1.00  0.00    -0.343 C  
BRANCH   9  10
HETATM   10  C   UNL     2     -12.804   9.072  72.292  1.00  0.00    -0.474 C  
BRANCH  10  11
HETATM   11  C   UNL     2     -13.311   9.991  71.185  1.00  0.00    -0.379 C  
BRANCH  11  12
HETATM   12  C   UNL     2     -12.601  11.340  71.220  1.00  0.00    -0.487 C  
BRANCH  12  13
HETATM   13  C   UNL     2     -11.829  11.581  69.927  1.00  0.00    -0.355 C  
BRANCH  13  14
HETATM   14  O   UNL     2     -11.902  12.959  69.551  1.00  0.00    -0.308 OA 
BRANCH  14  15
HETATM   15  C   UNL     2     -11.402  13.261  68.314  1.00  0.00    -0.300 C  
HETATM   16  O   UNL     2     -12.080  13.725  67.401  1.00  0.00    -0.386 OA 
BRANCH  15  17
HETATM   17  C   UNL     2      -9.996  12.798  68.179  1.00  0.00    -0.229 C  
HETATM   18  S   UNL     2      -8.922  14.159  67.899  1.00  0.00    -0.195 S  
HETATM   19  O   UNL     2      -9.407  14.752  66.655  1.00  0.00    -0.240 OA 
HETATM   20  O   UNL     2      -7.617  13.508  67.791  1.00  0.00    -0.130 OA 
HETATM   21  O   UNL     2      -9.081  14.997  69.087  1.00  0.00    -0.202 OA 
ENDBRANCH  15  17
ENDBRANCH  14  15
ENDBRANCH  13  14
ENDBRANCH  12  13
ENDBRANCH  11  12
ENDBRANCH  10  11
ENDBRANCH   9  10
ENDBRANCH   8   9
ENDBRANCH   7   8
ENDBRANCH   6   7
ENDBRANCH   5   6
ENDBRANCH   4   5
ENDBRANCH   3   4
TORSDOF 13
ENDMDL
MODEL      320
REMARK 921   NORMALIZED FREE ENERGY PREDICTED BY IDOCK:   -2.84 KCAL/MOL
REMARK 922        TOTAL FREE ENERGY PREDICTED BY IDOCK:   -6.56 KCAL/MOL
REMARK 923 INTER-LIGAND FREE ENERGY PREDICTED BY IDOCK:   -5.23 KCAL/MOL
REMARK 924 INTRA-LIGAND FREE ENERGY PREDICTED BY IDOCK:   -1.33 KCAL/MOL
REMARK 927      BINDING AFFINITY PREDICTED BY RF-SCORE:    0.00 PKD
ROOT
HETATM    1 NA   UNL     1     -10.783  10.285  62.736  1.00  0.00    -0.517 Na 
HETATM    2  C   UNL     2     -12.590  12.667  63.457  1.00  0.00    -0.415 C  
HETATM    3  C   UNL     2     -12.641  12.769  64.972  1.00  0.00    -0.538 C  
ENDROOT
BRANCH   3   4
HETATM    4  C   UNL     2     -12.175  14.145  65.436  1.00  0.00    -0.441 C  
BRANCH   4   5
HETATM    5  C   UNL     2     -10.675  14.165  65.716  1.00  0.00    -0.301 C  
BRANCH   5   6
HETATM    6  C   UNL     2     -10.318  13.122  66.772  1.00  0.00    -0.252 C  
BRANCH   6   7
HETATM    7  C   UNL     2     -10.989  13.432  68.105  1.00  0.00    -0.277 C  
BRANCH   7   8
HETATM    8  C   UNL     2     -11.782  12.225  68.599  1.00  0.00    -0.377 C  
BRANCH   8   9
HETATM    9  C   UNL     2     -11.174  10.926  68.081  1.00  0.00    -0.363 C  
BRANCH   9  10
HETATM   10  C   UNL     2     -10.594  10.101  69.227  1.00  0.00    -0.254 C  
BRANCH  10  11
HETATM   11  C   UNL     2     -10.560   8.622  68.860  1.00  0.00    -0.166 C  
BRANCH  11  12
HETATM   12  C   UNL     2      -9.221   8.237  68.240  1.00  0.00    -0.135 C  
BRANCH  12  13
HETATM   13  C   UNL     2      -8.167   8.016  69.321  1.00  0.00    -0.127 C  
BRANCH  13  14
HETATM   14  O   UNL     2      -6.915   8.580  68.920  1.00  0.00    -0.060 OA 
BRANCH  14  15
HETATM   15  C   UNL     2      -6.646   9.828  69.411  1.00  0.00    -0.049 C  
HETATM   16  O   UNL     2      -7.191  10.300  70.405  1.00  0.00    -0.257 OA 
BRANCH  15  17
HETATM   17  C   UNL     2      -5.749  10.581  68.496  1.00  0.00    -0.040 C  
HETATM   18  S   UNL     2      -6.667  11.736  67.544  1.00  0.00    -0.120 S  
HETATM   19  O   UNL     2      -7.619  10.916  66.800  1.00  0.00    -0.121 OA 
HETATM   20  O   UNL     2      -5.629  12.356  66.721  1.00  0.00    -0.319 OA 
HETATM   21  O   UNL     2      -7.263  12.630  68.536  1.00  0.00    -0.102 OA 
ENDBRANCH  15  17
ENDBRANCH  14  15
ENDBRANCH  13  14
ENDBRANCH  12  13
ENDBRANCH  11  12
ENDBRANCH  10  11
ENDBRANCH   9  10
ENDBRANCH   8   9
ENDBRANCH   7   8
ENDBRANCH   6   7
ENDBRANCH   5   6
ENDBRANCH   4   5
ENDBRANCH   3   4
TORSDOF 13
ENDMDL
MODEL      321
REMARK 921   NORMALIZED FREE ENERGY PREDICTED BY IDOCK:   -2.84 KCAL/MOL
REMARK 922        TOTAL FREE ENERGY PREDICTED BY IDOCK:   -6.56 KCAL/MOL
REMARK 923 INTER-LIGAND FREE ENERGY PREDICTED BY IDOCK:   -6.10 KCAL/MOL
REMARK 924 INTRA-LIGAND FREE ENERGY PREDICTED BY IDOCK:   -0.46 KCAL/MOL
REMARK 927      BINDING AFFINITY PREDICTED BY RF-SCORE:    0.00 PKD
ROOT
HETATM    1 NA   UNL     1      -7.051   7.310  72.639  1.00  0.00    -0.064 Na 
HETATM    2  C   UNL     2      -9.283   5.535  71.489  1.00  0.00    -0.164 C  
HETATM    3  C   UNL     2     -10.615   6.164  71.861  1.00  0.00    -0.263 C  
ENDROOT
BRANCH   3   4
HETATM    4  C   UNL     2     -11.442   6.453  70.613  1.00  0.00    -0.426 C  
BRANCH   4   5
HETATM    5  C   UNL     2     -10.756   7.472  69.708  1.00  0.00    -0.249 C  
BRANCH   5   6
HETATM    6  C   UNL     2     -11.135   8.891  70.124  1.00  0.00    -0.217 C  
BRANCH   6   7
HETATM    7  C   UNL     2      -9.906   9.788  70.217  1.00  0.00    -0.296 C  
BRANCH   7   8
HETATM    8  C   UNL     2      -9.722  10.580  68.925  1.00  0.00    -0.206 C  
BRANCH   8   9
HETATM    9  C   UNL     2     -11.004  10.578  68.100  1.00  0.00    -0.330 C  
BRANCH   9  10
HETATM   10  C   UNL     2     -11.765  11.890  68.273  1.00  0.00    -0.385 C  
BRANCH  10  11
HETATM   11  C   UNL     2     -10.876  12.945  68.922  1.00  0.00    -0.239 C  
BRANCH  11  12
HETATM   12  C   UNL     2     -11.599  14.282  69.038  1.00  0.00    -0.342 C  
BRANCH  12  13
HETATM   13  C   UNL     2     -11.488  15.073  67.738  1.00  0.00    -0.334 C  
BRANCH  13  14
HETATM   14  O   UNL     2     -11.286  16.462  68.015  1.00  0.00    -0.288 OA 
BRANCH  14  15
HETATM   15  C   UNL     2     -10.094  16.982  67.588  1.00  0.00    -0.298 C  
HETATM   16  O   UNL     2      -9.009  16.442  67.785  1.00  0.00    -0.196 OA 
BRANCH  15  17
HETATM   17  C   UNL     2     -10.278  18.342  67.020  1.00  0.00    -0.378 C  
HETATM   18  S   UNL     2      -9.301  19.512  67.891  1.00  0.00    -0.345 S  
HETATM   19  O   UNL     2      -9.791  19.441  69.265  1.00  0.00    -0.394 OA 
HETATM   20  O   UNL     2      -9.621  20.760  67.199  1.00  0.00    -0.433 OA 
HETATM   21  O   UNL     2      -7.927  19.052  67.699  1.00  0.00    -0.254 OA 
ENDBRANCH  15  17
ENDBRANCH  14  15
ENDBRANCH  13  14
ENDBRANCH  12  13
ENDBRANCH  11  12
ENDBRANCH  10  11
ENDBRANCH   9  10
ENDBRANCH   8   9
ENDBRANCH   7   8
ENDBRANCH   6   7
ENDBRANCH   5   6
ENDBRANCH   4   5
ENDBRANCH   3   4
TORSDOF 13
ENDMDL
MODEL      322
REMARK 921   NORMALIZED FREE ENERGY PREDICTED BY IDOCK:   -2.81 KCAL/MOL
REMARK 922        TOTAL FREE ENERGY PREDICTED BY IDOCK:   -6.52 KCAL/MOL
REMARK 923 INTER-LIGAND FREE ENERGY PREDICTED BY IDOCK:   -5.57 KCAL/MOL
REMARK 924 INTRA-LIGAND FREE ENERGY PREDICTED BY IDOCK:   -0.95 KCAL/MOL
REMARK 927      BINDING AFFINITY PREDICTED BY RF-SCORE:    0.00 PKD
ROOT
HETATM    1 NA   UNL     1     -14.278  14.205  65.276  1.00  0.00    -0.688 Na 
HETATM    2  C   UNL     2     -12.469  12.171  63.846  1.00  0.00    -0.581 C  
HETATM    3  C   UNL     2     -11.133  12.844  63.580  1.00  0.00    -0.371 C  
ENDROOT
BRANCH   3   4
HETATM    4  C   UNL     2      -9.994  12.051  64.213  1.00  0.00    -0.266 C  
BRANCH   4   5
HETATM    5  C   UNL     2     -10.040  10.581  63.806  1.00  0.00    -0.253 C  
BRANCH   5   6
HETATM    6  C   UNL     2      -9.610   9.694  64.971  1.00  0.00    -0.284 C  
BRANCH   6   7
HETATM    7  C   UNL     2      -9.830  10.391  66.309  1.00  0.00    -0.272 C  
BRANCH   7   8
HETATM    8  C   UNL     2     -10.959   9.720  67.084  1.00  0.00    -0.103 C  
BRANCH   8   9
HETATM    9  C   UNL     2     -11.341  10.542  68.310  1.00  0.00    -0.332 C  
BRANCH   9  10
HETATM   10  C   UNL     2     -10.201  11.471  68.719  1.00  0.00    -0.204 C  
BRANCH  10  11
HETATM   11  C   UNL     2     -10.745  12.822  69.171  1.00  0.00    -0.061 C  
BRANCH  11  12
HETATM   12  C   UNL     2     -12.021  13.183  68.418  1.00  0.00    -0.324 C  
BRANCH  12  13
HETATM   13  C   UNL     2     -11.695  13.895  67.109  1.00  0.00    -0.388 C  
BRANCH  13  14
HETATM   14  O   UNL     2     -10.396  14.492  67.176  1.00  0.00    -0.262 OA 
BRANCH  14  15
HETATM   15  C   UNL     2     -10.369  15.802  67.569  1.00  0.00    -0.280 C  
HETATM   16  O   UNL     2     -10.804  16.725  66.886  1.00  0.00    -0.189 OA 
BRANCH  15  17
HETATM   17  C   UNL     2      -9.600  15.965  68.830  1.00  0.00    -0.219 C  
HETATM   18  S   UNL     2      -7.902  15.602  68.569  1.00  0.00    -0.141 S  
HETATM   19  O   UNL     2      -7.894  14.213  68.118  1.00  0.00    -0.120 OA 
HETATM   20  O   UNL     2      -7.332  15.810  69.899  1.00  0.00    -0.095 OA 
HETATM   21  O   UNL     2      -7.472  16.580  67.570  1.00  0.00    -0.133 OA 
ENDBRANCH  15  17
ENDBRANCH  14  15
ENDBRANCH  13  14
ENDBRANCH  12  13
ENDBRANCH  11  12
ENDBRANCH  10  11
ENDBRANCH   9  10
ENDBRANCH   8   9
ENDBRANCH   7   8
ENDBRANCH   6   7
ENDBRANCH   5   6
ENDBRANCH   4   5
ENDBRANCH   3   4
TORSDOF 13
ENDMDL
MODEL      323
REMARK 921   NORMALIZED FREE ENERGY PREDICTED BY IDOCK:   -2.81 KCAL/MOL
REMARK 922        TOTAL FREE ENERGY PREDICTED BY IDOCK:   -6.51 KCAL/MOL
REMARK 923 INTER-LIGAND FREE ENERGY PREDICTED BY IDOCK:   -5.42 KCAL/MOL
REMARK 924 INTRA-LIGAND FREE ENERGY PREDICTED BY IDOCK:   -1.10 KCAL/MOL
REMARK 927      BINDING AFFINITY PREDICTED BY RF-SCORE:    0.00 PKD
ROOT
HETATM    1 NA   UNL     1      -8.362  13.107  66.581  1.00  0.00    -0.178 Na 
HETATM    2  C   UNL     2      -6.465  14.663  68.436  1.00  0.00    -0.104 C  
HETATM    3  C   UNL     2      -5.287  15.138  67.602  1.00  0.00    -0.000 C  
ENDROOT
BRANCH   3   4
HETATM    4  C   UNL     2      -5.148  16.654  67.681  1.00  0.00    -0.139 C  
BRANCH   4   5
HETATM    5  C   UNL     2      -5.340  17.162  69.107  1.00  0.00    -0.150 C  
BRANCH   5   6
HETATM    6  C   UNL     2      -6.253  18.386  69.116  1.00  0.00    -0.245 C  
BRANCH   6   7
HETATM    7  C   UNL     2      -7.721  17.982  69.045  1.00  0.00    -0.121 C  
BRANCH   7   8
HETATM    8  C   UNL     2      -8.601  19.202  68.790  1.00  0.00    -0.370 C  
BRANCH   8   9
HETATM    9  C   UNL     2      -8.618  19.560  67.308  1.00  0.00    -0.341 C  
BRANCH   9  10
HETATM   10  C   UNL     2      -9.847  20.397  66.963  1.00  0.00    -0.594 C  
BRANCH  10  11
HETATM   11  C   UNL     2     -10.871  19.560  66.205  1.00  0.00    -0.430 C  
BRANCH  11  12
HETATM   12  C   UNL     2     -10.446  18.097  66.136  1.00  0.00    -0.377 C  
BRANCH  12  13
HETATM   13  C   UNL     2     -11.274  17.340  65.103  1.00  0.00     0.452 C  
BRANCH  13  14
HETATM   14  O   UNL     2     -10.634  16.108  64.757  1.00  0.00    -0.630 OA 
BRANCH  14  15
HETATM   15  C   UNL     2     -10.142  15.383  65.808  1.00  0.00    -0.363 C  
HETATM   16  O   UNL     2      -8.978  15.449  66.193  1.00  0.00    -0.312 OA 
BRANCH  15  17
HETATM   17  C   UNL     2     -11.145  14.402  66.296  1.00  0.00    -0.331 C  
HETATM   18  S   UNL     2     -11.234  14.427  68.049  1.00  0.00    -0.294 S  
HETATM   19  O   UNL     2      -9.886  14.070  68.484  1.00  0.00    -0.227 OA 
HETATM   20  O   UNL     2     -12.248  13.411  68.324  1.00  0.00    -0.286 OA 
HETATM   21  O   UNL     2     -11.646  15.793  68.371  1.00  0.00    -0.373 OA 
ENDBRANCH  15  17
ENDBRANCH  14  15
ENDBRANCH  13  14
ENDBRANCH  12  13
ENDBRANCH  11  12
ENDBRANCH  10  11
ENDBRANCH   9  10
ENDBRANCH   8   9
ENDBRANCH   7   8
ENDBRANCH   6   7
ENDBRANCH   5   6
ENDBRANCH   4   5
ENDBRANCH   3   4
TORSDOF 13
ENDMDL
MODEL      324
REMARK 921   NORMALIZED FREE ENERGY PREDICTED BY IDOCK:   -2.81 KCAL/MOL
REMARK 922        TOTAL FREE ENERGY PREDICTED BY IDOCK:   -6.51 KCAL/MOL
REMARK 923 INTER-LIGAND FREE ENERGY PREDICTED BY IDOCK:   -5.83 KCAL/MOL
REMARK 924 INTRA-LIGAND FREE ENERGY PREDICTED BY IDOCK:   -0.68 KCAL/MOL
REMARK 927      BINDING AFFINITY PREDICTED BY RF-SCORE:    0.00 PKD
ROOT
HETATM    1 NA   UNL     1     -11.050  15.327  63.582  1.00  0.00    -0.572 Na 
HETATM    2  C   UNL     2      -9.637  16.306  66.132  1.00  0.00    -0.362 C  
HETATM    3  C   UNL     2     -10.664  16.328  67.252  1.00  0.00    -0.265 C  
ENDROOT
BRANCH   3   4
HETATM    4  C   UNL     2     -10.206  15.459  68.419  1.00  0.00    -0.221 C  
BRANCH   4   5
HETATM    5  C   UNL     2     -10.545  13.989  68.191  1.00  0.00    -0.252 C  
BRANCH   5   6
HETATM    6  C   UNL     2     -11.710  13.858  67.212  1.00  0.00    -0.418 C  
BRANCH   6   7
HETATM    7  C   UNL     2     -11.759  12.467  66.591  1.00  0.00    -0.453 C  
BRANCH   7   8
HETATM    8  C   UNL     2     -11.988  12.560  65.085  1.00  0.00    -0.484 C  
BRANCH   8   9
HETATM    9  C   UNL     2     -10.678  12.391  64.325  1.00  0.00    -0.390 C  
BRANCH   9  10
HETATM   10  C   UNL     2     -10.503  10.949  63.855  1.00  0.00    -0.359 C  
BRANCH  10  11
HETATM   11  C   UNL     2      -9.244  10.337  64.461  1.00  0.00    -0.295 C  
BRANCH  11  12
HETATM   12  C   UNL     2      -9.580   9.466  65.667  1.00  0.00    -0.345 C  
BRANCH  12  13
HETATM   13  C   UNL     2      -8.393   9.379  66.621  1.00  0.00    -0.119 C  
BRANCH  13  14
HETATM   14  O   UNL     2      -8.237   8.041  67.102  1.00  0.00    -0.114 OA 
BRANCH  14  15
HETATM   15  C   UNL     2      -8.992   7.715  68.196  1.00  0.00    -0.126 C  
HETATM   16  O   UNL     2      -9.363   8.534  69.033  1.00  0.00    -0.146 OA 
BRANCH  15  17
HETATM   17  C   UNL     2      -9.148   6.243  68.318  1.00  0.00    -0.113 C  
HETATM   18  S   UNL     2      -9.989   5.594  66.920  1.00  0.00    -0.195 S  
HETATM   19  O   UNL     2     -11.285   6.268  66.931  1.00  0.00    -0.335 OA 
HETATM   20  O   UNL     2     -10.047   4.165  67.227  1.00  0.00    -0.113 OA 
HETATM   21  O   UNL     2      -9.126   5.932  65.789  1.00  0.00    -0.154 OA 
ENDBRANCH  15  17
ENDBRANCH  14  15
ENDBRANCH  13  14
ENDBRANCH  12  13
ENDBRANCH  11  12
ENDBRANCH  10  11
ENDBRANCH   9  10
ENDBRANCH   8   9
ENDBRANCH   7   8
ENDBRANCH   6   7
ENDBRANCH   5   6
ENDBRANCH   4   5
ENDBRANCH   3   4
TORSDOF 13
ENDMDL
MODEL      325
REMARK 921   NORMALIZED FREE ENERGY PREDICTED BY IDOCK:   -2.80 KCAL/MOL
REMARK 922        TOTAL FREE ENERGY PREDICTED BY IDOCK:   -6.50 KCAL/MOL
REMARK 923 INTER-LIGAND FREE ENERGY PREDICTED BY IDOCK:   -6.07 KCAL/MOL
REMARK 924 INTRA-LIGAND FREE ENERGY PREDICTED BY IDOCK:   -0.43 KCAL/MOL
REMARK 927      BINDING AFFINITY PREDICTED BY RF-SCORE:    0.00 PKD
ROOT
HETATM    1 NA   UNL     1     -12.599   6.597  69.456  1.00  0.00    -0.634 Na 
HETATM    2  C   UNL     2      -9.882   5.780  68.269  1.00  0.00    -0.170 C  
HETATM    3  C   UNL     2      -9.825   6.299  66.841  1.00  0.00    -0.196 C  
ENDROOT
BRANCH   3   4
HETATM    4  C   UNL     2      -8.616   7.208  66.648  1.00  0.00    -0.124 C  
BRANCH   4   5
HETATM    5  C   UNL     2      -8.368   7.505  65.171  1.00  0.00    -0.092 C  
BRANCH   5   6
HETATM    6  C   UNL     2      -8.310   9.012  64.936  1.00  0.00    -0.178 C  
BRANCH   6   7
HETATM    7  C   UNL     2      -8.537   9.784  66.230  1.00  0.00    -0.137 C  
BRANCH   7   8
HETATM    8  C   UNL     2      -9.457  10.978  65.988  1.00  0.00    -0.235 C  
BRANCH   8   9
HETATM    9  C   UNL     2      -9.711  11.174  64.497  1.00  0.00    -0.310 C  
BRANCH   9  10
HETATM   10  C   UNL     2     -11.178  11.501  64.233  1.00  0.00    -0.358 C  
BRANCH  10  11
HETATM   11  C   UNL     2     -11.302  12.747  63.362  1.00  0.00    -0.395 C  
BRANCH  11  12
HETATM   12  C   UNL     2     -11.956  13.892  64.127  1.00  0.00    -0.464 C  
BRANCH  12  13
HETATM   13  C   UNL     2     -10.958  14.553  65.072  1.00  0.00    -0.398 C  
BRANCH  13  14
HETATM   14  O   UNL     2     -10.724  15.909  64.681  1.00  0.00    -0.553 OA 
BRANCH  14  15
HETATM   15  C   UNL     2     -10.081  16.687  65.605  1.00  0.00    -0.217 C  
HETATM   16  O   UNL     2     -10.396  17.848  65.851  1.00  0.00    -0.525 OA 
BRANCH  15  17
HETATM   17  C   UNL     2      -8.872  16.003  66.130  1.00  0.00    -0.331 C  
HETATM   18  S   UNL     2      -9.022  15.722  67.857  1.00  0.00    -0.181 S  
HETATM   19  O   UNL     2      -9.167  17.058  68.429  1.00  0.00    -0.242 OA 
HETATM   20  O   UNL     2      -7.757  15.061  68.175  1.00  0.00    -0.105 OA 
HETATM   21  O   UNL     2     -10.199  14.863  67.983  1.00  0.00    -0.225 OA 
ENDBRANCH  15  17
ENDBRANCH  14  15
ENDBRANCH  13  14
ENDBRANCH  12  13
ENDBRANCH  11  12
ENDBRANCH  10  11
ENDBRANCH   9  10
ENDBRANCH   8   9
ENDBRANCH   7   8
ENDBRANCH   6   7
ENDBRANCH   5   6
ENDBRANCH   4   5
ENDBRANCH   3   4
TORSDOF 13
ENDMDL
MODEL      326
REMARK 921   NORMALIZED FREE ENERGY PREDICTED BY IDOCK:   -2.80 KCAL/MOL
REMARK 922        TOTAL FREE ENERGY PREDICTED BY IDOCK:   -6.50 KCAL/MOL
REMARK 923 INTER-LIGAND FREE ENERGY PREDICTED BY IDOCK:   -5.86 KCAL/MOL
REMARK 924 INTRA-LIGAND FREE ENERGY PREDICTED BY IDOCK:   -0.64 KCAL/MOL
REMARK 927      BINDING AFFINITY PREDICTED BY RF-SCORE:    0.00 PKD
ROOT
HETATM    1 NA   UNL     1     -10.084   1.937  66.957  1.00  0.00    -0.379 Na 
HETATM    2  C   UNL     2      -9.975   4.960  66.401  1.00  0.00    -0.258 C  
HETATM    3  C   UNL     2      -9.361   5.634  67.616  1.00  0.00    -0.111 C  
ENDROOT
BRANCH   3   4
HETATM    4  C   UNL     2      -8.124   6.432  67.221  1.00  0.00    -0.113 C  
BRANCH   4   5
HETATM    5  C   UNL     2      -8.250   7.004  65.812  1.00  0.00    -0.132 C  
BRANCH   5   6
HETATM    6  C   UNL     2      -8.549   8.500  65.871  1.00  0.00    -0.183 C  
BRANCH   6   7
HETATM    7  C   UNL     2      -7.271   9.315  66.026  1.00  0.00    -0.091 C  
BRANCH   7   8
HETATM    8  C   UNL     2      -7.583  10.700  66.586  1.00  0.00    -0.129 C  
BRANCH   8   9
HETATM    9  C   UNL     2      -7.952  10.619  68.063  1.00  0.00    -0.107 C  
BRANCH   9  10
HETATM   10  C   UNL     2      -9.157  11.503  68.373  1.00  0.00    -0.185 C  
BRANCH  10  11
HETATM   11  C   UNL     2      -9.798  12.007  67.084  1.00  0.00    -0.205 C  
BRANCH  11  12
HETATM   12  C   UNL     2     -11.199  12.551  67.341  1.00  0.00    -0.344 C  
BRANCH  12  13
HETATM   13  C   UNL     2     -12.127  12.233  66.172  1.00  0.00    -0.111 C  
BRANCH  13  14
HETATM   14  O   UNL     2     -11.488  12.545  64.930  1.00  0.00    -0.306 OA 
BRANCH  14  15
HETATM   15  C   UNL     2     -11.610  13.842  64.513  1.00  0.00    -0.393 C  
HETATM   16  O   UNL     2     -12.595  14.277  63.924  1.00  0.00    -0.787 OA 
BRANCH  15  17
HETATM   17  C   UNL     2     -10.341  14.588  64.715  1.00  0.00    -0.287 C  
HETATM   18  S   UNL     2     -10.665  16.204  65.322  1.00  0.00    -0.297 S  
HETATM   19  O   UNL     2     -11.485  16.823  64.284  1.00  0.00    -1.125 OA 
HETATM   20  O   UNL     2      -9.320  16.765  65.445  1.00  0.00    -0.343 OA 
HETATM   21  O   UNL     2     -11.344  15.983  66.598  1.00  0.00     0.027 OA 
ENDBRANCH  15  17
ENDBRANCH  14  15
ENDBRANCH  13  14
ENDBRANCH  12  13
ENDBRANCH  11  12
ENDBRANCH  10  11
ENDBRANCH   9  10
ENDBRANCH   8   9
ENDBRANCH   7   8
ENDBRANCH   6   7
ENDBRANCH   5   6
ENDBRANCH   4   5
ENDBRANCH   3   4
TORSDOF 13
ENDMDL
MODEL      327
REMARK 921   NORMALIZED FREE ENERGY PREDICTED BY IDOCK:   -2.80 KCAL/MOL
REMARK 922        TOTAL FREE ENERGY PREDICTED BY IDOCK:   -6.49 KCAL/MOL
REMARK 923 INTER-LIGAND FREE ENERGY PREDICTED BY IDOCK:   -5.62 KCAL/MOL
REMARK 924 INTRA-LIGAND FREE ENERGY PREDICTED BY IDOCK:   -0.87 KCAL/MOL
REMARK 927      BINDING AFFINITY PREDICTED BY RF-SCORE:    0.00 PKD
ROOT
HETATM    1 NA   UNL     1      -8.531  18.742  65.732  1.00  0.00    -0.283 Na 
HETATM    2  C   UNL     2     -10.138  16.201  66.379  1.00  0.00    -0.321 C  
HETATM    3  C   UNL     2     -10.850  15.766  65.109  1.00  0.00    -0.444 C  
ENDROOT
BRANCH   3   4
HETATM    4  C   UNL     2     -10.464  14.338  64.738  1.00  0.00    -0.421 C  
BRANCH   4   5
HETATM    5  C   UNL     2     -11.594  13.356  65.035  1.00  0.00    -0.339 C  
BRANCH   5   6
HETATM    6  C   UNL     2     -11.028  12.043  65.572  1.00  0.00    -0.345 C  
BRANCH   6   7
HETATM    7  C   UNL     2     -11.482  11.790  67.005  1.00  0.00    -0.368 C  
BRANCH   7   8
HETATM    8  C   UNL     2     -11.728  13.110  67.731  1.00  0.00    -0.401 C  
BRANCH   8   9
HETATM    9  C   UNL     2     -11.817  12.894  69.237  1.00  0.00    -0.363 C  
BRANCH   9  10
HETATM   10  C   UNL     2     -12.209  11.454  69.559  1.00  0.00    -0.303 C  
BRANCH  10  11
HETATM   11  C   UNL     2     -12.452  11.285  71.055  1.00  0.00    -0.503 C  
BRANCH  11  12
HETATM   12  C   UNL     2     -12.349   9.822  71.469  1.00  0.00    -0.495 C  
BRANCH  12  13
HETATM   13  C   UNL     2     -11.772   8.977  70.338  1.00  0.00    -0.062 C  
BRANCH  13  14
HETATM   14  O   UNL     2     -10.353   8.860  70.476  1.00  0.00    -0.186 OA 
BRANCH  14  15
HETATM   15  C   UNL     2      -9.704   8.278  69.422  1.00  0.00    -0.177 C  
HETATM   16  O   UNL     2     -10.257   7.968  68.370  1.00  0.00    -0.198 OA 
BRANCH  15  17
HETATM   17  C   UNL     2      -8.307   7.925  69.784  1.00  0.00    -0.127 C  
HETATM   18  S   UNL     2      -7.170   8.985  68.967  1.00  0.00    -0.073 S  
HETATM   19  O   UNL     2      -7.423   8.759  67.546  1.00  0.00    -0.088 OA 
HETATM   20  O   UNL     2      -5.881   8.482  69.440  1.00  0.00    -0.030 OA 
HETATM   21  O   UNL     2      -7.509  10.323  69.450  1.00  0.00    -0.099 OA 
ENDBRANCH  15  17
ENDBRANCH  14  15
ENDBRANCH  13  14
ENDBRANCH  12  13
ENDBRANCH  11  12
ENDBRANCH  10  11
ENDBRANCH   9  10
ENDBRANCH   8   9
ENDBRANCH   7   8
ENDBRANCH   6   7
ENDBRANCH   5   6
ENDBRANCH   4   5
ENDBRANCH   3   4
TORSDOF 13
ENDMDL
MODEL      328
REMARK 921   NORMALIZED FREE ENERGY PREDICTED BY IDOCK:   -2.79 KCAL/MOL
REMARK 922        TOTAL FREE ENERGY PREDICTED BY IDOCK:   -6.48 KCAL/MOL
REMARK 923 INTER-LIGAND FREE ENERGY PREDICTED BY IDOCK:   -5.82 KCAL/MOL
REMARK 924 INTRA-LIGAND FREE ENERGY PREDICTED BY IDOCK:   -0.66 KCAL/MOL
REMARK 927      BINDING AFFINITY PREDICTED BY RF-SCORE:    0.00 PKD
ROOT
HETATM    1 NA   UNL     1      -7.836  16.995  65.468  1.00  0.00    -0.282 Na 
HETATM    2  C   UNL     2      -9.633  16.376  67.886  1.00  0.00    -0.228 C  
HETATM    3  C   UNL     2     -10.631  15.310  67.462  1.00  0.00    -0.273 C  
ENDROOT
BRANCH   3   4
HETATM    4  C   UNL     2     -10.531  14.088  68.369  1.00  0.00    -0.254 C  
BRANCH   4   5
HETATM    5  C   UNL     2     -11.908  13.510  68.686  1.00  0.00    -0.404 C  
BRANCH   5   6
HETATM    6  C   UNL     2     -11.909  11.998  68.477  1.00  0.00    -0.369 C  
BRANCH   6   7
HETATM    7  C   UNL     2     -11.509  11.263  69.751  1.00  0.00    -0.386 C  
BRANCH   7   8
HETATM    8  C   UNL     2     -12.531  11.513  70.857  1.00  0.00    -0.464 C  
BRANCH   8   9
HETATM    9  C   UNL     2     -12.707  10.273  71.725  1.00  0.00    -0.535 C  
BRANCH   9  10
HETATM   10  C   UNL     2     -11.539   9.307  71.539  1.00  0.00    -0.452 C  
BRANCH  10  11
HETATM   11  C   UNL     2     -11.787   8.011  72.304  1.00  0.00    -0.424 C  
BRANCH  11  12
HETATM   12  C   UNL     2     -12.223   6.891  71.366  1.00  0.00    -0.418 C  
BRANCH  12  13
HETATM   13  C   UNL     2     -11.651   7.102  69.968  1.00  0.00    -0.110 C  
BRANCH  13  14
HETATM   14  O   UNL     2     -11.220   5.856  69.413  1.00  0.00    -0.375 OA 
BRANCH  14  15
HETATM   15  C   UNL     2      -9.910   5.807  69.020  1.00  0.00    -0.158 C  
HETATM   16  O   UNL     2      -9.073   6.645  69.341  1.00  0.00    -0.142 OA 
BRANCH  15  17
HETATM   17  C   UNL     2      -9.689   4.718  68.033  1.00  0.00    -0.147 C  
HETATM   18  S   UNL     2      -8.689   3.452  68.724  1.00  0.00    -0.111 S  
HETATM   19  O   UNL     2      -7.437   4.123  69.062  1.00  0.00    -0.054 OA 
HETATM   20  O   UNL     2      -8.586   2.499  67.619  1.00  0.00    -0.086 OA 
HETATM   21  O   UNL     2      -9.459   2.965  69.868  1.00  0.00    -0.150 OA 
ENDBRANCH  15  17
ENDBRANCH  14  15
ENDBRANCH  13  14
ENDBRANCH  12  13
ENDBRANCH  11  12
ENDBRANCH  10  11
ENDBRANCH   9  10
ENDBRANCH   8   9
ENDBRANCH   7   8
ENDBRANCH   6   7
ENDBRANCH   5   6
ENDBRANCH   4   5
ENDBRANCH   3   4
TORSDOF 13
ENDMDL
MODEL      329
REMARK 921   NORMALIZED FREE ENERGY PREDICTED BY IDOCK:   -2.79 KCAL/MOL
REMARK 922        TOTAL FREE ENERGY PREDICTED BY IDOCK:   -6.47 KCAL/MOL
REMARK 923 INTER-LIGAND FREE ENERGY PREDICTED BY IDOCK:   -5.04 KCAL/MOL
REMARK 924 INTRA-LIGAND FREE ENERGY PREDICTED BY IDOCK:   -1.43 KCAL/MOL
REMARK 927      BINDING AFFINITY PREDICTED BY RF-SCORE:    0.00 PKD
ROOT
HETATM    1 NA   UNL     1     -12.016  11.990  67.889  1.00  0.00    -0.266 Na 
HETATM    2  C   UNL     2     -12.310  11.525  70.915  1.00  0.00    -0.460 C  
HETATM    3  C   UNL     2     -12.859  10.123  71.118  1.00  0.00    -0.494 C  
ENDROOT
BRANCH   3   4
HETATM    4  C   UNL     2     -11.924   9.300  71.997  1.00  0.00    -0.391 C  
BRANCH   4   5
HETATM    5  C   UNL     2     -11.269   8.167  71.214  1.00  0.00    -0.297 C  
BRANCH   5   6
HETATM    6  C   UNL     2     -10.125   8.705  70.358  1.00  0.00    -0.213 C  
BRANCH   6   7
HETATM    7  C   UNL     2      -9.067   7.636  70.111  1.00  0.00    -0.150 C  
BRANCH   7   8
HETATM    8  C   UNL     2      -9.420   6.807  68.880  1.00  0.00    -0.128 C  
BRANCH   8   9
HETATM    9  C   UNL     2      -8.676   7.315  67.651  1.00  0.00    -0.125 C  
BRANCH   9  10
HETATM   10  C   UNL     2      -7.469   8.159  68.054  1.00  0.00    -0.097 C  
BRANCH  10  11
HETATM   11  C   UNL     2      -7.348   9.386  67.156  1.00  0.00    -0.087 C  
BRANCH  11  12
HETATM   12  C   UNL     2      -8.644  10.189  67.141  1.00  0.00    -0.125 C  
BRANCH  12  13
HETATM   13  C   UNL     2      -8.382  11.648  67.498  1.00  0.00    -0.151 C  
BRANCH  13  14
HETATM   14  O   UNL     2      -9.606  12.305  67.842  1.00  0.00    -0.190 OA 
BRANCH  14  15
HETATM   15  C   UNL     2      -9.675  13.633  67.519  1.00  0.00    -0.227 C  
HETATM   16  O   UNL     2      -9.529  14.062  66.378  1.00  0.00    -0.282 OA 
BRANCH  15  17
HETATM   17  C   UNL     2      -9.775  14.474  68.739  1.00  0.00    -0.210 C  
HETATM   18  S   UNL     2     -11.301  15.342  68.767  1.00  0.00    -0.340 S  
HETATM   19  O   UNL     2     -11.273  16.161  67.558  1.00  0.00    -0.231 OA 
HETATM   20  O   UNL     2     -11.205  16.100  70.014  1.00  0.00    -0.334 OA 
HETATM   21  O   UNL     2     -12.316  14.290  68.779  1.00  0.00    -0.245 OA 
ENDBRANCH  15  17
ENDBRANCH  14  15
ENDBRANCH  13  14
ENDBRANCH  12  13
ENDBRANCH  11  12
ENDBRANCH  10  11
ENDBRANCH   9  10
ENDBRANCH   8   9
ENDBRANCH   7   8
ENDBRANCH   6   7
ENDBRANCH   5   6
ENDBRANCH   4   5
ENDBRANCH   3   4
TORSDOF 13
ENDMDL
MODEL      330
REMARK 921   NORMALIZED FREE ENERGY PREDICTED BY IDOCK:   -2.78 KCAL/MOL
REMARK 922        TOTAL FREE ENERGY PREDICTED BY IDOCK:   -6.46 KCAL/MOL
REMARK 923 INTER-LIGAND FREE ENERGY PREDICTED BY IDOCK:   -5.38 KCAL/MOL
REMARK 924 INTRA-LIGAND FREE ENERGY PREDICTED BY IDOCK:   -1.08 KCAL/MOL
REMARK 927      BINDING AFFINITY PREDICTED BY RF-SCORE:    0.00 PKD
ROOT
HETATM    1 NA   UNL     1      -6.455   9.665  69.080  1.00  0.00    -0.041 Na 
HETATM    2  C   UNL     2      -9.110  10.223  67.631  1.00  0.00    -0.144 C  
HETATM    3  C   UNL     2     -10.202  10.316  68.684  1.00  0.00    -0.196 C  
ENDROOT
BRANCH   3   4
HETATM    4  C   UNL     2     -10.917  11.661  68.600  1.00  0.00    -0.266 C  
BRANCH   4   5
HETATM    5  C   UNL     2     -11.719  11.951  69.865  1.00  0.00    -0.383 C  
BRANCH   5   6
HETATM    6  C   UNL     2     -12.639  10.777  70.191  1.00  0.00    -0.309 C  
BRANCH   6   7
HETATM    7  C   UNL     2     -12.679  10.504  71.690  1.00  0.00    -0.550 C  
BRANCH   7   8
HETATM    8  C   UNL     2     -12.883   9.015  71.958  1.00  0.00    -0.468 C  
BRANCH   8   9
HETATM    9  C   UNL     2     -11.600   8.376  72.476  1.00  0.00    -0.426 C  
BRANCH   9  10
HETATM   10  C   UNL     2     -11.587   6.875  72.196  1.00  0.00    -0.322 C  
BRANCH  10  11
HETATM   11  C   UNL     2     -11.934   6.599  70.737  1.00  0.00    -0.412 C  
BRANCH  11  12
HETATM   12  C   UNL     2     -10.677   6.400  69.898  1.00  0.00    -0.332 C  
BRANCH  12  13
HETATM   13  C   UNL     2     -11.009   6.418  68.409  1.00  0.00    -0.309 C  
BRANCH  13  14
HETATM   14  O   UNL     2     -10.394   5.310  67.747  1.00  0.00    -0.178 OA 
BRANCH  14  15
HETATM   15  C   UNL     2      -9.932   5.560  66.483  1.00  0.00    -0.185 C  
HETATM   16  O   UNL     2      -9.380   6.607  66.156  1.00  0.00    -0.146 OA 
BRANCH  15  17
HETATM   17  C   UNL     2     -10.337   4.482  65.544  1.00  0.00    -0.229 C  
HETATM   18  S   UNL     2      -9.012   3.359  65.285  1.00  0.00    -0.145 S  
HETATM   19  O   UNL     2      -7.946   4.181  64.720  1.00  0.00    -0.091 OA 
HETATM   20  O   UNL     2      -9.597   2.399  64.349  1.00  0.00    -0.142 OA 
HETATM   21  O   UNL     2      -8.735   2.812  66.613  1.00  0.00    -0.108 OA 
ENDBRANCH  15  17
ENDBRANCH  14  15
ENDBRANCH  13  14
ENDBRANCH  12  13
ENDBRANCH  11  12
ENDBRANCH  10  11
ENDBRANCH   9  10
ENDBRANCH   8   9
ENDBRANCH   7   8
ENDBRANCH   6   7
ENDBRANCH   5   6
ENDBRANCH   4   5
ENDBRANCH   3   4
TORSDOF 13
ENDMDL
MODEL      331
REMARK 921   NORMALIZED FREE ENERGY PREDICTED BY IDOCK:   -2.78 KCAL/MOL
REMARK 922        TOTAL FREE ENERGY PREDICTED BY IDOCK:   -6.45 KCAL/MOL
REMARK 923 INTER-LIGAND FREE ENERGY PREDICTED BY IDOCK:   -5.63 KCAL/MOL
REMARK 924 INTRA-LIGAND FREE ENERGY PREDICTED BY IDOCK:   -0.82 KCAL/MOL
REMARK 927      BINDING AFFINITY PREDICTED BY RF-SCORE:    0.00 PKD
ROOT
HETATM    1 NA   UNL     1      -7.683  14.040  70.101  1.00  0.00    -0.348 Na 
HETATM    2  C   UNL     2      -5.625  16.326  70.092  1.00  0.00    -0.184 C  
HETATM    3  C   UNL     2      -5.303  16.654  68.644  1.00  0.00    -0.118 C  
ENDROOT
BRANCH   3   4
HETATM    4  C   UNL     2      -5.590  18.123  68.348  1.00  0.00    -0.166 C  
BRANCH   4   5
HETATM    5  C   UNL     2      -6.674  18.281  67.286  1.00  0.00    -0.207 C  
BRANCH   5   6
HETATM    6  C   UNL     2      -7.551  19.490  67.600  1.00  0.00    -0.301 C  
BRANCH   6   7
HETATM    7  C   UNL     2      -8.637  19.139  68.611  1.00  0.00    -0.396 C  
BRANCH   7   8
HETATM    8  C   UNL     2     -10.022  19.374  68.013  1.00  0.00    -0.488 C  
BRANCH   8   9
HETATM    9  C   UNL     2      -9.942  19.517  66.498  1.00  0.00    -0.518 C  
BRANCH   9  10
HETATM   10  C   UNL     2     -10.631  18.344  65.803  1.00  0.00    -0.236 C  
BRANCH  10  11
HETATM   11  C   UNL     2      -9.802  17.072  65.949  1.00  0.00    -0.202 C  
BRANCH  11  12
HETATM   12  C   UNL     2     -10.565  16.001  66.720  1.00  0.00    -0.297 C  
BRANCH  12  13
HETATM   13  C   UNL     2      -9.851  15.659  68.024  1.00  0.00    -0.209 C  
BRANCH  13  14
HETATM   14  O   UNL     2     -10.081  14.292  68.374  1.00  0.00    -0.230 OA 
BRANCH  14  15
HETATM   15  C   UNL     2      -9.078  13.421  68.044  1.00  0.00    -0.205 C  
HETATM   16  O   UNL     2      -8.050  13.758  67.464  1.00  0.00    -0.161 OA 
BRANCH  15  17
HETATM   17  C   UNL     2      -9.476  12.018  68.326  1.00  0.00    -0.199 C  
HETATM   18  S   UNL     2     -10.935  11.600  67.444  1.00  0.00    -0.279 S  
HETATM   19  O   UNL     2     -11.936  12.543  67.933  1.00  0.00    -0.351 OA 
HETATM   20  O   UNL     2     -11.159  10.213  67.852  1.00  0.00    -0.286 OA 
HETATM   21  O   UNL     2     -10.566  11.762  66.037  1.00  0.00    -0.244 OA 
ENDBRANCH  15  17
ENDBRANCH  14  15
ENDBRANCH  13  14
ENDBRANCH  12  13
ENDBRANCH  11  12
ENDBRANCH  10  11
ENDBRANCH   9  10
ENDBRANCH   8   9
ENDBRANCH   7   8
ENDBRANCH   6   7
ENDBRANCH   5   6
ENDBRANCH   4   5
ENDBRANCH   3   4
TORSDOF 13
ENDMDL
MODEL      332
REMARK 921   NORMALIZED FREE ENERGY PREDICTED BY IDOCK:   -2.78 KCAL/MOL
REMARK 922        TOTAL FREE ENERGY PREDICTED BY IDOCK:   -6.45 KCAL/MOL
REMARK 923 INTER-LIGAND FREE ENERGY PREDICTED BY IDOCK:   -4.89 KCAL/MOL
REMARK 924 INTRA-LIGAND FREE ENERGY PREDICTED BY IDOCK:   -1.56 KCAL/MOL
REMARK 927      BINDING AFFINITY PREDICTED BY RF-SCORE:    0.00 PKD
ROOT
HETATM    1 NA   UNL     1      -9.502  12.973  63.616  1.00  0.00    -0.552 Na 
HETATM    2  C   UNL     2      -9.943  10.570  65.484  1.00  0.00    -0.342 C  
HETATM    3  C   UNL     2      -9.227   9.375  64.879  1.00  0.00    -0.246 C  
ENDROOT
BRANCH   3   4
HETATM    4  C   UNL     2      -8.212   8.801  65.863  1.00  0.00    -0.118 C  
BRANCH   4   5
HETATM    5  C   UNL     2      -6.807   8.775  65.269  1.00  0.00    -0.072 C  
BRANCH   5   6
HETATM    6  C   UNL     2      -5.826   9.488  66.197  1.00  0.00    -0.057 C  
BRANCH   6   7
HETATM    7  C   UNL     2      -5.960  11.002  66.086  1.00  0.00    -0.132 C  
BRANCH   7   8
HETATM    8  C   UNL     2      -6.360  11.605  67.430  1.00  0.00    -0.100 C  
BRANCH   8   9
HETATM    9  C   UNL     2      -6.183  10.591  68.554  1.00  0.00    -0.046 C  
BRANCH   9  10
HETATM   10  C   UNL     2      -7.269  10.759  69.614  1.00  0.00    -0.127 C  
BRANCH  10  11
HETATM   11  C   UNL     2      -8.648  10.822  68.965  1.00  0.00    -0.143 C  
BRANCH  11  12
HETATM   12  C   UNL     2      -9.440   9.545  69.225  1.00  0.00    -0.171 C  
BRANCH  12  13
HETATM   13  C   UNL     2      -8.976   8.873  70.513  1.00  0.00    -0.192 C  
BRANCH  13  14
HETATM   14  O   UNL     2      -9.638   9.450  71.643  1.00  0.00    -0.260 OA 
BRANCH  14  15
HETATM   15  C   UNL     2     -10.920   9.023  71.857  1.00  0.00    -0.353 C  
HETATM   16  O   UNL     2     -11.914   9.682  71.564  1.00  0.00    -0.358 OA 
BRANCH  15  17
HETATM   17  C   UNL     2     -10.938   7.756  72.633  1.00  0.00    -0.364 C  
HETATM   18  S   UNL     2     -11.864   6.527  71.787  1.00  0.00    -0.331 S  
HETATM   19  O   UNL     2     -13.203   7.098  71.672  1.00  0.00    -0.374 OA 
HETATM   20  O   UNL     2     -11.768   5.385  72.696  1.00  0.00    -0.271 OA 
HETATM   21  O   UNL     2     -11.156   6.349  70.520  1.00  0.00    -0.278 OA 
ENDBRANCH  15  17
ENDBRANCH  14  15
ENDBRANCH  13  14
ENDBRANCH  12  13
ENDBRANCH  11  12
ENDBRANCH  10  11
ENDBRANCH   9  10
ENDBRANCH   8   9
ENDBRANCH   7   8
ENDBRANCH   6   7
ENDBRANCH   5   6
ENDBRANCH   4   5
ENDBRANCH   3   4
TORSDOF 13
ENDMDL
MODEL      333
REMARK 921   NORMALIZED FREE ENERGY PREDICTED BY IDOCK:   -2.77 KCAL/MOL
REMARK 922        TOTAL FREE ENERGY PREDICTED BY IDOCK:   -6.45 KCAL/MOL
REMARK 923 INTER-LIGAND FREE ENERGY PREDICTED BY IDOCK:   -5.20 KCAL/MOL
REMARK 924 INTRA-LIGAND FREE ENERGY PREDICTED BY IDOCK:   -1.25 KCAL/MOL
REMARK 927      BINDING AFFINITY PREDICTED BY RF-SCORE:    0.00 PKD
ROOT
HETATM    1 NA   UNL     1      -9.797  10.932  70.452  1.00  0.00    -0.389 Na 
HETATM    2  C   UNL     2      -7.625  10.679  68.290  1.00  0.00    -0.097 C  
HETATM    3  C   UNL     2      -6.466   9.897  68.886  1.00  0.00    -0.045 C  
ENDROOT
BRANCH   3   4
HETATM    4  C   UNL     2      -6.167   8.657  68.050  1.00  0.00    -0.052 C  
BRANCH   4   5
HETATM    5  C   UNL     2      -7.402   7.775  67.892  1.00  0.00    -0.102 C  
BRANCH   5   6
HETATM    6  C   UNL     2      -7.590   7.381  66.429  1.00  0.00    -0.088 C  
BRANCH   6   7
HETATM    7  C   UNL     2      -8.842   8.019  65.840  1.00  0.00    -0.189 C  
BRANCH   7   8
HETATM    8  C   UNL     2      -8.540   8.631  64.474  1.00  0.00    -0.097 C  
BRANCH   8   9
HETATM    9  C   UNL     2      -8.728  10.143  64.503  1.00  0.00    -0.211 C  
BRANCH   9  10
HETATM   10  C   UNL     2     -10.019  10.519  65.226  1.00  0.00    -0.364 C  
BRANCH  10  11
HETATM   11  C   UNL     2     -10.210  12.032  65.232  1.00  0.00    -0.304 C  
BRANCH  11  12
HETATM   12  C   UNL     2     -11.071  12.475  66.409  1.00  0.00    -0.332 C  
BRANCH  12  13
HETATM   13  C   UNL     2     -10.487  13.719  67.070  1.00  0.00    -0.274 C  
BRANCH  13  14
HETATM   14  O   UNL     2      -9.463  14.287  66.248  1.00  0.00    -0.284 OA 
BRANCH  14  15
HETATM   15  C   UNL     2      -8.766  15.325  66.805  1.00  0.00    -0.270 C  
HETATM   16  O   UNL     2      -7.543  15.344  66.907  1.00  0.00    -0.196 OA 
BRANCH  15  17
HETATM   17  C   UNL     2      -9.686  16.321  67.410  1.00  0.00    -0.234 C  
HETATM   18  S   UNL     2     -10.140  17.540  66.230  1.00  0.00    -0.315 S  
HETATM   19  O   UNL     2      -8.874  18.155  65.840  1.00  0.00    -0.500 OA 
HETATM   20  O   UNL     2     -11.022  18.411  67.006  1.00  0.00    -0.271 OA 
HETATM   21  O   UNL     2     -10.814  16.787  65.173  1.00  0.00    -0.584 OA 
ENDBRANCH  15  17
ENDBRANCH  14  15
ENDBRANCH  13  14
ENDBRANCH  12  13
ENDBRANCH  11  12
ENDBRANCH  10  11
ENDBRANCH   9  10
ENDBRANCH   8   9
ENDBRANCH   7   8
ENDBRANCH   6   7
ENDBRANCH   5   6
ENDBRANCH   4   5
ENDBRANCH   3   4
TORSDOF 13
ENDMDL
MODEL      334
REMARK 921   NORMALIZED FREE ENERGY PREDICTED BY IDOCK:   -2.76 KCAL/MOL
REMARK 922        TOTAL FREE ENERGY PREDICTED BY IDOCK:   -6.42 KCAL/MOL
REMARK 923 INTER-LIGAND FREE ENERGY PREDICTED BY IDOCK:   -5.05 KCAL/MOL
REMARK 924 INTRA-LIGAND FREE ENERGY PREDICTED BY IDOCK:   -1.37 KCAL/MOL
REMARK 927      BINDING AFFINITY PREDICTED BY RF-SCORE:    0.00 PKD
ROOT
HETATM    1 NA   UNL     1     -10.789  17.496  67.927  1.00  0.00    -0.310 Na 
HETATM    2  C   UNL     2      -9.169  19.453  66.195  1.00  0.00    -0.323 C  
HETATM    3  C   UNL     2      -8.671  20.570  67.097  1.00  0.00    -0.375 C  
ENDROOT
BRANCH   3   4
HETATM    4  C   UNL     2      -7.151  20.674  67.038  1.00  0.00    -0.375 C  
BRANCH   4   5
HETATM    5  C   UNL     2      -6.514  20.378  68.392  1.00  0.00    -0.340 C  
BRANCH   5   6
HETATM    6  C   UNL     2      -5.751  19.057  68.342  1.00  0.00    -0.210 C  
BRANCH   6   7
HETATM    7  C   UNL     2      -6.605  17.903  68.853  1.00  0.00    -0.241 C  
BRANCH   7   8
HETATM    8  C   UNL     2      -6.502  16.704  67.915  1.00  0.00    -0.150 C  
BRANCH   8   9
HETATM    9  C   UNL     2      -7.149  15.471  68.536  1.00  0.00    -0.115 C  
BRANCH   9  10
HETATM   10  C   UNL     2      -7.096  14.285  67.576  1.00  0.00    -0.189 C  
BRANCH  10  11
HETATM   11  C   UNL     2      -7.631  13.026  68.249  1.00  0.00    -0.135 C  
BRANCH  11  12
HETATM   12  C   UNL     2      -8.320  12.112  67.242  1.00  0.00    -0.179 C  
BRANCH  12  13
HETATM   13  C   UNL     2      -9.837  12.241  67.342  1.00  0.00    -0.198 C  
BRANCH  13  14
HETATM   14  O   UNL     2     -10.324  13.170  66.370  1.00  0.00    -0.276 OA 
BRANCH  14  15
HETATM   15  C   UNL     2     -11.058  14.213  66.866  1.00  0.00    -0.307 C  
HETATM   16  O   UNL     2     -10.831  15.390  66.602  1.00  0.00    -0.310 OA 
BRANCH  15  17
HETATM   17  C   UNL     2     -12.036  13.742  67.881  1.00  0.00    -0.356 C  
HETATM   18  S   UNL     2     -11.974  14.754  69.314  1.00  0.00    -0.271 S  
HETATM   19  O   UNL     2     -10.602  14.617  69.795  1.00  0.00    -0.166 OA 
HETATM   20  O   UNL     2     -12.982  14.136  70.175  1.00  0.00    -0.184 OA 
HETATM   21  O   UNL     2     -12.330  16.088  68.831  1.00  0.00    -0.036 OA 
ENDBRANCH  15  17
ENDBRANCH  14  15
ENDBRANCH  13  14
ENDBRANCH  12  13
ENDBRANCH  11  12
ENDBRANCH  10  11
ENDBRANCH   9  10
ENDBRANCH   8   9
ENDBRANCH   7   8
ENDBRANCH   6   7
ENDBRANCH   5   6
ENDBRANCH   4   5
ENDBRANCH   3   4
TORSDOF 13
ENDMDL
MODEL      335
REMARK 921   NORMALIZED FREE ENERGY PREDICTED BY IDOCK:   -2.75 KCAL/MOL
REMARK 922        TOTAL FREE ENERGY PREDICTED BY IDOCK:   -6.40 KCAL/MOL
REMARK 923 INTER-LIGAND FREE ENERGY PREDICTED BY IDOCK:   -5.35 KCAL/MOL
REMARK 924 INTRA-LIGAND FREE ENERGY PREDICTED BY IDOCK:   -1.05 KCAL/MOL
REMARK 927      BINDING AFFINITY PREDICTED BY RF-SCORE:    0.00 PKD
ROOT
HETATM    1 NA   UNL     1     -11.713  12.951  69.003  1.00  0.00    -0.212 Na 
HETATM    2  C   UNL     2     -12.736  11.149  71.276  1.00  0.00    -0.531 C  
HETATM    3  C   UNL     2     -12.497   9.705  70.866  1.00  0.00    -0.320 C  
ENDROOT
BRANCH   3   4
HETATM    4  C   UNL     2     -11.638   8.986  71.901  1.00  0.00    -0.441 C  
BRANCH   4   5
HETATM    5  C   UNL     2     -10.331   8.484  71.296  1.00  0.00    -0.288 C  
BRANCH   5   6
HETATM    6  C   UNL     2      -9.724   9.549  70.386  1.00  0.00    -0.328 C  
BRANCH   6   7
HETATM    7  C   UNL     2      -8.395   9.087  69.801  1.00  0.00    -0.129 C  
BRANCH   7   8
HETATM    8  C   UNL     2      -8.600   8.483  68.414  1.00  0.00    -0.139 C  
BRANCH   8   9
HETATM    9  C   UNL     2      -8.416   9.539  67.330  1.00  0.00    -0.128 C  
BRANCH   9  10
HETATM   10  C   UNL     2      -7.548  10.690  67.831  1.00  0.00    -0.091 C  
BRANCH  10  11
HETATM   11  C   UNL     2      -7.808  11.953  67.016  1.00  0.00    -0.152 C  
BRANCH  11  12
HETATM   12  C   UNL     2      -9.197  12.515  67.298  1.00  0.00    -0.190 C  
BRANCH  12  13
HETATM   13  C   UNL     2      -9.315  13.947  66.788  1.00  0.00    -0.275 C  
BRANCH  13  14
HETATM   14  O   UNL     2     -10.630  14.456  67.032  1.00  0.00    -0.270 OA 
BRANCH  14  15
HETATM   15  C   UNL     2     -10.695  15.568  67.827  1.00  0.00    -0.297 C  
HETATM   16  O   UNL     2     -10.865  15.525  69.042  1.00  0.00    -0.227 OA 
BRANCH  15  17
HETATM   17  C   UNL     2     -10.704  16.809  67.010  1.00  0.00    -0.161 C  
HETATM   18  S   UNL     2      -9.644  18.019  67.713  1.00  0.00    -0.287 S  
HETATM   19  O   UNL     2     -10.197  18.255  69.044  1.00  0.00    -0.376 OA 
HETATM   20  O   UNL     2      -9.794  19.140  66.787  1.00  0.00    -0.306 OA 
HETATM   21  O   UNL     2      -8.321  17.396  67.695  1.00  0.00    -0.207 OA 
ENDBRANCH  15  17
ENDBRANCH  14  15
ENDBRANCH  13  14
ENDBRANCH  12  13
ENDBRANCH  11  12
ENDBRANCH  10  11
ENDBRANCH   9  10
ENDBRANCH   8   9
ENDBRANCH   7   8
ENDBRANCH   6   7
ENDBRANCH   5   6
ENDBRANCH   4   5
ENDBRANCH   3   4
TORSDOF 13
ENDMDL
MODEL      336
REMARK 921   NORMALIZED FREE ENERGY PREDICTED BY IDOCK:   -2.74 KCAL/MOL
REMARK 922        TOTAL FREE ENERGY PREDICTED BY IDOCK:   -6.39 KCAL/MOL
REMARK 923 INTER-LIGAND FREE ENERGY PREDICTED BY IDOCK:   -5.27 KCAL/MOL
REMARK 924 INTRA-LIGAND FREE ENERGY PREDICTED BY IDOCK:   -1.12 KCAL/MOL
REMARK 927      BINDING AFFINITY PREDICTED BY RF-SCORE:    0.00 PKD
ROOT
HETATM    1 NA   UNL     1      -8.329  12.026  68.708  1.00  0.00    -0.130 Na 
HETATM    2  C   UNL     2     -11.078  13.159  67.922  1.00  0.00    -0.288 C  
HETATM    3  C   UNL     2     -10.939  14.667  67.793  1.00  0.00    -0.291 C  
ENDROOT
BRANCH   3   4
HETATM    4  C   UNL     2     -11.358  15.130  66.402  1.00  0.00    -0.225 C  
BRANCH   4   5
HETATM    5  C   UNL     2     -12.225  14.088  65.701  1.00  0.00    -0.462 C  
BRANCH   5   6
HETATM    6  C   UNL     2     -12.372  14.430  64.220  1.00  0.00    -0.402 C  
BRANCH   6   7
HETATM    7  C   UNL     2     -11.881  13.289  63.337  1.00  0.00    -0.415 C  
BRANCH   7   8
HETATM    8  C   UNL     2     -11.881  11.974  64.111  1.00  0.00    -0.462 C  
BRANCH   8   9
HETATM    9  C   UNL     2     -10.635  11.156  63.793  1.00  0.00    -0.422 C  
BRANCH   9  10
HETATM   10  C   UNL     2      -9.538  11.411  64.824  1.00  0.00    -0.239 C  
BRANCH  10  11
HETATM   11  C   UNL     2      -9.266  10.152  65.641  1.00  0.00    -0.232 C  
BRANCH  11  12
HETATM   12  C   UNL     2     -10.517   9.693  66.381  1.00  0.00    -0.181 C  
BRANCH  12  13
HETATM   13  C   UNL     2     -10.166   8.674  67.460  1.00  0.00    -0.245 C  
BRANCH  13  14
HETATM   14  O   UNL     2      -9.933   7.389  66.876  1.00  0.00    -0.199 OA 
BRANCH  14  15
HETATM   15  C   UNL     2      -8.809   6.739  67.309  1.00  0.00    -0.118 C  
HETATM   16  O   UNL     2      -7.670   7.061  66.983  1.00  0.00    -0.103 OA 
BRANCH  15  17
HETATM   17  C   UNL     2      -9.162   5.513  68.070  1.00  0.00    -0.108 C  
HETATM   18  S   UNL     2      -9.298   4.134  66.991  1.00  0.00    -0.188 S  
HETATM   19  O   UNL     2     -10.361   4.506  66.061  1.00  0.00    -0.267 OA 
HETATM   20  O   UNL     2      -9.649   3.053  67.911  1.00  0.00    -0.194 OA 
HETATM   21  O   UNL     2      -7.968   4.009  66.394  1.00  0.00    -0.096 OA 
ENDBRANCH  15  17
ENDBRANCH  14  15
ENDBRANCH  13  14
ENDBRANCH  12  13
ENDBRANCH  11  12
ENDBRANCH  10  11
ENDBRANCH   9  10
ENDBRANCH   8   9
ENDBRANCH   7   8
ENDBRANCH   6   7
ENDBRANCH   5   6
ENDBRANCH   4   5
ENDBRANCH   3   4
TORSDOF 13
ENDMDL
MODEL      337
REMARK 921   NORMALIZED FREE ENERGY PREDICTED BY IDOCK:   -2.74 KCAL/MOL
REMARK 922        TOTAL FREE ENERGY PREDICTED BY IDOCK:   -6.38 KCAL/MOL
REMARK 923 INTER-LIGAND FREE ENERGY PREDICTED BY IDOCK:   -5.33 KCAL/MOL
REMARK 924 INTRA-LIGAND FREE ENERGY PREDICTED BY IDOCK:   -1.06 KCAL/MOL
REMARK 927      BINDING AFFINITY PREDICTED BY RF-SCORE:    0.00 PKD
ROOT
HETATM    1 NA   UNL     1      -5.590   9.123  69.504  1.00  0.00    -0.032 Na 
HETATM    2  C   UNL     2      -7.190  11.349  68.110  1.00  0.00    -0.082 C  
HETATM    3  C   UNL     2      -7.470  10.898  66.686  1.00  0.00    -0.139 C  
ENDROOT
BRANCH   3   4
HETATM    4  C   UNL     2      -8.970  10.891  66.409  1.00  0.00    -0.186 C  
BRANCH   4   5
HETATM    5  C   UNL     2      -9.737  10.135  67.490  1.00  0.00    -0.190 C  
BRANCH   5   6
HETATM    6  C   UNL     2     -11.086  10.802  67.747  1.00  0.00    -0.381 C  
BRANCH   6   7
HETATM    7  C   UNL     2     -10.911  12.183  68.368  1.00  0.00    -0.271 C  
BRANCH   7   8
HETATM    8  C   UNL     2     -11.533  12.227  69.761  1.00  0.00    -0.237 C  
BRANCH   8   9
HETATM    9  C   UNL     2     -11.765  10.819  70.297  1.00  0.00    -0.442 C  
BRANCH   9  10
HETATM   10  C   UNL     2     -12.969  10.786  71.236  1.00  0.00    -0.502 C  
BRANCH  10  11
HETATM   11  C   UNL     2     -12.872   9.600  72.190  1.00  0.00    -0.460 C  
BRANCH  11  12
HETATM   12  C   UNL     2     -13.460   8.339  71.565  1.00  0.00    -0.320 C  
BRANCH  12  13
HETATM   13  C   UNL     2     -12.420   7.225  71.510  1.00  0.00    -0.373 C  
BRANCH  13  14
HETATM   14  O   UNL     2     -12.218   6.798  70.159  1.00  0.00    -0.234 OA 
BRANCH  14  15
HETATM   15  C   UNL     2     -10.915   6.616  69.786  1.00  0.00    -0.313 C  
HETATM   16  O   UNL     2     -10.020   7.420  70.030  1.00  0.00    -0.182 OA 
BRANCH  15  17
HETATM   17  C   UNL     2     -10.771   5.421  68.915  1.00  0.00    -0.058 C  
HETATM   18  S   UNL     2     -10.292   5.893  67.293  1.00  0.00    -0.258 S  
HETATM   19  O   UNL     2     -11.376   6.757  66.834  1.00  0.00    -0.318 OA 
HETATM   20  O   UNL     2     -10.212   4.605  66.605  1.00  0.00    -0.237 OA 
HETATM   21  O   UNL     2      -9.004   6.561  67.475  1.00  0.00    -0.112 OA 
ENDBRANCH  15  17
ENDBRANCH  14  15
ENDBRANCH  13  14
ENDBRANCH  12  13
ENDBRANCH  11  12
ENDBRANCH  10  11
ENDBRANCH   9  10
ENDBRANCH   8   9
ENDBRANCH   7   8
ENDBRANCH   6   7
ENDBRANCH   5   6
ENDBRANCH   4   5
ENDBRANCH   3   4
TORSDOF 13
ENDMDL
MODEL      338
REMARK 921   NORMALIZED FREE ENERGY PREDICTED BY IDOCK:   -2.74 KCAL/MOL
REMARK 922        TOTAL FREE ENERGY PREDICTED BY IDOCK:   -6.38 KCAL/MOL
REMARK 923 INTER-LIGAND FREE ENERGY PREDICTED BY IDOCK:   -4.97 KCAL/MOL
REMARK 924 INTRA-LIGAND FREE ENERGY PREDICTED BY IDOCK:   -1.41 KCAL/MOL
REMARK 927      BINDING AFFINITY PREDICTED BY RF-SCORE:    0.00 PKD
ROOT
HETATM    1 NA   UNL     1     -12.522  12.551  66.972  1.00  0.00    -0.352 Na 
HETATM    2  C   UNL     2      -9.758  11.695  68.012  1.00  0.00    -0.182 C  
HETATM    3  C   UNL     2      -9.964  10.555  68.996  1.00  0.00    -0.223 C  
ENDROOT
BRANCH   3   4
HETATM    4  C   UNL     2      -9.182   9.320  68.562  1.00  0.00    -0.135 C  
BRANCH   4   5
HETATM    5  C   UNL     2      -8.951   9.303  67.054  1.00  0.00    -0.142 C  
BRANCH   5   6
HETATM    6  C   UNL     2      -9.952   8.372  66.375  1.00  0.00    -0.291 C  
BRANCH   6   7
HETATM    7  C   UNL     2     -10.559   7.389  67.370  1.00  0.00    -0.371 C  
BRANCH   7   8
HETATM    8  C   UNL     2     -10.558   5.975  66.796  1.00  0.00    -0.359 C  
BRANCH   8   9
HETATM    9  C   UNL     2      -9.874   5.002  67.749  1.00  0.00    -0.199 C  
BRANCH   9  10
HETATM   10  C   UNL     2      -8.454   5.461  68.071  1.00  0.00    -0.097 C  
BRANCH  10  11
HETATM   11  C   UNL     2      -8.093   5.117  69.512  1.00  0.00    -0.083 C  
BRANCH  11  12
HETATM   12  C   UNL     2      -8.189   6.343  70.413  1.00  0.00    -0.121 C  
BRANCH  12  13
HETATM   13  C   UNL     2      -9.251   6.144  71.489  1.00  0.00    -0.146 C  
BRANCH  13  14
HETATM   14  O   UNL     2     -10.512   5.824  70.892  1.00  0.00    -0.226 OA 
BRANCH  14  15
HETATM   15  C   UNL     2     -11.615   6.255  71.577  1.00  0.00    -0.287 C  
HETATM   16  O   UNL     2     -12.074   5.678  72.559  1.00  0.00    -0.221 OA 
BRANCH  15  17
HETATM   17  C   UNL     2     -12.265   7.394  70.879  1.00  0.00    -0.231 C  
HETATM   18  S   UNL     2     -12.058   8.878  71.794  1.00  0.00    -0.389 S  
HETATM   19  O   UNL     2     -12.701   8.606  73.076  1.00  0.00    -0.242 OA 
HETATM   20  O   UNL     2     -12.757   9.857  70.962  1.00  0.00    -0.325 OA 
HETATM   21  O   UNL     2     -10.609   9.067  71.855  1.00  0.00    -0.344 OA 
ENDBRANCH  15  17
ENDBRANCH  14  15
ENDBRANCH  13  14
ENDBRANCH  12  13
ENDBRANCH  11  12
ENDBRANCH  10  11
ENDBRANCH   9  10
ENDBRANCH   8   9
ENDBRANCH   7   8
ENDBRANCH   6   7
ENDBRANCH   5   6
ENDBRANCH   4   5
ENDBRANCH   3   4
TORSDOF 13
ENDMDL
MODEL      339
REMARK 921   NORMALIZED FREE ENERGY PREDICTED BY IDOCK:   -2.73 KCAL/MOL
REMARK 922        TOTAL FREE ENERGY PREDICTED BY IDOCK:   -6.37 KCAL/MOL
REMARK 923 INTER-LIGAND FREE ENERGY PREDICTED BY IDOCK:   -4.94 KCAL/MOL
REMARK 924 INTRA-LIGAND FREE ENERGY PREDICTED BY IDOCK:   -1.43 KCAL/MOL
REMARK 927      BINDING AFFINITY PREDICTED BY RF-SCORE:    0.00 PKD
ROOT
HETATM    1 NA   UNL     1      -9.222  13.099  69.017  1.00  0.00    -0.291 Na 
HETATM    2  C   UNL     2      -7.390  11.436  67.190  1.00  0.00    -0.138 C  
HETATM    3  C   UNL     2      -6.417  10.677  68.076  1.00  0.00    -0.062 C  
ENDROOT
BRANCH   3   4
HETATM    4  C   UNL     2      -6.518   9.176  67.824  1.00  0.00    -0.056 C  
BRANCH   4   5
HETATM    5  C   UNL     2      -7.781   8.586  68.445  1.00  0.00    -0.101 C  
BRANCH   5   6
HETATM    6  C   UNL     2      -7.416   7.578  69.533  1.00  0.00    -0.093 C  
BRANCH   6   7
HETATM    7  C   UNL     2      -8.655   7.091  70.274  1.00  0.00    -0.140 C  
BRANCH   7   8
HETATM    8  C   UNL     2      -9.921   7.630  69.614  1.00  0.00    -0.185 C  
BRANCH   8   9
HETATM    9  C   UNL     2     -10.895   8.160  70.660  1.00  0.00    -0.246 C  
BRANCH   9  10
HETATM   10  C   UNL     2     -10.557   9.599  71.039  1.00  0.00    -0.362 C  
BRANCH  10  11
HETATM   11  C   UNL     2     -11.828  10.432  71.172  1.00  0.00    -0.432 C  
BRANCH  11  12
HETATM   12  C   UNL     2     -11.837  11.588  70.178  1.00  0.00    -0.440 C  
BRANCH  12  13
HETATM   13  C   UNL     2     -11.793  11.070  68.744  1.00  0.00    -0.282 C  
BRANCH  13  14
HETATM   14  O   UNL     2     -10.792  11.763  67.994  1.00  0.00    -0.195 OA 
BRANCH  14  15
HETATM   15  C   UNL     2     -11.077  11.958  66.669  1.00  0.00    -0.310 C  
HETATM   16  O   UNL     2     -11.680  11.143  65.977  1.00  0.00    -0.021 OA 
BRANCH  15  17
HETATM   17  C   UNL     2     -10.417  13.187  66.157  1.00  0.00    -0.281 C  
HETATM   18  S   UNL     2     -11.321  14.616  66.633  1.00  0.00    -0.352 S  
HETATM   19  O   UNL     2     -12.638  14.429  66.029  1.00  0.00    -0.382 OA 
HETATM   20  O   UNL     2     -10.531  15.695  66.040  1.00  0.00    -0.300 OA 
HETATM   21  O   UNL     2     -11.301  14.588  68.095  1.00  0.00    -0.271 OA 
ENDBRANCH  15  17
ENDBRANCH  14  15
ENDBRANCH  13  14
ENDBRANCH  12  13
ENDBRANCH  11  12
ENDBRANCH  10  11
ENDBRANCH   9  10
ENDBRANCH   8   9
ENDBRANCH   7   8
ENDBRANCH   6   7
ENDBRANCH   5   6
ENDBRANCH   4   5
ENDBRANCH   3   4
TORSDOF 13
ENDMDL
MODEL      340
REMARK 921   NORMALIZED FREE ENERGY PREDICTED BY IDOCK:   -2.72 KCAL/MOL
REMARK 922        TOTAL FREE ENERGY PREDICTED BY IDOCK:   -6.35 KCAL/MOL
REMARK 923 INTER-LIGAND FREE ENERGY PREDICTED BY IDOCK:   -5.65 KCAL/MOL
REMARK 924 INTRA-LIGAND FREE ENERGY PREDICTED BY IDOCK:   -0.70 KCAL/MOL
REMARK 927      BINDING AFFINITY PREDICTED BY RF-SCORE:    0.00 PKD
ROOT
HETATM    1 NA   UNL     1      -8.749   8.311  63.013  1.00  0.00    -0.201 Na 
HETATM    2  C   UNL     2      -8.845   7.594  66.002  1.00  0.00    -0.186 C  
HETATM    3  C   UNL     2     -10.259   7.847  66.495  1.00  0.00    -0.212 C  
ENDROOT
BRANCH   3   4
HETATM    4  C   UNL     2     -10.855   6.580  67.098  1.00  0.00    -0.472 C  
BRANCH   4   5
HETATM    5  C   UNL     2      -9.994   6.041  68.237  1.00  0.00    -0.173 C  
BRANCH   5   6
HETATM    6  C   UNL     2      -9.723   4.552  68.039  1.00  0.00    -0.192 C  
BRANCH   6   7
HETATM    7  C   UNL     2      -9.492   3.849  69.372  1.00  0.00    -0.260 C  
BRANCH   7   8
HETATM    8  C   UNL     2      -9.918   4.745  70.531  1.00  0.00    -0.306 C  
BRANCH   8   9
HETATM    9  C   UNL     2      -9.099   4.442  71.781  1.00  0.00    -0.167 C  
BRANCH   9  10
HETATM   10  C   UNL     2      -9.185   5.593  72.781  1.00  0.00    -0.135 C  
BRANCH  10  11
HETATM   11  C   UNL     2      -9.689   6.860  72.098  1.00  0.00    -0.158 C  
BRANCH  11  12
HETATM   12  C   UNL     2     -11.092   7.222  72.573  1.00  0.00    -0.334 C  
BRANCH  12  13
HETATM   13  C   UNL     2     -11.921   7.797  71.429  1.00  0.00    -0.306 C  
BRANCH  13  14
HETATM   14  O   UNL     2     -11.946   9.225  71.500  1.00  0.00    -0.317 OA 
BRANCH  14  15
HETATM   15  C   UNL     2     -11.316   9.878  70.475  1.00  0.00    -0.327 C  
HETATM   16  O   UNL     2     -10.417   9.380  69.803  1.00  0.00    -0.203 OA 
BRANCH  15  17
HETATM   17  C   UNL     2     -11.745  11.299  70.403  1.00  0.00    -0.304 C  
HETATM   18  S   UNL     2     -11.310  11.998  68.853  1.00  0.00    -0.302 S  
HETATM   19  O   UNL     2      -9.855  11.879  68.798  1.00  0.00    -0.169 OA 
HETATM   20  O   UNL     2     -11.800  13.370  68.981  1.00  0.00    -0.301 OA 
HETATM   21  O   UNL     2     -12.034  11.188  67.874  1.00  0.00    -0.624 OA 
ENDBRANCH  15  17
ENDBRANCH  14  15
ENDBRANCH  13  14
ENDBRANCH  12  13
ENDBRANCH  11  12
ENDBRANCH  10  11
ENDBRANCH   9  10
ENDBRANCH   8   9
ENDBRANCH   7   8
ENDBRANCH   6   7
ENDBRANCH   5   6
ENDBRANCH   4   5
ENDBRANCH   3   4
TORSDOF 13
ENDMDL
MODEL      341
REMARK 921   NORMALIZED FREE ENERGY PREDICTED BY IDOCK:   -2.72 KCAL/MOL
REMARK 922        TOTAL FREE ENERGY PREDICTED BY IDOCK:   -6.34 KCAL/MOL
REMARK 923 INTER-LIGAND FREE ENERGY PREDICTED BY IDOCK:   -5.46 KCAL/MOL
REMARK 924 INTRA-LIGAND FREE ENERGY PREDICTED BY IDOCK:   -0.89 KCAL/MOL
REMARK 927      BINDING AFFINITY PREDICTED BY RF-SCORE:    0.00 PKD
ROOT
HETATM    1 NA   UNL     1     -11.942   9.604  67.616  1.00  0.00    -0.503 Na 
HETATM    2  C   UNL     2     -11.070  12.182  66.184  1.00  0.00    -0.354 C  
HETATM    3  C   UNL     2     -11.989  13.301  66.643  1.00  0.00    -0.446 C  
ENDROOT
BRANCH   3   4
HETATM    4  C   UNL     2     -11.184  14.443  67.255  1.00  0.00    -0.334 C  
BRANCH   4   5
HETATM    5  C   UNL     2     -11.772  14.894  68.588  1.00  0.00    -0.358 C  
BRANCH   5   6
HETATM    6  C   UNL     2     -11.043  14.217  69.746  1.00  0.00    -0.175 C  
BRANCH   6   7
HETATM    7  C   UNL     2     -11.960  13.255  70.492  1.00  0.00    -0.319 C  
BRANCH   7   8
HETATM    8  C   UNL     2     -11.767  11.828  69.985  1.00  0.00    -0.386 C  
BRANCH   8   9
HETATM    9  C   UNL     2     -12.838  10.902  70.549  1.00  0.00    -0.301 C  
BRANCH   9  10
HETATM   10  C   UNL     2     -12.340  10.195  71.808  1.00  0.00    -0.401 C  
BRANCH  10  11
HETATM   11  C   UNL     2     -11.791   8.814  71.466  1.00  0.00    -0.377 C  
BRANCH  11  12
HETATM   12  C   UNL     2     -10.266   8.802  71.501  1.00  0.00    -0.371 C  
BRANCH  12  13
HETATM   13  C   UNL     2      -9.697   8.333  70.166  1.00  0.00    -0.176 C  
BRANCH  13  14
HETATM   14  O   UNL     2      -9.685   6.903  70.104  1.00  0.00    -0.171 OA 
BRANCH  14  15
HETATM   15  C   UNL     2      -8.787   6.358  69.227  1.00  0.00    -0.128 C  
HETATM   16  O   UNL     2      -7.604   6.684  69.176  1.00  0.00    -0.096 OA 
BRANCH  15  17
HETATM   17  C   UNL     2      -9.466   5.465  68.254  1.00  0.00    -0.119 C  
HETATM   18  S   UNL     2      -8.715   3.878  68.244  1.00  0.00    -0.109 S  
HETATM   19  O   UNL     2      -7.332   4.135  67.853  1.00  0.00    -0.066 OA 
HETATM   20  O   UNL     2      -9.506   3.166  67.240  1.00  0.00    -0.198 OA 
HETATM   21  O   UNL     2      -8.891   3.385  69.610  1.00  0.00    -0.072 OA 
ENDBRANCH  15  17
ENDBRANCH  14  15
ENDBRANCH  13  14
ENDBRANCH  12  13
ENDBRANCH  11  12
ENDBRANCH  10  11
ENDBRANCH   9  10
ENDBRANCH   8   9
ENDBRANCH   7   8
ENDBRANCH   6   7
ENDBRANCH   5   6
ENDBRANCH   4   5
ENDBRANCH   3   4
TORSDOF 13
ENDMDL
MODEL      342
REMARK 921   NORMALIZED FREE ENERGY PREDICTED BY IDOCK:   -2.70 KCAL/MOL
REMARK 922        TOTAL FREE ENERGY PREDICTED BY IDOCK:   -6.32 KCAL/MOL
REMARK 923 INTER-LIGAND FREE ENERGY PREDICTED BY IDOCK:   -5.58 KCAL/MOL
REMARK 924 INTRA-LIGAND FREE ENERGY PREDICTED BY IDOCK:   -0.74 KCAL/MOL
REMARK 927      BINDING AFFINITY PREDICTED BY RF-SCORE:    0.00 PKD
ROOT
HETATM    1 NA   UNL     1     -12.999   6.640  69.949  1.00  0.00    -0.616 Na 
HETATM    2  C   UNL     2     -10.927   6.309  67.700  1.00  0.00    -0.438 C  
HETATM    3  C   UNL     2     -10.683   7.678  67.089  1.00  0.00    -0.361 C  
ENDROOT
BRANCH   3   4
HETATM    4  C   UNL     2      -9.205   8.046  67.165  1.00  0.00    -0.172 C  
BRANCH   4   5
HETATM    5  C   UNL     2      -8.775   8.894  65.971  1.00  0.00    -0.185 C  
BRANCH   5   6
HETATM    6  C   UNL     2      -7.376   9.462  66.200  1.00  0.00    -0.096 C  
BRANCH   6   7
HETATM    7  C   UNL     2      -6.801   8.997  67.532  1.00  0.00    -0.077 C  
BRANCH   7   8
HETATM    8  C   UNL     2      -6.372  10.193  68.378  1.00  0.00    -0.049 C  
BRANCH   8   9
HETATM    9  C   UNL     2      -5.725  11.267  67.510  1.00  0.00    -0.050 C  
BRANCH   9  10
HETATM   10  C   UNL     2      -6.644  12.478  67.367  1.00  0.00    -0.152 C  
BRANCH  10  11
HETATM   11  C   UNL     2      -6.642  13.307  68.647  1.00  0.00    -0.091 C  
BRANCH  11  12
HETATM   12  C   UNL     2      -7.556  14.521  68.520  1.00  0.00    -0.123 C  
BRANCH  12  13
HETATM   13  C   UNL     2      -7.935  14.764  67.063  1.00  0.00    -0.104 C  
BRANCH  13  14
HETATM   14  O   UNL     2      -9.238  15.348  66.978  1.00  0.00    -0.206 OA 
BRANCH  14  15
HETATM   15  C   UNL     2      -9.979  14.980  65.888  1.00  0.00    -0.326 C  
HETATM   16  O   UNL     2     -10.367  15.770  65.032  1.00  0.00    -0.468 OA 
BRANCH  15  17
HETATM   17  C   UNL     2     -10.385  13.553  65.975  1.00  0.00    -0.303 C  
HETATM   18  S   UNL     2     -12.021  13.414  66.597  1.00  0.00    -0.385 S  
HETATM   19  O   UNL     2     -11.959  14.030  67.920  1.00  0.00    -0.360 OA 
HETATM   20  O   UNL     2     -12.225  11.966  66.613  1.00  0.00    -0.493 OA 
HETATM   21  O   UNL     2     -12.842  14.127  65.620  1.00  0.00    -0.529 OA 
ENDBRANCH  15  17
ENDBRANCH  14  15
ENDBRANCH  13  14
ENDBRANCH  12  13
ENDBRANCH  11  12
ENDBRANCH  10  11
ENDBRANCH   9  10
ENDBRANCH   8   9
ENDBRANCH   7   8
ENDBRANCH   6   7
ENDBRANCH   5   6
ENDBRANCH   4   5
ENDBRANCH   3   4
TORSDOF 13
ENDMDL
MODEL      343
REMARK 921   NORMALIZED FREE ENERGY PREDICTED BY IDOCK:   -2.70 KCAL/MOL
REMARK 922        TOTAL FREE ENERGY PREDICTED BY IDOCK:   -6.31 KCAL/MOL
REMARK 923 INTER-LIGAND FREE ENERGY PREDICTED BY IDOCK:   -5.65 KCAL/MOL
REMARK 924 INTRA-LIGAND FREE ENERGY PREDICTED BY IDOCK:   -0.66 KCAL/MOL
REMARK 927      BINDING AFFINITY PREDICTED BY RF-SCORE:    0.00 PKD
ROOT
HETATM    1 NA   UNL     1      -6.931  17.805  65.759  1.00  0.00    -0.185 Na 
HETATM    2  C   UNL     2      -9.484  16.377  66.709  1.00  0.00    -0.265 C  
HETATM    3  C   UNL     2     -10.443  16.307  65.532  1.00  0.00    -0.383 C  
ENDROOT
BRANCH   3   4
HETATM    4  C   UNL     2     -10.829  14.862  65.237  1.00  0.00    -0.398 C  
BRANCH   4   5
HETATM    5  C   UNL     2     -12.074  14.781  64.358  1.00  0.00    -0.457 C  
BRANCH   5   6
HETATM    6  C   UNL     2     -12.142  13.426  63.658  1.00  0.00    -0.513 C  
BRANCH   6   7
HETATM    7  C   UNL     2     -11.701  12.300  64.587  1.00  0.00    -0.420 C  
BRANCH   7   8
HETATM    8  C   UNL     2     -10.628  11.445  63.920  1.00  0.00    -0.452 C  
BRANCH   8   9
HETATM    9  C   UNL     2      -9.547  11.052  64.920  1.00  0.00    -0.289 C  
BRANCH   9  10
HETATM   10  C   UNL     2      -9.561   9.547  65.175  1.00  0.00    -0.270 C  
BRANCH  10  11
HETATM   11  C   UNL     2     -10.338   9.225  66.447  1.00  0.00    -0.238 C  
BRANCH  11  12
HETATM   12  C   UNL     2     -10.086   7.792  66.901  1.00  0.00    -0.356 C  
BRANCH  12  13
HETATM   13  C   UNL     2     -10.226   7.670  68.414  1.00  0.00    -0.198 C  
BRANCH  13  14
HETATM   14  O   UNL     2     -10.911   6.461  68.756  1.00  0.00    -0.291 OA 
BRANCH  14  15
HETATM   15  C   UNL     2     -10.550   5.895  69.948  1.00  0.00    -0.299 C  
HETATM   16  O   UNL     2     -11.347   5.636  70.846  1.00  0.00    -0.142 OA 
BRANCH  15  17
HETATM   17  C   UNL     2      -9.072   5.799  70.068  1.00  0.00    -0.142 C  
HETATM   18  S   UNL     2      -8.504   4.247  69.474  1.00  0.00    -0.072 S  
HETATM   19  O   UNL     2      -9.171   3.267  70.328  1.00  0.00    -0.125 OA 
HETATM   20  O   UNL     2      -7.060   4.345  69.679  1.00  0.00    -0.048 OA 
HETATM   21  O   UNL     2      -8.914   4.224  68.070  1.00  0.00    -0.110 OA 
ENDBRANCH  15  17
ENDBRANCH  14  15
ENDBRANCH  13  14
ENDBRANCH  12  13
ENDBRANCH  11  12
ENDBRANCH  10  11
ENDBRANCH   9  10
ENDBRANCH   8   9
ENDBRANCH   7   8
ENDBRANCH   6   7
ENDBRANCH   5   6
ENDBRANCH   4   5
ENDBRANCH   3   4
TORSDOF 13
ENDMDL
MODEL      344
REMARK 921   NORMALIZED FREE ENERGY PREDICTED BY IDOCK:   -2.70 KCAL/MOL
REMARK 922        TOTAL FREE ENERGY PREDICTED BY IDOCK:   -6.31 KCAL/MOL
REMARK 923 INTER-LIGAND FREE ENERGY PREDICTED BY IDOCK:   -4.75 KCAL/MOL
REMARK 924 INTRA-LIGAND FREE ENERGY PREDICTED BY IDOCK:   -1.56 KCAL/MOL
REMARK 927      BINDING AFFINITY PREDICTED BY RF-SCORE:    0.00 PKD
ROOT
HETATM    1 NA   UNL     1      -7.799   4.120  65.668  1.00  0.00    -0.080 Na 
HETATM    2  C   UNL     2      -8.932   6.105  67.727  1.00  0.00    -0.115 C  
HETATM    3  C   UNL     2     -10.433   5.885  67.806  1.00  0.00    -0.300 C  
ENDROOT
BRANCH   3   4
HETATM    4  C   UNL     2     -10.855   5.558  69.235  1.00  0.00    -0.202 C  
BRANCH   4   5
HETATM    5  C   UNL     2      -9.655   5.505  70.177  1.00  0.00    -0.223 C  
BRANCH   5   6
HETATM    6  C   UNL     2     -10.062   4.907  71.521  1.00  0.00    -0.266 C  
BRANCH   6   7
HETATM    7  C   UNL     2     -11.279   5.620  72.099  1.00  0.00    -0.288 C  
BRANCH   7   8
HETATM    8  C   UNL     2     -10.873   6.950  72.728  1.00  0.00    -0.305 C  
BRANCH   8   9
HETATM    9  C   UNL     2     -11.823   8.064  72.303  1.00  0.00    -0.424 C  
BRANCH   9  10
HETATM   10  C   UNL     2     -11.052   9.238  71.703  1.00  0.00    -0.438 C  
BRANCH  10  11
HETATM   11  C   UNL     2     -10.974   9.108  70.185  1.00  0.00    -0.267 C  
BRANCH  11  12
HETATM   12  C   UNL     2      -9.553   9.341  69.684  1.00  0.00    -0.192 C  
BRANCH  12  13
HETATM   13  C   UNL     2      -9.460  10.649  68.906  1.00  0.00    -0.192 C  
BRANCH  13  14
HETATM   14  O   UNL     2     -10.764  11.101  68.530  1.00  0.00    -0.178 OA 
BRANCH  14  15
HETATM   15  C   UNL     2     -10.796  12.113  67.610  1.00  0.00    -0.233 C  
HETATM   16  O   UNL     2     -11.651  12.994  67.599  1.00  0.00    -0.312 OA 
BRANCH  15  17
HETATM   17  C   UNL     2      -9.777  11.902  66.549  1.00  0.00    -0.210 C  
HETATM   18  S   UNL     2     -10.429  10.909  65.256  1.00  0.00    -0.189 S  
HETATM   19  O   UNL     2     -10.784   9.651  65.909  1.00  0.00     0.098 OA 
HETATM   20  O   UNL     2      -9.297  10.814  64.335  1.00  0.00    -0.214 OA 
HETATM   21  O   UNL     2     -11.561  11.680  64.742  1.00  0.00    -0.221 OA 
ENDBRANCH  15  17
ENDBRANCH  14  15
ENDBRANCH  13  14
ENDBRANCH  12  13
ENDBRANCH  11  12
ENDBRANCH  10  11
ENDBRANCH   9  10
ENDBRANCH   8   9
ENDBRANCH   7   8
ENDBRANCH   6   7
ENDBRANCH   5   6
ENDBRANCH   4   5
ENDBRANCH   3   4
TORSDOF 13
ENDMDL
MODEL      345
REMARK 921   NORMALIZED FREE ENERGY PREDICTED BY IDOCK:   -2.68 KCAL/MOL
REMARK 922        TOTAL FREE ENERGY PREDICTED BY IDOCK:   -6.28 KCAL/MOL
REMARK 923 INTER-LIGAND FREE ENERGY PREDICTED BY IDOCK:   -5.46 KCAL/MOL
REMARK 924 INTRA-LIGAND FREE ENERGY PREDICTED BY IDOCK:   -0.82 KCAL/MOL
REMARK 927      BINDING AFFINITY PREDICTED BY RF-SCORE:    0.00 PKD
ROOT
HETATM    1 NA   UNL     1      -8.831   7.259  63.900  1.00  0.00    -0.353 Na 
HETATM    2  C   UNL     2      -8.213   5.225  66.123  1.00  0.00    -0.110 C  
HETATM    3  C   UNL     2      -8.739   5.793  67.430  1.00  0.00    -0.107 C  
ENDROOT
BRANCH   3   4
HETATM    4  C   UNL     2      -9.734   4.832  68.073  1.00  0.00    -0.202 C  
BRANCH   4   5
HETATM    5  C   UNL     2      -9.632   4.855  69.596  1.00  0.00    -0.243 C  
BRANCH   5   6
HETATM    6  C   UNL     2     -10.818   5.606  70.195  1.00  0.00    -0.356 C  
BRANCH   6   7
HETATM    7  C   UNL     2     -10.509   6.094  71.606  1.00  0.00    -0.267 C  
BRANCH   7   8
HETATM    8  C   UNL     2      -9.404   7.146  71.579  1.00  0.00    -0.156 C  
BRANCH   8   9
HETATM    9  C   UNL     2      -9.851   8.421  72.285  1.00  0.00    -0.383 C  
BRANCH   9  10
HETATM   10  C   UNL     2     -11.360   8.417  72.515  1.00  0.00    -0.416 C  
BRANCH  10  11
HETATM   11  C   UNL     2     -12.069   9.224  71.433  1.00  0.00    -0.424 C  
BRANCH  11  12
HETATM   12  C   UNL     2     -11.176  10.339  70.901  1.00  0.00    -0.311 C  
BRANCH  12  13
HETATM   13  C   UNL     2     -11.696  10.862  69.566  1.00  0.00    -0.328 C  
BRANCH  13  14
HETATM   14  O   UNL     2     -11.055  12.095  69.228  1.00  0.00    -0.226 OA 
BRANCH  14  15
HETATM   15  C   UNL     2     -11.020  12.396  67.894  1.00  0.00    -0.228 C  
HETATM   16  O   UNL     2     -11.928  12.125  67.113  1.00  0.00    -0.580 OA 
BRANCH  15  17
HETATM   17  C   UNL     2      -9.690  12.929  67.502  1.00  0.00    -0.205 C  
HETATM   18  S   UNL     2      -8.532  11.623  67.317  1.00  0.00    -0.163 S  
HETATM   19  O   UNL     2      -8.484  10.993  68.634  1.00  0.00    -0.145 OA 
HETATM   20  O   UNL     2      -7.312  12.339  66.944  1.00  0.00    -0.090 OA 
HETATM   21  O   UNL     2      -9.091  10.790  66.253  1.00  0.00    -0.165 OA 
ENDBRANCH  15  17
ENDBRANCH  14  15
ENDBRANCH  13  14
ENDBRANCH  12  13
ENDBRANCH  11  12
ENDBRANCH  10  11
ENDBRANCH   9  10
ENDBRANCH   8   9
ENDBRANCH   7   8
ENDBRANCH   6   7
ENDBRANCH   5   6
ENDBRANCH   4   5
ENDBRANCH   3   4
TORSDOF 13
ENDMDL
MODEL      346
REMARK 921   NORMALIZED FREE ENERGY PREDICTED BY IDOCK:   -2.67 KCAL/MOL
REMARK 922        TOTAL FREE ENERGY PREDICTED BY IDOCK:   -6.27 KCAL/MOL
REMARK 923 INTER-LIGAND FREE ENERGY PREDICTED BY IDOCK:   -5.41 KCAL/MOL
REMARK 924 INTRA-LIGAND FREE ENERGY PREDICTED BY IDOCK:   -0.85 KCAL/MOL
REMARK 927      BINDING AFFINITY PREDICTED BY RF-SCORE:    0.00 PKD
ROOT
HETATM    1 NA   UNL     1     -10.092   5.269  64.782  1.00  0.00    -0.373 Na 
HETATM    2  C   UNL     2      -9.600   6.392  67.602  1.00  0.00    -0.126 C  
HETATM    3  C   UNL     2     -10.954   6.634  68.248  1.00  0.00    -0.321 C  
ENDROOT
BRANCH   3   4
HETATM    4  C   UNL     2     -11.071   5.863  69.558  1.00  0.00    -0.403 C  
BRANCH   4   5
HETATM    5  C   UNL     2      -9.719   5.724  70.252  1.00  0.00    -0.223 C  
BRANCH   5   6
HETATM    6  C   UNL     2      -9.768   6.356  71.641  1.00  0.00    -0.174 C  
BRANCH   6   7
HETATM    7  C   UNL     2     -11.158   6.900  71.953  1.00  0.00    -0.278 C  
BRANCH   7   8
HETATM    8  C   UNL     2     -11.061   8.285  72.587  1.00  0.00    -0.400 C  
BRANCH   8   9
HETATM    9  C   UNL     2     -11.973   9.275  71.872  1.00  0.00    -0.433 C  
BRANCH   9  10
HETATM   10  C   UNL     2     -11.559   9.440  70.411  1.00  0.00    -0.241 C  
BRANCH  10  11
HETATM   11  C   UNL     2     -11.450  10.917  70.048  1.00  0.00    -0.411 C  
BRANCH  11  12
HETATM   12  C   UNL     2     -11.535  11.123  68.540  1.00  0.00    -0.371 C  
BRANCH  12  13
HETATM   13  C   UNL     2     -11.541  12.608  68.194  1.00  0.00    -0.338 C  
BRANCH  13  14
HETATM   14  O   UNL     2     -10.409  13.261  68.778  1.00  0.00    -0.221 OA 
BRANCH  14  15
HETATM   15  C   UNL     2      -9.338  13.443  67.946  1.00  0.00    -0.216 C  
HETATM   16  O   UNL     2      -9.109  12.736  66.969  1.00  0.00    -0.207 OA 
BRANCH  15  17
HETATM   17  C   UNL     2      -8.421  14.483  68.477  1.00  0.00    -0.166 C  
HETATM   18  S   UNL     2      -6.783  13.861  68.593  1.00  0.00    -0.107 S  
HETATM   19  O   UNL     2      -6.890  12.729  69.510  1.00  0.00    -0.029 OA 
HETATM   20  O   UNL     2      -6.051  15.008  69.130  1.00  0.00    -0.099 OA 
HETATM   21  O   UNL     2      -6.430  13.512  67.218  1.00  0.00    -0.276 OA 
ENDBRANCH  15  17
ENDBRANCH  14  15
ENDBRANCH  13  14
ENDBRANCH  12  13
ENDBRANCH  11  12
ENDBRANCH  10  11
ENDBRANCH   9  10
ENDBRANCH   8   9
ENDBRANCH   7   8
ENDBRANCH   6   7
ENDBRANCH   5   6
ENDBRANCH   4   5
ENDBRANCH   3   4
TORSDOF 13
ENDMDL
MODEL      347
REMARK 921   NORMALIZED FREE ENERGY PREDICTED BY IDOCK:   -2.67 KCAL/MOL
REMARK 922        TOTAL FREE ENERGY PREDICTED BY IDOCK:   -6.26 KCAL/MOL
REMARK 923 INTER-LIGAND FREE ENERGY PREDICTED BY IDOCK:   -5.37 KCAL/MOL
REMARK 924 INTRA-LIGAND FREE ENERGY PREDICTED BY IDOCK:   -0.90 KCAL/MOL
REMARK 927      BINDING AFFINITY PREDICTED BY RF-SCORE:    0.00 PKD
ROOT
HETATM    1 NA   UNL     1      -9.844   6.110  69.795  1.00  0.00    -0.145 Na 
HETATM    2  C   UNL     2     -12.288   6.995  71.439  1.00  0.00    -0.419 C  
HETATM    3  C   UNL     2     -12.030   8.410  71.928  1.00  0.00    -0.397 C  
ENDROOT
BRANCH   3   4
HETATM    4  C   UNL     2     -13.136   9.351  71.462  1.00  0.00    -0.451 C  
BRANCH   4   5
HETATM    5  C   UNL     2     -12.778  10.030  70.143  1.00  0.00     0.078 C  
BRANCH   5   6
HETATM    6  C   UNL     2     -11.505  10.857  70.301  1.00  0.00    -0.391 C  
BRANCH   6   7
HETATM    7  C   UNL     2     -10.419  10.392  69.339  1.00  0.00    -0.261 C  
BRANCH   7   8
HETATM    8  C   UNL     2      -9.853  11.574  68.556  1.00  0.00    -0.198 C  
BRANCH   8   9
HETATM    9  C   UNL     2     -10.948  12.267  67.753  1.00  0.00    -0.274 C  
BRANCH   9  10
HETATM   10  C   UNL     2     -10.725  12.081  66.254  1.00  0.00    -0.302 C  
BRANCH  10  11
HETATM   11  C   UNL     2     -10.912  13.403  65.516  1.00  0.00    -0.294 C  
BRANCH  11  12
HETATM   12  C   UNL     2     -11.744  14.381  66.337  1.00  0.00    -0.397 C  
BRANCH  12  13
HETATM   13  C   UNL     2     -11.016  15.711  66.499  1.00  0.00    -0.206 C  
BRANCH  13  14
HETATM   14  O   UNL     2      -9.738  15.661  65.856  1.00  0.00    -0.307 OA 
BRANCH  14  15
HETATM   15  C   UNL     2      -8.684  16.114  66.602  1.00  0.00    -0.265 C  
HETATM   16  O   UNL     2      -8.229  17.251  66.514  1.00  0.00    -0.233 OA 
BRANCH  15  17
HETATM   17  C   UNL     2      -8.073  15.011  67.388  1.00  0.00    -0.193 C  
HETATM   18  S   UNL     2      -7.937  15.461  69.080  1.00  0.00    -0.219 S  
HETATM   19  O   UNL     2      -7.081  16.644  69.072  1.00  0.00    -0.194 OA 
HETATM   20  O   UNL     2      -7.320  14.272  69.668  1.00  0.00    -0.031 OA 
HETATM   21  O   UNL     2      -9.316  15.697  69.504  1.00  0.00    -0.264 OA 
ENDBRANCH  15  17
ENDBRANCH  14  15
ENDBRANCH  13  14
ENDBRANCH  12  13
ENDBRANCH  11  12
ENDBRANCH  10  11
ENDBRANCH   9  10
ENDBRANCH   8   9
ENDBRANCH   7   8
ENDBRANCH   6   7
ENDBRANCH   5   6
ENDBRANCH   4   5
ENDBRANCH   3   4
TORSDOF 13
ENDMDL
MODEL      348
REMARK 921   NORMALIZED FREE ENERGY PREDICTED BY IDOCK:   -2.66 KCAL/MOL
REMARK 922        TOTAL FREE ENERGY PREDICTED BY IDOCK:   -6.25 KCAL/MOL
REMARK 923 INTER-LIGAND FREE ENERGY PREDICTED BY IDOCK:   -5.92 KCAL/MOL
REMARK 924 INTRA-LIGAND FREE ENERGY PREDICTED BY IDOCK:   -0.34 KCAL/MOL
REMARK 927      BINDING AFFINITY PREDICTED BY RF-SCORE:    0.00 PKD
ROOT
HETATM    1 NA   UNL     1     -13.625  10.710  72.975  1.00  0.00    -0.589 Na 
HETATM    2  C   UNL     2     -11.500   9.730  70.978  1.00  0.00    -0.458 C  
HETATM    3  C   UNL     2     -10.919   8.434  71.518  1.00  0.00    -0.326 C  
ENDROOT
BRANCH   3   4
HETATM    4  C   UNL     2     -11.087   7.306  70.506  1.00  0.00    -0.290 C  
BRANCH   4   5
HETATM    5  C   UNL     2      -9.740   6.816  69.982  1.00  0.00    -0.170 C  
BRANCH   5   6
HETATM    6  C   UNL     2      -8.604   7.366  70.842  1.00  0.00    -0.135 C  
BRANCH   6   7
HETATM    7  C   UNL     2      -7.375   7.684  69.999  1.00  0.00    -0.080 C  
BRANCH   7   8
HETATM    8  C   UNL     2      -7.764   7.878  68.536  1.00  0.00    -0.114 C  
BRANCH   8   9
HETATM    9  C   UNL     2      -7.426   9.288  68.066  1.00  0.00    -0.083 C  
BRANCH   9  10
HETATM   10  C   UNL     2      -7.707   9.447  66.574  1.00  0.00    -0.094 C  
BRANCH  10  11
HETATM   11  C   UNL     2      -8.254  10.840  66.277  1.00  0.00    -0.162 C  
BRANCH  11  12
HETATM   12  C   UNL     2      -8.329  11.685  67.544  1.00  0.00    -0.151 C  
BRANCH  12  13
HETATM   13  C   UNL     2      -8.297  13.172  67.206  1.00  0.00    -0.179 C  
BRANCH  13  14
HETATM   14  O   UNL     2      -9.336  13.495  66.278  1.00  0.00    -0.225 OA 
BRANCH  14  15
HETATM   15  C   UNL     2     -10.141  14.543  66.634  1.00  0.00    -0.272 C  
HETATM   16  O   UNL     2      -9.881  15.319  67.550  1.00  0.00    -0.213 OA 
BRANCH  15  17
HETATM   17  C   UNL     2     -11.425  14.507  65.888  1.00  0.00    -0.345 C  
HETATM   18  S   UNL     2     -11.968  12.851  65.673  1.00  0.00    -0.459 S  
HETATM   19  O   UNL     2     -10.895  12.215  64.913  1.00  0.00    -0.288 OA 
HETATM   20  O   UNL     2     -13.215  13.027  64.929  1.00  0.00    -0.735 OA 
HETATM   21  O   UNL     2     -12.145  12.348  67.035  1.00  0.00    -0.549 OA 
ENDBRANCH  15  17
ENDBRANCH  14  15
ENDBRANCH  13  14
ENDBRANCH  12  13
ENDBRANCH  11  12
ENDBRANCH  10  11
ENDBRANCH   9  10
ENDBRANCH   8   9
ENDBRANCH   7   8
ENDBRANCH   6   7
ENDBRANCH   5   6
ENDBRANCH   4   5
ENDBRANCH   3   4
TORSDOF 13
ENDMDL
MODEL      349
REMARK 921   NORMALIZED FREE ENERGY PREDICTED BY IDOCK:   -2.66 KCAL/MOL
REMARK 922        TOTAL FREE ENERGY PREDICTED BY IDOCK:   -6.25 KCAL/MOL
REMARK 923 INTER-LIGAND FREE ENERGY PREDICTED BY IDOCK:   -5.09 KCAL/MOL
REMARK 924 INTRA-LIGAND FREE ENERGY PREDICTED BY IDOCK:   -1.15 KCAL/MOL
REMARK 927      BINDING AFFINITY PREDICTED BY RF-SCORE:    0.00 PKD
ROOT
HETATM    1 NA   UNL     1      -8.928  12.813  65.240  1.00  0.00    -0.423 Na 
HETATM    2  C   UNL     2      -8.220   9.936  64.417  1.00  0.00    -0.164 C  
HETATM    3  C   UNL     2      -7.587   9.252  65.618  1.00  0.00    -0.094 C  
ENDROOT
BRANCH   3   4
HETATM    4  C   UNL     2      -8.362   7.993  65.991  1.00  0.00    -0.126 C  
BRANCH   4   5
HETATM    5  C   UNL     2      -9.839   8.292  66.230  1.00  0.00    -0.227 C  
BRANCH   5   6
HETATM    6  C   UNL     2     -10.060   8.759  67.667  1.00  0.00    -0.273 C  
BRANCH   6   7
HETATM    7  C   UNL     2     -10.591  10.187  67.710  1.00  0.00    -0.304 C  
BRANCH   7   8
HETATM    8  C   UNL     2      -9.973  10.953  68.876  1.00  0.00    -0.208 C  
BRANCH   8   9
HETATM    9  C   UNL     2      -8.451  10.887  68.824  1.00  0.00    -0.150 C  
BRANCH   9  10
HETATM   10  C   UNL     2      -7.886  12.004  67.951  1.00  0.00    -0.144 C  
BRANCH  10  11
HETATM   11  C   UNL     2      -7.508  13.211  68.802  1.00  0.00    -0.050 C  
BRANCH  11  12
HETATM   12  C   UNL     2      -8.473  14.370  68.574  1.00  0.00    -0.170 C  
BRANCH  12  13
HETATM   13  C   UNL     2      -7.805  15.481  67.769  1.00  0.00    -0.143 C  
BRANCH  13  14
HETATM   14  O   UNL     2      -7.761  16.691  68.530  1.00  0.00    -0.192 OA 
BRANCH  14  15
HETATM   15  C   UNL     2      -7.761  17.848  67.800  1.00  0.00    -0.220 C  
HETATM   16  O   UNL     2      -6.792  18.246  67.158  1.00  0.00    -0.189 OA 
BRANCH  15  17
HETATM   17  C   UNL     2      -9.008  18.623  68.027  1.00  0.00    -0.302 C  
HETATM   18  S   UNL     2      -9.808  18.965  66.502  1.00  0.00    -0.387 S  
HETATM   19  O   UNL     2      -8.830  19.743  65.746  1.00  0.00    -0.375 OA 
HETATM   20  O   UNL     2     -10.983  19.723  66.931  1.00  0.00    -0.433 OA 
HETATM   21  O   UNL     2     -10.111  17.646  65.948  1.00  0.00    -0.519 OA 
ENDBRANCH  15  17
ENDBRANCH  14  15
ENDBRANCH  13  14
ENDBRANCH  12  13
ENDBRANCH  11  12
ENDBRANCH  10  11
ENDBRANCH   9  10
ENDBRANCH   8   9
ENDBRANCH   7   8
ENDBRANCH   6   7
ENDBRANCH   5   6
ENDBRANCH   4   5
ENDBRANCH   3   4
TORSDOF 13
ENDMDL
MODEL      350
REMARK 921   NORMALIZED FREE ENERGY PREDICTED BY IDOCK:   -2.65 KCAL/MOL
REMARK 922        TOTAL FREE ENERGY PREDICTED BY IDOCK:   -6.24 KCAL/MOL
REMARK 923 INTER-LIGAND FREE ENERGY PREDICTED BY IDOCK:   -5.60 KCAL/MOL
REMARK 924 INTRA-LIGAND FREE ENERGY PREDICTED BY IDOCK:   -0.64 KCAL/MOL
REMARK 927      BINDING AFFINITY PREDICTED BY RF-SCORE:    0.00 PKD
ROOT
HETATM    1 NA   UNL     1      -7.324   8.192  70.885  1.00  0.00    -0.050 Na 
HETATM    2  C   UNL     2      -8.506   5.534  69.888  1.00  0.00    -0.116 C  
HETATM    3  C   UNL     2      -8.428   4.534  71.030  1.00  0.00    -0.106 C  
ENDROOT
BRANCH   3   4
HETATM    4  C   UNL     2      -9.812   3.984  71.360  1.00  0.00    -0.249 C  
BRANCH   4   5
HETATM    5  C   UNL     2      -9.998   3.795  72.863  1.00  0.00    -0.207 C  
BRANCH   5   6
HETATM    6  C   UNL     2     -10.687   5.015  73.469  1.00  0.00    -0.339 C  
BRANCH   6   7
HETATM    7  C   UNL     2     -11.309   5.894  72.389  1.00  0.00    -0.358 C  
BRANCH   7   8
HETATM    8  C   UNL     2     -11.359   7.349  72.846  1.00  0.00    -0.322 C  
BRANCH   8   9
HETATM    9  C   UNL     2     -11.880   8.250  71.733  1.00  0.00    -0.357 C  
BRANCH   9  10
HETATM   10  C   UNL     2     -12.748   9.371  72.300  1.00  0.00    -0.416 C  
BRANCH  10  11
HETATM   11  C   UNL     2     -13.306  10.238  71.176  1.00  0.00    -0.339 C  
BRANCH  11  12
HETATM   12  C   UNL     2     -12.908  11.698  71.356  1.00  0.00    -0.461 C  
BRANCH  12  13
HETATM   13  C   UNL     2     -12.125  12.201  70.148  1.00  0.00    -0.290 C  
BRANCH  13  14
HETATM   14  O   UNL     2     -11.362  11.137  69.571  1.00  0.00    -0.244 OA 
BRANCH  14  15
HETATM   15  C   UNL     2     -10.372  11.521  68.708  1.00  0.00    -0.196 C  
HETATM   16  O   UNL     2      -9.837  12.626  68.737  1.00  0.00    -0.116 OA 
BRANCH  15  17
HETATM   17  C   UNL     2     -10.161  10.502  67.648  1.00  0.00    -0.197 C  
HETATM   18  S   UNL     2     -10.348  11.218  66.056  1.00  0.00    -0.259 S  
HETATM   19  O   UNL     2     -11.719  11.721  66.045  1.00  0.00    -0.433 OA 
HETATM   20  O   UNL     2     -10.114  10.077  65.172  1.00  0.00    -0.325 OA 
HETATM   21  O   UNL     2      -9.311  12.248  65.998  1.00  0.00    -0.221 OA 
ENDBRANCH  15  17
ENDBRANCH  14  15
ENDBRANCH  13  14
ENDBRANCH  12  13
ENDBRANCH  11  12
ENDBRANCH  10  11
ENDBRANCH   9  10
ENDBRANCH   8   9
ENDBRANCH   7   8
ENDBRANCH   6   7
ENDBRANCH   5   6
ENDBRANCH   4   5
ENDBRANCH   3   4
TORSDOF 13
ENDMDL
MODEL      351
REMARK 921   NORMALIZED FREE ENERGY PREDICTED BY IDOCK:   -2.65 KCAL/MOL
REMARK 922        TOTAL FREE ENERGY PREDICTED BY IDOCK:   -6.23 KCAL/MOL
REMARK 923 INTER-LIGAND FREE ENERGY PREDICTED BY IDOCK:   -5.37 KCAL/MOL
REMARK 924 INTRA-LIGAND FREE ENERGY PREDICTED BY IDOCK:   -0.87 KCAL/MOL
REMARK 927      BINDING AFFINITY PREDICTED BY RF-SCORE:    0.00 PKD
ROOT
HETATM    1 NA   UNL     1     -10.820  20.336  69.947  1.00  0.00    -0.635 Na 
HETATM    2  C   UNL     2     -10.772  18.392  67.565  1.00  0.00    -0.399 C  
HETATM    3  C   UNL     2      -9.325  18.003  67.313  1.00  0.00    -0.256 C  
ENDROOT
BRANCH   3   4
HETATM    4  C   UNL     2      -9.153  16.489  67.388  1.00  0.00    -0.210 C  
BRANCH   4   5
HETATM    5  C   UNL     2     -10.420  15.758  66.952  1.00  0.00    -0.315 C  
BRANCH   5   6
HETATM    6  C   UNL     2     -10.146  14.263  66.807  1.00  0.00    -0.264 C  
BRANCH   6   7
HETATM    7  C   UNL     2     -10.150  13.566  68.163  1.00  0.00    -0.250 C  
BRANCH   7   8
HETATM    8  C   UNL     2     -11.547  13.593  68.776  1.00  0.00    -0.359 C  
BRANCH   8   9
HETATM    9  C   UNL     2     -12.072  12.179  68.995  1.00  0.00    -0.208 C  
BRANCH   9  10
HETATM   10  C   UNL     2     -11.839  11.728  70.435  1.00  0.00    -0.362 C  
BRANCH  10  11
HETATM   11  C   UNL     2     -11.326  10.292  70.471  1.00  0.00    -0.422 C  
BRANCH  11  12
HETATM   12  C   UNL     2     -10.025  10.151  69.689  1.00  0.00    -0.262 C  
BRANCH  12  13
HETATM   13  C   UNL     2      -9.911   8.761  69.073  1.00  0.00    -0.181 C  
BRANCH  13  14
HETATM   14  O   UNL     2      -8.908   8.748  68.053  1.00  0.00    -0.139 OA 
BRANCH  14  15
HETATM   15  C   UNL     2      -9.328   8.337  66.817  1.00  0.00    -0.182 C  
HETATM   16  O   UNL     2      -9.000   8.889  65.770  1.00  0.00    -0.178 OA 
BRANCH  15  17
HETATM   17  C   UNL     2     -10.350   7.265  66.930  1.00  0.00    -0.288 C  
HETATM   18  S   UNL     2      -9.614   5.685  66.718  1.00  0.00    -0.156 S  
HETATM   19  O   UNL     2      -9.039   5.731  65.376  1.00  0.00    -0.099 OA 
HETATM   20  O   UNL     2     -10.759   4.787  66.855  1.00  0.00    -0.096 OA 
HETATM   21  O   UNL     2      -8.640   5.590  67.805  1.00  0.00    -0.109 OA 
ENDBRANCH  15  17
ENDBRANCH  14  15
ENDBRANCH  13  14
ENDBRANCH  12  13
ENDBRANCH  11  12
ENDBRANCH  10  11
ENDBRANCH   9  10
ENDBRANCH   8   9
ENDBRANCH   7   8
ENDBRANCH   6   7
ENDBRANCH   5   6
ENDBRANCH   4   5
ENDBRANCH   3   4
TORSDOF 13
ENDMDL
MODEL      352
REMARK 921   NORMALIZED FREE ENERGY PREDICTED BY IDOCK:   -2.65 KCAL/MOL
REMARK 922        TOTAL FREE ENERGY PREDICTED BY IDOCK:   -6.23 KCAL/MOL
REMARK 923 INTER-LIGAND FREE ENERGY PREDICTED BY IDOCK:   -5.07 KCAL/MOL
REMARK 924 INTRA-LIGAND FREE ENERGY PREDICTED BY IDOCK:   -1.17 KCAL/MOL
REMARK 927      BINDING AFFINITY PREDICTED BY RF-SCORE:    0.00 PKD
ROOT
HETATM    1 NA   UNL     1     -13.436   6.032  72.130  1.00  0.00    -0.324 Na 
HETATM    2  C   UNL     2     -11.080   8.001  72.310  1.00  0.00    -0.393 C  
HETATM    3  C   UNL     2      -9.806   7.187  72.465  1.00  0.00    -0.183 C  
ENDROOT
BRANCH   3   4
HETATM    4  C   UNL     2      -8.819   7.515  71.350  1.00  0.00    -0.138 C  
BRANCH   4   5
HETATM    5  C   UNL     2      -9.459   7.371  69.972  1.00  0.00    -0.161 C  
BRANCH   5   6
HETATM    6  C   UNL     2      -9.202   8.621  69.135  1.00  0.00    -0.152 C  
BRANCH   6   7
HETATM    7  C   UNL     2     -10.503   9.200  68.590  1.00  0.00    -0.235 C  
BRANCH   7   8
HETATM    8  C   UNL     2     -10.818  10.534  69.260  1.00  0.00    -0.284 C  
BRANCH   8   9
HETATM    9  C   UNL     2     -11.618  11.435  68.326  1.00  0.00    -0.376 C  
BRANCH   9  10
HETATM   10  C   UNL     2     -10.956  11.522  66.953  1.00  0.00    -0.350 C  
BRANCH  10  11
HETATM   11  C   UNL     2     -11.102  12.926  66.375  1.00  0.00    -0.316 C  
BRANCH  11  12
HETATM   12  C   UNL     2     -12.023  13.784  67.236  1.00  0.00    -0.436 C  
BRANCH  12  13
HETATM   13  C   UNL     2     -11.342  15.094  67.619  1.00  0.00    -0.321 C  
BRANCH  13  14
HETATM   14  O   UNL     2     -10.060  15.193  66.992  1.00  0.00    -0.239 OA 
BRANCH  14  15
HETATM   15  C   UNL     2      -9.091  15.821  67.725  1.00  0.00    -0.188 C  
HETATM   16  O   UNL     2      -9.314  16.766  68.478  1.00  0.00    -0.229 OA 
BRANCH  15  17
HETATM   17  C   UNL     2      -7.739  15.325  67.360  1.00  0.00    -0.197 C  
HETATM   18  S   UNL     2      -7.157  14.181  68.558  1.00  0.00    -0.113 S  
HETATM   19  O   UNL     2      -7.123  14.946  69.802  1.00  0.00    -0.176 OA 
HETATM   20  O   UNL     2      -5.840  13.823  68.033  1.00  0.00    -0.110 OA 
HETATM   21  O   UNL     2      -8.135  13.094  68.527  1.00  0.00    -0.144 OA 
ENDBRANCH  15  17
ENDBRANCH  14  15
ENDBRANCH  13  14
ENDBRANCH  12  13
ENDBRANCH  11  12
ENDBRANCH  10  11
ENDBRANCH   9  10
ENDBRANCH   8   9
ENDBRANCH   7   8
ENDBRANCH   6   7
ENDBRANCH   5   6
ENDBRANCH   4   5
ENDBRANCH   3   4
TORSDOF 13
ENDMDL
MODEL      353
REMARK 921   NORMALIZED FREE ENERGY PREDICTED BY IDOCK:   -2.64 KCAL/MOL
REMARK 922        TOTAL FREE ENERGY PREDICTED BY IDOCK:   -6.22 KCAL/MOL
REMARK 923 INTER-LIGAND FREE ENERGY PREDICTED BY IDOCK:   -6.15 KCAL/MOL
REMARK 924 INTRA-LIGAND FREE ENERGY PREDICTED BY IDOCK:   -0.06 KCAL/MOL
REMARK 927      BINDING AFFINITY PREDICTED BY RF-SCORE:    0.00 PKD
ROOT
HETATM    1 NA   UNL     1     -10.476  10.264  62.937  1.00  0.00    -0.492 Na 
HETATM    2  C   UNL     2     -12.762  12.229  63.544  1.00  0.00    -0.512 C  
HETATM    3  C   UNL     2     -12.523  12.804  64.930  1.00  0.00    -0.563 C  
ENDROOT
BRANCH   3   4
HETATM    4  C   UNL     2     -12.441  14.326  64.875  1.00  0.00    -0.403 C  
BRANCH   4   5
HETATM    5  C   UNL     2     -11.093  14.797  64.336  1.00  0.00    -0.133 C  
BRANCH   5   6
HETATM    6  C   UNL     2     -10.622  16.035  65.094  1.00  0.00    -0.394 C  
BRANCH   6   7
HETATM    7  C   UNL     2      -9.696  15.661  66.245  1.00  0.00    -0.328 C  
BRANCH   7   8
HETATM    8  C   UNL     2      -8.353  16.375  66.106  1.00  0.00    -0.291 C  
BRANCH   8   9
HETATM    9  C   UNL     2      -8.410  17.764  66.731  1.00  0.00    -0.271 C  
BRANCH   9  10
HETATM   10  C   UNL     2      -8.044  17.711  68.212  1.00  0.00    -0.278 C  
BRANCH  10  11
HETATM   11  C   UNL     2      -8.784  18.796  68.987  1.00  0.00    -0.130 C  
BRANCH  11  12
HETATM   12  C   UNL     2     -10.245  18.882  68.557  1.00  0.00    -0.407 C  
BRANCH  12  13
HETATM   13  C   UNL     2     -10.892  17.501  68.559  1.00  0.00    -0.135 C  
BRANCH  13  14
HETATM   14  O   UNL     2     -11.181  17.088  69.898  1.00  0.00     0.107 OA 
BRANCH  14  15
HETATM   15  C   UNL     2     -11.135  15.738  70.122  1.00  0.00    -0.352 C  
HETATM   16  O   UNL     2     -11.187  14.899  69.228  1.00  0.00    -0.256 OA 
BRANCH  15  17
HETATM   17  C   UNL     2     -11.185  15.437  71.576  1.00  0.00    -0.336 C  
HETATM   18  S   UNL     2     -12.490  14.316  71.930  1.00  0.00    -0.233 S  
HETATM   19  O   UNL     2     -13.695  15.014  71.490  1.00  0.00    -0.395 OA 
HETATM   20  O   UNL     2     -12.378  14.156  73.379  1.00  0.00    -0.153 OA 
HETATM   21  O   UNL     2     -12.155  13.117  71.163  1.00  0.00    -0.198 OA 
ENDBRANCH  15  17
ENDBRANCH  14  15
ENDBRANCH  13  14
ENDBRANCH  12  13
ENDBRANCH  11  12
ENDBRANCH  10  11
ENDBRANCH   9  10
ENDBRANCH   8   9
ENDBRANCH   7   8
ENDBRANCH   6   7
ENDBRANCH   5   6
ENDBRANCH   4   5
ENDBRANCH   3   4
TORSDOF 13
ENDMDL
MODEL      354
REMARK 921   NORMALIZED FREE ENERGY PREDICTED BY IDOCK:   -2.64 KCAL/MOL
REMARK 922        TOTAL FREE ENERGY PREDICTED BY IDOCK:   -6.20 KCAL/MOL
REMARK 923 INTER-LIGAND FREE ENERGY PREDICTED BY IDOCK:   -4.79 KCAL/MOL
REMARK 924 INTRA-LIGAND FREE ENERGY PREDICTED BY IDOCK:   -1.41 KCAL/MOL
REMARK 927      BINDING AFFINITY PREDICTED BY RF-SCORE:    0.00 PKD
ROOT
HETATM    1 NA   UNL     1     -12.501  11.072  62.333  1.00  0.00    -0.913 Na 
HETATM    2  C   UNL     2     -10.151  10.943  64.312  1.00  0.00    -0.413 C  
HETATM    3  C   UNL     2      -9.176   9.892  63.806  1.00  0.00    -0.289 C  
ENDROOT
BRANCH   3   4
HETATM    4  C   UNL     2      -7.791  10.497  63.601  1.00  0.00     0.003 C  
BRANCH   4   5
HETATM    5  C   UNL     2      -6.691   9.454  63.772  1.00  0.00    -0.096 C  
BRANCH   5   6
HETATM    6  C   UNL     2      -7.293   8.052  63.822  1.00  0.00    -0.102 C  
BRANCH   6   7
HETATM    7  C   UNL     2      -6.769   7.266  65.018  1.00  0.00    -0.047 C  
BRANCH   7   8
HETATM    8  C   UNL     2      -6.518   8.196  66.202  1.00  0.00    -0.046 C  
BRANCH   8   9
HETATM    9  C   UNL     2      -7.303   7.741  67.427  1.00  0.00    -0.092 C  
BRANCH   9  10
HETATM   10  C   UNL     2      -8.498   8.656  67.680  1.00  0.00    -0.125 C  
BRANCH  10  11
HETATM   11  C   UNL     2      -8.155  10.098  67.319  1.00  0.00    -0.114 C  
BRANCH  11  12
HETATM   12  C   UNL     2      -8.289  11.016  68.529  1.00  0.00    -0.149 C  
BRANCH  12  13
HETATM   13  C   UNL     2      -7.990  12.462  68.148  1.00  0.00    -0.153 C  
BRANCH  13  14
HETATM   14  O   UNL     2      -9.145  13.281  68.352  1.00  0.00    -0.191 OA 
BRANCH  14  15
HETATM   15  C   UNL     2      -8.913  14.629  68.392  1.00  0.00    -0.180 C  
HETATM   16  O   UNL     2      -8.751  15.260  69.433  1.00  0.00    -0.232 OA 
BRANCH  15  17
HETATM   17  C   UNL     2      -9.054  15.236  67.043  1.00  0.00    -0.225 C  
HETATM   18  S   UNL     2     -10.683  15.851  66.810  1.00  0.00    -0.233 S  
HETATM   19  O   UNL     2     -11.537  14.675  66.956  1.00  0.00    -0.362 OA 
HETATM   20  O   UNL     2     -10.620  16.389  65.452  1.00  0.00    -0.480 OA 
HETATM   21  O   UNL     2     -10.840  16.864  67.853  1.00  0.00    -0.354 OA 
ENDBRANCH  15  17
ENDBRANCH  14  15
ENDBRANCH  13  14
ENDBRANCH  12  13
ENDBRANCH  11  12
ENDBRANCH  10  11
ENDBRANCH   9  10
ENDBRANCH   8   9
ENDBRANCH   7   8
ENDBRANCH   6   7
ENDBRANCH   5   6
ENDBRANCH   4   5
ENDBRANCH   3   4
TORSDOF 13
ENDMDL
MODEL      355
REMARK 921   NORMALIZED FREE ENERGY PREDICTED BY IDOCK:   -2.63 KCAL/MOL
REMARK 922        TOTAL FREE ENERGY PREDICTED BY IDOCK:   -6.19 KCAL/MOL
REMARK 923 INTER-LIGAND FREE ENERGY PREDICTED BY IDOCK:   -5.21 KCAL/MOL
REMARK 924 INTRA-LIGAND FREE ENERGY PREDICTED BY IDOCK:   -0.98 KCAL/MOL
REMARK 927      BINDING AFFINITY PREDICTED BY RF-SCORE:    0.00 PKD
ROOT
HETATM    1 NA   UNL     1     -10.602  11.083  70.531  1.00  0.00    -0.413 Na 
HETATM    2  C   UNL     2      -8.608  11.299  68.200  1.00  0.00    -0.150 C  
HETATM    3  C   UNL     2      -7.216  11.047  68.755  1.00  0.00    -0.091 C  
ENDROOT
BRANCH   3   4
HETATM    4  C   UNL     2      -6.549   9.883  68.030  1.00  0.00    -0.060 C  
BRANCH   4   5
HETATM    5  C   UNL     2      -7.531   8.743  67.775  1.00  0.00    -0.093 C  
BRANCH   5   6
HETATM    6  C   UNL     2      -7.457   8.295  66.318  1.00  0.00    -0.079 C  
BRANCH   6   7
HETATM    7  C   UNL     2      -8.771   8.556  65.591  1.00  0.00    -0.213 C  
BRANCH   7   8
HETATM    8  C   UNL     2      -8.517   9.256  64.259  1.00  0.00    -0.202 C  
BRANCH   8   9
HETATM    9  C   UNL     2      -8.853  10.740  64.352  1.00  0.00    -0.132 C  
BRANCH   9  10
HETATM   10  C   UNL     2     -10.304  10.944  64.782  1.00  0.00    -0.391 C  
BRANCH  10  11
HETATM   11  C   UNL     2     -10.442  12.213  65.618  1.00  0.00    -0.290 C  
BRANCH  11  12
HETATM   12  C   UNL     2     -11.792  12.264  66.324  1.00  0.00    -0.387 C  
BRANCH  12  13
HETATM   13  C   UNL     2     -11.738  13.195  67.531  1.00  0.00    -0.366 C  
BRANCH  13  14
HETATM   14  O   UNL     2     -10.751  14.212  67.333  1.00  0.00    -0.279 OA 
BRANCH  14  15
HETATM   15  C   UNL     2     -10.649  15.138  68.335  1.00  0.00    -0.238 C  
HETATM   16  O   UNL     2      -9.589  15.437  68.877  1.00  0.00    -0.196 OA 
BRANCH  15  17
HETATM   17  C   UNL     2     -11.991  15.592  68.781  1.00  0.00    -0.229 C  
HETATM   18  S   UNL     2     -12.150  15.432  70.522  1.00  0.00    -0.403 S  
HETATM   19  O   UNL     2     -11.962  14.006  70.773  1.00  0.00    -0.324 OA 
HETATM   20  O   UNL     2     -13.511  15.914  70.755  1.00  0.00    -0.410 OA 
HETATM   21  O   UNL     2     -11.104  16.299  71.063  1.00  0.00    -0.264 OA 
ENDBRANCH  15  17
ENDBRANCH  14  15
ENDBRANCH  13  14
ENDBRANCH  12  13
ENDBRANCH  11  12
ENDBRANCH  10  11
ENDBRANCH   9  10
ENDBRANCH   8   9
ENDBRANCH   7   8
ENDBRANCH   6   7
ENDBRANCH   5   6
ENDBRANCH   4   5
ENDBRANCH   3   4
TORSDOF 13
ENDMDL
MODEL      356
REMARK 921   NORMALIZED FREE ENERGY PREDICTED BY IDOCK:   -2.60 KCAL/MOL
REMARK 922        TOTAL FREE ENERGY PREDICTED BY IDOCK:   -6.14 KCAL/MOL
REMARK 923 INTER-LIGAND FREE ENERGY PREDICTED BY IDOCK:   -5.01 KCAL/MOL
REMARK 924 INTRA-LIGAND FREE ENERGY PREDICTED BY IDOCK:   -1.13 KCAL/MOL
REMARK 927      BINDING AFFINITY PREDICTED BY RF-SCORE:    0.00 PKD
ROOT
HETATM    1 NA   UNL     1      -8.461  11.950  65.148  1.00  0.00    -0.382 Na 
HETATM    2  C   UNL     2      -7.446  13.155  67.790  1.00  0.00    -0.150 C  
HETATM    3  C   UNL     2      -6.734  14.457  67.463  1.00  0.00    -0.132 C  
ENDROOT
BRANCH   3   4
HETATM    4  C   UNL     2      -7.363  15.620  68.222  1.00  0.00    -0.117 C  
BRANCH   4   5
HETATM    5  C   UNL     2      -8.446  15.143  69.185  1.00  0.00    -0.220 C  
BRANCH   5   6
HETATM    6  C   UNL     2      -9.709  15.985  69.022  1.00  0.00    -0.244 C  
BRANCH   6   7
HETATM    7  C   UNL     2     -10.819  15.193  68.341  1.00  0.00    -0.255 C  
BRANCH   7   8
HETATM    8  C   UNL     2     -10.805  15.438  66.834  1.00  0.00    -0.313 C  
BRANCH   8   9
HETATM    9  C   UNL     2     -10.112  14.293  66.104  1.00  0.00    -0.325 C  
BRANCH   9  10
HETATM   10  C   UNL     2     -11.097  13.541  65.212  1.00  0.00    -0.307 C  
BRANCH  10  11
HETATM   11  C   UNL     2     -11.714  12.367  65.965  1.00  0.00    -0.469 C  
BRANCH  11  12
HETATM   12  C   UNL     2     -10.828  11.928  67.125  1.00  0.00    -0.301 C  
BRANCH  12  13
HETATM   13  C   UNL     2     -11.342  10.631  67.740  1.00  0.00    -0.244 C  
BRANCH  13  14
HETATM   14  O   UNL     2     -10.736  10.410  69.017  1.00  0.00    -0.200 OA 
BRANCH  14  15
HETATM   15  C   UNL     2      -9.702   9.514  69.033  1.00  0.00    -0.170 C  
HETATM   16  O   UNL     2      -9.801   8.354  68.641  1.00  0.00    -0.162 OA 
BRANCH  15  17
HETATM   17  C   UNL     2      -8.519  10.077  69.733  1.00  0.00    -0.172 C  
HETATM   18  S   UNL     2      -8.033   9.035  71.060  1.00  0.00    -0.124 S  
HETATM   19  O   UNL     2      -9.201   8.997  71.937  1.00  0.00    -0.353 OA 
HETATM   20  O   UNL     2      -6.884   9.750  71.614  1.00  0.00    -0.284 OA 
HETATM   21  O   UNL     2      -7.699   7.763  70.419  1.00  0.00    -0.085 OA 
ENDBRANCH  15  17
ENDBRANCH  14  15
ENDBRANCH  13  14
ENDBRANCH  12  13
ENDBRANCH  11  12
ENDBRANCH  10  11
ENDBRANCH   9  10
ENDBRANCH   8   9
ENDBRANCH   7   8
ENDBRANCH   6   7
ENDBRANCH   5   6
ENDBRANCH   4   5
ENDBRANCH   3   4
TORSDOF 13
ENDMDL
MODEL      357
REMARK 921   NORMALIZED FREE ENERGY PREDICTED BY IDOCK:   -2.60 KCAL/MOL
REMARK 922        TOTAL FREE ENERGY PREDICTED BY IDOCK:   -6.14 KCAL/MOL
REMARK 923 INTER-LIGAND FREE ENERGY PREDICTED BY IDOCK:   -5.08 KCAL/MOL
REMARK 924 INTRA-LIGAND FREE ENERGY PREDICTED BY IDOCK:   -1.06 KCAL/MOL
REMARK 927      BINDING AFFINITY PREDICTED BY RF-SCORE:    0.00 PKD
ROOT
HETATM    1 NA   UNL     1      -5.575  15.132  72.134  1.00  0.00    -0.129 Na 
HETATM    2  C   UNL     2      -6.741  14.562  69.346  1.00  0.00    -0.142 C  
HETATM    3  C   UNL     2      -6.335  13.152  68.953  1.00  0.00    -0.093 C  
ENDROOT
BRANCH   3   4
HETATM    4  C   UNL     2      -7.565  12.303  68.647  1.00  0.00    -0.089 C  
BRANCH   4   5
HETATM    5  C   UNL     2      -7.244  11.183  67.663  1.00  0.00    -0.094 C  
BRANCH   5   6
HETATM    6  C   UNL     2      -7.442   9.822  68.325  1.00  0.00    -0.080 C  
BRANCH   6   7
HETATM    7  C   UNL     2      -8.740   9.167  67.867  1.00  0.00    -0.128 C  
BRANCH   7   8
HETATM    8  C   UNL     2      -9.576   8.735  69.068  1.00  0.00    -0.162 C  
BRANCH   8   9
HETATM    9  C   UNL     2     -10.898   9.494  69.112  1.00  0.00    -0.194 C  
BRANCH   9  10
HETATM   10  C   UNL     2     -10.902  10.516  70.246  1.00  0.00    -0.241 C  
BRANCH  10  11
HETATM   11  C   UNL     2     -11.544  11.822  69.789  1.00  0.00    -0.372 C  
BRANCH  11  12
HETATM   12  C   UNL     2     -11.022  12.244  68.420  1.00  0.00    -0.270 C  
BRANCH  12  13
HETATM   13  C   UNL     2     -12.173  12.613  67.490  1.00  0.00     0.116 C  
BRANCH  13  14
HETATM   14  O   UNL     2     -11.936  12.102  66.175  1.00  0.00    -0.593 OA 
BRANCH  14  15
HETATM   15  C   UNL     2     -12.105  12.998  65.155  1.00  0.00    -0.433 C  
HETATM   16  O   UNL     2     -13.118  13.058  64.463  1.00  0.00    -0.693 OA 
BRANCH  15  17
HETATM   17  C   UNL     2     -10.852  13.753  64.895  1.00  0.00    -0.391 C  
HETATM   18  S   UNL     2     -11.092  15.468  65.189  1.00  0.00    -0.347 S  
HETATM   19  O   UNL     2     -12.146  15.851  64.253  1.00  0.00    -0.494 OA 
HETATM   20  O   UNL     2      -9.776  16.024  64.879  1.00  0.00    -0.120 OA 
HETATM   21  O   UNL     2     -11.461  15.545  66.602  1.00  0.00    -0.124 OA 
ENDBRANCH  15  17
ENDBRANCH  14  15
ENDBRANCH  13  14
ENDBRANCH  12  13
ENDBRANCH  11  12
ENDBRANCH  10  11
ENDBRANCH   9  10
ENDBRANCH   8   9
ENDBRANCH   7   8
ENDBRANCH   6   7
ENDBRANCH   5   6
ENDBRANCH   4   5
ENDBRANCH   3   4
TORSDOF 13
ENDMDL
MODEL      358
REMARK 921   NORMALIZED FREE ENERGY PREDICTED BY IDOCK:   -2.58 KCAL/MOL
REMARK 922        TOTAL FREE ENERGY PREDICTED BY IDOCK:   -6.11 KCAL/MOL
REMARK 923 INTER-LIGAND FREE ENERGY PREDICTED BY IDOCK:   -5.09 KCAL/MOL
REMARK 924 INTRA-LIGAND FREE ENERGY PREDICTED BY IDOCK:   -1.02 KCAL/MOL
REMARK 927      BINDING AFFINITY PREDICTED BY RF-SCORE:    0.00 PKD
ROOT
HETATM    1 NA   UNL     1     -13.378  10.560  71.539  1.00  0.00    -0.315 Na 
HETATM    2  C   UNL     2     -12.049  12.799  69.904  1.00  0.00    -0.329 C  
HETATM    3  C   UNL     2     -12.602  14.126  70.398  1.00  0.00    -0.397 C  
ENDROOT
BRANCH   3   4
HETATM    4  C   UNL     2     -11.474  15.037  70.870  1.00  0.00    -0.330 C  
BRANCH   4   5
HETATM    5  C   UNL     2     -11.306  16.244  69.951  1.00  0.00    -0.265 C  
BRANCH   5   6
HETATM    6  C   UNL     2     -10.754  15.808  68.597  1.00  0.00    -0.263 C  
BRANCH   6   7
HETATM    7  C   UNL     2      -9.890  16.898  67.973  1.00  0.00    -0.264 C  
BRANCH   7   8
HETATM    8  C   UNL     2      -8.665  17.173  68.841  1.00  0.00    -0.185 C  
BRANCH   8   9
HETATM    9  C   UNL     2      -7.885  15.889  69.102  1.00  0.00    -0.227 C  
BRANCH   9  10
HETATM   10  C   UNL     2      -7.198  15.401  67.829  1.00  0.00    -0.182 C  
BRANCH  10  11
HETATM   11  C   UNL     2      -5.938  14.612  68.168  1.00  0.00    -0.143 C  
BRANCH  11  12
HETATM   12  C   UNL     2      -6.247  13.457  69.114  1.00  0.00    -0.098 C  
BRANCH  12  13
HETATM   13  C   UNL     2      -6.279  12.132  68.360  1.00  0.00    -0.052 C  
BRANCH  13  14
HETATM   14  O   UNL     2      -7.605  11.595  68.351  1.00  0.00    -0.111 OA 
BRANCH  14  15
HETATM   15  C   UNL     2      -8.188  11.484  67.117  1.00  0.00    -0.161 C  
HETATM   16  O   UNL     2      -7.642  10.954  66.154  1.00  0.00    -0.147 OA 
BRANCH  15  17
HETATM   17  C   UNL     2      -9.472  12.229  67.065  1.00  0.00    -0.204 C  
HETATM   18  S   UNL     2     -10.785  11.163  66.593  1.00  0.00    -0.253 S  
HETATM   19  O   UNL     2     -10.399  10.676  65.271  1.00  0.00    -0.290 OA 
HETATM   20  O   UNL     2     -11.935  12.067  66.593  1.00  0.00    -0.614 OA 
HETATM   21  O   UNL     2     -10.820  10.144  67.642  1.00  0.00    -0.265 OA 
ENDBRANCH  15  17
ENDBRANCH  14  15
ENDBRANCH  13  14
ENDBRANCH  12  13
ENDBRANCH  11  12
ENDBRANCH  10  11
ENDBRANCH   9  10
ENDBRANCH   8   9
ENDBRANCH   7   8
ENDBRANCH   6   7
ENDBRANCH   5   6
ENDBRANCH   4   5
ENDBRANCH   3   4
TORSDOF 13
ENDMDL
MODEL      359
REMARK 921   NORMALIZED FREE ENERGY PREDICTED BY IDOCK:   -2.57 KCAL/MOL
REMARK 922        TOTAL FREE ENERGY PREDICTED BY IDOCK:   -6.08 KCAL/MOL
REMARK 923 INTER-LIGAND FREE ENERGY PREDICTED BY IDOCK:   -5.50 KCAL/MOL
REMARK 924 INTRA-LIGAND FREE ENERGY PREDICTED BY IDOCK:   -0.57 KCAL/MOL
REMARK 927      BINDING AFFINITY PREDICTED BY RF-SCORE:    0.00 PKD
ROOT
HETATM    1 NA   UNL     1      -8.136   1.745  64.522  1.00  0.00    -0.061 Na 
HETATM    2  C   UNL     2      -8.852   3.856  66.641  1.00  0.00    -0.127 C  
HETATM    3  C   UNL     2      -9.416   5.067  65.916  1.00  0.00    -0.171 C  
ENDROOT
BRANCH   3   4
HETATM    4  C   UNL     2     -10.816   5.394  66.425  1.00  0.00    -0.202 C  
BRANCH   4   5
HETATM    5  C   UNL     2     -10.827   6.673  67.258  1.00  0.00    -0.456 C  
BRANCH   5   6
HETATM    6  C   UNL     2      -9.670   7.581  66.850  1.00  0.00    -0.272 C  
BRANCH   6   7
HETATM    7  C   UNL     2     -10.156   8.993  66.543  1.00  0.00    -0.354 C  
BRANCH   7   8
HETATM    8  C   UNL     2      -8.976   9.910  66.231  1.00  0.00    -0.169 C  
BRANCH   8   9
HETATM    9  C   UNL     2      -9.433  11.359  66.104  1.00  0.00    -0.237 C  
BRANCH   9  10
HETATM   10  C   UNL     2     -10.110  11.831  67.388  1.00  0.00    -0.212 C  
BRANCH  10  11
HETATM   11  C   UNL     2     -10.094  13.354  67.474  1.00  0.00    -0.227 C  
BRANCH  11  12
HETATM   12  C   UNL     2      -9.705  13.978  66.139  1.00  0.00    -0.300 C  
BRANCH  12  13
HETATM   13  C   UNL     2      -9.426  15.469  66.298  1.00  0.00    -0.323 C  
BRANCH  13  14
HETATM   14  O   UNL     2     -10.341  16.051  67.231  1.00  0.00    -0.282 OA 
BRANCH  14  15
HETATM   15  C   UNL     2      -9.798  16.951  68.107  1.00  0.00    -0.264 C  
HETATM   16  O   UNL     2     -10.292  17.221  69.198  1.00  0.00    -0.330 OA 
BRANCH  15  17
HETATM   17  C   UNL     2      -8.649  17.666  67.493  1.00  0.00    -0.222 C  
HETATM   18  S   UNL     2      -9.066  19.341  67.171  1.00  0.00    -0.309 S  
HETATM   19  O   UNL     2     -10.196  19.262  66.249  1.00  0.00    -0.398 OA 
HETATM   20  O   UNL     2      -7.835  19.859  66.576  1.00  0.00    -0.282 OA 
HETATM   21  O   UNL     2      -9.379  19.897  68.487  1.00  0.00    -0.305 OA 
ENDBRANCH  15  17
ENDBRANCH  14  15
ENDBRANCH  13  14
ENDBRANCH  12  13
ENDBRANCH  11  12
ENDBRANCH  10  11
ENDBRANCH   9  10
ENDBRANCH   8   9
ENDBRANCH   7   8
ENDBRANCH   6   7
ENDBRANCH   5   6
ENDBRANCH   4   5
ENDBRANCH   3   4
TORSDOF 13
ENDMDL
MODEL      360
REMARK 921   NORMALIZED FREE ENERGY PREDICTED BY IDOCK:   -2.55 KCAL/MOL
REMARK 922        TOTAL FREE ENERGY PREDICTED BY IDOCK:   -6.06 KCAL/MOL
REMARK 923 INTER-LIGAND FREE ENERGY PREDICTED BY IDOCK:   -4.49 KCAL/MOL
REMARK 924 INTRA-LIGAND FREE ENERGY PREDICTED BY IDOCK:   -1.57 KCAL/MOL
REMARK 927      BINDING AFFINITY PREDICTED BY RF-SCORE:    0.00 PKD
ROOT
HETATM    1 NA   UNL     1      -6.418   9.787  71.840  1.00  0.00    -0.065 Na 
HETATM    2  C   UNL     2      -6.937  10.492  68.891  1.00  0.00    -0.070 C  
HETATM    3  C   UNL     2      -8.407  10.851  68.752  1.00  0.00    -0.151 C  
ENDROOT
BRANCH   3   4
HETATM    4  C   UNL     2      -8.567  12.254  68.176  1.00  0.00    -0.181 C  
BRANCH   4   5
HETATM    5  C   UNL     2     -10.015  12.540  67.788  1.00  0.00    -0.210 C  
BRANCH   5   6
HETATM    6  C   UNL     2     -10.543  11.444  66.866  1.00  0.00    -0.292 C  
BRANCH   6   7
HETATM    7  C   UNL     2      -9.846  11.476  65.511  1.00  0.00    -0.269 C  
BRANCH   7   8
HETATM    8  C   UNL     2      -9.572  10.058  65.016  1.00  0.00    -0.362 C  
BRANCH   8   9
HETATM    9  C   UNL     2      -8.165   9.612  65.397  1.00  0.00    -0.129 C  
BRANCH   9  10
HETATM   10  C   UNL     2      -8.204   8.316  66.204  1.00  0.00    -0.119 C  
BRANCH  10  11
HETATM   11  C   UNL     2      -9.644   7.917  66.508  1.00  0.00    -0.281 C  
BRANCH  11  12
HETATM   12  C   UNL     2      -9.697   6.711  67.439  1.00  0.00    -0.155 C  
BRANCH  12  13
HETATM   13  C   UNL     2     -10.159   7.121  68.833  1.00  0.00    -0.177 C  
BRANCH  13  14
HETATM   14  O   UNL     2      -9.419   6.414  69.832  1.00  0.00    -0.153 OA 
BRANCH  14  15
HETATM   15  C   UNL     2      -9.251   7.072  71.020  1.00  0.00    -0.155 C  
HETATM   16  O   UNL     2      -8.454   6.721  71.885  1.00  0.00    -0.116 OA 
BRANCH  15  17
HETATM   17  C   UNL     2     -10.266   8.145  71.183  1.00  0.00    -0.195 C  
HETATM   18  S   UNL     2     -11.415   7.721  72.442  1.00  0.00    -0.379 S  
HETATM   19  O   UNL     2     -12.025   6.480  71.973  1.00  0.00    -0.321 OA 
HETATM   20  O   UNL     2     -12.314   8.875  72.444  1.00  0.00    -0.367 OA 
HETATM   21  O   UNL     2     -10.598   7.592  73.649  1.00  0.00    -0.348 OA 
ENDBRANCH  15  17
ENDBRANCH  14  15
ENDBRANCH  13  14
ENDBRANCH  12  13
ENDBRANCH  11  12
ENDBRANCH  10  11
ENDBRANCH   9  10
ENDBRANCH   8   9
ENDBRANCH   7   8
ENDBRANCH   6   7
ENDBRANCH   5   6
ENDBRANCH   4   5
ENDBRANCH   3   4
TORSDOF 13
ENDMDL
MODEL      361
REMARK 921   NORMALIZED FREE ENERGY PREDICTED BY IDOCK:   -2.55 KCAL/MOL
REMARK 922        TOTAL FREE ENERGY PREDICTED BY IDOCK:   -6.05 KCAL/MOL
REMARK 923 INTER-LIGAND FREE ENERGY PREDICTED BY IDOCK:   -5.42 KCAL/MOL
REMARK 924 INTRA-LIGAND FREE ENERGY PREDICTED BY IDOCK:   -0.63 KCAL/MOL
REMARK 927      BINDING AFFINITY PREDICTED BY RF-SCORE:    0.00 PKD
ROOT
HETATM    1 NA   UNL     1     -12.999  11.665  70.819  1.00  0.00    -0.301 Na 
HETATM    2  C   UNL     2     -12.885  14.690  71.358  1.00  0.00    -0.400 C  
HETATM    3  C   UNL     2     -11.460  15.154  71.103  1.00  0.00    -0.387 C  
ENDROOT
BRANCH   3   4
HETATM    4  C   UNL     2     -11.433  16.256  70.049  1.00  0.00    -0.218 C  
BRANCH   4   5
HETATM    5  C   UNL     2     -10.693  15.812  68.791  1.00  0.00    -0.253 C  
BRANCH   5   6
HETATM    6  C   UNL     2     -10.462  17.002  67.863  1.00  0.00    -0.354 C  
BRANCH   6   7
HETATM    7  C   UNL     2      -9.839  16.563  66.543  1.00  0.00    -0.292 C  
BRANCH   7   8
HETATM    8  C   UNL     2     -10.923  16.264  65.512  1.00  0.00    -0.154 C  
BRANCH   8   9
HETATM    9  C   UNL     2     -10.583  15.011  64.714  1.00  0.00    -0.319 C  
BRANCH   9  10
HETATM   10  C   UNL     2     -11.146  13.764  65.392  1.00  0.00    -0.304 C  
BRANCH  10  11
HETATM   11  C   UNL     2     -11.833  12.862  64.372  1.00  0.00    -0.441 C  
BRANCH  11  12
HETATM   12  C   UNL     2     -10.927  11.709  63.956  1.00  0.00    -0.456 C  
BRANCH  12  13
HETATM   13  C   UNL     2     -10.119  11.197  65.144  1.00  0.00    -0.281 C  
BRANCH  13  14
HETATM   14  O   UNL     2     -10.090   9.767  65.149  1.00  0.00    -0.262 OA 
BRANCH  14  15
HETATM   15  C   UNL     2      -9.872   9.185  66.368  1.00  0.00    -0.280 C  
HETATM   16  O   UNL     2     -10.473   9.504  67.390  1.00  0.00    -0.244 OA 
BRANCH  15  17
HETATM   17  C   UNL     2      -8.713   8.257  66.317  1.00  0.00    -0.151 C  
HETATM   18  S   UNL     2      -7.237   9.087  66.780  1.00  0.00    -0.086 S  
HETATM   19  O   UNL     2      -7.102  10.159  65.798  1.00  0.00    -0.113 OA 
HETATM   20  O   UNL     2      -6.235   8.028  66.662  1.00  0.00    -0.051 OA 
HETATM   21  O   UNL     2      -7.485   9.531  68.151  1.00  0.00    -0.078 OA 
ENDBRANCH  15  17
ENDBRANCH  14  15
ENDBRANCH  13  14
ENDBRANCH  12  13
ENDBRANCH  11  12
ENDBRANCH  10  11
ENDBRANCH   9  10
ENDBRANCH   8   9
ENDBRANCH   7   8
ENDBRANCH   6   7
ENDBRANCH   5   6
ENDBRANCH   4   5
ENDBRANCH   3   4
TORSDOF 13
ENDMDL
MODEL      362
REMARK 921   NORMALIZED FREE ENERGY PREDICTED BY IDOCK:   -2.55 KCAL/MOL
REMARK 922        TOTAL FREE ENERGY PREDICTED BY IDOCK:   -6.05 KCAL/MOL
REMARK 923 INTER-LIGAND FREE ENERGY PREDICTED BY IDOCK:   -4.73 KCAL/MOL
REMARK 924 INTRA-LIGAND FREE ENERGY PREDICTED BY IDOCK:   -1.32 KCAL/MOL
REMARK 927      BINDING AFFINITY PREDICTED BY RF-SCORE:    0.00 PKD
ROOT
HETATM    1 NA   UNL     1      -8.528  13.090  69.515  1.00  0.00    -0.321 Na 
HETATM    2  C   UNL     2      -6.614  12.535  67.173  1.00  0.00    -0.061 C  
HETATM    3  C   UNL     2      -5.800  11.300  67.521  1.00  0.00    -0.055 C  
ENDROOT
BRANCH   3   4
HETATM    4  C   UNL     2      -5.971  10.224  66.454  1.00  0.00    -0.069 C  
BRANCH   4   5
HETATM    5  C   UNL     2      -7.435   9.825  66.288  1.00  0.00    -0.100 C  
BRANCH   5   6
HETATM    6  C   UNL     2      -7.829   8.799  67.347  1.00  0.00    -0.098 C  
BRANCH   6   7
HETATM    7  C   UNL     2      -9.339   8.592  67.383  1.00  0.00    -0.178 C  
BRANCH   7   8
HETATM    8  C   UNL     2     -10.023   9.452  66.324  1.00  0.00    -0.353 C  
BRANCH   8   9
HETATM    9  C   UNL     2     -11.004  10.426  66.966  1.00  0.00    -0.222 C  
BRANCH   9  10
HETATM   10  C   UNL     2     -10.398  11.067  68.212  1.00  0.00    -0.197 C  
BRANCH  10  11
HETATM   11  C   UNL     2     -11.342  12.117  68.788  1.00  0.00    -0.339 C  
BRANCH  11  12
HETATM   12  C   UNL     2     -11.529  13.281  67.821  1.00  0.00    -0.354 C  
BRANCH  12  13
HETATM   13  C   UNL     2     -10.190  13.725  67.242  1.00  0.00    -0.253 C  
BRANCH  13  14
HETATM   14  O   UNL     2      -9.646  14.802  68.011  1.00  0.00    -0.203 OA 
BRANCH  14  15
HETATM   15  C   UNL     2      -8.932  15.731  67.304  1.00  0.00    -0.196 C  
HETATM   16  O   UNL     2      -8.425  15.508  66.208  1.00  0.00    -0.262 OA 
BRANCH  15  17
HETATM   17  C   UNL     2      -8.716  16.962  68.107  1.00  0.00    -0.226 C  
HETATM   18  S   UNL     2     -10.081  18.055  67.941  1.00  0.00    -0.374 S  
HETATM   19  O   UNL     2     -10.133  18.355  66.513  1.00  0.00    -0.344 OA 
HETATM   20  O   UNL     2      -9.681  19.182  68.782  1.00  0.00    -0.390 OA 
HETATM   21  O   UNL     2     -11.219  17.294  68.455  1.00  0.00    -0.138 OA 
ENDBRANCH  15  17
ENDBRANCH  14  15
ENDBRANCH  13  14
ENDBRANCH  12  13
ENDBRANCH  11  12
ENDBRANCH  10  11
ENDBRANCH   9  10
ENDBRANCH   8   9
ENDBRANCH   7   8
ENDBRANCH   6   7
ENDBRANCH   5   6
ENDBRANCH   4   5
ENDBRANCH   3   4
TORSDOF 13
ENDMDL
MODEL      363
REMARK 921   NORMALIZED FREE ENERGY PREDICTED BY IDOCK:   -2.55 KCAL/MOL
REMARK 922        TOTAL FREE ENERGY PREDICTED BY IDOCK:   -6.05 KCAL/MOL
REMARK 923 INTER-LIGAND FREE ENERGY PREDICTED BY IDOCK:   -5.64 KCAL/MOL
REMARK 924 INTRA-LIGAND FREE ENERGY PREDICTED BY IDOCK:   -0.40 KCAL/MOL
REMARK 927      BINDING AFFINITY PREDICTED BY RF-SCORE:    0.00 PKD
ROOT
HETATM    1 NA   UNL     1     -10.134  17.621  68.307  1.00  0.00    -0.254 Na 
HETATM    2  C   UNL     2      -8.391  19.424  66.526  1.00  0.00    -0.342 C  
HETATM    3  C   UNL     2      -8.044  20.669  67.325  1.00  0.00    -0.315 C  
ENDROOT
BRANCH   3   4
HETATM    4  C   UNL     2      -6.532  20.842  67.424  1.00  0.00    -0.367 C  
BRANCH   4   5
HETATM    5  C   UNL     2      -6.048  20.740  68.867  1.00  0.00    -0.307 C  
BRANCH   5   6
HETATM    6  C   UNL     2      -5.346  19.404  69.098  1.00  0.00    -0.214 C  
BRANCH   6   7
HETATM    7  C   UNL     2      -6.353  18.271  69.262  1.00  0.00    -0.259 C  
BRANCH   7   8
HETATM    8  C   UNL     2      -5.836  16.996  68.601  1.00  0.00    -0.142 C  
BRANCH   8   9
HETATM    9  C   UNL     2      -6.645  15.785  69.052  1.00  0.00    -0.134 C  
BRANCH   9  10
HETATM   10  C   UNL     2      -6.282  14.551  68.229  1.00  0.00    -0.120 C  
BRANCH  10  11
HETATM   11  C   UNL     2      -7.023  13.323  68.749  1.00  0.00    -0.103 C  
BRANCH  11  12
HETATM   12  C   UNL     2      -7.627  12.517  67.604  1.00  0.00    -0.145 C  
BRANCH  12  13
HETATM   13  C   UNL     2      -9.024  13.024  67.262  1.00  0.00    -0.212 C  
BRANCH  13  14
HETATM   14  O   UNL     2      -8.950  14.078  66.298  1.00  0.00    -0.100 OA 
BRANCH  14  15
HETATM   15  C   UNL     2     -10.118  14.754  66.071  1.00  0.00    -0.308 C  
HETATM   16  O   UNL     2     -10.714  15.390  66.936  1.00  0.00    -0.306 OA 
BRANCH  15  17
HETATM   17  C   UNL     2     -10.643  14.472  64.710  1.00  0.00    -0.377 C  
HETATM   18  S   UNL     2     -11.639  13.026  64.719  1.00  0.00    -0.349 S  
HETATM   19  O   UNL     2     -10.738  11.969  65.170  1.00  0.00    -0.270 OA 
HETATM   20  O   UNL     2     -12.044  12.919  63.318  1.00  0.00    -0.561 OA 
HETATM   21  O   UNL     2     -12.730  13.344  65.639  1.00  0.00    -0.458 OA 
ENDBRANCH  15  17
ENDBRANCH  14  15
ENDBRANCH  13  14
ENDBRANCH  12  13
ENDBRANCH  11  12
ENDBRANCH  10  11
ENDBRANCH   9  10
ENDBRANCH   8   9
ENDBRANCH   7   8
ENDBRANCH   6   7
ENDBRANCH   5   6
ENDBRANCH   4   5
ENDBRANCH   3   4
TORSDOF 13
ENDMDL
MODEL      364
REMARK 921   NORMALIZED FREE ENERGY PREDICTED BY IDOCK:   -2.54 KCAL/MOL
REMARK 922        TOTAL FREE ENERGY PREDICTED BY IDOCK:   -6.04 KCAL/MOL
REMARK 923 INTER-LIGAND FREE ENERGY PREDICTED BY IDOCK:   -4.64 KCAL/MOL
REMARK 924 INTRA-LIGAND FREE ENERGY PREDICTED BY IDOCK:   -1.40 KCAL/MOL
REMARK 927      BINDING AFFINITY PREDICTED BY RF-SCORE:    0.00 PKD
ROOT
HETATM    1 NA   UNL     1      -9.548  14.917  68.898  1.00  0.00    -0.168 Na 
HETATM    2  C   UNL     2      -7.050  13.214  68.336  1.00  0.00    -0.107 C  
HETATM    3  C   UNL     2      -7.156  11.946  69.166  1.00  0.00    -0.053 C  
ENDROOT
BRANCH   3   4
HETATM    4  C   UNL     2      -7.090  10.711  68.274  1.00  0.00    -0.081 C  
BRANCH   4   5
HETATM    5  C   UNL     2      -6.850  11.085  66.814  1.00  0.00    -0.128 C  
BRANCH   5   6
HETATM    6  C   UNL     2      -6.552   9.835  65.989  1.00  0.00    -0.082 C  
BRANCH   6   7
HETATM    7  C   UNL     2      -6.646  10.123  64.495  1.00  0.00    -0.118 C  
BRANCH   7   8
HETATM    8  C   UNL     2      -8.052  10.587  64.126  1.00  0.00    -0.027 C  
BRANCH   8   9
HETATM    9  C   UNL     2      -9.048   9.437  64.225  1.00  0.00    -0.159 C  
BRANCH   9  10
HETATM   10  C   UNL     2     -10.109   9.724  65.284  1.00  0.00    -0.124 C  
BRANCH  10  11
HETATM   11  C   UNL     2     -10.232  11.224  65.528  1.00  0.00    -0.312 C  
BRANCH  11  12
HETATM   12  C   UNL     2     -11.117  11.517  66.734  1.00  0.00    -0.361 C  
BRANCH  12  13
HETATM   13  C   UNL     2     -10.884  12.934  67.247  1.00  0.00    -0.255 C  
BRANCH  13  14
HETATM   14  O   UNL     2      -9.927  13.610  66.427  1.00  0.00    -0.281 OA 
BRANCH  14  15
HETATM   15  C   UNL     2     -10.388  14.722  65.776  1.00  0.00    -0.340 C  
HETATM   16  O   UNL     2     -11.362  14.718  65.030  1.00  0.00    -0.358 OA 
BRANCH  15  17
HETATM   17  C   UNL     2      -9.462  15.870  65.960  1.00  0.00    -0.354 C  
HETATM   18  S   UNL     2     -10.363  17.351  66.237  1.00  0.00    -0.283 S  
HETATM   19  O   UNL     2     -11.175  17.512  65.034  1.00  0.00    -0.564 OA 
HETATM   20  O   UNL     2      -9.296  18.341  66.384  1.00  0.00    -0.309 OA 
HETATM   21  O   UNL     2     -11.117  17.093  67.463  1.00  0.00    -0.178 OA 
ENDBRANCH  15  17
ENDBRANCH  14  15
ENDBRANCH  13  14
ENDBRANCH  12  13
ENDBRANCH  11  12
ENDBRANCH  10  11
ENDBRANCH   9  10
ENDBRANCH   8   9
ENDBRANCH   7   8
ENDBRANCH   6   7
ENDBRANCH   5   6
ENDBRANCH   4   5
ENDBRANCH   3   4
TORSDOF 13
ENDMDL
MODEL      365
REMARK 921   NORMALIZED FREE ENERGY PREDICTED BY IDOCK:   -2.54 KCAL/MOL
REMARK 922        TOTAL FREE ENERGY PREDICTED BY IDOCK:   -6.04 KCAL/MOL
REMARK 923 INTER-LIGAND FREE ENERGY PREDICTED BY IDOCK:   -5.48 KCAL/MOL
REMARK 924 INTRA-LIGAND FREE ENERGY PREDICTED BY IDOCK:   -0.55 KCAL/MOL
REMARK 927      BINDING AFFINITY PREDICTED BY RF-SCORE:    0.00 PKD
ROOT
HETATM    1 NA   UNL     1     -11.564   8.152  70.192  1.00  0.00    -0.268 Na 
HETATM    2  C   UNL     2     -10.408   5.310  70.412  1.00  0.00    -0.345 C  
HETATM    3  C   UNL     2      -9.519   5.076  69.202  1.00  0.00    -0.196 C  
ENDROOT
BRANCH   3   4
HETATM    4  C   UNL     2      -8.104   4.711  69.637  1.00  0.00    -0.064 C  
BRANCH   4   5
HETATM    5  C   UNL     2      -7.064   5.623  68.992  1.00  0.00    -0.068 C  
BRANCH   5   6
HETATM    6  C   UNL     2      -7.331   7.079  69.366  1.00  0.00    -0.091 C  
BRANCH   6   7
HETATM    7  C   UNL     2      -7.378   7.969  68.130  1.00  0.00    -0.096 C  
BRANCH   7   8
HETATM    8  C   UNL     2      -8.708   8.715  68.057  1.00  0.00    -0.141 C  
BRANCH   8   9
HETATM    9  C   UNL     2      -9.573   8.173  66.925  1.00  0.00    -0.269 C  
BRANCH   9  10
HETATM   10  C   UNL     2      -9.609   9.147  65.751  1.00  0.00    -0.323 C  
BRANCH  10  11
HETATM   11  C   UNL     2      -9.393  10.578  66.234  1.00  0.00    -0.202 C  
BRANCH  11  12
HETATM   12  C   UNL     2      -9.602  11.580  65.104  1.00  0.00    -0.235 C  
BRANCH  12  13
HETATM   13  C   UNL     2     -11.019  11.483  64.548  1.00  0.00    -0.302 C  
BRANCH  13  14
HETATM   14  O   UNL     2     -11.944  12.133  65.425  1.00  0.00    -0.410 OA 
BRANCH  14  15
HETATM   15  C   UNL     2     -12.441  13.327  64.978  1.00  0.00    -0.443 C  
HETATM   16  O   UNL     2     -12.472  13.650  63.793  1.00  0.00    -0.703 OA 
BRANCH  15  17
HETATM   17  C   UNL     2     -12.770  14.227  66.113  1.00  0.00    -0.131 C  
HETATM   18  S   UNL     2     -11.437  14.296  67.253  1.00  0.00    -0.369 S  
HETATM   19  O   UNL     2     -11.271  12.915  67.700  1.00  0.00    -0.252 OA 
HETATM   20  O   UNL     2     -11.949  15.206  68.277  1.00  0.00    -0.298 OA 
HETATM   21  O   UNL     2     -10.321  14.832  66.474  1.00  0.00    -0.274 OA 
ENDBRANCH  15  17
ENDBRANCH  14  15
ENDBRANCH  13  14
ENDBRANCH  12  13
ENDBRANCH  11  12
ENDBRANCH  10  11
ENDBRANCH   9  10
ENDBRANCH   8   9
ENDBRANCH   7   8
ENDBRANCH   6   7
ENDBRANCH   5   6
ENDBRANCH   4   5
ENDBRANCH   3   4
TORSDOF 13
ENDMDL
MODEL      366
REMARK 921   NORMALIZED FREE ENERGY PREDICTED BY IDOCK:   -2.54 KCAL/MOL
REMARK 922        TOTAL FREE ENERGY PREDICTED BY IDOCK:   -6.03 KCAL/MOL
REMARK 923 INTER-LIGAND FREE ENERGY PREDICTED BY IDOCK:   -4.65 KCAL/MOL
REMARK 924 INTRA-LIGAND FREE ENERGY PREDICTED BY IDOCK:   -1.39 KCAL/MOL
REMARK 927      BINDING AFFINITY PREDICTED BY RF-SCORE:    0.00 PKD
ROOT
HETATM    1 NA   UNL     1     -11.407  10.916  63.948  1.00  0.00    -0.368 Na 
HETATM    2  C   UNL     2      -8.501  10.106  63.346  1.00  0.00    -0.185 C  
HETATM    3  C   UNL     2      -7.930   9.462  64.598  1.00  0.00    -0.124 C  
ENDROOT
BRANCH   3   4
HETATM    4  C   UNL     2      -7.431   8.052  64.299  1.00  0.00    -0.106 C  
BRANCH   4   5
HETATM    5  C   UNL     2      -7.539   7.147  65.523  1.00  0.00    -0.098 C  
BRANCH   5   6
HETATM    6  C   UNL     2      -8.276   5.858  65.165  1.00  0.00    -0.141 C  
BRANCH   6   7
HETATM    7  C   UNL     2      -8.650   5.070  66.415  1.00  0.00    -0.111 C  
BRANCH   7   8
HETATM    8  C   UNL     2     -10.120   4.660  66.369  1.00  0.00    -0.289 C  
BRANCH   8   9
HETATM    9  C   UNL     2     -11.022   5.831  66.739  1.00  0.00    -0.239 C  
BRANCH   9  10
HETATM   10  C   UNL     2     -10.537   6.511  68.017  1.00  0.00    -0.310 C  
BRANCH  10  11
HETATM   11  C   UNL     2     -10.677   8.025  67.906  1.00  0.00    -0.139 C  
BRANCH  11  12
HETATM   12  C   UNL     2      -9.593   8.740  68.706  1.00  0.00    -0.160 C  
BRANCH  12  13
HETATM   13  C   UNL     2      -9.750  10.253  68.600  1.00  0.00    -0.167 C  
BRANCH  13  14
HETATM   14  O   UNL     2     -11.073  10.646  68.975  1.00  0.00    -0.219 OA 
BRANCH  14  15
HETATM   15  C   UNL     2     -11.515  11.823  68.435  1.00  0.00    -0.294 C  
HETATM   16  O   UNL     2     -11.957  12.753  69.104  1.00  0.00    -0.291 OA 
BRANCH  15  17
HETATM   17  C   UNL     2     -11.545  11.752  66.952  1.00  0.00    -0.234 C  
HETATM   18  S   UNL     2     -10.820  13.189  66.250  1.00  0.00    -0.282 S  
HETATM   19  O   UNL     2     -11.644  14.289  66.745  1.00  0.00    -0.356 OA 
HETATM   20  O   UNL     2     -10.950  12.935  64.816  1.00  0.00    -0.294 OA 
HETATM   21  O   UNL     2      -9.443  13.177  66.741  1.00  0.00    -0.239 OA 
ENDBRANCH  15  17
ENDBRANCH  14  15
ENDBRANCH  13  14
ENDBRANCH  12  13
ENDBRANCH  11  12
ENDBRANCH  10  11
ENDBRANCH   9  10
ENDBRANCH   8   9
ENDBRANCH   7   8
ENDBRANCH   6   7
ENDBRANCH   5   6
ENDBRANCH   4   5
ENDBRANCH   3   4
TORSDOF 13
ENDMDL
MODEL      367
REMARK 921   NORMALIZED FREE ENERGY PREDICTED BY IDOCK:   -2.53 KCAL/MOL
REMARK 922        TOTAL FREE ENERGY PREDICTED BY IDOCK:   -6.02 KCAL/MOL
REMARK 923 INTER-LIGAND FREE ENERGY PREDICTED BY IDOCK:   -4.87 KCAL/MOL
REMARK 924 INTRA-LIGAND FREE ENERGY PREDICTED BY IDOCK:   -1.14 KCAL/MOL
REMARK 927      BINDING AFFINITY PREDICTED BY RF-SCORE:    0.00 PKD
ROOT
HETATM    1 NA   UNL     1      -5.278  11.467  67.934  1.00  0.00    -0.042 Na 
HETATM    2  C   UNL     2      -8.105  12.072  66.886  1.00  0.00    -0.127 C  
HETATM    3  C   UNL     2      -8.675  13.208  67.719  1.00  0.00    -0.188 C  
ENDROOT
BRANCH   3   4
HETATM    4  C   UNL     2      -9.074  14.380  66.829  1.00  0.00    -0.278 C  
BRANCH   4   5
HETATM    5  C   UNL     2     -10.524  14.267  66.366  1.00  0.00    -0.282 C  
BRANCH   5   6
HETATM    6  C   UNL     2     -10.680  14.852  64.965  1.00  0.00    -0.451 C  
BRANCH   6   7
HETATM    7  C   UNL     2     -11.952  14.347  64.293  1.00  0.00    -0.433 C  
BRANCH   7   8
HETATM    8  C   UNL     2     -12.224  12.896  64.683  1.00  0.00    -0.494 C  
BRANCH   8   9
HETATM    9  C   UNL     2     -11.950  11.958  63.513  1.00  0.00    -0.567 C  
BRANCH   9  10
HETATM   10  C   UNL     2     -10.449  11.775  63.301  1.00  0.00    -0.439 C  
BRANCH  10  11
HETATM   11  C   UNL     2      -9.952  10.535  64.036  1.00  0.00    -0.363 C  
BRANCH  11  12
HETATM   12  C   UNL     2      -8.582  10.102  63.524  1.00  0.00    -0.201 C  
BRANCH  12  13
HETATM   13  C   UNL     2      -7.976   9.036  64.431  1.00  0.00    -0.133 C  
BRANCH  13  14
HETATM   14  O   UNL     2      -9.002   8.197  64.970  1.00  0.00     0.033 OA 
BRANCH  14  15
HETATM   15  C   UNL     2      -8.714   7.611  66.172  1.00  0.00    -0.156 C  
HETATM   16  O   UNL     2      -7.784   7.960  66.893  1.00  0.00    -0.096 OA 
BRANCH  15  17
HETATM   17  C   UNL     2      -9.559   6.409  66.395  1.00  0.00    -0.113 C  
HETATM   18  S   UNL     2      -8.688   4.951  65.948  1.00  0.00    -0.132 S  
HETATM   19  O   UNL     2      -8.385   5.131  64.531  1.00  0.00    -0.127 OA 
HETATM   20  O   UNL     2      -9.670   3.904  66.229  1.00  0.00    -0.199 OA 
HETATM   21  O   UNL     2      -7.524   4.938  66.834  1.00  0.00    -0.084 OA 
ENDBRANCH  15  17
ENDBRANCH  14  15
ENDBRANCH  13  14
ENDBRANCH  12  13
ENDBRANCH  11  12
ENDBRANCH  10  11
ENDBRANCH   9  10
ENDBRANCH   8   9
ENDBRANCH   7   8
ENDBRANCH   6   7
ENDBRANCH   5   6
ENDBRANCH   4   5
ENDBRANCH   3   4
TORSDOF 13
ENDMDL
MODEL      368
REMARK 921   NORMALIZED FREE ENERGY PREDICTED BY IDOCK:   -2.53 KCAL/MOL
REMARK 922        TOTAL FREE ENERGY PREDICTED BY IDOCK:   -6.01 KCAL/MOL
REMARK 923 INTER-LIGAND FREE ENERGY PREDICTED BY IDOCK:   -4.76 KCAL/MOL
REMARK 924 INTRA-LIGAND FREE ENERGY PREDICTED BY IDOCK:   -1.25 KCAL/MOL
REMARK 927      BINDING AFFINITY PREDICTED BY RF-SCORE:    0.00 PKD
ROOT
HETATM    1 NA   UNL     1     -12.353  16.151  68.290  1.00  0.00    -0.324 Na 
HETATM    2  C   UNL     2     -10.254  16.525  66.073  1.00  0.00    -0.372 C  
HETATM    3  C   UNL     2      -9.136  17.387  66.634  1.00  0.00    -0.277 C  
ENDROOT
BRANCH   3   4
HETATM    4  C   UNL     2      -7.796  16.666  66.531  1.00  0.00    -0.342 C  
BRANCH   4   5
HETATM    5  C   UNL     2      -7.061  16.652  67.868  1.00  0.00    -0.153 C  
BRANCH   5   6
HETATM    6  C   UNL     2      -6.101  15.467  67.934  1.00  0.00    -0.163 C  
BRANCH   6   7
HETATM    7  C   UNL     2      -6.856  14.150  68.073  1.00  0.00    -0.149 C  
BRANCH   7   8
HETATM    8  C   UNL     2      -6.117  13.030  67.346  1.00  0.00    -0.064 C  
BRANCH   8   9
HETATM    9  C   UNL     2      -6.859  11.706  67.490  1.00  0.00    -0.104 C  
BRANCH   9  10
HETATM   10  C   UNL     2      -7.003  11.012  66.138  1.00  0.00    -0.057 C  
BRANCH  10  11
HETATM   11  C   UNL     2      -7.820   9.732  66.277  1.00  0.00    -0.106 C  
BRANCH  11  12
HETATM   12  C   UNL     2      -9.132   9.828  65.506  1.00  0.00    -0.242 C  
BRANCH  12  13
HETATM   13  C   UNL     2     -10.233  10.421  66.380  1.00  0.00    -0.230 C  
BRANCH  13  14
HETATM   14  O   UNL     2     -10.891  11.491  65.696  1.00  0.00    -0.276 OA 
BRANCH  14  15
HETATM   15  C   UNL     2     -10.656  12.743  66.194  1.00  0.00    -0.266 C  
HETATM   16  O   UNL     2      -9.583  13.330  66.081  1.00  0.00    -0.264 OA 
BRANCH  15  17
HETATM   17  C   UNL     2     -11.798  13.211  67.022  1.00  0.00    -0.379 C  
HETATM   18  S   UNL     2     -11.295  13.451  68.688  1.00  0.00    -0.308 S  
HETATM   19  O   UNL     2     -10.831  12.136  69.119  1.00  0.00    -0.201 OA 
HETATM   20  O   UNL     2     -12.534  13.895  69.325  1.00  0.00    -0.255 OA 
HETATM   21  O   UNL     2     -10.257  14.479  68.608  1.00  0.00    -0.232 OA 
ENDBRANCH  15  17
ENDBRANCH  14  15
ENDBRANCH  13  14
ENDBRANCH  12  13
ENDBRANCH  11  12
ENDBRANCH  10  11
ENDBRANCH   9  10
ENDBRANCH   8   9
ENDBRANCH   7   8
ENDBRANCH   6   7
ENDBRANCH   5   6
ENDBRANCH   4   5
ENDBRANCH   3   4
TORSDOF 13
ENDMDL
MODEL      369
REMARK 921   NORMALIZED FREE ENERGY PREDICTED BY IDOCK:   -2.53 KCAL/MOL
REMARK 922        TOTAL FREE ENERGY PREDICTED BY IDOCK:   -6.01 KCAL/MOL
REMARK 923 INTER-LIGAND FREE ENERGY PREDICTED BY IDOCK:   -4.76 KCAL/MOL
REMARK 924 INTRA-LIGAND FREE ENERGY PREDICTED BY IDOCK:   -1.25 KCAL/MOL
REMARK 927      BINDING AFFINITY PREDICTED BY RF-SCORE:    0.00 PKD
ROOT
HETATM    1 NA   UNL     1     -10.965  18.249  69.341  1.00  0.00    -0.393 Na 
HETATM    2  C   UNL     2     -11.938  15.342  69.101  1.00  0.00    -0.308 C  
HETATM    3  C   UNL     2     -11.652  14.872  67.684  1.00  0.00    -0.357 C  
ENDROOT
BRANCH   3   4
HETATM    4  C   UNL     2     -10.774  13.625  67.697  1.00  0.00    -0.253 C  
BRANCH   4   5
HETATM    5  C   UNL     2      -9.613  13.745  66.714  1.00  0.00    -0.283 C  
BRANCH   5   6
HETATM    6  C   UNL     2      -8.617  14.797  67.196  1.00  0.00    -0.248 C  
BRANCH   6   7
HETATM    7  C   UNL     2      -7.247  14.183  67.461  1.00  0.00    -0.188 C  
BRANCH   7   8
HETATM    8  C   UNL     2      -7.156  13.677  68.898  1.00  0.00    -0.102 C  
BRANCH   8   9
HETATM    9  C   UNL     2      -7.264  12.157  68.946  1.00  0.00    -0.079 C  
BRANCH   9  10
HETATM   10  C   UNL     2      -6.758  11.534  67.647  1.00  0.00    -0.079 C  
BRANCH  10  11
HETATM   11  C   UNL     2      -7.765  10.523  67.109  1.00  0.00    -0.101 C  
BRANCH  11  12
HETATM   12  C   UNL     2      -8.841  10.211  68.144  1.00  0.00    -0.126 C  
BRANCH  12  13
HETATM   13  C   UNL     2      -9.282   8.755  68.045  1.00  0.00    -0.139 C  
BRANCH  13  14
HETATM   14  O   UNL     2      -9.206   8.122  69.326  1.00  0.00    -0.151 OA 
BRANCH  14  15
HETATM   15  C   UNL     2     -10.146   7.156  69.565  1.00  0.00    -0.179 C  
HETATM   16  O   UNL     2     -10.933   6.750  68.714  1.00  0.00    -0.239 OA 
BRANCH  15  17
HETATM   17  C   UNL     2     -10.193   6.802  71.007  1.00  0.00    -0.197 C  
HETATM   18  S   UNL     2     -11.097   8.008  71.909  1.00  0.00    -0.297 S  
HETATM   19  O   UNL     2     -10.360   9.250  71.691  1.00  0.00    -0.340 OA 
HETATM   20  O   UNL     2     -11.024   7.492  73.276  1.00  0.00    -0.393 OA 
HETATM   21  O   UNL     2     -12.436   7.971  71.322  1.00  0.00    -0.304 OA 
ENDBRANCH  15  17
ENDBRANCH  14  15
ENDBRANCH  13  14
ENDBRANCH  12  13
ENDBRANCH  11  12
ENDBRANCH  10  11
ENDBRANCH   9  10
ENDBRANCH   8   9
ENDBRANCH   7   8
ENDBRANCH   6   7
ENDBRANCH   5   6
ENDBRANCH   4   5
ENDBRANCH   3   4
TORSDOF 13
ENDMDL
MODEL      370
REMARK 921   NORMALIZED FREE ENERGY PREDICTED BY IDOCK:   -2.52 KCAL/MOL
REMARK 922        TOTAL FREE ENERGY PREDICTED BY IDOCK:   -5.99 KCAL/MOL
REMARK 923 INTER-LIGAND FREE ENERGY PREDICTED BY IDOCK:   -4.50 KCAL/MOL
REMARK 924 INTRA-LIGAND FREE ENERGY PREDICTED BY IDOCK:   -1.50 KCAL/MOL
REMARK 927      BINDING AFFINITY PREDICTED BY RF-SCORE:    0.00 PKD
ROOT
HETATM    1 NA   UNL     1     -14.251  10.460  72.842  1.00  0.00    -0.634 Na 
HETATM    2  C   UNL     2     -11.956  10.482  70.794  1.00  0.00    -0.472 C  
HETATM    3  C   UNL     2     -11.000   9.358  71.158  1.00  0.00    -0.430 C  
ENDROOT
BRANCH   3   4
HETATM    4  C   UNL     2     -10.828   8.397  69.986  1.00  0.00    -0.225 C  
BRANCH   4   5
HETATM    5  C   UNL     2     -11.337   6.999  70.328  1.00  0.00    -0.339 C  
BRANCH   5   6
HETATM    6  C   UNL     2     -12.528   7.086  71.278  1.00  0.00    -0.430 C  
BRANCH   6   7
HETATM    7  C   UNL     2     -12.391   6.098  72.431  1.00  0.00    -0.059 C  
BRANCH   7   8
HETATM    8  C   UNL     2     -10.933   5.680  72.608  1.00  0.00    -0.316 C  
BRANCH   8   9
HETATM    9  C   UNL     2     -10.297   6.415  73.782  1.00  0.00    -0.326 C  
BRANCH   9  10
HETATM   10  C   UNL     2      -8.937   5.814  74.128  1.00  0.00    -0.122 C  
BRANCH  10  11
HETATM   11  C   UNL     2      -7.860   6.893  74.136  1.00  0.00    -0.123 C  
BRANCH  11  12
HETATM   12  C   UNL     2      -8.356   8.173  73.474  1.00  0.00    -0.299 C  
BRANCH  12  13
HETATM   13  C   UNL     2      -7.573   8.462  72.197  1.00  0.00    -0.113 C  
BRANCH  13  14
HETATM   14  O   UNL     2      -6.834   7.306  71.793  1.00  0.00    -0.057 OA 
BRANCH  14  15
HETATM   15  C   UNL     2      -7.248   6.717  70.629  1.00  0.00    -0.070 C  
HETATM   16  O   UNL     2      -8.160   5.898  70.570  1.00  0.00    -0.107 OA 
BRANCH  15  17
HETATM   17  C   UNL     2      -6.347   7.071  69.502  1.00  0.00    -0.035 C  
HETATM   18  S   UNL     2      -7.231   7.930  68.251  1.00  0.00    -0.092 S  
HETATM   19  O   UNL     2      -8.266   6.990  67.829  1.00  0.00    -0.113 OA 
HETATM   20  O   UNL     2      -6.194   8.178  67.251  1.00  0.00    -0.053 OA 
HETATM   21  O   UNL     2      -7.725   9.135  68.919  1.00  0.00    -0.081 OA 
ENDBRANCH  15  17
ENDBRANCH  14  15
ENDBRANCH  13  14
ENDBRANCH  12  13
ENDBRANCH  11  12
ENDBRANCH  10  11
ENDBRANCH   9  10
ENDBRANCH   8   9
ENDBRANCH   7   8
ENDBRANCH   6   7
ENDBRANCH   5   6
ENDBRANCH   4   5
ENDBRANCH   3   4
TORSDOF 13
ENDMDL
MODEL      371
REMARK 921   NORMALIZED FREE ENERGY PREDICTED BY IDOCK:   -2.51 KCAL/MOL
REMARK 922        TOTAL FREE ENERGY PREDICTED BY IDOCK:   -5.97 KCAL/MOL
REMARK 923 INTER-LIGAND FREE ENERGY PREDICTED BY IDOCK:   -4.71 KCAL/MOL
REMARK 924 INTRA-LIGAND FREE ENERGY PREDICTED BY IDOCK:   -1.27 KCAL/MOL
REMARK 927      BINDING AFFINITY PREDICTED BY RF-SCORE:    0.00 PKD
ROOT
HETATM    1 NA   UNL     1     -12.120  16.275  68.248  1.00  0.00    -0.337 Na 
HETATM    2  C   UNL     2      -9.881  16.359  66.141  1.00  0.00    -0.362 C  
HETATM    3  C   UNL     2      -8.675  17.035  66.773  1.00  0.00    -0.272 C  
ENDROOT
BRANCH   3   4
HETATM    4  C   UNL     2      -7.456  16.121  66.718  1.00  0.00    -0.246 C  
BRANCH   4   5
HETATM    5  C   UNL     2      -6.373  16.570  67.694  1.00  0.00    -0.172 C  
BRANCH   5   6
HETATM    6  C   UNL     2      -5.475  15.394  68.069  1.00  0.00    -0.135 C  
BRANCH   6   7
HETATM    7  C   UNL     2      -6.212  14.396  68.956  1.00  0.00    -0.094 C  
BRANCH   7   8
HETATM    8  C   UNL     2      -5.636  12.994  68.778  1.00  0.00    -0.072 C  
BRANCH   8   9
HETATM    9  C   UNL     2      -6.001  12.103  69.959  1.00  0.00    -0.156 C  
BRANCH   9  10
HETATM   10  C   UNL     2      -6.163  10.651  69.517  1.00  0.00    -0.059 C  
BRANCH  10  11
HETATM   11  C   UNL     2      -7.144   9.919  70.427  1.00  0.00    -0.146 C  
BRANCH  11  12
HETATM   12  C   UNL     2      -8.324   9.366  69.635  1.00  0.00    -0.147 C  
BRANCH  12  13
HETATM   13  C   UNL     2      -9.350  10.459  69.357  1.00  0.00    -0.167 C  
BRANCH  13  14
HETATM   14  O   UNL     2      -9.586  10.575  67.950  1.00  0.00    -0.148 OA 
BRANCH  14  15
HETATM   15  C   UNL     2      -9.134  11.728  67.369  1.00  0.00    -0.175 C  
HETATM   16  O   UNL     2      -8.096  11.799  66.717  1.00  0.00    -0.166 OA 
BRANCH  15  17
HETATM   17  C   UNL     2      -9.966  12.891  67.772  1.00  0.00    -0.230 C  
HETATM   18  S   UNL     2     -11.508  12.869  66.931  1.00  0.00    -0.361 S  
HETATM   19  O   UNL     2     -11.149  12.938  65.517  1.00  0.00    -0.274 OA 
HETATM   20  O   UNL     2     -12.162  14.069  67.450  1.00  0.00    -0.384 OA 
HETATM   21  O   UNL     2     -12.131  11.614  67.351  1.00  0.00    -0.605 OA 
ENDBRANCH  15  17
ENDBRANCH  14  15
ENDBRANCH  13  14
ENDBRANCH  12  13
ENDBRANCH  11  12
ENDBRANCH  10  11
ENDBRANCH   9  10
ENDBRANCH   8   9
ENDBRANCH   7   8
ENDBRANCH   6   7
ENDBRANCH   5   6
ENDBRANCH   4   5
ENDBRANCH   3   4
TORSDOF 13
ENDMDL
MODEL      372
REMARK 921   NORMALIZED FREE ENERGY PREDICTED BY IDOCK:   -2.51 KCAL/MOL
REMARK 922        TOTAL FREE ENERGY PREDICTED BY IDOCK:   -5.97 KCAL/MOL
REMARK 923 INTER-LIGAND FREE ENERGY PREDICTED BY IDOCK:   -4.92 KCAL/MOL
REMARK 924 INTRA-LIGAND FREE ENERGY PREDICTED BY IDOCK:   -1.05 KCAL/MOL
REMARK 927      BINDING AFFINITY PREDICTED BY RF-SCORE:    0.00 PKD
ROOT
HETATM    1 NA   UNL     1     -10.260   2.033  67.023  1.00  0.00    -0.374 Na 
HETATM    2  C   UNL     2     -10.165   5.055  67.586  1.00  0.00    -0.168 C  
HETATM    3  C   UNL     2      -9.405   5.261  68.886  1.00  0.00    -0.163 C  
ENDROOT
BRANCH   3   4
HETATM    4  C   UNL     2      -8.207   6.180  68.670  1.00  0.00    -0.108 C  
BRANCH   4   5
HETATM    5  C   UNL     2      -8.502   7.250  67.622  1.00  0.00    -0.116 C  
BRANCH   5   6
HETATM    6  C   UNL     2      -8.249   8.641  68.199  1.00  0.00    -0.115 C  
BRANCH   6   7
HETATM    7  C   UNL     2      -8.606   8.700  69.679  1.00  0.00    -0.131 C  
BRANCH   7   8
HETATM    8  C   UNL     2      -9.508   9.898  69.965  1.00  0.00    -0.246 C  
BRANCH   8   9
HETATM    9  C   UNL     2     -10.947   9.604  69.558  1.00  0.00    -0.233 C  
BRANCH   9  10
HETATM   10  C   UNL     2     -11.504  10.723  68.681  1.00  0.00    -0.365 C  
BRANCH  10  11
HETATM   11  C   UNL     2     -10.413  11.733  68.342  1.00  0.00    -0.231 C  
BRANCH  11  12
HETATM   12  C   UNL     2     -10.791  12.565  67.122  1.00  0.00    -0.282 C  
BRANCH  12  13
HETATM   13  C   UNL     2      -9.591  13.356  66.611  1.00  0.00    -0.270 C  
BRANCH  13  14
HETATM   14  O   UNL     2      -8.823  13.860  67.708  1.00  0.00    -0.170 OA 
BRANCH  14  15
HETATM   15  C   UNL     2      -9.032  15.176  68.020  1.00  0.00    -0.172 C  
HETATM   16  O   UNL     2      -8.723  16.106  67.281  1.00  0.00    -0.175 OA 
BRANCH  15  17
HETATM   17  C   UNL     2      -9.513  15.323  69.418  1.00  0.00    -0.231 C  
HETATM   18  S   UNL     2     -10.997  16.262  69.464  1.00  0.00    -0.334 S  
HETATM   19  O   UNL     2     -10.625  17.553  68.892  1.00  0.00    -0.316 OA 
HETATM   20  O   UNL     2     -11.298  16.297  70.895  1.00  0.00    -0.389 OA 
HETATM   21  O   UNL     2     -11.944  15.482  68.668  1.00  0.00    -0.335 OA 
ENDBRANCH  15  17
ENDBRANCH  14  15
ENDBRANCH  13  14
ENDBRANCH  12  13
ENDBRANCH  11  12
ENDBRANCH  10  11
ENDBRANCH   9  10
ENDBRANCH   8   9
ENDBRANCH   7   8
ENDBRANCH   6   7
ENDBRANCH   5   6
ENDBRANCH   4   5
ENDBRANCH   3   4
TORSDOF 13
ENDMDL
MODEL      373
REMARK 921   NORMALIZED FREE ENERGY PREDICTED BY IDOCK:   -2.50 KCAL/MOL
REMARK 922        TOTAL FREE ENERGY PREDICTED BY IDOCK:   -5.97 KCAL/MOL
REMARK 923 INTER-LIGAND FREE ENERGY PREDICTED BY IDOCK:   -4.53 KCAL/MOL
REMARK 924 INTRA-LIGAND FREE ENERGY PREDICTED BY IDOCK:   -1.44 KCAL/MOL
REMARK 927      BINDING AFFINITY PREDICTED BY RF-SCORE:    0.00 PKD
ROOT
HETATM    1 NA   UNL     1     -10.560  14.732  70.861  1.00  0.00    -0.403 Na 
HETATM    2  C   UNL     2      -8.640  14.414  68.480  1.00  0.00    -0.175 C  
HETATM    3  C   UNL     2      -7.383  13.726  68.986  1.00  0.00    -0.036 C  
ENDROOT
BRANCH   3   4
HETATM    4  C   UNL     2      -7.121  12.442  68.206  1.00  0.00    -0.098 C  
BRANCH   4   5
HETATM    5  C   UNL     2      -7.838  12.446  66.859  1.00  0.00    -0.014 C  
BRANCH   5   6
HETATM    6  C   UNL     2      -7.962  11.023  66.321  1.00  0.00    -0.148 C  
BRANCH   6   7
HETATM    7  C   UNL     2      -9.171  10.882  65.403  1.00  0.00    -0.231 C  
BRANCH   7   8
HETATM    8  C   UNL     2      -9.896  12.217  65.262  1.00  0.00    -0.199 C  
BRANCH   8   9
HETATM    9  C   UNL     2     -11.389  12.055  65.525  1.00  0.00    -0.381 C  
BRANCH   9  10
HETATM   10  C   UNL     2     -11.778  12.681  66.862  1.00  0.00    -0.453 C  
BRANCH  10  11
HETATM   11  C   UNL     2     -11.892  11.610  67.942  1.00  0.00    -0.273 C  
BRANCH  11  12
HETATM   12  C   UNL     2     -10.643  11.571  68.815  1.00  0.00    -0.241 C  
BRANCH  12  13
HETATM   13  C   UNL     2     -10.700  10.402  69.793  1.00  0.00    -0.278 C  
BRANCH  13  14
HETATM   14  O   UNL     2     -11.184   9.226  69.137  1.00  0.00    -0.048 OA 
BRANCH  14  15
HETATM   15  C   UNL     2     -10.521   8.068  69.437  1.00  0.00    -0.220 C  
HETATM   16  O   UNL     2      -9.520   7.683  68.839  1.00  0.00    -0.149 OA 
BRANCH  15  17
HETATM   17  C   UNL     2     -11.265   7.274  70.449  1.00  0.00    -0.276 C  
HETATM   18  S   UNL     2     -10.353   7.169  71.945  1.00  0.00    -0.191 S  
HETATM   19  O   UNL     2      -9.107   6.509  71.564  1.00  0.00    -0.144 OA 
HETATM   20  O   UNL     2     -11.232   6.362  72.790  1.00  0.00    -0.255 OA 
HETATM   21  O   UNL     2     -10.209   8.558  72.380  1.00  0.00    -0.312 OA 
ENDBRANCH  15  17
ENDBRANCH  14  15
ENDBRANCH  13  14
ENDBRANCH  12  13
ENDBRANCH  11  12
ENDBRANCH  10  11
ENDBRANCH   9  10
ENDBRANCH   8   9
ENDBRANCH   7   8
ENDBRANCH   6   7
ENDBRANCH   5   6
ENDBRANCH   4   5
ENDBRANCH   3   4
TORSDOF 13
ENDMDL
MODEL      374
REMARK 921   NORMALIZED FREE ENERGY PREDICTED BY IDOCK:   -2.49 KCAL/MOL
REMARK 922        TOTAL FREE ENERGY PREDICTED BY IDOCK:   -5.95 KCAL/MOL
REMARK 923 INTER-LIGAND FREE ENERGY PREDICTED BY IDOCK:   -5.03 KCAL/MOL
REMARK 924 INTRA-LIGAND FREE ENERGY PREDICTED BY IDOCK:   -0.92 KCAL/MOL
REMARK 927      BINDING AFFINITY PREDICTED BY RF-SCORE:    0.00 PKD
ROOT
HETATM    1 NA   UNL     1      -7.158  13.949  70.967  1.00  0.00    -0.391 Na 
HETATM    2  C   UNL     2      -9.150  15.147  68.952  1.00  0.00    -0.206 C  
HETATM    3  C   UNL     2      -8.659  14.804  67.555  1.00  0.00    -0.198 C  
ENDROOT
BRANCH   3   4
HETATM    4  C   UNL     2      -9.727  14.039  66.781  1.00  0.00    -0.283 C  
BRANCH   4   5
HETATM    5  C   UNL     2     -11.062  14.037  67.520  1.00  0.00    -0.313 C  
BRANCH   5   6
HETATM    6  C   UNL     2     -12.218  14.105  66.525  1.00  0.00    -0.463 C  
BRANCH   6   7
HETATM    7  C   UNL     2     -12.286  12.847  65.668  1.00  0.00    -0.519 C  
BRANCH   7   8
HETATM    8  C   UNL     2     -12.200  13.203  64.186  1.00  0.00    -0.465 C  
BRANCH   8   9
HETATM    9  C   UNL     2     -11.595  12.055  63.386  1.00  0.00    -0.495 C  
BRANCH   9  10
HETATM   10  C   UNL     2     -10.070  12.082  63.464  1.00  0.00    -0.448 C  
BRANCH  10  11
HETATM   11  C   UNL     2      -9.542  10.792  64.082  1.00  0.00    -0.333 C  
BRANCH  11  12
HETATM   12  C   UNL     2      -9.231   9.753  63.010  1.00  0.00    -0.226 C  
BRANCH  12  13
HETATM   13  C   UNL     2      -7.725   9.564  62.858  1.00  0.00    -0.118 C  
BRANCH  13  14
HETATM   14  O   UNL     2      -7.174   8.975  64.040  1.00  0.00    -0.094 OA 
BRANCH  14  15
HETATM   15  C   UNL     2      -6.503   7.797  63.854  1.00  0.00    -0.058 C  
HETATM   16  O   UNL     2      -5.342   7.731  63.462  1.00  0.00    -0.040 OA 
BRANCH  15  17
HETATM   17  C   UNL     2      -7.412   6.633  64.023  1.00  0.00    -0.093 C  
HETATM   18  S   UNL     2      -7.248   5.951  65.633  1.00  0.00    -0.076 S  
HETATM   19  O   UNL     2      -5.847   5.547  65.713  1.00  0.00    -0.019 OA 
HETATM   20  O   UNL     2      -8.198   4.840  65.597  1.00  0.00    -0.109 OA 
HETATM   21  O   UNL     2      -7.630   7.042  66.529  1.00  0.00    -0.085 OA 
ENDBRANCH  15  17
ENDBRANCH  14  15
ENDBRANCH  13  14
ENDBRANCH  12  13
ENDBRANCH  11  12
ENDBRANCH  10  11
ENDBRANCH   9  10
ENDBRANCH   8   9
ENDBRANCH   7   8
ENDBRANCH   6   7
ENDBRANCH   5   6
ENDBRANCH   4   5
ENDBRANCH   3   4
TORSDOF 13
ENDMDL
MODEL      375
REMARK 921   NORMALIZED FREE ENERGY PREDICTED BY IDOCK:   -2.47 KCAL/MOL
REMARK 922        TOTAL FREE ENERGY PREDICTED BY IDOCK:   -5.90 KCAL/MOL
REMARK 923 INTER-LIGAND FREE ENERGY PREDICTED BY IDOCK:   -4.65 KCAL/MOL
REMARK 924 INTRA-LIGAND FREE ENERGY PREDICTED BY IDOCK:   -1.25 KCAL/MOL
REMARK 927      BINDING AFFINITY PREDICTED BY RF-SCORE:    0.00 PKD
ROOT
HETATM    1 NA   UNL     1     -12.093  13.356  66.126  1.00  0.00    -0.316 Na 
HETATM    2  C   UNL     2     -11.897  12.847  69.152  1.00  0.00    -0.353 C  
HETATM    3  C   UNL     2     -12.152  11.368  69.391  1.00  0.00    -0.358 C  
ENDROOT
BRANCH   3   4
HETATM    4  C   UNL     2     -10.975  10.730  70.123  1.00  0.00    -0.230 C  
BRANCH   4   5
HETATM    5  C   UNL     2     -11.036   9.206  70.063  1.00  0.00    -0.240 C  
BRANCH   5   6
HETATM    6  C   UNL     2     -10.041   8.676  69.034  1.00  0.00    -0.207 C  
BRANCH   6   7
HETATM    7  C   UNL     2     -10.635   8.692  67.630  1.00  0.00    -0.272 C  
BRANCH   7   8
HETATM    8  C   UNL     2      -9.751   9.499  66.683  1.00  0.00    -0.270 C  
BRANCH   8   9
HETATM    9  C   UNL     2      -8.293   9.445  67.123  1.00  0.00    -0.124 C  
BRANCH   9  10
HETATM   10  C   UNL     2      -7.685  10.845  67.168  1.00  0.00    -0.123 C  
BRANCH  10  11
HETATM   11  C   UNL     2      -8.703  11.886  66.716  1.00  0.00    -0.193 C  
BRANCH  11  12
HETATM   12  C   UNL     2      -8.666  13.119  67.612  1.00  0.00    -0.192 C  
BRANCH  12  13
HETATM   13  C   UNL     2      -9.073  14.367  66.835  1.00  0.00    -0.251 C  
BRANCH  13  14
HETATM   14  O   UNL     2      -8.253  15.478  67.211  1.00  0.00    -0.165 OA 
BRANCH  14  15
HETATM   15  C   UNL     2      -8.534  16.659  66.579  1.00  0.00    -0.292 C  
HETATM   16  O   UNL     2      -7.898  17.082  65.618  1.00  0.00    -0.280 OA 
BRANCH  15  17
HETATM   17  C   UNL     2      -9.580  17.419  67.309  1.00  0.00    -0.258 C  
HETATM   18  S   UNL     2      -8.924  18.111  68.784  1.00  0.00    -0.152 S  
HETATM   19  O   UNL     2      -8.472  16.956  69.555  1.00  0.00     0.125 OA 
HETATM   20  O   UNL     2     -10.085  18.798  69.348  1.00  0.00    -0.208 OA 
HETATM   21  O   UNL     2      -7.861  19.003  68.324  1.00  0.00    -0.290 OA 
ENDBRANCH  15  17
ENDBRANCH  14  15
ENDBRANCH  13  14
ENDBRANCH  12  13
ENDBRANCH  11  12
ENDBRANCH  10  11
ENDBRANCH   9  10
ENDBRANCH   8   9
ENDBRANCH   7   8
ENDBRANCH   6   7
ENDBRANCH   5   6
ENDBRANCH   4   5
ENDBRANCH   3   4
TORSDOF 13
ENDMDL
MODEL      376
REMARK 921   NORMALIZED FREE ENERGY PREDICTED BY IDOCK:   -2.47 KCAL/MOL
REMARK 922        TOTAL FREE ENERGY PREDICTED BY IDOCK:   -5.90 KCAL/MOL
REMARK 923 INTER-LIGAND FREE ENERGY PREDICTED BY IDOCK:   -5.19 KCAL/MOL
REMARK 924 INTRA-LIGAND FREE ENERGY PREDICTED BY IDOCK:   -0.71 KCAL/MOL
REMARK 927      BINDING AFFINITY PREDICTED BY RF-SCORE:    0.00 PKD
ROOT
HETATM    1 NA   UNL     1      -6.932  17.804  65.758  1.00  0.00    -0.185 Na 
HETATM    2  C   UNL     2      -9.490  16.372  66.688  1.00  0.00    -0.277 C  
HETATM    3  C   UNL     2     -10.443  16.311  65.506  1.00  0.00    -0.383 C  
ENDROOT
BRANCH   3   4
HETATM    4  C   UNL     2     -10.829  14.868  65.200  1.00  0.00    -0.428 C  
BRANCH   4   5
HETATM    5  C   UNL     2     -12.069  14.794  64.313  1.00  0.00    -0.415 C  
BRANCH   5   6
HETATM    6  C   UNL     2     -12.130  13.446  63.598  1.00  0.00    -0.513 C  
BRANCH   6   7
HETATM    7  C   UNL     2     -11.696  12.311  64.518  1.00  0.00    -0.421 C  
BRANCH   7   8
HETATM    8  C   UNL     2     -10.615  11.465  63.851  1.00  0.00    -0.452 C  
BRANCH   8   9
HETATM    9  C   UNL     2      -9.549  11.052  64.860  1.00  0.00    -0.289 C  
BRANCH   9  10
HETATM   10  C   UNL     2      -9.564   9.542  65.082  1.00  0.00    -0.270 C  
BRANCH  10  11
HETATM   11  C   UNL     2     -10.365   9.190  66.331  1.00  0.00    -0.235 C  
BRANCH  11  12
HETATM   12  C   UNL     2     -10.120   7.747  66.757  1.00  0.00    -0.341 C  
BRANCH  12  13
HETATM   13  C   UNL     2      -8.795   7.236  66.200  1.00  0.00    -0.158 C  
BRANCH  13  14
HETATM   14  O   UNL     2      -8.110   6.453  67.183  1.00  0.00    -0.111 OA 
BRANCH  14  15
HETATM   15  C   UNL     2      -7.329   5.442  66.693  1.00  0.00    -0.086 C  
HETATM   16  O   UNL     2      -6.135   5.320  66.950  1.00  0.00    -0.028 OA 
BRANCH  15  17
HETATM   17  C   UNL     2      -8.071   4.632  65.692  1.00  0.00    -0.107 C  
HETATM   18  S   UNL     2      -8.867   3.272  66.466  1.00  0.00    -0.151 S  
HETATM   19  O   UNL     2      -7.776   2.507  67.064  1.00  0.00    -0.069 OA 
HETATM   20  O   UNL     2      -9.521   2.611  65.337  1.00  0.00    -0.102 OA 
HETATM   21  O   UNL     2      -9.788   3.886  67.421  1.00  0.00    -0.168 OA 
ENDBRANCH  15  17
ENDBRANCH  14  15
ENDBRANCH  13  14
ENDBRANCH  12  13
ENDBRANCH  11  12
ENDBRANCH  10  11
ENDBRANCH   9  10
ENDBRANCH   8   9
ENDBRANCH   7   8
ENDBRANCH   6   7
ENDBRANCH   5   6
ENDBRANCH   4   5
ENDBRANCH   3   4
TORSDOF 13
ENDMDL
MODEL      377
REMARK 921   NORMALIZED FREE ENERGY PREDICTED BY IDOCK:   -2.45 KCAL/MOL
REMARK 922        TOTAL FREE ENERGY PREDICTED BY IDOCK:   -5.88 KCAL/MOL
REMARK 923 INTER-LIGAND FREE ENERGY PREDICTED BY IDOCK:   -5.32 KCAL/MOL
REMARK 924 INTRA-LIGAND FREE ENERGY PREDICTED BY IDOCK:   -0.56 KCAL/MOL
REMARK 927      BINDING AFFINITY PREDICTED BY RF-SCORE:    0.00 PKD
ROOT
HETATM    1 NA   UNL     1     -10.070   2.026  66.976  1.00  0.00    -0.384 Na 
HETATM    2  C   UNL     2     -10.306   5.047  66.447  1.00  0.00    -0.335 C  
HETATM    3  C   UNL     2      -9.665   5.774  67.617  1.00  0.00    -0.127 C  
ENDROOT
BRANCH   3   4
HETATM    4  C   UNL     2      -8.549   6.694  67.133  1.00  0.00    -0.112 C  
BRANCH   4   5
HETATM    5  C   UNL     2      -8.863   7.286  65.763  1.00  0.00    -0.095 C  
BRANCH   5   6
HETATM    6  C   UNL     2      -9.146   8.781  65.883  1.00  0.00    -0.271 C  
BRANCH   6   7
HETATM    7  C   UNL     2      -7.865   9.599  65.758  1.00  0.00    -0.106 C  
BRANCH   7   8
HETATM    8  C   UNL     2      -8.109  11.044  66.182  1.00  0.00    -0.141 C  
BRANCH   8   9
HETATM    9  C   UNL     2      -8.243  11.151  67.697  1.00  0.00    -0.118 C  
BRANCH   9  10
HETATM   10  C   UNL     2      -9.206  12.271  68.081  1.00  0.00    -0.197 C  
BRANCH  10  11
HETATM   11  C   UNL     2      -9.964  12.771  66.856  1.00  0.00    -0.232 C  
BRANCH  11  12
HETATM   12  C   UNL     2     -11.081  13.731  67.251  1.00  0.00    -0.319 C  
BRANCH  12  13
HETATM   13  C   UNL     2     -11.601  14.488  66.033  1.00  0.00    -0.356 C  
BRANCH  13  14
HETATM   14  O   UNL     2     -10.510  15.002  65.262  1.00  0.00    -0.346 OA 
BRANCH  14  15
HETATM   15  C   UNL     2     -10.060  16.241  65.629  1.00  0.00    -0.312 C  
HETATM   16  O   UNL     2     -10.651  17.284  65.364  1.00  0.00    -0.630 OA 
BRANCH  15  17
HETATM   17  C   UNL     2      -8.702  16.160  66.225  1.00  0.00    -0.337 C  
HETATM   18  S   UNL     2      -8.510  17.364  67.489  1.00  0.00    -0.216 S  
HETATM   19  O   UNL     2      -8.715  18.639  66.808  1.00  0.00    -0.274 OA 
HETATM   20  O   UNL     2      -7.137  17.130  67.935  1.00  0.00    -0.156 OA 
HETATM   21  O   UNL     2      -9.531  17.018  68.477  1.00  0.00    -0.252 OA 
ENDBRANCH  15  17
ENDBRANCH  14  15
ENDBRANCH  13  14
ENDBRANCH  12  13
ENDBRANCH  11  12
ENDBRANCH  10  11
ENDBRANCH   9  10
ENDBRANCH   8   9
ENDBRANCH   7   8
ENDBRANCH   6   7
ENDBRANCH   5   6
ENDBRANCH   4   5
ENDBRANCH   3   4
TORSDOF 13
ENDMDL
MODEL      378
REMARK 921   NORMALIZED FREE ENERGY PREDICTED BY IDOCK:   -2.45 KCAL/MOL
REMARK 922        TOTAL FREE ENERGY PREDICTED BY IDOCK:   -5.87 KCAL/MOL
REMARK 923 INTER-LIGAND FREE ENERGY PREDICTED BY IDOCK:   -5.07 KCAL/MOL
REMARK 924 INTRA-LIGAND FREE ENERGY PREDICTED BY IDOCK:   -0.80 KCAL/MOL
REMARK 927      BINDING AFFINITY PREDICTED BY RF-SCORE:    0.00 PKD
ROOT
HETATM    1 NA   UNL     1     -13.487   7.948  70.129  1.00  0.00    -0.244 Na 
HETATM    2  C   UNL     2     -12.277   5.953  72.133  1.00  0.00    -0.020 C  
HETATM    3  C   UNL     2     -10.790   5.844  71.838  1.00  0.00    -0.307 C  
ENDROOT
BRANCH   3   4
HETATM    4  C   UNL     2      -9.969   6.195  73.074  1.00  0.00    -0.185 C  
BRANCH   4   5
HETATM    5  C   UNL     2      -8.556   6.637  72.703  1.00  0.00    -0.126 C  
BRANCH   5   6
HETATM    6  C   UNL     2      -8.328   6.479  71.202  1.00  0.00    -0.122 C  
BRANCH   6   7
HETATM    7  C   UNL     2      -8.287   7.833  70.503  1.00  0.00    -0.125 C  
BRANCH   7   8
HETATM    8  C   UNL     2      -7.564   7.722  69.163  1.00  0.00    -0.099 C  
BRANCH   8   9
HETATM    9  C   UNL     2      -8.091   8.756  68.174  1.00  0.00    -0.107 C  
BRANCH   9  10
HETATM   10  C   UNL     2      -8.669   8.078  66.934  1.00  0.00    -0.136 C  
BRANCH  10  11
HETATM   11  C   UNL     2     -10.175   8.304  66.852  1.00  0.00    -0.388 C  
BRANCH  11  12
HETATM   12  C   UNL     2     -10.585   9.567  67.602  1.00  0.00    -0.329 C  
BRANCH  12  13
HETATM   13  C   UNL     2     -10.809  10.724  66.634  1.00  0.00    -0.164 C  
BRANCH  13  14
HETATM   14  O   UNL     2     -11.857  11.575  67.107  1.00  0.00    -0.595 OA 
BRANCH  14  15
HETATM   15  C   UNL     2     -11.730  12.900  66.789  1.00  0.00    -0.383 C  
HETATM   16  O   UNL     2     -12.471  13.483  66.002  1.00  0.00    -0.432 OA 
BRANCH  15  17
HETATM   17  C   UNL     2     -10.495  13.475  67.381  1.00  0.00    -0.247 C  
HETATM   18  S   UNL     2     -10.881  14.437  68.799  1.00  0.00    -0.257 S  
HETATM   19  O   UNL     2     -11.766  15.484  68.295  1.00  0.00    -0.360 OA 
HETATM   20  O   UNL     2      -9.563  14.910  69.221  1.00  0.00    -0.195 OA 
HETATM   21  O   UNL     2     -11.505  13.489  69.721  1.00  0.00    -0.248 OA 
ENDBRANCH  15  17
ENDBRANCH  14  15
ENDBRANCH  13  14
ENDBRANCH  12  13
ENDBRANCH  11  12
ENDBRANCH  10  11
ENDBRANCH   9  10
ENDBRANCH   8   9
ENDBRANCH   7   8
ENDBRANCH   6   7
ENDBRANCH   5   6
ENDBRANCH   4   5
ENDBRANCH   3   4
TORSDOF 13
ENDMDL
MODEL      379
REMARK 921   NORMALIZED FREE ENERGY PREDICTED BY IDOCK:   -2.44 KCAL/MOL
REMARK 922        TOTAL FREE ENERGY PREDICTED BY IDOCK:   -5.86 KCAL/MOL
REMARK 923 INTER-LIGAND FREE ENERGY PREDICTED BY IDOCK:   -4.78 KCAL/MOL
REMARK 924 INTRA-LIGAND FREE ENERGY PREDICTED BY IDOCK:   -1.07 KCAL/MOL
REMARK 927      BINDING AFFINITY PREDICTED BY RF-SCORE:    0.00 PKD
ROOT
HETATM    1 NA   UNL     1     -12.441  11.110  62.368  1.00  0.00    -0.899 Na 
HETATM    2  C   UNL     2     -10.266  10.717  64.508  1.00  0.00    -0.428 C  
HETATM    3  C   UNL     2      -9.266   9.706  63.973  1.00  0.00    -0.202 C  
ENDROOT
BRANCH   3   4
HETATM    4  C   UNL     2      -7.861  10.300  63.949  1.00  0.00    -0.115 C  
BRANCH   4   5
HETATM    5  C   UNL     2      -6.794   9.224  64.126  1.00  0.00    -0.091 C  
BRANCH   5   6
HETATM    6  C   UNL     2      -7.405   7.836  63.949  1.00  0.00    -0.096 C  
BRANCH   6   7
HETATM    7  C   UNL     2      -7.043   6.919  65.111  1.00  0.00    -0.067 C  
BRANCH   7   8
HETATM    8  C   UNL     2      -7.017   7.699  66.422  1.00  0.00    -0.066 C  
BRANCH   8   9
HETATM    9  C   UNL     2      -7.938   7.058  67.454  1.00  0.00    -0.112 C  
BRANCH   9  10
HETATM   10  C   UNL     2      -9.171   7.926  67.698  1.00  0.00    -0.147 C  
BRANCH  10  11
HETATM   11  C   UNL     2      -8.775   9.393  67.836  1.00  0.00    -0.120 C  
BRANCH  11  12
HETATM   12  C   UNL     2      -9.464  10.039  69.032  1.00  0.00    -0.190 C  
BRANCH  12  13
HETATM   13  C   UNL     2     -10.568   9.137  69.576  1.00  0.00    -0.223 C  
BRANCH  13  14
HETATM   14  O   UNL     2     -10.365   8.886  70.970  1.00  0.00    -0.213 OA 
BRANCH  14  15
HETATM   15  C   UNL     2     -11.494   8.600  71.688  1.00  0.00    -0.305 C  
HETATM   16  O   UNL     2     -12.141   9.443  72.302  1.00  0.00    -0.290 OA 
BRANCH  15  17
HETATM   17  C   UNL     2     -11.722   7.133  71.760  1.00  0.00    -0.290 C  
HETATM   18  S   UNL     2     -10.399   6.344  72.603  1.00  0.00    -0.203 S  
HETATM   19  O   UNL     2      -9.220   6.658  71.800  1.00  0.00    -0.149 OA 
HETATM   20  O   UNL     2     -10.801   4.938  72.563  1.00  0.00    -0.211 OA 
HETATM   21  O   UNL     2     -10.415   6.937  73.939  1.00  0.00    -0.366 OA 
ENDBRANCH  15  17
ENDBRANCH  14  15
ENDBRANCH  13  14
ENDBRANCH  12  13
ENDBRANCH  11  12
ENDBRANCH  10  11
ENDBRANCH   9  10
ENDBRANCH   8   9
ENDBRANCH   7   8
ENDBRANCH   6   7
ENDBRANCH   5   6
ENDBRANCH   4   5
ENDBRANCH   3   4
TORSDOF 13
ENDMDL
MODEL      380
REMARK 921   NORMALIZED FREE ENERGY PREDICTED BY IDOCK:   -2.44 KCAL/MOL
REMARK 922        TOTAL FREE ENERGY PREDICTED BY IDOCK:   -5.85 KCAL/MOL
REMARK 923 INTER-LIGAND FREE ENERGY PREDICTED BY IDOCK:   -4.97 KCAL/MOL
REMARK 924 INTRA-LIGAND FREE ENERGY PREDICTED BY IDOCK:   -0.88 KCAL/MOL
REMARK 927      BINDING AFFINITY PREDICTED BY RF-SCORE:    0.00 PKD
ROOT
HETATM    1 NA   UNL     1      -7.623   4.998  67.916  1.00  0.00    -0.072 Na 
HETATM    2  C   UNL     2      -8.947   7.454  69.211  1.00  0.00    -0.136 C  
HETATM    3  C   UNL     2      -8.179   7.779  70.481  1.00  0.00    -0.120 C  
ENDROOT
BRANCH   3   4
HETATM    4  C   UNL     2      -7.654   9.210  70.442  1.00  0.00    -0.118 C  
BRANCH   4   5
HETATM    5  C   UNL     2      -8.445  10.071  69.461  1.00  0.00    -0.186 C  
BRANCH   5   6
HETATM    6  C   UNL     2      -7.495  10.823  68.531  1.00  0.00    -0.100 C  
BRANCH   6   7
HETATM    7  C   UNL     2      -8.219  11.936  67.783  1.00  0.00    -0.148 C  
BRANCH   7   8
HETATM    8  C   UNL     2      -9.565  11.443  67.259  1.00  0.00    -0.187 C  
BRANCH   8   9
HETATM    9  C   UNL     2      -9.435  10.924  65.832  1.00  0.00    -0.241 C  
BRANCH   9  10
HETATM   10  C   UNL     2     -10.542  11.486  64.944  1.00  0.00    -0.360 C  
BRANCH  10  11
HETATM   11  C   UNL     2     -11.008  12.843  65.462  1.00  0.00    -0.301 C  
BRANCH  11  12
HETATM   12  C   UNL     2     -10.191  13.976  64.853  1.00  0.00    -0.377 C  
BRANCH  12  13
HETATM   13  C   UNL     2     -10.295  15.238  65.704  1.00  0.00    -0.366 C  
BRANCH  13  14
HETATM   14  O   UNL     2      -9.203  15.311  66.624  1.00  0.00    -0.235 OA 
BRANCH  14  15
HETATM   15  C   UNL     2      -8.554  16.515  66.676  1.00  0.00    -0.254 C  
HETATM   16  O   UNL     2      -7.834  16.938  65.777  1.00  0.00    -0.328 OA 
BRANCH  15  17
HETATM   17  C   UNL     2      -8.703  17.144  68.014  1.00  0.00    -0.221 C  
HETATM   18  S   UNL     2      -9.621  18.637  67.896  1.00  0.00    -0.323 S  
HETATM   19  O   UNL     2      -8.832  19.477  66.999  1.00  0.00    -0.286 OA 
HETATM   20  O   UNL     2      -9.651  19.094  69.285  1.00  0.00    -0.286 OA 
HETATM   21  O   UNL     2     -10.921  18.222  67.370  1.00  0.00    -0.328 OA 
ENDBRANCH  15  17
ENDBRANCH  14  15
ENDBRANCH  13  14
ENDBRANCH  12  13
ENDBRANCH  11  12
ENDBRANCH  10  11
ENDBRANCH   9  10
ENDBRANCH   8   9
ENDBRANCH   7   8
ENDBRANCH   6   7
ENDBRANCH   5   6
ENDBRANCH   4   5
ENDBRANCH   3   4
TORSDOF 13
ENDMDL
MODEL      381
REMARK 921   NORMALIZED FREE ENERGY PREDICTED BY IDOCK:   -2.43 KCAL/MOL
REMARK 922        TOTAL FREE ENERGY PREDICTED BY IDOCK:   -5.84 KCAL/MOL
REMARK 923 INTER-LIGAND FREE ENERGY PREDICTED BY IDOCK:   -4.87 KCAL/MOL
REMARK 924 INTRA-LIGAND FREE ENERGY PREDICTED BY IDOCK:   -0.97 KCAL/MOL
REMARK 927      BINDING AFFINITY PREDICTED BY RF-SCORE:    0.00 PKD
ROOT
HETATM    1 NA   UNL     1      -5.334  15.238  72.303  1.00  0.00    -0.164 Na 
HETATM    2  C   UNL     2      -5.929  13.742  69.683  1.00  0.00    -0.113 C  
HETATM    3  C   UNL     2      -5.404  12.323  69.829  1.00  0.00    -0.084 C  
ENDROOT
BRANCH   3   4
HETATM    4  C   UNL     2      -6.521  11.310  69.605  1.00  0.00    -0.132 C  
BRANCH   4   5
HETATM    5  C   UNL     2      -5.991  10.017  68.990  1.00  0.00    -0.037 C  
BRANCH   5   6
HETATM    6  C   UNL     2      -6.382   8.820  69.853  1.00  0.00    -0.037 C  
BRANCH   6   7
HETATM    7  C   UNL     2      -7.771   8.306  69.491  1.00  0.00    -0.101 C  
BRANCH   7   8
HETATM    8  C   UNL     2      -8.373   7.524  70.655  1.00  0.00    -0.126 C  
BRANCH   8   9
HETATM    9  C   UNL     2      -9.863   7.812  70.791  1.00  0.00    -0.183 C  
BRANCH   9  10
HETATM   10  C   UNL     2     -10.098   9.190  71.405  1.00  0.00    -0.392 C  
BRANCH  10  11
HETATM   11  C   UNL     2     -11.282   9.881  70.737  1.00  0.00    -0.427 C  
BRANCH  11  12
HETATM   12  C   UNL     2     -10.957  10.263  69.297  1.00  0.00    -0.284 C  
BRANCH  12  13
HETATM   13  C   UNL     2     -11.904  11.350  68.798  1.00  0.00    -0.323 C  
BRANCH  13  14
HETATM   14  O   UNL     2     -11.212  12.254  67.930  1.00  0.00    -0.239 OA 
BRANCH  14  15
HETATM   15  C   UNL     2     -11.804  13.476  67.758  1.00  0.00    -0.362 C  
HETATM   16  O   UNL     2     -12.047  13.964  66.658  1.00  0.00    -0.423 OA 
BRANCH  15  17
HETATM   17  C   UNL     2     -11.949  14.186  69.055  1.00  0.00    -0.340 C  
HETATM   18  S   UNL     2     -10.706  15.415  69.228  1.00  0.00    -0.269 S  
HETATM   19  O   UNL     2      -9.451  14.671  69.167  1.00  0.00    -0.166 OA 
HETATM   20  O   UNL     2     -11.011  15.982  70.541  1.00  0.00    -0.335 OA 
HETATM   21  O   UNL     2     -10.940  16.327  68.109  1.00  0.00    -0.330 OA 
ENDBRANCH  15  17
ENDBRANCH  14  15
ENDBRANCH  13  14
ENDBRANCH  12  13
ENDBRANCH  11  12
ENDBRANCH  10  11
ENDBRANCH   9  10
ENDBRANCH   8   9
ENDBRANCH   7   8
ENDBRANCH   6   7
ENDBRANCH   5   6
ENDBRANCH   4   5
ENDBRANCH   3   4
TORSDOF 13
ENDMDL
MODEL      382
REMARK 921   NORMALIZED FREE ENERGY PREDICTED BY IDOCK:   -2.43 KCAL/MOL
REMARK 922        TOTAL FREE ENERGY PREDICTED BY IDOCK:   -5.84 KCAL/MOL
REMARK 923 INTER-LIGAND FREE ENERGY PREDICTED BY IDOCK:   -5.25 KCAL/MOL
REMARK 924 INTRA-LIGAND FREE ENERGY PREDICTED BY IDOCK:   -0.59 KCAL/MOL
REMARK 927      BINDING AFFINITY PREDICTED BY RF-SCORE:    0.00 PKD
ROOT
HETATM    1 NA   UNL     1     -14.251   7.665  70.271  1.00  0.00    -0.571 Na 
HETATM    2  C   UNL     2     -12.319   6.215  72.174  1.00  0.00    -0.125 C  
HETATM    3  C   UNL     2     -10.903   6.604  71.783  1.00  0.00    -0.265 C  
ENDROOT
BRANCH   3   4
HETATM    4  C   UNL     2     -10.169   7.225  72.967  1.00  0.00    -0.313 C  
BRANCH   4   5
HETATM    5  C   UNL     2      -9.110   8.224  72.509  1.00  0.00    -0.323 C  
BRANCH   5   6
HETATM    6  C   UNL     2      -9.014   8.235  70.986  1.00  0.00    -0.183 C  
BRANCH   6   7
HETATM    7  C   UNL     2      -9.183   9.644  70.430  1.00  0.00    -0.258 C  
BRANCH   7   8
HETATM    8  C   UNL     2      -8.422   9.798  69.117  1.00  0.00    -0.143 C  
BRANCH   8   9
HETATM    9  C   UNL     2      -8.187  11.269  68.794  1.00  0.00    -0.122 C  
BRANCH   9  10
HETATM   10  C   UNL     2      -8.734  11.617  67.411  1.00  0.00    -0.155 C  
BRANCH  10  11
HETATM   11  C   UNL     2      -9.229  13.059  67.378  1.00  0.00    -0.208 C  
BRANCH  11  12
HETATM   12  C   UNL     2      -8.639  13.872  68.525  1.00  0.00    -0.137 C  
BRANCH  12  13
HETATM   13  C   UNL     2      -7.711  14.961  67.996  1.00  0.00    -0.122 C  
BRANCH  13  14
HETATM   14  O   UNL     2      -8.472  16.045  67.455  1.00  0.00    -0.159 OA 
BRANCH  14  15
HETATM   15  C   UNL     2      -8.256  17.265  68.035  1.00  0.00    -0.223 C  
HETATM   16  O   UNL     2      -7.157  17.644  68.431  1.00  0.00    -0.217 OA 
BRANCH  15  17
HETATM   17  C   UNL     2      -9.537  17.979  68.270  1.00  0.00    -0.318 C  
HETATM   18  S   UNL     2      -9.651  19.398  67.242  1.00  0.00    -0.344 S  
HETATM   19  O   UNL     2      -8.507  20.219  67.631  1.00  0.00    -0.315 OA 
HETATM   20  O   UNL     2     -10.950  19.953  67.620  1.00  0.00    -0.280 OA 
HETATM   21  O   UNL     2      -9.597  18.865  65.881  1.00  0.00    -0.469 OA 
ENDBRANCH  15  17
ENDBRANCH  14  15
ENDBRANCH  13  14
ENDBRANCH  12  13
ENDBRANCH  11  12
ENDBRANCH  10  11
ENDBRANCH   9  10
ENDBRANCH   8   9
ENDBRANCH   7   8
ENDBRANCH   6   7
ENDBRANCH   5   6
ENDBRANCH   4   5
ENDBRANCH   3   4
TORSDOF 13
ENDMDL
MODEL      383
REMARK 921   NORMALIZED FREE ENERGY PREDICTED BY IDOCK:   -2.42 KCAL/MOL
REMARK 922        TOTAL FREE ENERGY PREDICTED BY IDOCK:   -5.82 KCAL/MOL
REMARK 923 INTER-LIGAND FREE ENERGY PREDICTED BY IDOCK:   -5.26 KCAL/MOL
REMARK 924 INTRA-LIGAND FREE ENERGY PREDICTED BY IDOCK:   -0.56 KCAL/MOL
REMARK 927      BINDING AFFINITY PREDICTED BY RF-SCORE:    0.00 PKD
ROOT
HETATM    1 NA   UNL     1      -9.434   7.952  69.173  1.00  0.00    -0.147 Na 
HETATM    2  C   UNL     2     -11.882   7.575  70.995  1.00  0.00    -0.319 C  
HETATM    3  C   UNL     2     -11.746   8.540  72.161  1.00  0.00    -0.448 C  
ENDROOT
BRANCH   3   4
HETATM    4  C   UNL     2     -12.959   9.461  72.242  1.00  0.00    -0.479 C  
BRANCH   4   5
HETATM    5  C   UNL     2     -13.262  10.110  70.895  1.00  0.00    -0.360 C  
BRANCH   5   6
HETATM    6  C   UNL     2     -12.196  11.149  70.555  1.00  0.00    -0.475 C  
BRANCH   6   7
HETATM    7  C   UNL     2     -11.422  10.759  69.302  1.00  0.00    -0.369 C  
BRANCH   7   8
HETATM    8  C   UNL     2     -10.313  11.769  69.021  1.00  0.00    -0.087 C  
BRANCH   8   9
HETATM    9  C   UNL     2     -10.895  13.148  68.729  1.00  0.00    -0.278 C  
BRANCH   9  10
HETATM   10  C   UNL     2     -10.807  13.471  67.239  1.00  0.00    -0.285 C  
BRANCH  10  11
HETATM   11  C   UNL     2     -11.599  12.456  66.422  1.00  0.00    -0.442 C  
BRANCH  11  12
HETATM   12  C   UNL     2     -10.759  11.888  65.284  1.00  0.00    -0.331 C  
BRANCH  12  13
HETATM   13  C   UNL     2     -10.088  10.584  65.704  1.00  0.00    -0.268 C  
BRANCH  13  14
HETATM   14  O   UNL     2      -8.727  10.822  66.077  1.00  0.00    -0.170 OA 
BRANCH  14  15
HETATM   15  C   UNL     2      -7.786  10.187  65.313  1.00  0.00    -0.144 C  
HETATM   16  O   UNL     2      -6.670  10.648  65.088  1.00  0.00    -0.069 OA 
BRANCH  15  17
HETATM   17  C   UNL     2      -8.352   8.974  64.669  1.00  0.00    -0.172 C  
HETATM   18  S   UNL     2      -7.669   8.750  63.067  1.00  0.00    -0.125 S  
HETATM   19  O   UNL     2      -8.045   9.960  62.341  1.00  0.00    -0.119 OA 
HETATM   20  O   UNL     2      -8.342   7.535  62.609  1.00  0.00    -0.092 OA 
HETATM   21  O   UNL     2      -6.234   8.590  63.303  1.00  0.00    -0.084 OA 
ENDBRANCH  15  17
ENDBRANCH  14  15
ENDBRANCH  13  14
ENDBRANCH  12  13
ENDBRANCH  11  12
ENDBRANCH  10  11
ENDBRANCH   9  10
ENDBRANCH   8   9
ENDBRANCH   7   8
ENDBRANCH   6   7
ENDBRANCH   5   6
ENDBRANCH   4   5
ENDBRANCH   3   4
TORSDOF 13
ENDMDL
MODEL      384
REMARK 921   NORMALIZED FREE ENERGY PREDICTED BY IDOCK:   -2.39 KCAL/MOL
REMARK 922        TOTAL FREE ENERGY PREDICTED BY IDOCK:   -5.78 KCAL/MOL
REMARK 923 INTER-LIGAND FREE ENERGY PREDICTED BY IDOCK:   -4.53 KCAL/MOL
REMARK 924 INTRA-LIGAND FREE ENERGY PREDICTED BY IDOCK:   -1.25 KCAL/MOL
REMARK 927      BINDING AFFINITY PREDICTED BY RF-SCORE:    0.00 PKD
ROOT
HETATM    1 NA   UNL     1     -10.819  19.361  70.052  1.00  0.00    -0.505 Na 
HETATM    2  C   UNL     2     -11.318  16.338  70.317  1.00  0.00    -0.299 C  
HETATM    3  C   UNL     2     -11.173  15.720  68.936  1.00  0.00    -0.332 C  
ENDROOT
BRANCH   3   4
HETATM    4  C   UNL     2     -10.107  14.629  68.944  1.00  0.00    -0.234 C  
BRANCH   4   5
HETATM    5  C   UNL     2      -8.827  15.089  68.252  1.00  0.00    -0.172 C  
BRANCH   5   6
HETATM    6  C   UNL     2      -7.972  15.913  69.212  1.00  0.00    -0.229 C  
BRANCH   6   7
HETATM    7  C   UNL     2      -6.549  15.373  69.288  1.00  0.00    -0.143 C  
BRANCH   7   8
HETATM    8  C   UNL     2      -6.442  14.294  70.362  1.00  0.00    -0.073 C  
BRANCH   8   9
HETATM    9  C   UNL     2      -5.921  12.989  69.770  1.00  0.00    -0.130 C  
BRANCH   9  10
HETATM   10  C   UNL     2      -5.147  13.246  68.480  1.00  0.00    -0.073 C  
BRANCH  10  11
HETATM   11  C   UNL     2      -5.444  12.161  67.450  1.00  0.00    -0.124 C  
BRANCH  11  12
HETATM   12  C   UNL     2      -6.843  12.322  66.866  1.00  0.00     0.056 C  
BRANCH  12  13
HETATM   13  C   UNL     2      -7.488  10.963  66.619  1.00  0.00    -0.139 C  
BRANCH  13  14
HETATM   14  O   UNL     2      -8.896  11.027  66.862  1.00  0.00    -0.143 OA 
BRANCH  14  15
HETATM   15  C   UNL     2      -9.688  10.468  65.896  1.00  0.00    -0.217 C  
HETATM   16  O   UNL     2      -9.254   9.779  64.976  1.00  0.00    -0.215 OA 
BRANCH  15  17
HETATM   17  C   UNL     2     -11.091  10.944  66.014  1.00  0.00     0.090 C  
HETATM   18  S   UNL     2     -11.331  12.399  65.062  1.00  0.00    -0.330 S  
HETATM   19  O   UNL     2     -10.394  13.364  65.633  1.00  0.00    -0.279 OA 
HETATM   20  O   UNL     2     -12.740  12.704  65.311  1.00  0.00    -0.652 OA 
HETATM   21  O   UNL     2     -11.038  11.988  63.690  1.00  0.00    -0.383 OA 
ENDBRANCH  15  17
ENDBRANCH  14  15
ENDBRANCH  13  14
ENDBRANCH  12  13
ENDBRANCH  11  12
ENDBRANCH  10  11
ENDBRANCH   9  10
ENDBRANCH   8   9
ENDBRANCH   7   8
ENDBRANCH   6   7
ENDBRANCH   5   6
ENDBRANCH   4   5
ENDBRANCH   3   4
TORSDOF 13
ENDMDL
MODEL      385
REMARK 921   NORMALIZED FREE ENERGY PREDICTED BY IDOCK:   -2.39 KCAL/MOL
REMARK 922        TOTAL FREE ENERGY PREDICTED BY IDOCK:   -5.77 KCAL/MOL
REMARK 923 INTER-LIGAND FREE ENERGY PREDICTED BY IDOCK:   -4.79 KCAL/MOL
REMARK 924 INTRA-LIGAND FREE ENERGY PREDICTED BY IDOCK:   -0.98 KCAL/MOL
REMARK 927      BINDING AFFINITY PREDICTED BY RF-SCORE:    0.00 PKD
ROOT
HETATM    1 NA   UNL     1     -12.484  14.613  62.720  1.00  0.00    -0.882 Na 
HETATM    2  C   UNL     2     -11.161  14.057  65.440  1.00  0.00    -0.319 C  
HETATM    3  C   UNL     2     -12.120  13.207  66.257  1.00  0.00    -0.460 C  
ENDROOT
BRANCH   3   4
HETATM    4  C   UNL     2     -11.453  11.904  66.685  1.00  0.00    -0.382 C  
BRANCH   4   5
HETATM    5  C   UNL     2      -9.961  11.904  66.362  1.00  0.00    -0.237 C  
BRANCH   5   6
HETATM    6  C   UNL     2      -9.625  10.759  65.409  1.00  0.00    -0.272 C  
BRANCH   6   7
HETATM    7  C   UNL     2      -9.829   9.404  66.077  1.00  0.00    -0.366 C  
BRANCH   7   8
HETATM    8  C   UNL     2      -8.977   8.337  65.396  1.00  0.00    -0.062 C  
BRANCH   8   9
HETATM    9  C   UNL     2      -8.128   7.587  66.415  1.00  0.00    -0.114 C  
BRANCH   9  10
HETATM   10  C   UNL     2      -6.641   7.759  66.117  1.00  0.00    -0.050 C  
BRANCH  10  11
HETATM   11  C   UNL     2      -5.854   7.957  67.408  1.00  0.00    -0.038 C  
BRANCH  11  12
HETATM   12  C   UNL     2      -6.766   8.396  68.548  1.00  0.00    -0.063 C  
BRANCH  12  13
HETATM   13  C   UNL     2      -6.574   7.505  69.771  1.00  0.00    -0.039 C  
BRANCH  13  14
HETATM   14  O   UNL     2      -7.668   6.592  69.900  1.00  0.00    -0.104 OA 
BRANCH  14  15
HETATM   15  C   UNL     2      -8.189   6.470  71.160  1.00  0.00    -0.121 C  
HETATM   16  O   UNL     2      -7.528   6.131  72.138  1.00  0.00    -0.092 OA 
BRANCH  15  17
HETATM   17  C   UNL     2      -9.666   6.631  71.145  1.00  0.00    -0.174 C  
HETATM   18  S   UNL     2     -10.124   8.181  71.829  1.00  0.00    -0.224 S  
HETATM   19  O   UNL     2      -9.609   8.141  73.195  1.00  0.00    -0.271 OA 
HETATM   20  O   UNL     2     -11.583   8.145  71.732  1.00  0.00    -0.264 OA 
HETATM   21  O   UNL     2      -9.487   9.166  70.956  1.00  0.00    -0.252 OA 
ENDBRANCH  15  17
ENDBRANCH  14  15
ENDBRANCH  13  14
ENDBRANCH  12  13
ENDBRANCH  11  12
ENDBRANCH  10  11
ENDBRANCH   9  10
ENDBRANCH   8   9
ENDBRANCH   7   8
ENDBRANCH   6   7
ENDBRANCH   5   6
ENDBRANCH   4   5
ENDBRANCH   3   4
TORSDOF 13
ENDMDL
MODEL      386
REMARK 921   NORMALIZED FREE ENERGY PREDICTED BY IDOCK:   -2.36 KCAL/MOL
REMARK 922        TOTAL FREE ENERGY PREDICTED BY IDOCK:   -5.72 KCAL/MOL
REMARK 923 INTER-LIGAND FREE ENERGY PREDICTED BY IDOCK:   -5.42 KCAL/MOL
REMARK 924 INTRA-LIGAND FREE ENERGY PREDICTED BY IDOCK:   -0.31 KCAL/MOL
REMARK 927      BINDING AFFINITY PREDICTED BY RF-SCORE:    0.00 PKD
ROOT
HETATM    1 NA   UNL     1      -6.545   7.834  72.921  1.00  0.00    -0.055 Na 
HETATM    2  C   UNL     2      -8.871   5.822  72.938  1.00  0.00    -0.124 C  
HETATM    3  C   UNL     2     -10.068   6.501  73.583  1.00  0.00    -0.277 C  
ENDROOT
BRANCH   3   4
HETATM    4  C   UNL     2     -11.263   6.498  72.636  1.00  0.00    -0.284 C  
BRANCH   4   5
HETATM    5  C   UNL     2     -10.975   7.294  71.365  1.00  0.00    -0.256 C  
BRANCH   5   6
HETATM    6  C   UNL     2     -10.771   8.769  71.698  1.00  0.00    -0.397 C  
BRANCH   6   7
HETATM    7  C   UNL     2      -9.500   9.312  71.056  1.00  0.00    -0.313 C  
BRANCH   7   8
HETATM    8  C   UNL     2      -9.752   9.683  69.597  1.00  0.00    -0.230 C  
BRANCH   8   9
HETATM    9  C   UNL     2     -11.203  10.098  69.386  1.00  0.00    -0.265 C  
BRANCH   9  10
HETATM   10  C   UNL     2     -11.321  11.100  68.240  1.00  0.00    -0.365 C  
BRANCH  10  11
HETATM   11  C   UNL     2     -11.996  12.383  68.716  1.00  0.00    -0.276 C  
BRANCH  11  12
HETATM   12  C   UNL     2     -11.837  13.503  67.695  1.00  0.00    -0.399 C  
BRANCH  12  13
HETATM   13  C   UNL     2     -10.366  13.724  67.358  1.00  0.00    -0.252 C  
BRANCH  13  14
HETATM   14  O   UNL     2     -10.036  15.113  67.454  1.00  0.00    -0.225 OA 
BRANCH  14  15
HETATM   15  C   UNL     2      -9.467  15.505  68.635  1.00  0.00    -0.204 C  
HETATM   16  O   UNL     2     -10.037  15.434  69.720  1.00  0.00    -0.263 OA 
BRANCH  15  17
HETATM   17  C   UNL     2      -8.159  16.170  68.403  1.00  0.00    -0.171 C  
HETATM   18  S   UNL     2      -8.380  17.675  67.524  1.00  0.00    -0.220 S  
HETATM   19  O   UNL     2      -9.001  17.271  66.266  1.00  0.00    -0.345 OA 
HETATM   20  O   UNL     2      -7.007  18.162  67.393  1.00  0.00    -0.193 OA 
HETATM   21  O   UNL     2      -9.226  18.485  68.400  1.00  0.00    -0.306 OA 
ENDBRANCH  15  17
ENDBRANCH  14  15
ENDBRANCH  13  14
ENDBRANCH  12  13
ENDBRANCH  11  12
ENDBRANCH  10  11
ENDBRANCH   9  10
ENDBRANCH   8   9
ENDBRANCH   7   8
ENDBRANCH   6   7
ENDBRANCH   5   6
ENDBRANCH   4   5
ENDBRANCH   3   4
TORSDOF 13
ENDMDL
MODEL      387
REMARK 921   NORMALIZED FREE ENERGY PREDICTED BY IDOCK:   -2.36 KCAL/MOL
REMARK 922        TOTAL FREE ENERGY PREDICTED BY IDOCK:   -5.72 KCAL/MOL
REMARK 923 INTER-LIGAND FREE ENERGY PREDICTED BY IDOCK:   -5.12 KCAL/MOL
REMARK 924 INTRA-LIGAND FREE ENERGY PREDICTED BY IDOCK:   -0.61 KCAL/MOL
REMARK 927      BINDING AFFINITY PREDICTED BY RF-SCORE:    0.00 PKD
ROOT
HETATM    1 NA   UNL     1      -9.999   1.669  65.603  1.00  0.00    -0.326 Na 
HETATM    2  C   UNL     2     -10.535   4.692  65.787  1.00  0.00    -0.290 C  
HETATM    3  C   UNL     2     -10.029   5.172  67.137  1.00  0.00    -0.221 C  
ENDROOT
BRANCH   3   4
HETATM    4  C   UNL     2      -8.998   6.282  66.961  1.00  0.00    -0.115 C  
BRANCH   4   5
HETATM    5  C   UNL     2      -9.490   7.360  66.000  1.00  0.00     0.010 C  
BRANCH   5   6
HETATM    6  C   UNL     2      -8.893   8.715  66.371  1.00  0.00    -0.167 C  
BRANCH   6   7
HETATM    7  C   UNL     2      -8.264   8.682  67.759  1.00  0.00    -0.118 C  
BRANCH   7   8
HETATM    8  C   UNL     2      -8.979   9.653  68.694  1.00  0.00    -0.129 C  
BRANCH   8   9
HETATM    9  C   UNL     2     -10.431   9.237  68.903  1.00  0.00    -0.235 C  
BRANCH   9  10
HETATM   10  C   UNL     2     -11.382  10.369  68.522  1.00  0.00    -0.283 C  
BRANCH  10  11
HETATM   11  C   UNL     2     -10.927  11.685  69.145  1.00  0.00    -0.270 C  
BRANCH  11  12
HETATM   12  C   UNL     2     -11.475  12.880  68.373  1.00  0.00    -0.347 C  
BRANCH  12  13
HETATM   13  C   UNL     2     -11.104  14.188  69.063  1.00  0.00    -0.263 C  
BRANCH  13  14
HETATM   14  O   UNL     2     -11.196  14.046  70.484  1.00  0.00     0.013 OA 
BRANCH  14  15
HETATM   15  C   UNL     2     -12.208  14.747  71.082  1.00  0.00    -0.325 C  
HETATM   16  O   UNL     2     -13.348  14.813  70.631  1.00  0.00    -0.320 OA 
BRANCH  15  17
HETATM   17  C   UNL     2     -11.702  15.538  72.234  1.00  0.00    -0.482 C  
HETATM   18  S   UNL     2     -12.951  15.721  73.454  1.00  0.00    -0.604 S  
HETATM   19  O   UNL     2     -14.031  16.421  72.763  1.00  0.00    -0.009 OA 
HETATM   20  O   UNL     2     -12.272  16.516  74.477  1.00  0.00    -0.626 OA 
HETATM   21  O   UNL     2     -13.263  14.352  73.862  1.00  0.00    -0.010 OA 
ENDBRANCH  15  17
ENDBRANCH  14  15
ENDBRANCH  13  14
ENDBRANCH  12  13
ENDBRANCH  11  12
ENDBRANCH  10  11
ENDBRANCH   9  10
ENDBRANCH   8   9
ENDBRANCH   7   8
ENDBRANCH   6   7
ENDBRANCH   5   6
ENDBRANCH   4   5
ENDBRANCH   3   4
TORSDOF 13
ENDMDL
MODEL      388
REMARK 921   NORMALIZED FREE ENERGY PREDICTED BY IDOCK:   -2.36 KCAL/MOL
REMARK 922        TOTAL FREE ENERGY PREDICTED BY IDOCK:   -5.72 KCAL/MOL
REMARK 923 INTER-LIGAND FREE ENERGY PREDICTED BY IDOCK:   -4.52 KCAL/MOL
REMARK 924 INTRA-LIGAND FREE ENERGY PREDICTED BY IDOCK:   -1.21 KCAL/MOL
REMARK 927      BINDING AFFINITY PREDICTED BY RF-SCORE:    0.00 PKD
ROOT
HETATM    1 NA   UNL     1     -10.073   5.360  63.031  1.00  0.00    -0.335 Na 
HETATM    2  C   UNL     2      -9.196   5.850  65.938  1.00  0.00    -0.108 C  
HETATM    3  C   UNL     2     -10.450   6.042  66.774  1.00  0.00    -0.329 C  
ENDROOT
BRANCH   3   4
HETATM    4  C   UNL     2     -10.498   5.029  67.913  1.00  0.00    -0.037 C  
BRANCH   4   5
HETATM    5  C   UNL     2      -9.606   3.823  67.630  1.00  0.00    -0.199 C  
BRANCH   5   6
HETATM    6  C   UNL     2      -8.567   3.661  68.737  1.00  0.00    -0.118 C  
BRANCH   6   7
HETATM    7  C   UNL     2      -9.121   4.107  70.086  1.00  0.00    -0.181 C  
BRANCH   7   8
HETATM    8  C   UNL     2      -8.161   5.080  70.764  1.00  0.00    -0.095 C  
BRANCH   8   9
HETATM    9  C   UNL     2      -8.914   6.274  71.339  1.00  0.00    -0.139 C  
BRANCH   9  10
HETATM   10  C   UNL     2      -8.657   7.531  70.512  1.00  0.00    -0.138 C  
BRANCH  10  11
HETATM   11  C   UNL     2      -9.946   8.017  69.859  1.00  0.00    -0.189 C  
BRANCH  11  12
HETATM   12  C   UNL     2      -9.673   9.142  68.867  1.00  0.00    -0.165 C  
BRANCH  12  13
HETATM   13  C   UNL     2     -10.890  10.051  68.728  1.00  0.00    -0.219 C  
BRANCH  13  14
HETATM   14  O   UNL     2     -10.554  11.394  69.090  1.00  0.00    -0.211 OA 
BRANCH  14  15
HETATM   15  C   UNL     2     -11.587  12.151  69.572  1.00  0.00    -0.315 C  
HETATM   16  O   UNL     2     -12.211  11.876  70.593  1.00  0.00    -0.371 OA 
BRANCH  15  17
HETATM   17  C   UNL     2     -11.950  13.229  68.617  1.00  0.00    -0.310 C  
HETATM   18  S   UNL     2     -11.068  14.702  68.985  1.00  0.00    -0.271 S  
HETATM   19  O   UNL     2     -11.479  15.039  70.346  1.00  0.00    -0.252 OA 
HETATM   20  O   UNL     2     -11.559  15.623  67.960  1.00  0.00    -0.332 OA 
HETATM   21  O   UNL     2      -9.662  14.330  68.837  1.00  0.00    -0.201 OA 
ENDBRANCH  15  17
ENDBRANCH  14  15
ENDBRANCH  13  14
ENDBRANCH  12  13
ENDBRANCH  11  12
ENDBRANCH  10  11
ENDBRANCH   9  10
ENDBRANCH   8   9
ENDBRANCH   7   8
ENDBRANCH   6   7
ENDBRANCH   5   6
ENDBRANCH   4   5
ENDBRANCH   3   4
TORSDOF 13
ENDMDL
MODEL      389
REMARK 921   NORMALIZED FREE ENERGY PREDICTED BY IDOCK:   -2.36 KCAL/MOL
REMARK 922        TOTAL FREE ENERGY PREDICTED BY IDOCK:   -5.72 KCAL/MOL
REMARK 923 INTER-LIGAND FREE ENERGY PREDICTED BY IDOCK:   -4.89 KCAL/MOL
REMARK 924 INTRA-LIGAND FREE ENERGY PREDICTED BY IDOCK:   -0.83 KCAL/MOL
REMARK 927      BINDING AFFINITY PREDICTED BY RF-SCORE:    0.00 PKD
ROOT
HETATM    1 NA   UNL     1      -5.598  15.168  72.109  1.00  0.00    -0.129 Na 
HETATM    2  C   UNL     2      -6.533  15.280  69.181  1.00  0.00    -0.122 C  
HETATM    3  C   UNL     2      -6.174  13.955  68.529  1.00  0.00    -0.093 C  
ENDROOT
BRANCH   3   4
HETATM    4  C   UNL     2      -7.417  13.284  67.954  1.00  0.00    -0.143 C  
BRANCH   4   5
HETATM    5  C   UNL     2      -8.646  14.181  68.073  1.00  0.00    -0.172 C  
BRANCH   5   6
HETATM    6  C   UNL     2      -9.224  14.475  66.691  1.00  0.00    -0.290 C  
BRANCH   6   7
HETATM    7  C   UNL     2     -10.461  13.629  66.417  1.00  0.00    -0.288 C  
BRANCH   7   8
HETATM    8  C   UNL     2     -10.160  12.562  65.368  1.00  0.00    -0.284 C  
BRANCH   8   9
HETATM    9  C   UNL     2     -10.210  11.167  65.981  1.00  0.00    -0.300 C  
BRANCH   9  10
HETATM   10  C   UNL     2      -8.816  10.548  66.044  1.00  0.00    -0.179 C  
BRANCH  10  11
HETATM   11  C   UNL     2      -8.817   9.310  66.934  1.00  0.00    -0.141 C  
BRANCH  11  12
HETATM   12  C   UNL     2      -8.915   9.690  68.407  1.00  0.00    -0.123 C  
BRANCH  12  13
HETATM   13  C   UNL     2     -10.332   9.477  68.930  1.00  0.00    -0.208 C  
BRANCH  13  14
HETATM   14  O   UNL     2     -10.460  10.003  70.254  1.00  0.00    -0.274 OA 
BRANCH  14  15
HETATM   15  C   UNL     2     -11.256   9.281  71.101  1.00  0.00    -0.343 C  
HETATM   16  O   UNL     2     -12.370   9.648  71.465  1.00  0.00    -0.338 OA 
BRANCH  15  17
HETATM   17  C   UNL     2     -10.530   8.103  71.642  1.00  0.00    -0.228 C  
HETATM   18  S   UNL     2     -11.427   6.626  71.325  1.00  0.00    -0.327 S  
HETATM   19  O   UNL     2     -12.702   6.824  72.009  1.00  0.00    -0.301 OA 
HETATM   20  O   UNL     2     -10.569   5.606  71.926  1.00  0.00    -0.218 OA 
HETATM   21  O   UNL     2     -11.511   6.559  69.866  1.00  0.00    -0.390 OA 
ENDBRANCH  15  17
ENDBRANCH  14  15
ENDBRANCH  13  14
ENDBRANCH  12  13
ENDBRANCH  11  12
ENDBRANCH  10  11
ENDBRANCH   9  10
ENDBRANCH   8   9
ENDBRANCH   7   8
ENDBRANCH   6   7
ENDBRANCH   5   6
ENDBRANCH   4   5
ENDBRANCH   3   4
TORSDOF 13
ENDMDL
MODEL      390
REMARK 921   NORMALIZED FREE ENERGY PREDICTED BY IDOCK:   -2.35 KCAL/MOL
REMARK 922        TOTAL FREE ENERGY PREDICTED BY IDOCK:   -5.71 KCAL/MOL
REMARK 923 INTER-LIGAND FREE ENERGY PREDICTED BY IDOCK:   -5.84 KCAL/MOL
REMARK 924 INTRA-LIGAND FREE ENERGY PREDICTED BY IDOCK:    0.14 KCAL/MOL
REMARK 927      BINDING AFFINITY PREDICTED BY RF-SCORE:    0.00 PKD
ROOT
HETATM    1 NA   UNL     1      -6.202   7.563  72.926  1.00  0.00    -0.053 Na 
HETATM    2  C   UNL     2      -8.398   5.462  73.394  1.00  0.00    -0.114 C  
HETATM    3  C   UNL     2      -9.675   6.199  73.763  1.00  0.00    -0.183 C  
ENDROOT
BRANCH   3   4
HETATM    4  C   UNL     2     -10.801   5.842  72.798  1.00  0.00    -0.289 C  
BRANCH   4   5
HETATM    5  C   UNL     2     -10.520   6.362  71.391  1.00  0.00    -0.257 C  
BRANCH   5   6
HETATM    6  C   UNL     2     -11.122   7.753  71.210  1.00  0.00    -0.271 C  
BRANCH   6   7
HETATM    7  C   UNL     2     -10.073   8.841  71.410  1.00  0.00    -0.354 C  
BRANCH   7   8
HETATM    8  C   UNL     2      -9.554   9.339  70.065  1.00  0.00    -0.235 C  
BRANCH   8   9
HETATM    9  C   UNL     2     -10.465   8.886  68.929  1.00  0.00    -0.225 C  
BRANCH   9  10
HETATM   10  C   UNL     2     -11.128  10.083  68.252  1.00  0.00    -0.247 C  
BRANCH  10  11
HETATM   11  C   UNL     2     -10.888  11.356  69.057  1.00  0.00    -0.265 C  
BRANCH  11  12
HETATM   12  C   UNL     2     -11.500  12.570  68.367  1.00  0.00    -0.355 C  
BRANCH  12  13
HETATM   13  C   UNL     2     -11.748  12.285  66.889  1.00  0.00    -0.334 C  
BRANCH  13  14
HETATM   14  O   UNL     2     -11.245  13.356  66.084  1.00  0.00    -0.291 OA 
BRANCH  14  15
HETATM   15  C   UNL     2     -11.882  13.543  64.887  1.00  0.00    -0.374 C  
HETATM   16  O   UNL     2     -12.224  12.624  64.148  1.00  0.00    -0.400 OA 
BRANCH  15  17
HETATM   17  C   UNL     2     -11.944  14.985  64.535  1.00  0.00    -0.371 C  
HETATM   18  S   UNL     2     -10.621  15.861  65.287  1.00  0.00    -0.376 S  
HETATM   19  O   UNL     2     -10.819  15.655  66.719  1.00  0.00    -0.317 OA 
HETATM   20  O   UNL     2     -10.859  17.231  64.834  1.00  0.00    -0.773 OA 
HETATM   21  O   UNL     2      -9.417  15.244  64.733  1.00  0.00     0.241 OA 
ENDBRANCH  15  17
ENDBRANCH  14  15
ENDBRANCH  13  14
ENDBRANCH  12  13
ENDBRANCH  11  12
ENDBRANCH  10  11
ENDBRANCH   9  10
ENDBRANCH   8   9
ENDBRANCH   7   8
ENDBRANCH   6   7
ENDBRANCH   5   6
ENDBRANCH   4   5
ENDBRANCH   3   4
TORSDOF 13
ENDMDL
MODEL      391
REMARK 921   NORMALIZED FREE ENERGY PREDICTED BY IDOCK:   -2.34 KCAL/MOL
REMARK 922        TOTAL FREE ENERGY PREDICTED BY IDOCK:   -5.68 KCAL/MOL
REMARK 923 INTER-LIGAND FREE ENERGY PREDICTED BY IDOCK:   -5.05 KCAL/MOL
REMARK 924 INTRA-LIGAND FREE ENERGY PREDICTED BY IDOCK:   -0.63 KCAL/MOL
REMARK 927      BINDING AFFINITY PREDICTED BY RF-SCORE:    0.00 PKD
ROOT
HETATM    1 NA   UNL     1      -6.257   2.441  63.722  1.00  0.00    -0.011 Na 
HETATM    2  C   UNL     2      -7.710   4.780  65.094  1.00  0.00    -0.086 C  
HETATM    3  C   UNL     2      -9.200   4.606  64.853  1.00  0.00    -0.144 C  
ENDROOT
BRANCH   3   4
HETATM    4  C   UNL     2      -9.956   4.545  66.175  1.00  0.00    -0.267 C  
BRANCH   4   5
HETATM    5  C   UNL     2      -9.022   4.237  67.343  1.00  0.00    -0.134 C  
BRANCH   5   6
HETATM    6  C   UNL     2      -9.775   4.344  68.666  1.00  0.00    -0.190 C  
BRANCH   6   7
HETATM    7  C   UNL     2     -10.078   5.797  69.016  1.00  0.00    -0.249 C  
BRANCH   7   8
HETATM    8  C   UNL     2      -8.844   6.669  68.798  1.00  0.00    -0.126 C  
BRANCH   8   9
HETATM    9  C   UNL     2      -8.944   7.960  69.601  1.00  0.00    -0.146 C  
BRANCH   9  10
HETATM   10  C   UNL     2      -8.974   9.176  68.678  1.00  0.00    -0.136 C  
BRANCH  10  11
HETATM   11  C   UNL     2     -10.007  10.189  69.159  1.00  0.00    -0.221 C  
BRANCH  11  12
HETATM   12  C   UNL     2     -11.271  10.137  68.307  1.00  0.00    -0.246 C  
BRANCH  12  13
HETATM   13  C   UNL     2     -11.243  11.216  67.230  1.00  0.00    -0.277 C  
BRANCH  13  14
HETATM   14  O   UNL     2     -10.256  12.204  67.539  1.00  0.00    -0.196 OA 
BRANCH  14  15
HETATM   15  C   UNL     2      -9.805  12.940  66.477  1.00  0.00    -0.254 C  
HETATM   16  O   UNL     2      -8.887  13.753  66.554  1.00  0.00    -0.129 OA 
BRANCH  15  17
HETATM   17  C   UNL     2     -10.675  12.749  65.288  1.00  0.00    -0.294 C  
HETATM   18  S   UNL     2     -11.758  14.117  65.088  1.00  0.00    -0.380 S  
HETATM   19  O   UNL     2     -12.541  14.140  66.321  1.00  0.00    -0.449 OA 
HETATM   20  O   UNL     2     -12.516  13.742  63.896  1.00  0.00    -0.695 OA 
HETATM   21  O   UNL     2     -10.866  15.261  64.900  1.00  0.00    -0.415 OA 
ENDBRANCH  15  17
ENDBRANCH  14  15
ENDBRANCH  13  14
ENDBRANCH  12  13
ENDBRANCH  11  12
ENDBRANCH  10  11
ENDBRANCH   9  10
ENDBRANCH   8   9
ENDBRANCH   7   8
ENDBRANCH   6   7
ENDBRANCH   5   6
ENDBRANCH   4   5
ENDBRANCH   3   4
TORSDOF 13
ENDMDL
MODEL      392
REMARK 921   NORMALIZED FREE ENERGY PREDICTED BY IDOCK:   -2.33 KCAL/MOL
REMARK 922        TOTAL FREE ENERGY PREDICTED BY IDOCK:   -5.66 KCAL/MOL
REMARK 923 INTER-LIGAND FREE ENERGY PREDICTED BY IDOCK:   -4.85 KCAL/MOL
REMARK 924 INTRA-LIGAND FREE ENERGY PREDICTED BY IDOCK:   -0.81 KCAL/MOL
REMARK 927      BINDING AFFINITY PREDICTED BY RF-SCORE:    0.00 PKD
ROOT
HETATM    1 NA   UNL     1      -7.772  12.889  69.483  1.00  0.00    -0.301 Na 
HETATM    2  C   UNL     2      -5.913  11.907  67.239  1.00  0.00    -0.134 C  
HETATM    3  C   UNL     2      -5.314  10.582  67.679  1.00  0.00    -0.043 C  
ENDROOT
BRANCH   3   4
HETATM    4  C   UNL     2      -5.627   9.486  66.665  1.00  0.00    -0.046 C  
BRANCH   4   5
HETATM    5  C   UNL     2      -7.077   9.022  66.769  1.00  0.00    -0.082 C  
BRANCH   5   6
HETATM    6  C   UNL     2      -7.231   8.018  67.908  1.00  0.00    -0.091 C  
BRANCH   6   7
HETATM    7  C   UNL     2      -8.630   7.413  67.929  1.00  0.00    -0.125 C  
BRANCH   7   8
HETATM    8  C   UNL     2      -9.558   8.178  66.988  1.00  0.00    -0.253 C  
BRANCH   8   9
HETATM    9  C   UNL     2     -10.625   8.933  67.773  1.00  0.00    -0.266 C  
BRANCH   9  10
HETATM   10  C   UNL     2      -9.993   9.792  68.865  1.00  0.00    -0.183 C  
BRANCH  10  11
HETATM   11  C   UNL     2     -11.040  10.211  69.892  1.00  0.00    -0.346 C  
BRANCH  11  12
HETATM   12  C   UNL     2     -12.006  11.236  69.308  1.00  0.00    -0.411 C  
BRANCH  12  13
HETATM   13  C   UNL     2     -11.467  12.652  69.486  1.00  0.00    -0.225 C  
BRANCH  13  14
HETATM   14  O   UNL     2     -12.284  13.589  68.778  1.00  0.00    -0.317 OA 
BRANCH  14  15
HETATM   15  C   UNL     2     -11.643  14.325  67.819  1.00  0.00    -0.354 C  
HETATM   16  O   UNL     2     -12.130  14.581  66.721  1.00  0.00    -0.395 OA 
BRANCH  15  17
HETATM   17  C   UNL     2     -10.242  14.616  68.217  1.00  0.00    -0.227 C  
HETATM   18  S   UNL     2      -9.947  16.347  68.221  1.00  0.00    -0.252 S  
HETATM   19  O   UNL     2     -10.205  16.761  66.845  1.00  0.00    -0.279 OA 
HETATM   20  O   UNL     2      -8.544  16.423  68.624  1.00  0.00    -0.213 OA 
HETATM   21  O   UNL     2     -10.887  16.872  69.211  1.00  0.00    -0.311 OA 
ENDBRANCH  15  17
ENDBRANCH  14  15
ENDBRANCH  13  14
ENDBRANCH  12  13
ENDBRANCH  11  12
ENDBRANCH  10  11
ENDBRANCH   9  10
ENDBRANCH   8   9
ENDBRANCH   7   8
ENDBRANCH   6   7
ENDBRANCH   5   6
ENDBRANCH   4   5
ENDBRANCH   3   4
TORSDOF 13
ENDMDL
MODEL      393
REMARK 921   NORMALIZED FREE ENERGY PREDICTED BY IDOCK:   -2.32 KCAL/MOL
REMARK 922        TOTAL FREE ENERGY PREDICTED BY IDOCK:   -5.65 KCAL/MOL
REMARK 923 INTER-LIGAND FREE ENERGY PREDICTED BY IDOCK:   -4.59 KCAL/MOL
REMARK 924 INTRA-LIGAND FREE ENERGY PREDICTED BY IDOCK:   -1.06 KCAL/MOL
REMARK 927      BINDING AFFINITY PREDICTED BY RF-SCORE:    0.00 PKD
ROOT
HETATM    1 NA   UNL     1      -7.335   5.129  63.727  1.00  0.00    -0.043 Na 
HETATM    2  C   UNL     2      -6.935   8.122  63.142  1.00  0.00    -0.086 C  
HETATM    3  C   UNL     2      -8.273   8.816  63.334  1.00  0.00    -0.170 C  
ENDROOT
BRANCH   3   4
HETATM    4  C   UNL     2      -8.159   9.928  64.370  1.00  0.00    -0.157 C  
BRANCH   4   5
HETATM    5  C   UNL     2      -9.173   9.754  65.497  1.00  0.00    -0.270 C  
BRANCH   5   6
HETATM    6  C   UNL     2      -8.458   9.588  66.835  1.00  0.00    -0.128 C  
BRANCH   6   7
HETATM    7  C   UNL     2      -9.301   8.784  67.818  1.00  0.00    -0.157 C  
BRANCH   7   8
HETATM    8  C   UNL     2     -10.704   9.374  67.928  1.00  0.00    -0.269 C  
BRANCH   8   9
HETATM    9  C   UNL     2     -10.908  10.042  69.283  1.00  0.00    -0.261 C  
BRANCH   9  10
HETATM   10  C   UNL     2     -11.552  11.417  69.122  1.00  0.00    -0.381 C  
BRANCH  10  11
HETATM   11  C   UNL     2     -10.499  12.466  68.778  1.00  0.00    -0.179 C  
BRANCH  11  12
HETATM   12  C   UNL     2     -10.761  13.082  67.408  1.00  0.00    -0.256 C  
BRANCH  12  13
HETATM   13  C   UNL     2     -10.487  14.582  67.427  1.00  0.00    -0.264 C  
BRANCH  13  14
HETATM   14  O   UNL     2      -9.353  14.893  66.612  1.00  0.00    -0.237 OA 
BRANCH  14  15
HETATM   15  C   UNL     2      -8.145  14.887  67.254  1.00  0.00    -0.208 C  
HETATM   16  O   UNL     2      -7.457  13.880  67.399  1.00  0.00    -0.177 OA 
BRANCH  15  17
HETATM   17  C   UNL     2      -7.871  16.203  67.886  1.00  0.00    -0.141 C  
HETATM   18  S   UNL     2      -6.878  17.199  66.835  1.00  0.00    -0.231 S  
HETATM   19  O   UNL     2      -5.650  16.427  66.661  1.00  0.00    -0.328 OA 
HETATM   20  O   UNL     2      -6.719  18.420  67.622  1.00  0.00    -0.195 OA 
HETATM   21  O   UNL     2      -7.682  17.363  65.625  1.00  0.00    -0.452 OA 
ENDBRANCH  15  17
ENDBRANCH  14  15
ENDBRANCH  13  14
ENDBRANCH  12  13
ENDBRANCH  11  12
ENDBRANCH  10  11
ENDBRANCH   9  10
ENDBRANCH   8   9
ENDBRANCH   7   8
ENDBRANCH   6   7
ENDBRANCH   5   6
ENDBRANCH   4   5
ENDBRANCH   3   4
TORSDOF 13
ENDMDL
MODEL      394
REMARK 921   NORMALIZED FREE ENERGY PREDICTED BY IDOCK:   -2.31 KCAL/MOL
REMARK 922        TOTAL FREE ENERGY PREDICTED BY IDOCK:   -5.64 KCAL/MOL
REMARK 923 INTER-LIGAND FREE ENERGY PREDICTED BY IDOCK:   -5.06 KCAL/MOL
REMARK 924 INTRA-LIGAND FREE ENERGY PREDICTED BY IDOCK:   -0.57 KCAL/MOL
REMARK 927      BINDING AFFINITY PREDICTED BY RF-SCORE:    0.00 PKD
ROOT
HETATM    1 NA   UNL     1     -12.180  16.931  71.975  1.00  0.00    -0.527 Na 
HETATM    2  C   UNL     2     -13.199  14.399  70.558  1.00  0.00    -0.094 C  
HETATM    3  C   UNL     2     -12.263  13.258  70.917  1.00  0.00    -0.346 C  
ENDROOT
BRANCH   3   4
HETATM    4  C   UNL     2     -13.034  12.112  71.564  1.00  0.00    -0.398 C  
BRANCH   4   5
HETATM    5  C   UNL     2     -12.881  10.815  70.774  1.00  0.00    -0.408 C  
BRANCH   5   6
HETATM    6  C   UNL     2     -12.678   9.637  71.723  1.00  0.00    -0.510 C  
BRANCH   6   7
HETATM    7  C   UNL     2     -11.432   8.839  71.357  1.00  0.00    -0.366 C  
BRANCH   7   8
HETATM    8  C   UNL     2     -11.815   7.462  70.822  1.00  0.00    -0.288 C  
BRANCH   8   9
HETATM    9  C   UNL     2     -11.036   6.365  71.538  1.00  0.00    -0.322 C  
BRANCH   9  10
HETATM   10  C   UNL     2     -10.420   5.392  70.536  1.00  0.00    -0.335 C  
BRANCH  10  11
HETATM   11  C   UNL     2      -8.951   5.145  70.863  1.00  0.00    -0.162 C  
BRANCH  11  12
HETATM   12  C   UNL     2      -8.217   6.454  71.130  1.00  0.00    -0.122 C  
BRANCH  12  13
HETATM   13  C   UNL     2      -7.544   6.968  69.861  1.00  0.00    -0.102 C  
BRANCH  13  14
HETATM   14  O   UNL     2      -8.486   7.023  68.785  1.00  0.00    -0.121 OA 
BRANCH  14  15
HETATM   15  C   UNL     2      -8.324   8.064  67.913  1.00  0.00    -0.129 C  
HETATM   16  O   UNL     2      -7.379   8.158  67.135  1.00  0.00    -0.085 OA 
BRANCH  15  17
HETATM   17  C   UNL     2      -9.336   9.125  68.154  1.00  0.00    -0.138 C  
HETATM   18  S   UNL     2      -8.555  10.673  68.430  1.00  0.00    -0.140 S  
HETATM   19  O   UNL     2      -7.724  10.453  69.611  1.00  0.00    -0.153 OA 
HETATM   20  O   UNL     2      -9.695  11.562  68.649  1.00  0.00    -0.197 OA 
HETATM   21  O   UNL     2      -7.817  10.932  67.194  1.00  0.00    -0.118 OA 
ENDBRANCH  15  17
ENDBRANCH  14  15
ENDBRANCH  13  14
ENDBRANCH  12  13
ENDBRANCH  11  12
ENDBRANCH  10  11
ENDBRANCH   9  10
ENDBRANCH   8   9
ENDBRANCH   7   8
ENDBRANCH   6   7
ENDBRANCH   5   6
ENDBRANCH   4   5
ENDBRANCH   3   4
TORSDOF 13
ENDMDL
MODEL      395
REMARK 921   NORMALIZED FREE ENERGY PREDICTED BY IDOCK:   -2.30 KCAL/MOL
REMARK 922        TOTAL FREE ENERGY PREDICTED BY IDOCK:   -5.61 KCAL/MOL
REMARK 923 INTER-LIGAND FREE ENERGY PREDICTED BY IDOCK:   -4.66 KCAL/MOL
REMARK 924 INTRA-LIGAND FREE ENERGY PREDICTED BY IDOCK:   -0.95 KCAL/MOL
REMARK 927      BINDING AFFINITY PREDICTED BY RF-SCORE:    0.00 PKD
ROOT
HETATM    1 NA   UNL     1      -7.070   4.782  63.638  1.00  0.00    -0.040 Na 
HETATM    2  C   UNL     2      -6.573   7.719  62.875  1.00  0.00    -0.075 C  
HETATM    3  C   UNL     2      -7.858   8.489  63.131  1.00  0.00    -0.149 C  
ENDROOT
BRANCH   3   4
HETATM    4  C   UNL     2      -7.612   9.642  64.099  1.00  0.00    -0.128 C  
BRANCH   4   5
HETATM    5  C   UNL     2      -8.300   9.406  65.440  1.00  0.00    -0.143 C  
BRANCH   5   6
HETATM    6  C   UNL     2      -7.445   9.956  66.579  1.00  0.00    -0.100 C  
BRANCH   6   7
HETATM    7  C   UNL     2      -7.287   8.932  67.697  1.00  0.00    -0.085 C  
BRANCH   7   8
HETATM    8  C   UNL     2      -8.566   8.116  67.861  1.00  0.00    -0.132 C  
BRANCH   8   9
HETATM    9  C   UNL     2      -9.189   8.353  69.232  1.00  0.00    -0.154 C  
BRANCH   9  10
HETATM   10  C   UNL     2     -10.531   9.069  69.104  1.00  0.00    -0.239 C  
BRANCH  10  11
HETATM   11  C   UNL     2     -10.324  10.530  68.716  1.00  0.00    -0.208 C  
BRANCH  11  12
HETATM   12  C   UNL     2     -11.656  11.226  68.460  1.00  0.00    -0.384 C  
BRANCH  12  13
HETATM   13  C   UNL     2     -11.787  12.479  69.320  1.00  0.00    -0.304 C  
BRANCH  13  14
HETATM   14  O   UNL     2     -10.953  13.524  68.811  1.00  0.00    -0.248 OA 
BRANCH  14  15
HETATM   15  C   UNL     2     -11.610  14.572  68.226  1.00  0.00    -0.329 C  
HETATM   16  O   UNL     2     -12.144  15.477  68.861  1.00  0.00    -0.311 OA 
BRANCH  15  17
HETATM   17  C   UNL     2     -11.732  14.374  66.759  1.00  0.00    -0.397 C  
HETATM   18  S   UNL     2     -10.400  15.150  65.918  1.00  0.00    -0.354 S  
HETATM   19  O   UNL     2     -10.520  16.561  66.275  1.00  0.00    -0.308 OA 
HETATM   20  O   UNL     2     -10.700  14.853  64.518  1.00  0.00    -0.301 OA 
HETATM   21  O   UNL     2      -9.207  14.480  66.434  1.00  0.00    -0.274 OA 
ENDBRANCH  15  17
ENDBRANCH  14  15
ENDBRANCH  13  14
ENDBRANCH  12  13
ENDBRANCH  11  12
ENDBRANCH  10  11
ENDBRANCH   9  10
ENDBRANCH   8   9
ENDBRANCH   7   8
ENDBRANCH   6   7
ENDBRANCH   5   6
ENDBRANCH   4   5
ENDBRANCH   3   4
TORSDOF 13
ENDMDL
MODEL      396
REMARK 921   NORMALIZED FREE ENERGY PREDICTED BY IDOCK:   -2.30 KCAL/MOL
REMARK 922        TOTAL FREE ENERGY PREDICTED BY IDOCK:   -5.60 KCAL/MOL
REMARK 923 INTER-LIGAND FREE ENERGY PREDICTED BY IDOCK:   -4.32 KCAL/MOL
REMARK 924 INTRA-LIGAND FREE ENERGY PREDICTED BY IDOCK:   -1.28 KCAL/MOL
REMARK 927      BINDING AFFINITY PREDICTED BY RF-SCORE:    0.00 PKD
ROOT
HETATM    1 NA   UNL     1     -13.985  10.214  73.112  1.00  0.00    -0.624 Na 
HETATM    2  C   UNL     2     -12.066  10.150  70.710  1.00  0.00    -0.438 C  
HETATM    3  C   UNL     2     -11.095   9.001  70.923  1.00  0.00    -0.343 C  
ENDROOT
BRANCH   3   4
HETATM    4  C   UNL     2     -11.150   8.025  69.752  1.00  0.00    -0.067 C  
BRANCH   4   5
HETATM    5  C   UNL     2     -11.434   6.601  70.220  1.00  0.00    -0.449 C  
BRANCH   5   6
HETATM    6  C   UNL     2     -12.237   6.620  71.518  1.00  0.00    -0.391 C  
BRANCH   6   7
HETATM    7  C   UNL     2     -11.553   5.798  72.604  1.00  0.00    -0.304 C  
BRANCH   7   8
HETATM    8  C   UNL     2     -10.297   5.126  72.056  1.00  0.00    -0.274 C  
BRANCH   8   9
HETATM    9  C   UNL     2      -9.044   5.711  72.697  1.00  0.00    -0.132 C  
BRANCH   9  10
HETATM   10  C   UNL     2      -7.798   4.947  72.256  1.00  0.00    -0.099 C  
BRANCH  10  11
HETATM   11  C   UNL     2      -6.923   5.819  71.361  1.00  0.00    -0.071 C  
BRANCH  11  12
HETATM   12  C   UNL     2      -7.721   6.972  70.763  1.00  0.00    -0.095 C  
BRANCH  12  13
HETATM   13  C   UNL     2      -7.554   7.019  69.248  1.00  0.00    -0.096 C  
BRANCH  13  14
HETATM   14  O   UNL     2      -6.976   5.800  68.772  1.00  0.00    -0.063 OA 
BRANCH  14  15
HETATM   15  C   UNL     2      -7.817   4.985  68.063  1.00  0.00    -0.087 C  
HETATM   16  O   UNL     2      -8.654   4.254  68.585  1.00  0.00    -0.090 OA 
BRANCH  15  17
HETATM   17  C   UNL     2      -7.465   4.981  66.620  1.00  0.00    -0.087 C  
HETATM   18  S   UNL     2      -8.829   5.512  65.650  1.00  0.00    -0.136 S  
HETATM   19  O   UNL     2      -9.880   4.541  65.942  1.00  0.00    -0.185 OA 
HETATM   20  O   UNL     2      -8.294   5.434  64.291  1.00  0.00    -0.133 OA 
HETATM   21  O   UNL     2      -9.096   6.873  66.115  1.00  0.00    -0.159 OA 
ENDBRANCH  15  17
ENDBRANCH  14  15
ENDBRANCH  13  14
ENDBRANCH  12  13
ENDBRANCH  11  12
ENDBRANCH  10  11
ENDBRANCH   9  10
ENDBRANCH   8   9
ENDBRANCH   7   8
ENDBRANCH   6   7
ENDBRANCH   5   6
ENDBRANCH   4   5
ENDBRANCH   3   4
TORSDOF 13
ENDMDL
MODEL      397
REMARK 921   NORMALIZED FREE ENERGY PREDICTED BY IDOCK:   -2.28 KCAL/MOL
REMARK 922        TOTAL FREE ENERGY PREDICTED BY IDOCK:   -5.57 KCAL/MOL
REMARK 923 INTER-LIGAND FREE ENERGY PREDICTED BY IDOCK:   -5.30 KCAL/MOL
REMARK 924 INTRA-LIGAND FREE ENERGY PREDICTED BY IDOCK:   -0.27 KCAL/MOL
REMARK 927      BINDING AFFINITY PREDICTED BY RF-SCORE:    0.00 PKD
ROOT
HETATM    1 NA   UNL     1      -5.678  19.462  66.243  1.00  0.00    -0.155 Na 
HETATM    2  C   UNL     2      -8.336  18.537  67.483  1.00  0.00    -0.267 C  
HETATM    3  C   UNL     2      -9.264  18.139  66.348  1.00  0.00    -0.267 C  
ENDROOT
BRANCH   3   4
HETATM    4  C   UNL     2      -9.727  16.695  66.512  1.00  0.00    -0.291 C  
BRANCH   4   5
HETATM    5  C   UNL     2     -10.739  16.304  65.439  1.00  0.00    -0.342 C  
BRANCH   5   6
HETATM    6  C   UNL     2     -10.879  14.786  65.370  1.00  0.00    -0.372 C  
BRANCH   6   7
HETATM    7  C   UNL     2     -10.980  14.174  66.763  1.00  0.00    -0.300 C  
BRANCH   7   8
HETATM    8  C   UNL     2      -9.731  13.357  67.081  1.00  0.00    -0.237 C  
BRANCH   8   9
HETATM    9  C   UNL     2      -9.897  12.600  68.394  1.00  0.00    -0.200 C  
BRANCH   9  10
HETATM   10  C   UNL     2     -10.687  11.311  68.183  1.00  0.00    -0.244 C  
BRANCH  10  11
HETATM   11  C   UNL     2     -11.655  11.080  69.339  1.00  0.00    -0.383 C  
BRANCH  11  12
HETATM   12  C   UNL     2     -11.303   9.813  70.110  1.00  0.00    -0.305 C  
BRANCH  12  13
HETATM   13  C   UNL     2      -9.801   9.548  70.060  1.00  0.00    -0.233 C  
BRANCH  13  14
HETATM   14  O   UNL     2      -9.353   8.985  71.296  1.00  0.00    -0.240 OA 
BRANCH  14  15
HETATM   15  C   UNL     2      -9.173   7.628  71.295  1.00  0.00    -0.145 C  
HETATM   16  O   UNL     2      -8.718   7.003  70.341  1.00  0.00    -0.144 OA 
BRANCH  15  17
HETATM   17  C   UNL     2      -9.753   7.013  72.517  1.00  0.00    -0.149 C  
HETATM   18  S   UNL     2     -11.039   5.895  72.094  1.00  0.00    -0.285 S  
HETATM   19  O   UNL     2     -12.022   6.721  71.398  1.00  0.00    -0.319 OA 
HETATM   20  O   UNL     2     -11.474   5.411  73.404  1.00  0.00    -0.221 OA 
HETATM   21  O   UNL     2     -10.383   4.884  71.266  1.00  0.00    -0.202 OA 
ENDBRANCH  15  17
ENDBRANCH  14  15
ENDBRANCH  13  14
ENDBRANCH  12  13
ENDBRANCH  11  12
ENDBRANCH  10  11
ENDBRANCH   9  10
ENDBRANCH   8   9
ENDBRANCH   7   8
ENDBRANCH   6   7
ENDBRANCH   5   6
ENDBRANCH   4   5
ENDBRANCH   3   4
TORSDOF 13
ENDMDL
MODEL      398
REMARK 921   NORMALIZED FREE ENERGY PREDICTED BY IDOCK:   -2.27 KCAL/MOL
REMARK 922        TOTAL FREE ENERGY PREDICTED BY IDOCK:   -5.57 KCAL/MOL
REMARK 923 INTER-LIGAND FREE ENERGY PREDICTED BY IDOCK:   -4.42 KCAL/MOL
REMARK 924 INTRA-LIGAND FREE ENERGY PREDICTED BY IDOCK:   -1.14 KCAL/MOL
REMARK 927      BINDING AFFINITY PREDICTED BY RF-SCORE:    0.00 PKD
ROOT
HETATM    1 NA   UNL     1     -10.140  11.693  69.946  1.00  0.00    -0.415 Na 
HETATM    2  C   UNL     2      -8.780  12.310  67.257  1.00  0.00    -0.188 C  
HETATM    3  C   UNL     2      -7.301  11.995  67.402  1.00  0.00    -0.150 C  
ENDROOT
BRANCH   3   4
HETATM    4  C   UNL     2      -6.864  10.972  66.358  1.00  0.00    -0.118 C  
BRANCH   4   5
HETATM    5  C   UNL     2      -7.956   9.942  66.089  1.00  0.00    -0.109 C  
BRANCH   5   6
HETATM    6  C   UNL     2      -7.390   8.760  65.305  1.00  0.00    -0.085 C  
BRANCH   6   7
HETATM    7  C   UNL     2      -7.045   7.598  66.229  1.00  0.00    -0.070 C  
BRANCH   7   8
HETATM    8  C   UNL     2      -7.641   6.297  65.698  1.00  0.00    -0.085 C  
BRANCH   8   9
HETATM    9  C   UNL     2      -9.100   6.157  66.118  1.00  0.00    -0.158 C  
BRANCH   9  10
HETATM   10  C   UNL     2      -9.241   6.240  67.636  1.00  0.00    -0.111 C  
BRANCH  10  11
HETATM   11  C   UNL     2     -10.712   6.252  68.038  1.00  0.00    -0.369 C  
BRANCH  11  12
HETATM   12  C   UNL     2     -10.893   5.785  69.478  1.00  0.00    -0.410 C  
BRANCH  12  13
HETATM   13  C   UNL     2     -11.733   6.783  70.270  1.00  0.00    -0.341 C  
BRANCH  13  14
HETATM   14  O   UNL     2     -11.101   8.066  70.284  1.00  0.00    -0.257 OA 
BRANCH  14  15
HETATM   15  C   UNL     2     -10.751   8.537  71.520  1.00  0.00    -0.261 C  
HETATM   16  O   UNL     2     -11.501   8.520  72.492  1.00  0.00    -0.371 OA 
BRANCH  15  17
HETATM   17  C   UNL     2      -9.428   9.214  71.478  1.00  0.00    -0.169 C  
HETATM   18  S   UNL     2      -8.175   8.158  72.108  1.00  0.00    -0.162 S  
HETATM   19  O   UNL     2      -8.588   7.887  73.482  1.00  0.00    -0.191 OA 
HETATM   20  O   UNL     2      -6.978   8.991  71.989  1.00  0.00    -0.292 OA 
HETATM   21  O   UNL     2      -8.193   7.000  71.216  1.00  0.00    -0.111 OA 
ENDBRANCH  15  17
ENDBRANCH  14  15
ENDBRANCH  13  14
ENDBRANCH  12  13
ENDBRANCH  11  12
ENDBRANCH  10  11
ENDBRANCH   9  10
ENDBRANCH   8   9
ENDBRANCH   7   8
ENDBRANCH   6   7
ENDBRANCH   5   6
ENDBRANCH   4   5
ENDBRANCH   3   4
TORSDOF 13
ENDMDL
MODEL      399
REMARK 921   NORMALIZED FREE ENERGY PREDICTED BY IDOCK:   -2.27 KCAL/MOL
REMARK 922        TOTAL FREE ENERGY PREDICTED BY IDOCK:   -5.56 KCAL/MOL
REMARK 923 INTER-LIGAND FREE ENERGY PREDICTED BY IDOCK:   -4.36 KCAL/MOL
REMARK 924 INTRA-LIGAND FREE ENERGY PREDICTED BY IDOCK:   -1.20 KCAL/MOL
REMARK 927      BINDING AFFINITY PREDICTED BY RF-SCORE:    0.00 PKD
ROOT
HETATM    1 NA   UNL     1     -10.649  11.855  65.087  1.00  0.00    -0.240 Na 
HETATM    2  C   UNL     2     -10.409   9.643  67.211  1.00  0.00    -0.310 C  
HETATM    3  C   UNL     2      -9.987   8.366  66.505  1.00  0.00    -0.335 C  
ENDROOT
BRANCH   3   4
HETATM    4  C   UNL     2      -8.691   7.825  67.099  1.00  0.00    -0.125 C  
BRANCH   4   5
HETATM    5  C   UNL     2      -7.660   7.520  66.016  1.00  0.00    -0.088 C  
BRANCH   5   6
HETATM    6  C   UNL     2      -6.463   8.458  66.145  1.00  0.00    -0.053 C  
BRANCH   6   7
HETATM    7  C   UNL     2      -6.780   9.841  65.587  1.00  0.00    -0.092 C  
BRANCH   7   8
HETATM    8  C   UNL     2      -6.116  10.924  66.432  1.00  0.00    -0.131 C  
BRANCH   8   9
HETATM    9  C   UNL     2      -6.404  10.710  67.914  1.00  0.00    -0.058 C  
BRANCH   9  10
HETATM   10  C   UNL     2      -7.209  11.875  68.486  1.00  0.00    -0.100 C  
BRANCH  10  11
HETATM   11  C   UNL     2      -7.446  12.938  67.419  1.00  0.00    -0.135 C  
BRANCH  11  12
HETATM   12  C   UNL     2      -8.925  13.041  67.061  1.00  0.00    -0.225 C  
BRANCH  12  13
HETATM   13  C   UNL     2      -9.350  14.499  66.924  1.00  0.00    -0.245 C  
BRANCH  13  14
HETATM   14  O   UNL     2     -10.711  14.583  66.493  1.00  0.00    -0.302 OA 
BRANCH  14  15
HETATM   15  C   UNL     2     -11.629  13.991  67.318  1.00  0.00    -0.369 C  
HETATM   16  O   UNL     2     -11.991  12.824  67.204  1.00  0.00    -0.372 OA 
BRANCH  15  17
HETATM   17  C   UNL     2     -12.239  14.985  68.238  1.00  0.00     0.069 C  
HETATM   18  S   UNL     2     -11.626  14.773  69.870  1.00  0.00    -0.303 S  
HETATM   19  O   UNL     2     -12.013  13.411  70.228  1.00  0.00    -0.331 OA 
HETATM   20  O   UNL     2     -12.336  15.818  70.607  1.00  0.00    -0.408 OA 
HETATM   21  O   UNL     2     -10.186  14.995  69.748  1.00  0.00    -0.207 OA 
ENDBRANCH  15  17
ENDBRANCH  14  15
ENDBRANCH  13  14
ENDBRANCH  12  13
ENDBRANCH  11  12
ENDBRANCH  10  11
ENDBRANCH   9  10
ENDBRANCH   8   9
ENDBRANCH   7   8
ENDBRANCH   6   7
ENDBRANCH   5   6
ENDBRANCH   4   5
ENDBRANCH   3   4
TORSDOF 13
ENDMDL
MODEL      400
REMARK 921   NORMALIZED FREE ENERGY PREDICTED BY IDOCK:   -2.24 KCAL/MOL
REMARK 922        TOTAL FREE ENERGY PREDICTED BY IDOCK:   -5.50 KCAL/MOL
REMARK 923 INTER-LIGAND FREE ENERGY PREDICTED BY IDOCK:   -3.89 KCAL/MOL
REMARK 924 INTRA-LIGAND FREE ENERGY PREDICTED BY IDOCK:   -1.62 KCAL/MOL
REMARK 927      BINDING AFFINITY PREDICTED BY RF-SCORE:    0.00 PKD
ROOT
HETATM    1 NA   UNL     1      -5.826   9.451  70.958  1.00  0.00    -0.033 Na 
HETATM    2  C   UNL     2      -6.241   7.168  68.939  1.00  0.00    -0.027 C  
HETATM    3  C   UNL     2      -7.530   7.445  68.184  1.00  0.00    -0.105 C  
ENDROOT
BRANCH   3   4
HETATM    4  C   UNL     2      -7.271   7.512  66.683  1.00  0.00    -0.083 C  
BRANCH   4   5
HETATM    5  C   UNL     2      -8.568   7.410  65.884  1.00  0.00    -0.165 C  
BRANCH   5   6
HETATM    6  C   UNL     2      -9.108   5.983  65.929  1.00  0.00    -0.117 C  
BRANCH   6   7
HETATM    7  C   UNL     2      -8.151   5.007  65.254  1.00  0.00    -0.117 C  
BRANCH   7   8
HETATM    8  C   UNL     2      -8.036   3.721  66.067  1.00  0.00    -0.100 C  
BRANCH   8   9
HETATM    9  C   UNL     2      -6.904   3.819  67.082  1.00  0.00    -0.051 C  
BRANCH   9  10
HETATM   10  C   UNL     2      -7.407   3.512  68.491  1.00  0.00    -0.050 C  
BRANCH  10  11
HETATM   11  C   UNL     2      -8.911   3.258  68.480  1.00  0.00    -0.185 C  
BRANCH  11  12
HETATM   12  C   UNL     2      -9.527   3.534  69.847  1.00  0.00    -0.254 C  
BRANCH  12  13
HETATM   13  C   UNL     2      -9.662   5.034  70.088  1.00  0.00    -0.210 C  
BRANCH  13  14
HETATM   14  O   UNL     2     -10.985   5.474  69.769  1.00  0.00    -0.310 OA 
BRANCH  14  15
HETATM   15  C   UNL     2     -11.454   6.522  70.513  1.00  0.00    -0.387 C  
HETATM   16  O   UNL     2     -12.646   6.723  70.729  1.00  0.00    -0.311 OA 
BRANCH  15  17
HETATM   17  C   UNL     2     -10.356   7.458  70.868  1.00  0.00    -0.200 C  
HETATM   18  S   UNL     2     -10.397   7.835  72.583  1.00  0.00    -0.321 S  
HETATM   19  O   UNL     2     -11.706   8.451  72.787  1.00  0.00    -0.367 OA 
HETATM   20  O   UNL     2      -9.267   8.753  72.726  1.00  0.00    -0.305 OA 
HETATM   21  O   UNL     2     -10.211   6.543  73.243  1.00  0.00    -0.191 OA 
ENDBRANCH  15  17
ENDBRANCH  14  15
ENDBRANCH  13  14
ENDBRANCH  12  13
ENDBRANCH  11  12
ENDBRANCH  10  11
ENDBRANCH   9  10
ENDBRANCH   8   9
ENDBRANCH   7   8
ENDBRANCH   6   7
ENDBRANCH   5   6
ENDBRANCH   4   5
ENDBRANCH   3   4
TORSDOF 13
ENDMDL
MODEL      401
REMARK 921   NORMALIZED FREE ENERGY PREDICTED BY IDOCK:   -2.22 KCAL/MOL
REMARK 922        TOTAL FREE ENERGY PREDICTED BY IDOCK:   -5.47 KCAL/MOL
REMARK 923 INTER-LIGAND FREE ENERGY PREDICTED BY IDOCK:   -4.75 KCAL/MOL
REMARK 924 INTRA-LIGAND FREE ENERGY PREDICTED BY IDOCK:   -0.73 KCAL/MOL
REMARK 927      BINDING AFFINITY PREDICTED BY RF-SCORE:    0.00 PKD
ROOT
HETATM    1 NA   UNL     1     -12.367  14.685  66.574  1.00  0.00    -0.371 Na 
HETATM    2  C   UNL     2     -12.018  12.084  68.178  1.00  0.00    -0.231 C  
HETATM    3  C   UNL     2     -11.457  12.451  69.541  1.00  0.00    -0.309 C  
ENDROOT
BRANCH   3   4
HETATM    4  C   UNL     2     -12.371  11.949  70.653  1.00  0.00    -0.405 C  
BRANCH   4   5
HETATM    5  C   UNL     2     -11.856  10.647  71.260  1.00  0.00    -0.257 C  
BRANCH   5   6
HETATM    6  C   UNL     2     -11.009   9.887  70.243  1.00  0.00    -0.366 C  
BRANCH   6   7
HETATM    7  C   UNL     2      -9.705   9.398  70.862  1.00  0.00    -0.320 C  
BRANCH   7   8
HETATM    8  C   UNL     2      -8.513   9.837  70.017  1.00  0.00    -0.229 C  
BRANCH   8   9
HETATM    9  C   UNL     2      -8.130   8.755  69.014  1.00  0.00    -0.116 C  
BRANCH   9  10
HETATM   10  C   UNL     2      -8.666   9.086  67.623  1.00  0.00    -0.124 C  
BRANCH  10  11
HETATM   11  C   UNL     2      -7.681   9.971  66.866  1.00  0.00    -0.096 C  
BRANCH  11  12
HETATM   12  C   UNL     2      -8.407  10.918  65.917  1.00  0.00    -0.149 C  
BRANCH  12  13
HETATM   13  C   UNL     2      -8.917  12.147  66.662  1.00  0.00    -0.198 C  
BRANCH  13  14
HETATM   14  O   UNL     2      -7.972  12.556  67.656  1.00  0.00    -0.145 OA 
BRANCH  14  15
HETATM   15  C   UNL     2      -7.898  13.904  67.880  1.00  0.00    -0.161 C  
HETATM   16  O   UNL     2      -6.936  14.452  68.410  1.00  0.00    -0.094 OA 
BRANCH  15  17
HETATM   17  C   UNL     2      -9.185  14.571  67.556  1.00  0.00    -0.194 C  
HETATM   18  S   UNL     2      -9.410  15.998  68.554  1.00  0.00    -0.222 S  
HETATM   19  O   UNL     2      -9.406  15.487  69.922  1.00  0.00    -0.240 OA 
HETATM   20  O   UNL     2     -10.707  16.496  68.098  1.00  0.00    -0.316 OA 
HETATM   21  O   UNL     2      -8.279  16.861  68.212  1.00  0.00    -0.205 OA 
ENDBRANCH  15  17
ENDBRANCH  14  15
ENDBRANCH  13  14
ENDBRANCH  12  13
ENDBRANCH  11  12
ENDBRANCH  10  11
ENDBRANCH   9  10
ENDBRANCH   8   9
ENDBRANCH   7   8
ENDBRANCH   6   7
ENDBRANCH   5   6
ENDBRANCH   4   5
ENDBRANCH   3   4
TORSDOF 13
ENDMDL
MODEL      402
REMARK 921   NORMALIZED FREE ENERGY PREDICTED BY IDOCK:   -2.21 KCAL/MOL
REMARK 922        TOTAL FREE ENERGY PREDICTED BY IDOCK:   -5.46 KCAL/MOL
REMARK 923 INTER-LIGAND FREE ENERGY PREDICTED BY IDOCK:   -4.98 KCAL/MOL
REMARK 924 INTRA-LIGAND FREE ENERGY PREDICTED BY IDOCK:   -0.48 KCAL/MOL
REMARK 927      BINDING AFFINITY PREDICTED BY RF-SCORE:    0.00 PKD
ROOT
HETATM    1 NA   UNL     1     -12.277  17.099  72.110  1.00  0.00    -0.520 Na 
HETATM    2  C   UNL     2     -13.020  14.602  70.476  1.00  0.00    -0.319 C  
HETATM    3  C   UNL     2     -12.202  13.438  71.010  1.00  0.00    -0.312 C  
ENDROOT
BRANCH   3   4
HETATM    4  C   UNL     2     -13.113  12.303  71.465  1.00  0.00    -0.356 C  
BRANCH   4   5
HETATM    5  C   UNL     2     -12.730  10.978  70.810  1.00  0.00    -0.414 C  
BRANCH   5   6
HETATM    6  C   UNL     2     -12.842   9.837  71.818  1.00  0.00    -0.530 C  
BRANCH   6   7
HETATM    7  C   UNL     2     -11.539   9.051  71.912  1.00  0.00    -0.441 C  
BRANCH   7   8
HETATM    8  C   UNL     2     -11.821   7.552  71.967  1.00  0.00    -0.331 C  
BRANCH   8   9
HETATM    9  C   UNL     2     -11.059   6.898  73.114  1.00  0.00    -0.239 C  
BRANCH   9  10
HETATM   10  C   UNL     2     -10.417   5.588  72.666  1.00  0.00    -0.257 C  
BRANCH  10  11
HETATM   11  C   UNL     2      -8.896   5.690  72.719  1.00  0.00    -0.122 C  
BRANCH  11  12
HETATM   12  C   UNL     2      -8.338   6.301  71.439  1.00  0.00    -0.123 C  
BRANCH  12  13
HETATM   13  C   UNL     2      -7.451   5.302  70.703  1.00  0.00    -0.071 C  
BRANCH  13  14
HETATM   14  O   UNL     2      -8.129   4.053  70.546  1.00  0.00    -0.054 OA 
BRANCH  14  15
HETATM   15  C   UNL     2      -8.335   3.651  69.254  1.00  0.00    -0.063 C  
HETATM   16  O   UNL     2      -7.488   3.073  68.579  1.00  0.00    -0.049 OA 
BRANCH  15  17
HETATM   17  C   UNL     2      -9.634   4.156  68.739  1.00  0.00    -0.140 C  
HETATM   18  S   UNL     2      -9.392   5.114  67.287  1.00  0.00    -0.128 S  
HETATM   19  O   UNL     2      -8.530   6.211  67.718  1.00  0.00    -0.115 OA 
HETATM   20  O   UNL     2     -10.757   5.514  66.948  1.00  0.00    -0.280 OA 
HETATM   21  O   UNL     2      -8.783   4.185  66.336  1.00  0.00    -0.112 OA 
ENDBRANCH  15  17
ENDBRANCH  14  15
ENDBRANCH  13  14
ENDBRANCH  12  13
ENDBRANCH  11  12
ENDBRANCH  10  11
ENDBRANCH   9  10
ENDBRANCH   8   9
ENDBRANCH   7   8
ENDBRANCH   6   7
ENDBRANCH   5   6
ENDBRANCH   4   5
ENDBRANCH   3   4
TORSDOF 13
ENDMDL
MODEL      403
REMARK 921   NORMALIZED FREE ENERGY PREDICTED BY IDOCK:   -2.21 KCAL/MOL
REMARK 922        TOTAL FREE ENERGY PREDICTED BY IDOCK:   -5.45 KCAL/MOL
REMARK 923 INTER-LIGAND FREE ENERGY PREDICTED BY IDOCK:   -4.61 KCAL/MOL
REMARK 924 INTRA-LIGAND FREE ENERGY PREDICTED BY IDOCK:   -0.84 KCAL/MOL
REMARK 927      BINDING AFFINITY PREDICTED BY RF-SCORE:    0.00 PKD
ROOT
HETATM    1 NA   UNL     1     -12.921  14.605  67.131  1.00  0.00    -0.621 Na 
HETATM    2  C   UNL     2     -10.559  16.524  67.575  1.00  0.00    -0.313 C  
HETATM    3  C   UNL     2     -10.596  17.567  66.471  1.00  0.00    -0.191 C  
ENDROOT
BRANCH   3   4
HETATM    4  C   UNL     2     -10.675  18.972  67.060  1.00  0.00    -0.516 C  
BRANCH   4   5
HETATM    5  C   UNL     2      -9.288  19.536  67.356  1.00  0.00    -0.405 C  
BRANCH   5   6
HETATM    6  C   UNL     2      -8.587  19.930  66.059  1.00  0.00    -0.283 C  
BRANCH   6   7
HETATM    7  C   UNL     2      -7.228  19.252  65.936  1.00  0.00    -0.305 C  
BRANCH   7   8
HETATM    8  C   UNL     2      -7.058  18.190  67.019  1.00  0.00    -0.217 C  
BRANCH   8   9
HETATM    9  C   UNL     2      -6.122  17.082  66.551  1.00  0.00    -0.191 C  
BRANCH   9  10
HETATM   10  C   UNL     2      -5.638  16.243  67.731  1.00  0.00    -0.157 C  
BRANCH  10  11
HETATM   11  C   UNL     2      -6.806  15.507  68.381  1.00  0.00    -0.115 C  
BRANCH  11  12
HETATM   12  C   UNL     2      -7.234  14.305  67.547  1.00  0.00    -0.197 C  
BRANCH  12  13
HETATM   13  C   UNL     2      -6.209  13.181  67.651  1.00  0.00    -0.153 C  
BRANCH  13  14
HETATM   14  O   UNL     2      -6.853  11.907  67.554  1.00  0.00    -0.100 OA 
BRANCH  14  15
HETATM   15  C   UNL     2      -6.752  11.285  66.339  1.00  0.00    -0.065 C  
HETATM   16  O   UNL     2      -5.685  11.090  65.763  1.00  0.00    -0.141 OA 
BRANCH  15  17
HETATM   17  C   UNL     2      -8.094  11.041  65.751  1.00  0.00    -0.038 C  
HETATM   18  S   UNL     2      -8.024   9.743  64.571  1.00  0.00    -0.153 S  
HETATM   19  O   UNL     2      -7.082  10.221  63.563  1.00  0.00    -0.132 OA 
HETATM   20  O   UNL     2      -9.411   9.663  64.114  1.00  0.00    -0.236 OA 
HETATM   21  O   UNL     2      -7.574   8.581  65.337  1.00  0.00    -0.083 OA 
ENDBRANCH  15  17
ENDBRANCH  14  15
ENDBRANCH  13  14
ENDBRANCH  12  13
ENDBRANCH  11  12
ENDBRANCH  10  11
ENDBRANCH   9  10
ENDBRANCH   8   9
ENDBRANCH   7   8
ENDBRANCH   6   7
ENDBRANCH   5   6
ENDBRANCH   4   5
ENDBRANCH   3   4
TORSDOF 13
ENDMDL
MODEL      404
REMARK 921   NORMALIZED FREE ENERGY PREDICTED BY IDOCK:   -2.20 KCAL/MOL
REMARK 922        TOTAL FREE ENERGY PREDICTED BY IDOCK:   -5.44 KCAL/MOL
REMARK 923 INTER-LIGAND FREE ENERGY PREDICTED BY IDOCK:   -4.83 KCAL/MOL
REMARK 924 INTRA-LIGAND FREE ENERGY PREDICTED BY IDOCK:   -0.61 KCAL/MOL
REMARK 927      BINDING AFFINITY PREDICTED BY RF-SCORE:    0.00 PKD
ROOT
HETATM    1 NA   UNL     1      -9.163   8.006  63.029  1.00  0.00    -0.405 Na 
HETATM    2  C   UNL     2      -9.033   7.280  66.015  1.00  0.00    -0.149 C  
HETATM    3  C   UNL     2     -10.411   7.516  66.610  1.00  0.00    -0.252 C  
ENDROOT
BRANCH   3   4
HETATM    4  C   UNL     2     -10.946   6.240  67.251  1.00  0.00    -0.455 C  
BRANCH   4   5
HETATM    5  C   UNL     2      -9.836   5.445  67.932  1.00  0.00    -0.179 C  
BRANCH   5   6
HETATM    6  C   UNL     2      -9.711   4.061  67.300  1.00  0.00    -0.199 C  
BRANCH   6   7
HETATM    7  C   UNL     2      -9.353   3.007  68.341  1.00  0.00    -0.248 C  
BRANCH   7   8
HETATM    8  C   UNL     2      -9.739   3.481  69.740  1.00  0.00    -0.114 C  
BRANCH   8   9
HETATM    9  C   UNL     2      -8.829   2.863  70.794  1.00  0.00    -0.147 C  
BRANCH   9  10
HETATM   10  C   UNL     2      -8.727   3.764  72.022  1.00  0.00    -0.119 C  
BRANCH  10  11
HETATM   11  C   UNL     2      -9.352   5.126  71.742  1.00  0.00    -0.179 C  
BRANCH  11  12
HETATM   12  C   UNL     2     -10.411   5.472  72.783  1.00  0.00    -0.230 C  
BRANCH  12  13
HETATM   13  C   UNL     2     -11.594   6.186  72.138  1.00  0.00    -0.317 C  
BRANCH  13  14
HETATM   14  O   UNL     2     -11.516   7.595  72.373  1.00  0.00    -0.299 OA 
BRANCH  14  15
HETATM   15  C   UNL     2     -10.894   8.323  71.395  1.00  0.00    -0.239 C  
HETATM   16  O   UNL     2     -11.305   8.400  70.241  1.00  0.00    -0.234 OA 
BRANCH  15  17
HETATM   17  C   UNL     2      -9.590   8.852  71.872  1.00  0.00    -0.256 C  
HETATM   18  S   UNL     2      -8.430   8.913  70.555  1.00  0.00    -0.197 S  
HETATM   19  O   UNL     2      -8.310   7.526  70.114  1.00  0.00    -0.130 OA 
HETATM   20  O   UNL     2      -7.238   9.443  71.215  1.00  0.00    -0.299 OA 
HETATM   21  O   UNL     2      -9.034   9.822  69.582  1.00  0.00    -0.184 OA 
ENDBRANCH  15  17
ENDBRANCH  14  15
ENDBRANCH  13  14
ENDBRANCH  12  13
ENDBRANCH  11  12
ENDBRANCH  10  11
ENDBRANCH   9  10
ENDBRANCH   8   9
ENDBRANCH   7   8
ENDBRANCH   6   7
ENDBRANCH   5   6
ENDBRANCH   4   5
ENDBRANCH   3   4
TORSDOF 13
ENDMDL
MODEL      405
REMARK 921   NORMALIZED FREE ENERGY PREDICTED BY IDOCK:   -2.20 KCAL/MOL
REMARK 922        TOTAL FREE ENERGY PREDICTED BY IDOCK:   -5.43 KCAL/MOL
REMARK 923 INTER-LIGAND FREE ENERGY PREDICTED BY IDOCK:   -4.24 KCAL/MOL
REMARK 924 INTRA-LIGAND FREE ENERGY PREDICTED BY IDOCK:   -1.19 KCAL/MOL
REMARK 927      BINDING AFFINITY PREDICTED BY RF-SCORE:    0.00 PKD
ROOT
HETATM    1 NA   UNL     1     -12.382   9.974  68.757  1.00  0.00    -0.507 Na 
HETATM    2  C   UNL     2     -10.885  11.287  66.413  1.00  0.00    -0.306 C  
HETATM    3  C   UNL     2      -9.590  10.521  66.202  1.00  0.00    -0.237 C  
ENDROOT
BRANCH   3   4
HETATM    4  C   UNL     2      -9.506   9.989  64.775  1.00  0.00    -0.366 C  
BRANCH   4   5
HETATM    5  C   UNL     2      -8.070   9.650  64.386  1.00  0.00    -0.141 C  
BRANCH   5   6
HETATM    6  C   UNL     2      -7.942   8.161  64.075  1.00  0.00    -0.139 C  
BRANCH   6   7
HETATM    7  C   UNL     2      -7.766   7.342  65.348  1.00  0.00    -0.110 C  
BRANCH   7   8
HETATM    8  C   UNL     2      -8.707   6.141  65.347  1.00  0.00    -0.071 C  
BRANCH   8   9
HETATM    9  C   UNL     2      -9.742   6.260  66.460  1.00  0.00    -0.180 C  
BRANCH   9  10
HETATM   10  C   UNL     2     -10.416   4.916  66.724  1.00  0.00    -0.237 C  
BRANCH  10  11
HETATM   11  C   UNL     2      -9.410   3.910  67.273  1.00  0.00    -0.220 C  
BRANCH  11  12
HETATM   12  C   UNL     2      -9.607   3.693  68.769  1.00  0.00    -0.159 C  
BRANCH  12  13
HETATM   13  C   UNL     2      -8.425   4.248  69.557  1.00  0.00    -0.071 C  
BRANCH  13  14
HETATM   14  O   UNL     2      -8.498   5.675  69.628  1.00  0.00    -0.108 OA 
BRANCH  14  15
HETATM   15  C   UNL     2      -8.388   6.210  70.883  1.00  0.00    -0.127 C  
HETATM   16  O   UNL     2      -7.438   5.995  71.632  1.00  0.00    -0.090 OA 
BRANCH  15  17
HETATM   17  C   UNL     2      -9.630   6.928  71.268  1.00  0.00    -0.165 C  
HETATM   18  S   UNL     2      -9.482   8.644  70.925  1.00  0.00    -0.214 S  
HETATM   19  O   UNL     2      -8.346   9.078  71.733  1.00  0.00    -0.353 OA 
HETATM   20  O   UNL     2     -10.775   9.162  71.370  1.00  0.00    -0.290 OA 
HETATM   21  O   UNL     2      -9.274   8.707  69.478  1.00  0.00    -0.148 OA 
ENDBRANCH  15  17
ENDBRANCH  14  15
ENDBRANCH  13  14
ENDBRANCH  12  13
ENDBRANCH  11  12
ENDBRANCH  10  11
ENDBRANCH   9  10
ENDBRANCH   8   9
ENDBRANCH   7   8
ENDBRANCH   6   7
ENDBRANCH   5   6
ENDBRANCH   4   5
ENDBRANCH   3   4
TORSDOF 13
ENDMDL
MODEL      406
REMARK 921   NORMALIZED FREE ENERGY PREDICTED BY IDOCK:   -2.18 KCAL/MOL
REMARK 922        TOTAL FREE ENERGY PREDICTED BY IDOCK:   -5.40 KCAL/MOL
REMARK 923 INTER-LIGAND FREE ENERGY PREDICTED BY IDOCK:   -4.70 KCAL/MOL
REMARK 924 INTRA-LIGAND FREE ENERGY PREDICTED BY IDOCK:   -0.70 KCAL/MOL
REMARK 927      BINDING AFFINITY PREDICTED BY RF-SCORE:    0.00 PKD
ROOT
HETATM    1 NA   UNL     1      -7.167  17.661  65.104  1.00  0.00    -0.218 Na 
HETATM    2  C   UNL     2      -9.616  16.405  66.476  1.00  0.00    -0.291 C  
HETATM    3  C   UNL     2     -10.649  16.108  65.402  1.00  0.00    -0.399 C  
ENDROOT
BRANCH   3   4
HETATM    4  C   UNL     2     -11.019  14.629  65.405  1.00  0.00    -0.358 C  
BRANCH   4   5
HETATM    5  C   UNL     2     -12.134  14.327  64.408  1.00  0.00    -0.490 C  
BRANCH   5   6
HETATM    6  C   UNL     2     -11.932  12.947  63.788  1.00  0.00    -0.582 C  
BRANCH   6   7
HETATM    7  C   UNL     2     -11.195  12.014  64.742  1.00  0.00    -0.373 C  
BRANCH   7   8
HETATM    8  C   UNL     2      -9.906  11.503  64.103  1.00  0.00    -0.288 C  
BRANCH   8   9
HETATM    9  C   UNL     2      -8.845  11.232  65.163  1.00  0.00     0.023 C  
BRANCH   9  10
HETATM   10  C   UNL     2      -8.572   9.735  65.290  1.00  0.00    -0.168 C  
BRANCH  10  11
HETATM   11  C   UNL     2      -9.563   9.089  66.252  1.00  0.00    -0.327 C  
BRANCH  11  12
HETATM   12  C   UNL     2      -9.467   7.568  66.204  1.00  0.00    -0.095 C  
BRANCH  12  13
HETATM   13  C   UNL     2      -9.392   6.984  67.611  1.00  0.00    -0.122 C  
BRANCH  13  14
HETATM   14  O   UNL     2      -8.176   7.381  68.252  1.00  0.00    -0.123 OA 
BRANCH  14  15
HETATM   15  C   UNL     2      -7.824   6.650  69.354  1.00  0.00    -0.113 C  
HETATM   16  O   UNL     2      -6.752   6.063  69.465  1.00  0.00    -0.051 OA 
BRANCH  15  17
HETATM   17  C   UNL     2      -8.964   6.528  70.299  1.00  0.00    -0.155 C  
HETATM   18  S   UNL     2      -8.795   7.672  71.621  1.00  0.00    -0.119 S  
HETATM   19  O   UNL     2      -7.534   7.304  72.259  1.00  0.00    -0.081 OA 
HETATM   20  O   UNL     2      -9.985   7.394  72.425  1.00  0.00    -0.170 OA 
HETATM   21  O   UNL     2      -8.801   8.981  70.969  1.00  0.00    -0.203 OA 
ENDBRANCH  15  17
ENDBRANCH  14  15
ENDBRANCH  13  14
ENDBRANCH  12  13
ENDBRANCH  11  12
ENDBRANCH  10  11
ENDBRANCH   9  10
ENDBRANCH   8   9
ENDBRANCH   7   8
ENDBRANCH   6   7
ENDBRANCH   5   6
ENDBRANCH   4   5
ENDBRANCH   3   4
TORSDOF 13
ENDMDL
MODEL      407
REMARK 921   NORMALIZED FREE ENERGY PREDICTED BY IDOCK:   -2.11 KCAL/MOL
REMARK 922        TOTAL FREE ENERGY PREDICTED BY IDOCK:   -5.28 KCAL/MOL
REMARK 923 INTER-LIGAND FREE ENERGY PREDICTED BY IDOCK:   -4.30 KCAL/MOL
REMARK 924 INTRA-LIGAND FREE ENERGY PREDICTED BY IDOCK:   -0.97 KCAL/MOL
REMARK 927      BINDING AFFINITY PREDICTED BY RF-SCORE:    0.00 PKD
ROOT
HETATM    1 NA   UNL     1     -14.324  10.848  72.746  1.00  0.00    -0.510 Na 
HETATM    2  C   UNL     2     -11.948   9.775  71.115  1.00  0.00    -0.463 C  
HETATM    3  C   UNL     2     -11.543   8.437  71.711  1.00  0.00    -0.372 C  
ENDROOT
BRANCH   3   4
HETATM    4  C   UNL     2     -11.598   7.339  70.655  1.00  0.00    -0.322 C  
BRANCH   4   5
HETATM    5  C   UNL     2     -10.284   6.566  70.579  1.00  0.00    -0.224 C  
BRANCH   5   6
HETATM    6  C   UNL     2      -9.583   6.577  71.935  1.00  0.00    -0.156 C  
BRANCH   6   7
HETATM    7  C   UNL     2      -8.118   6.976  71.797  1.00  0.00    -0.099 C  
BRANCH   7   8
HETATM    8  C   UNL     2      -7.875   7.671  70.460  1.00  0.00    -0.095 C  
BRANCH   8   9
HETATM    9  C   UNL     2      -7.970   9.185  70.611  1.00  0.00    -0.177 C  
BRANCH   9  10
HETATM   10  C   UNL     2      -7.263   9.893  69.457  1.00  0.00    -0.095 C  
BRANCH  10  11
HETATM   11  C   UNL     2      -8.239  10.785  68.696  1.00  0.00    -0.139 C  
BRANCH  11  12
HETATM   12  C   UNL     2      -9.684  10.378  68.967  1.00  0.00    -0.216 C  
BRANCH  12  13
HETATM   13  C   UNL     2     -10.414  10.072  67.663  1.00  0.00    -0.246 C  
BRANCH  13  14
HETATM   14  O   UNL     2      -9.484   9.674  66.652  1.00  0.00    -0.155 OA 
BRANCH  14  15
HETATM   15  C   UNL     2      -9.590   8.377  66.230  1.00  0.00    -0.216 C  
HETATM   16  O   UNL     2     -10.464   7.606  66.617  1.00  0.00    -0.281 OA 
BRANCH  15  17
HETATM   17  C   UNL     2      -8.424   7.990  65.394  1.00  0.00    -0.139 C  
HETATM   18  S   UNL     2      -7.924   6.346  65.753  1.00  0.00    -0.124 S  
HETATM   19  O   UNL     2      -7.573   6.376  67.170  1.00  0.00    -0.092 OA 
HETATM   20  O   UNL     2      -6.787   6.163  64.852  1.00  0.00    -0.045 OA 
HETATM   21  O   UNL     2      -9.093   5.531  65.422  1.00  0.00    -0.141 OA 
ENDBRANCH  15  17
ENDBRANCH  14  15
ENDBRANCH  13  14
ENDBRANCH  12  13
ENDBRANCH  11  12
ENDBRANCH  10  11
ENDBRANCH   9  10
ENDBRANCH   8   9
ENDBRANCH   7   8
ENDBRANCH   6   7
ENDBRANCH   5   6
ENDBRANCH   4   5
ENDBRANCH   3   4
TORSDOF 13
ENDMDL
MODEL      408
REMARK 921   NORMALIZED FREE ENERGY PREDICTED BY IDOCK:   -2.11 KCAL/MOL
REMARK 922        TOTAL FREE ENERGY PREDICTED BY IDOCK:   -5.28 KCAL/MOL
REMARK 923 INTER-LIGAND FREE ENERGY PREDICTED BY IDOCK:   -4.77 KCAL/MOL
REMARK 924 INTRA-LIGAND FREE ENERGY PREDICTED BY IDOCK:   -0.51 KCAL/MOL
REMARK 927      BINDING AFFINITY PREDICTED BY RF-SCORE:    0.00 PKD
ROOT
HETATM    1 NA   UNL     1     -12.102  17.299  71.384  1.00  0.00    -0.468 Na 
HETATM    2  C   UNL     2     -11.630  15.611  68.857  1.00  0.00    -0.392 C  
HETATM    3  C   UNL     2     -10.898  14.346  69.274  1.00  0.00    -0.261 C  
ENDROOT
BRANCH   3   4
HETATM    4  C   UNL     2     -11.684  13.107  68.859  1.00  0.00    -0.368 C  
BRANCH   4   5
HETATM    5  C   UNL     2     -10.833  12.157  68.021  1.00  0.00    -0.258 C  
BRANCH   5   6
HETATM    6  C   UNL     2     -10.909  10.740  68.584  1.00  0.00    -0.260 C  
BRANCH   6   7
HETATM    7  C   UNL     2      -9.531  10.091  68.640  1.00  0.00    -0.156 C  
BRANCH   7   8
HETATM    8  C   UNL     2      -9.313   9.192  67.426  1.00  0.00    -0.161 C  
BRANCH   8   9
HETATM    9  C   UNL     2     -10.531   8.311  67.176  1.00  0.00    -0.386 C  
BRANCH   9  10
HETATM   10  C   UNL     2     -10.206   6.843  67.442  1.00  0.00    -0.262 C  
BRANCH  10  11
HETATM   11  C   UNL     2     -11.213   6.239  68.416  1.00  0.00    -0.272 C  
BRANCH  11  12
HETATM   12  C   UNL     2     -11.406   7.132  69.636  1.00  0.00    -0.109 C  
BRANCH  12  13
HETATM   13  C   UNL     2     -10.510   6.682  70.785  1.00  0.00    -0.216 C  
BRANCH  13  14
HETATM   14  O   UNL     2     -10.827   5.340  71.168  1.00  0.00    -0.178 OA 
BRANCH  14  15
HETATM   15  C   UNL     2     -10.341   4.943  72.384  1.00  0.00    -0.204 C  
HETATM   16  O   UNL     2     -10.815   5.307  73.457  1.00  0.00    -0.266 OA 
BRANCH  15  17
HETATM   17  C   UNL     2      -9.084   4.167  72.229  1.00  0.00    -0.116 C  
HETATM   18  S   UNL     2      -9.360   2.731  71.256  1.00  0.00    -0.148 S  
HETATM   19  O   UNL     2     -10.361   1.975  72.004  1.00  0.00    -0.157 OA 
HETATM   20  O   UNL     2      -8.034   2.116  71.227  1.00  0.00    -0.043 OA 
HETATM   21  O   UNL     2      -9.812   3.249  69.966  1.00  0.00    -0.085 OA 
ENDBRANCH  15  17
ENDBRANCH  14  15
ENDBRANCH  13  14
ENDBRANCH  12  13
ENDBRANCH  11  12
ENDBRANCH  10  11
ENDBRANCH   9  10
ENDBRANCH   8   9
ENDBRANCH   7   8
ENDBRANCH   6   7
ENDBRANCH   5   6
ENDBRANCH   4   5
ENDBRANCH   3   4
TORSDOF 13
ENDMDL
MODEL      409
REMARK 921   NORMALIZED FREE ENERGY PREDICTED BY IDOCK:   -2.10 KCAL/MOL
REMARK 922        TOTAL FREE ENERGY PREDICTED BY IDOCK:   -5.26 KCAL/MOL
REMARK 923 INTER-LIGAND FREE ENERGY PREDICTED BY IDOCK:   -5.17 KCAL/MOL
REMARK 924 INTRA-LIGAND FREE ENERGY PREDICTED BY IDOCK:   -0.09 KCAL/MOL
REMARK 927      BINDING AFFINITY PREDICTED BY RF-SCORE:    0.00 PKD
ROOT
HETATM    1 NA   UNL     1      -5.980   9.680  69.033  1.00  0.00    -0.037 Na 
HETATM    2  C   UNL     2      -7.251  10.882  66.503  1.00  0.00    -0.142 C  
HETATM    3  C   UNL     2      -6.912   9.971  65.335  1.00  0.00    -0.127 C  
ENDROOT
BRANCH   3   4
HETATM    4  C   UNL     2      -8.182   9.483  64.647  1.00  0.00    -0.146 C  
BRANCH   4   5
HETATM    5  C   UNL     2      -9.422   9.761  65.492  1.00  0.00    -0.324 C  
BRANCH   5   6
HETATM    6  C   UNL     2     -10.451  10.546  64.682  1.00  0.00    -0.181 C  
BRANCH   6   7
HETATM    7  C   UNL     2      -9.788  11.648  63.864  1.00  0.00    -0.306 C  
BRANCH   7   8
HETATM    8  C   UNL     2     -10.490  12.984  64.096  1.00  0.00    -0.395 C  
BRANCH   8   9
HETATM    9  C   UNL     2     -10.312  13.448  65.536  1.00  0.00    -0.302 C  
BRANCH   9  10
HETATM   10  C   UNL     2     -10.945  14.821  65.749  1.00  0.00    -0.334 C  
BRANCH  10  11
HETATM   11  C   UNL     2     -10.720  15.300  67.179  1.00  0.00    -0.316 C  
BRANCH  11  12
HETATM   12  C   UNL     2     -11.753  14.705  68.129  1.00  0.00    -0.360 C  
BRANCH  12  13
HETATM   13  C   UNL     2     -11.075  14.055  69.330  1.00  0.00    -0.203 C  
BRANCH  13  14
HETATM   14  O   UNL     2     -11.813  12.906  69.758  1.00  0.00    -0.312 OA 
BRANCH  14  15
HETATM   15  C   UNL     2     -12.422  13.017  70.978  1.00  0.00    -0.296 C  
HETATM   16  O   UNL     2     -12.612  14.088  71.548  1.00  0.00    -0.336 OA 
BRANCH  15  17
HETATM   17  C   UNL     2     -12.659  11.679  71.580  1.00  0.00    -0.236 C  
HETATM   18  S   UNL     2     -12.184  10.408  70.466  1.00  0.00    -0.327 S  
HETATM   19  O   UNL     2     -13.028  10.620  69.293  1.00  0.00     0.019 OA 
HETATM   20  O   UNL     2     -12.494   9.197  71.225  1.00  0.00    -0.308 OA 
HETATM   21  O   UNL     2     -10.755  10.633  70.248  1.00  0.00    -0.204 OA 
ENDBRANCH  15  17
ENDBRANCH  14  15
ENDBRANCH  13  14
ENDBRANCH  12  13
ENDBRANCH  11  12
ENDBRANCH  10  11
ENDBRANCH   9  10
ENDBRANCH   8   9
ENDBRANCH   7   8
ENDBRANCH   6   7
ENDBRANCH   5   6
ENDBRANCH   4   5
ENDBRANCH   3   4
TORSDOF 13
ENDMDL
MODEL      410
REMARK 921   NORMALIZED FREE ENERGY PREDICTED BY IDOCK:   -2.09 KCAL/MOL
REMARK 922        TOTAL FREE ENERGY PREDICTED BY IDOCK:   -5.24 KCAL/MOL
REMARK 923 INTER-LIGAND FREE ENERGY PREDICTED BY IDOCK:   -4.51 KCAL/MOL
REMARK 924 INTRA-LIGAND FREE ENERGY PREDICTED BY IDOCK:   -0.73 KCAL/MOL
REMARK 927      BINDING AFFINITY PREDICTED BY RF-SCORE:    0.00 PKD
ROOT
HETATM    1 NA   UNL     1     -14.121  10.825  72.660  1.00  0.00    -0.560 Na 
HETATM    2  C   UNL     2     -11.749  10.697  70.706  1.00  0.00    -0.435 C  
HETATM    3  C   UNL     2     -10.887   9.509  71.100  1.00  0.00    -0.425 C  
ENDROOT
BRANCH   3   4
HETATM    4  C   UNL     2     -10.736   8.543  69.930  1.00  0.00    -0.224 C  
BRANCH   4   5
HETATM    5  C   UNL     2     -11.196   7.136  70.300  1.00  0.00    -0.309 C  
BRANCH   5   6
HETATM    6  C   UNL     2     -12.483   7.197  71.118  1.00  0.00    -0.400 C  
BRANCH   6   7
HETATM    7  C   UNL     2     -12.384   6.338  72.373  1.00  0.00    -0.072 C  
BRANCH   7   8
HETATM    8  C   UNL     2     -10.923   6.052  72.712  1.00  0.00    -0.299 C  
BRANCH   8   9
HETATM    9  C   UNL     2     -10.375   7.097  73.677  1.00  0.00    -0.411 C  
BRANCH   9  10
HETATM   10  C   UNL     2      -9.148   6.566  74.415  1.00  0.00    -0.206 C  
BRANCH  10  11
HETATM   11  C   UNL     2      -7.917   7.403  74.081  1.00  0.00    -0.178 C  
BRANCH  11  12
HETATM   12  C   UNL     2      -8.127   8.207  72.802  1.00  0.00    -0.221 C  
BRANCH  12  13
HETATM   13  C   UNL     2      -7.130   7.786  71.728  1.00  0.00    -0.066 C  
BRANCH  13  14
HETATM   14  O   UNL     2      -6.913   6.373  71.774  1.00  0.00    -0.073 OA 
BRANCH  14  15
HETATM   15  C   UNL     2      -7.229   5.690  70.631  1.00  0.00    -0.078 C  
HETATM   16  O   UNL     2      -7.434   6.234  69.549  1.00  0.00    -0.088 OA 
BRANCH  15  17
HETATM   17  C   UNL     2      -7.453   4.249  70.915  1.00  0.00    -0.051 C  
HETATM   18  S   UNL     2      -8.676   3.591  69.840  1.00  0.00    -0.087 S  
HETATM   19  O   UNL     2      -9.871   4.380  70.126  1.00  0.00    -0.205 OA 
HETATM   20  O   UNL     2      -8.753   2.197  70.274  1.00  0.00    -0.054 OA 
HETATM   21  O   UNL     2      -8.118   3.775  68.501  1.00  0.00    -0.073 OA 
ENDBRANCH  15  17
ENDBRANCH  14  15
ENDBRANCH  13  14
ENDBRANCH  12  13
ENDBRANCH  11  12
ENDBRANCH  10  11
ENDBRANCH   9  10
ENDBRANCH   8   9
ENDBRANCH   7   8
ENDBRANCH   6   7
ENDBRANCH   5   6
ENDBRANCH   4   5
ENDBRANCH   3   4
TORSDOF 13
ENDMDL
MODEL      411
REMARK 921   NORMALIZED FREE ENERGY PREDICTED BY IDOCK:   -2.08 KCAL/MOL
REMARK 922        TOTAL FREE ENERGY PREDICTED BY IDOCK:   -5.23 KCAL/MOL
REMARK 923 INTER-LIGAND FREE ENERGY PREDICTED BY IDOCK:   -4.76 KCAL/MOL
REMARK 924 INTRA-LIGAND FREE ENERGY PREDICTED BY IDOCK:   -0.47 KCAL/MOL
REMARK 927      BINDING AFFINITY PREDICTED BY RF-SCORE:    0.00 PKD
ROOT
HETATM    1 NA   UNL     1      -5.826  18.498  65.711  1.00  0.00    -0.126 Na 
HETATM    2  C   UNL     2      -8.155  17.107  67.159  1.00  0.00    -0.215 C  
HETATM    3  C   UNL     2      -9.288  16.938  66.160  1.00  0.00    -0.268 C  
ENDROOT
BRANCH   3   4
HETATM    4  C   UNL     2      -9.679  15.470  66.032  1.00  0.00    -0.378 C  
BRANCH   4   5
HETATM    5  C   UNL     2     -11.195  15.291  66.025  1.00  0.00    -0.231 C  
BRANCH   5   6
HETATM    6  C   UNL     2     -11.568  13.956  65.385  1.00  0.00    -0.331 C  
BRANCH   6   7
HETATM    7  C   UNL     2     -10.870  12.794  66.081  1.00  0.00    -0.303 C  
BRANCH   7   8
HETATM    8  C   UNL     2     -10.090  11.955  65.072  1.00  0.00    -0.297 C  
BRANCH   8   9
HETATM    9  C   UNL     2      -9.228  10.916  65.781  1.00  0.00    -0.224 C  
BRANCH   9  10
HETATM   10  C   UNL     2      -9.938   9.566  65.837  1.00  0.00    -0.342 C  
BRANCH  10  11
HETATM   11  C   UNL     2     -10.518   9.322  67.227  1.00  0.00    -0.334 C  
BRANCH  11  12
HETATM   12  C   UNL     2     -10.648   7.831  67.516  1.00  0.00    -0.319 C  
BRANCH  12  13
HETATM   13  C   UNL     2      -9.705   7.022  66.632  1.00  0.00    -0.166 C  
BRANCH  13  14
HETATM   14  O   UNL     2      -8.554   6.611  67.374  1.00  0.00    -0.119 OA 
BRANCH  14  15
HETATM   15  C   UNL     2      -8.620   5.358  67.921  1.00  0.00    -0.104 C  
HETATM   16  O   UNL     2      -9.019   4.371  67.310  1.00  0.00    -0.112 OA 
BRANCH  15  17
HETATM   17  C   UNL     2      -8.312   5.393  69.374  1.00  0.00    -0.096 C  
HETATM   18  S   UNL     2      -9.613   4.660  70.298  1.00  0.00    -0.219 S  
HETATM   19  O   UNL     2     -10.784   5.474  69.984  1.00  0.00    -0.313 OA 
HETATM   20  O   UNL     2      -9.133   4.796  71.673  1.00  0.00    -0.131 OA 
HETATM   21  O   UNL     2      -9.669   3.281  69.814  1.00  0.00    -0.132 OA 
ENDBRANCH  15  17
ENDBRANCH  14  15
ENDBRANCH  13  14
ENDBRANCH  12  13
ENDBRANCH  11  12
ENDBRANCH  10  11
ENDBRANCH   9  10
ENDBRANCH   8   9
ENDBRANCH   7   8
ENDBRANCH   6   7
ENDBRANCH   5   6
ENDBRANCH   4   5
ENDBRANCH   3   4
TORSDOF 13
ENDMDL
MODEL      412
REMARK 921   NORMALIZED FREE ENERGY PREDICTED BY IDOCK:   -2.07 KCAL/MOL
REMARK 922        TOTAL FREE ENERGY PREDICTED BY IDOCK:   -5.21 KCAL/MOL
REMARK 923 INTER-LIGAND FREE ENERGY PREDICTED BY IDOCK:   -3.89 KCAL/MOL
REMARK 924 INTRA-LIGAND FREE ENERGY PREDICTED BY IDOCK:   -1.33 KCAL/MOL
REMARK 927      BINDING AFFINITY PREDICTED BY RF-SCORE:    0.00 PKD
ROOT
HETATM    1 NA   UNL     1     -12.194  10.327  68.283  1.00  0.00    -0.500 Na 
HETATM    2  C   UNL     2     -10.481  10.296  65.729  1.00  0.00    -0.159 C  
HETATM    3  C   UNL     2      -9.072   9.886  66.120  1.00  0.00    -0.193 C  
ENDROOT
BRANCH   3   4
HETATM    4  C   UNL     2      -8.635   8.648  65.344  1.00  0.00    -0.206 C  
BRANCH   4   5
HETATM    5  C   UNL     2      -7.478   7.931  66.034  1.00  0.00    -0.078 C  
BRANCH   5   6
HETATM    6  C   UNL     2      -7.991   6.716  66.803  1.00  0.00    -0.108 C  
BRANCH   6   7
HETATM    7  C   UNL     2      -7.672   6.826  68.289  1.00  0.00    -0.106 C  
BRANCH   7   8
HETATM    8  C   UNL     2      -8.928   7.174  69.082  1.00  0.00    -0.138 C  
BRANCH   8   9
HETATM    9  C   UNL     2      -9.040   8.681  69.288  1.00  0.00    -0.149 C  
BRANCH   9  10
HETATM   10  C   UNL     2      -7.822   9.221  70.032  1.00  0.00    -0.117 C  
BRANCH  10  11
HETATM   11  C   UNL     2      -6.959  10.070  69.103  1.00  0.00    -0.059 C  
BRANCH  11  12
HETATM   12  C   UNL     2      -7.062  11.550  69.453  1.00  0.00    -0.037 C  
BRANCH  12  13
HETATM   13  C   UNL     2      -7.467  12.369  68.231  1.00  0.00    -0.124 C  
BRANCH  13  14
HETATM   14  O   UNL     2      -8.754  12.962  68.432  1.00  0.00    -0.178 OA 
BRANCH  14  15
HETATM   15  C   UNL     2      -9.159  13.835  67.460  1.00  0.00    -0.209 C  
HETATM   16  O   UNL     2      -9.613  13.482  66.375  1.00  0.00    -0.270 OA 
BRANCH  15  17
HETATM   17  C   UNL     2      -8.821  15.235  67.826  1.00  0.00    -0.173 C  
HETATM   18  S   UNL     2     -10.163  15.995  68.665  1.00  0.00    -0.242 S  
HETATM   19  O   UNL     2     -11.263  15.948  67.705  1.00  0.00    -0.326 OA 
HETATM   20  O   UNL     2      -9.646  17.338  68.927  1.00  0.00    -0.270 OA 
HETATM   21  O   UNL     2     -10.352  15.178  69.863  1.00  0.00    -0.246 OA 
ENDBRANCH  15  17
ENDBRANCH  14  15
ENDBRANCH  13  14
ENDBRANCH  12  13
ENDBRANCH  11  12
ENDBRANCH  10  11
ENDBRANCH   9  10
ENDBRANCH   8   9
ENDBRANCH   7   8
ENDBRANCH   6   7
ENDBRANCH   5   6
ENDBRANCH   4   5
ENDBRANCH   3   4
TORSDOF 13
ENDMDL
MODEL      413
REMARK 921   NORMALIZED FREE ENERGY PREDICTED BY IDOCK:   -2.07 KCAL/MOL
REMARK 922        TOTAL FREE ENERGY PREDICTED BY IDOCK:   -5.21 KCAL/MOL
REMARK 923 INTER-LIGAND FREE ENERGY PREDICTED BY IDOCK:   -3.65 KCAL/MOL
REMARK 924 INTRA-LIGAND FREE ENERGY PREDICTED BY IDOCK:   -1.56 KCAL/MOL
REMARK 927      BINDING AFFINITY PREDICTED BY RF-SCORE:    0.00 PKD
ROOT
HETATM    1 NA   UNL     1      -6.438   9.801  71.805  1.00  0.00    -0.078 Na 
HETATM    2  C   UNL     2      -7.046  10.519  68.877  1.00  0.00    -0.074 C  
HETATM    3  C   UNL     2      -8.519  10.882  68.784  1.00  0.00    -0.150 C  
ENDROOT
BRANCH   3   4
HETATM    4  C   UNL     2      -8.692  12.288  68.219  1.00  0.00    -0.178 C  
BRANCH   4   5
HETATM    5  C   UNL     2     -10.155  12.593  67.910  1.00  0.00    -0.222 C  
BRANCH   5   6
HETATM    6  C   UNL     2     -10.759  11.482  67.054  1.00  0.00    -0.300 C  
BRANCH   6   7
HETATM    7  C   UNL     2     -10.153  11.469  65.656  1.00  0.00    -0.278 C  
BRANCH   7   8
HETATM    8  C   UNL     2      -9.919  10.035  65.187  1.00  0.00    -0.350 C  
BRANCH   8   9
HETATM    9  C   UNL     2      -8.495   9.588  65.497  1.00  0.00    -0.150 C  
BRANCH   9  10
HETATM   10  C   UNL     2      -8.494   8.295  66.309  1.00  0.00    -0.134 C  
BRANCH  10  11
HETATM   11  C   UNL     2      -9.919   7.885  66.665  1.00  0.00    -0.316 C  
BRANCH  11  12
HETATM   12  C   UNL     2      -9.933   6.621  67.517  1.00  0.00    -0.171 C  
BRANCH  12  13
HETATM   13  C   UNL     2     -10.443   6.919  68.923  1.00  0.00    -0.208 C  
BRANCH  13  14
HETATM   14  O   UNL     2      -9.400   7.484  69.723  1.00  0.00    -0.151 OA 
BRANCH  14  15
HETATM   15  C   UNL     2      -9.256   6.945  70.972  1.00  0.00    -0.156 C  
HETATM   16  O   UNL     2      -8.495   7.396  71.823  1.00  0.00    -0.107 OA 
BRANCH  15  17
HETATM   17  C   UNL     2     -10.004   5.667  71.091  1.00  0.00    -0.190 C  
HETATM   18  S   UNL     2      -8.895   4.308  71.180  1.00  0.00    -0.114 S  
HETATM   19  O   UNL     2      -8.146   4.370  69.928  1.00  0.00    -0.062 OA 
HETATM   20  O   UNL     2      -9.807   3.169  71.284  1.00  0.00    -0.162 OA 
HETATM   21  O   UNL     2      -8.107   4.562  72.386  1.00  0.00    -0.094 OA 
ENDBRANCH  15  17
ENDBRANCH  14  15
ENDBRANCH  13  14
ENDBRANCH  12  13
ENDBRANCH  11  12
ENDBRANCH  10  11
ENDBRANCH   9  10
ENDBRANCH   8   9
ENDBRANCH   7   8
ENDBRANCH   6   7
ENDBRANCH   5   6
ENDBRANCH   4   5
ENDBRANCH   3   4
TORSDOF 13
ENDMDL
MODEL      414
REMARK 921   NORMALIZED FREE ENERGY PREDICTED BY IDOCK:   -2.07 KCAL/MOL
REMARK 922        TOTAL FREE ENERGY PREDICTED BY IDOCK:   -5.20 KCAL/MOL
REMARK 923 INTER-LIGAND FREE ENERGY PREDICTED BY IDOCK:   -4.76 KCAL/MOL
REMARK 924 INTRA-LIGAND FREE ENERGY PREDICTED BY IDOCK:   -0.44 KCAL/MOL
REMARK 927      BINDING AFFINITY PREDICTED BY RF-SCORE:    0.00 PKD
ROOT
HETATM    1 NA   UNL     1      -8.735  14.417  69.845  1.00  0.00    -0.357 Na 
HETATM    2  C   UNL     2      -6.863  12.611  68.204  1.00  0.00    -0.090 C  
HETATM    3  C   UNL     2      -6.645  11.331  68.993  1.00  0.00    -0.079 C  
ENDROOT
BRANCH   3   4
HETATM    4  C   UNL     2      -7.059  10.115  68.171  1.00  0.00    -0.079 C  
BRANCH   4   5
HETATM    5  C   UNL     2      -7.286  10.478  66.706  1.00  0.00    -0.114 C  
BRANCH   5   6
HETATM    6  C   UNL     2      -7.932   9.311  65.964  1.00  0.00    -0.110 C  
BRANCH   6   7
HETATM    7  C   UNL     2      -8.804   9.800  64.814  1.00  0.00    -0.239 C  
BRANCH   7   8
HETATM    8  C   UNL     2      -9.140  11.279  64.988  1.00  0.00    -0.085 C  
BRANCH   8   9
HETATM    9  C   UNL     2     -10.609  11.463  65.351  1.00  0.00    -0.333 C  
BRANCH   9  10
HETATM   10  C   UNL     2     -10.788  12.620  66.331  1.00  0.00    -0.295 C  
BRANCH  10  11
HETATM   11  C   UNL     2     -10.487  12.168  67.756  1.00  0.00    -0.222 C  
BRANCH  11  12
HETATM   12  C   UNL     2     -11.380  12.884  68.763  1.00  0.00    -0.333 C  
BRANCH  12  13
HETATM   13  C   UNL     2     -10.804  14.249  69.124  1.00  0.00    -0.242 C  
BRANCH  13  14
HETATM   14  O   UNL     2     -10.673  15.060  67.953  1.00  0.00    -0.257 OA 
BRANCH  14  15
HETATM   15  C   UNL     2     -10.502  16.399  68.179  1.00  0.00    -0.302 C  
HETATM   16  O   UNL     2     -11.288  17.085  68.826  1.00  0.00    -0.098 OA 
BRANCH  15  17
HETATM   17  C   UNL     2      -9.349  16.928  67.404  1.00  0.00    -0.235 C  
HETATM   18  S   UNL     2      -9.903  17.997  66.126  1.00  0.00    -0.193 S  
HETATM   19  O   UNL     2     -10.759  17.154  65.295  1.00  0.00    -0.629 OA 
HETATM   20  O   UNL     2      -8.649  18.398  65.491  1.00  0.00    -0.065 OA 
HETATM   21  O   UNL     2     -10.594  19.077  66.830  1.00  0.00    -0.406 OA 
ENDBRANCH  15  17
ENDBRANCH  14  15
ENDBRANCH  13  14
ENDBRANCH  12  13
ENDBRANCH  11  12
ENDBRANCH  10  11
ENDBRANCH   9  10
ENDBRANCH   8   9
ENDBRANCH   7   8
ENDBRANCH   6   7
ENDBRANCH   5   6
ENDBRANCH   4   5
ENDBRANCH   3   4
TORSDOF 13
ENDMDL
MODEL      415
REMARK 921   NORMALIZED FREE ENERGY PREDICTED BY IDOCK:   -2.06 KCAL/MOL
REMARK 922        TOTAL FREE ENERGY PREDICTED BY IDOCK:   -5.20 KCAL/MOL
REMARK 923 INTER-LIGAND FREE ENERGY PREDICTED BY IDOCK:   -4.61 KCAL/MOL
REMARK 924 INTRA-LIGAND FREE ENERGY PREDICTED BY IDOCK:   -0.59 KCAL/MOL
REMARK 927      BINDING AFFINITY PREDICTED BY RF-SCORE:    0.00 PKD
ROOT
HETATM    1 NA   UNL     1     -11.239  17.495  70.733  1.00  0.00    -0.561 Na 
HETATM    2  C   UNL     2      -9.888  17.993  68.016  1.00  0.00    -0.324 C  
HETATM    3  C   UNL     2      -8.960  16.823  67.737  1.00  0.00    -0.216 C  
ENDROOT
BRANCH   3   4
HETATM    4  C   UNL     2      -9.320  16.152  66.416  1.00  0.00    -0.329 C  
BRANCH   4   5
HETATM    5  C   UNL     2     -10.650  15.409  66.507  1.00  0.00    -0.306 C  
BRANCH   5   6
HETATM    6  C   UNL     2     -10.805  14.767  67.883  1.00  0.00    -0.269 C  
BRANCH   6   7
HETATM    7  C   UNL     2     -11.547  13.439  67.795  1.00  0.00    -0.375 C  
BRANCH   7   8
HETATM    8  C   UNL     2     -11.684  12.997  66.340  1.00  0.00    -0.444 C  
BRANCH   8   9
HETATM    9  C   UNL     2     -11.343  11.520  66.186  1.00  0.00    -0.200 C  
BRANCH   9  10
HETATM   10  C   UNL     2     -10.198  11.125  67.116  1.00  0.00    -0.235 C  
BRANCH  10  11
HETATM   11  C   UNL     2      -8.854  11.295  66.415  1.00  0.00    -0.184 C  
BRANCH  11  12
HETATM   12  C   UNL     2      -7.792  10.392  67.032  1.00  0.00    -0.112 C  
BRANCH  12  13
HETATM   13  C   UNL     2      -8.434   9.313  67.898  1.00  0.00    -0.117 C  
BRANCH  13  14
HETATM   14  O   UNL     2      -7.431   8.589  68.617  1.00  0.00    -0.089 OA 
BRANCH  14  15
HETATM   15  C   UNL     2      -7.728   7.281  68.889  1.00  0.00    -0.116 C  
HETATM   16  O   UNL     2      -6.919   6.364  68.782  1.00  0.00    -0.074 OA 
BRANCH  15  17
HETATM   17  C   UNL     2      -9.179   7.109  69.159  1.00  0.00    -0.139 C  
HETATM   18  S   UNL     2      -9.849   5.841  68.146  1.00  0.00    -0.144 S  
HETATM   19  O   UNL     2      -9.614   6.306  66.781  1.00  0.00    -0.144 OA 
HETATM   20  O   UNL     2     -11.255   5.832  68.548  1.00  0.00    -0.122 OA 
HETATM   21  O   UNL     2      -9.105   4.641  68.527  1.00  0.00    -0.108 OA 
ENDBRANCH  15  17
ENDBRANCH  14  15
ENDBRANCH  13  14
ENDBRANCH  12  13
ENDBRANCH  11  12
ENDBRANCH  10  11
ENDBRANCH   9  10
ENDBRANCH   8   9
ENDBRANCH   7   8
ENDBRANCH   6   7
ENDBRANCH   5   6
ENDBRANCH   4   5
ENDBRANCH   3   4
TORSDOF 13
ENDMDL
MODEL      416
REMARK 921   NORMALIZED FREE ENERGY PREDICTED BY IDOCK:   -2.04 KCAL/MOL
REMARK 922        TOTAL FREE ENERGY PREDICTED BY IDOCK:   -5.16 KCAL/MOL
REMARK 923 INTER-LIGAND FREE ENERGY PREDICTED BY IDOCK:   -4.26 KCAL/MOL
REMARK 924 INTRA-LIGAND FREE ENERGY PREDICTED BY IDOCK:   -0.91 KCAL/MOL
REMARK 927      BINDING AFFINITY PREDICTED BY RF-SCORE:    0.00 PKD
ROOT
HETATM    1 NA   UNL     1     -12.375  16.579  71.993  1.00  0.00    -0.405 Na 
HETATM    2  C   UNL     2     -10.990  16.912  69.267  1.00  0.00    -0.112 C  
HETATM    3  C   UNL     2     -10.073  15.717  69.064  1.00  0.00    -0.225 C  
ENDROOT
BRANCH   3   4
HETATM    4  C   UNL     2     -10.428  14.979  67.778  1.00  0.00    -0.249 C  
BRANCH   4   5
HETATM    5  C   UNL     2     -11.661  14.098  67.957  1.00  0.00    -0.394 C  
BRANCH   5   6
HETATM    6  C   UNL     2     -11.643  13.433  69.331  1.00  0.00    -0.365 C  
BRANCH   6   7
HETATM    7  C   UNL     2     -11.376  11.937  69.219  1.00  0.00    -0.338 C  
BRANCH   7   8
HETATM    8  C   UNL     2     -11.704  11.438  67.815  1.00  0.00    -0.279 C  
BRANCH   8   9
HETATM    9  C   UNL     2     -10.708  10.373  67.370  1.00  0.00    -0.338 C  
BRANCH   9  10
HETATM   10  C   UNL     2      -9.289  10.743  67.794  1.00  0.00    -0.158 C  
BRANCH  10  11
HETATM   11  C   UNL     2      -8.272  10.204  66.793  1.00  0.00    -0.122 C  
BRANCH  11  12
HETATM   12  C   UNL     2      -7.343   9.186  67.445  1.00  0.00    -0.084 C  
BRANCH  12  13
HETATM   13  C   UNL     2      -7.996   8.563  68.674  1.00  0.00    -0.116 C  
BRANCH  13  14
HETATM   14  O   UNL     2      -7.367   7.320  68.997  1.00  0.00    -0.086 OA 
BRANCH  14  15
HETATM   15  C   UNL     2      -8.186   6.224  68.987  1.00  0.00    -0.114 C  
HETATM   16  O   UNL     2      -7.906   5.172  68.419  1.00  0.00    -0.085 OA 
BRANCH  15  17
HETATM   17  C   UNL     2      -9.504   6.537  69.596  1.00  0.00    -0.145 C  
HETATM   18  S   UNL     2      -9.524   6.081  71.292  1.00  0.00    -0.164 S  
HETATM   19  O   UNL     2      -9.271   4.643  71.284  1.00  0.00    -0.129 OA 
HETATM   20  O   UNL     2     -10.878   6.456  71.699  1.00  0.00    -0.232 OA 
HETATM   21  O   UNL     2      -8.468   6.892  71.897  1.00  0.00    -0.115 OA 
ENDBRANCH  15  17
ENDBRANCH  14  15
ENDBRANCH  13  14
ENDBRANCH  12  13
ENDBRANCH  11  12
ENDBRANCH  10  11
ENDBRANCH   9  10
ENDBRANCH   8   9
ENDBRANCH   7   8
ENDBRANCH   6   7
ENDBRANCH   5   6
ENDBRANCH   4   5
ENDBRANCH   3   4
TORSDOF 13
ENDMDL
MODEL      417
REMARK 921   NORMALIZED FREE ENERGY PREDICTED BY IDOCK:   -1.99 KCAL/MOL
REMARK 922        TOTAL FREE ENERGY PREDICTED BY IDOCK:   -5.07 KCAL/MOL
REMARK 923 INTER-LIGAND FREE ENERGY PREDICTED BY IDOCK:   -4.43 KCAL/MOL
REMARK 924 INTRA-LIGAND FREE ENERGY PREDICTED BY IDOCK:   -0.64 KCAL/MOL
REMARK 927      BINDING AFFINITY PREDICTED BY RF-SCORE:    0.00 PKD
ROOT
HETATM    1 NA   UNL     1     -12.469  10.976  62.335  1.00  0.00    -0.913 Na 
HETATM    2  C   UNL     2      -9.889  10.472  63.932  1.00  0.00    -0.373 C  
HETATM    3  C   UNL     2      -8.965   9.632  63.067  1.00  0.00    -0.257 C  
ENDROOT
BRANCH   3   4
HETATM    4  C   UNL     2      -7.628  10.337  62.864  1.00  0.00    -0.141 C  
BRANCH   4   5
HETATM    5  C   UNL     2      -6.470   9.343  62.815  1.00  0.00    -0.097 C  
BRANCH   5   6
HETATM    6  C   UNL     2      -6.994   7.913  62.920  1.00  0.00    -0.085 C  
BRANCH   6   7
HETATM    7  C   UNL     2      -6.208   7.110  63.949  1.00  0.00    -0.044 C  
BRANCH   7   8
HETATM    8  C   UNL     2      -6.289   7.772  65.322  1.00  0.00    -0.038 C  
BRANCH   8   9
HETATM    9  C   UNL     2      -6.034   6.758  66.430  1.00  0.00    -0.029 C  
BRANCH   9  10
HETATM   10  C   UNL     2      -7.301   5.965  66.745  1.00  0.00    -0.079 C  
BRANCH  10  11
HETATM   11  C   UNL     2      -8.484   6.507  65.949  1.00  0.00    -0.147 C  
BRANCH  11  12
HETATM   12  C   UNL     2      -9.653   6.853  66.865  1.00  0.00    -0.205 C  
BRANCH  12  13
HETATM   13  C   UNL     2      -9.266   6.674  68.329  1.00  0.00    -0.121 C  
BRANCH  13  14
HETATM   14  O   UNL     2      -9.350   7.921  69.024  1.00  0.00    -0.151 OA 
BRANCH  14  15
HETATM   15  C   UNL     2     -10.583   8.515  69.023  1.00  0.00    -0.154 C  
HETATM   16  O   UNL     2     -10.876   9.473  68.313  1.00  0.00    -0.213 OA 
BRANCH  15  17
HETATM   17  C   UNL     2     -11.443   7.961  70.101  1.00  0.00    -0.017 C  
HETATM   18  S   UNL     2     -11.238   8.876  71.586  1.00  0.00    -0.369 S  
HETATM   19  O   UNL     2      -9.821   8.728  71.908  1.00  0.00    -0.287 OA 
HETATM   20  O   UNL     2     -12.143   8.185  72.504  1.00  0.00    -0.365 OA 
HETATM   21  O   UNL     2     -11.655  10.233  71.236  1.00  0.00    -0.344 OA 
ENDBRANCH  15  17
ENDBRANCH  14  15
ENDBRANCH  13  14
ENDBRANCH  12  13
ENDBRANCH  11  12
ENDBRANCH  10  11
ENDBRANCH   9  10
ENDBRANCH   8   9
ENDBRANCH   7   8
ENDBRANCH   6   7
ENDBRANCH   5   6
ENDBRANCH   4   5
ENDBRANCH   3   4
TORSDOF 13
ENDMDL
MODEL      418
REMARK 921   NORMALIZED FREE ENERGY PREDICTED BY IDOCK:   -1.97 KCAL/MOL
REMARK 922        TOTAL FREE ENERGY PREDICTED BY IDOCK:   -5.03 KCAL/MOL
REMARK 923 INTER-LIGAND FREE ENERGY PREDICTED BY IDOCK:   -4.77 KCAL/MOL
REMARK 924 INTRA-LIGAND FREE ENERGY PREDICTED BY IDOCK:   -0.26 KCAL/MOL
REMARK 927      BINDING AFFINITY PREDICTED BY RF-SCORE:    0.00 PKD
ROOT
HETATM    1 NA   UNL     1     -11.144  10.582  63.767  1.00  0.00    -0.495 Na 
HETATM    2  C   UNL     2     -11.121  10.705  66.840  1.00  0.00    -0.162 C  
HETATM    3  C   UNL     2     -10.315   9.520  67.346  1.00  0.00    -0.319 C  
ENDROOT
BRANCH   3   4
HETATM    4  C   UNL     2      -9.157   9.990  68.220  1.00  0.00    -0.122 C  
BRANCH   4   5
HETATM    5  C   UNL     2      -7.853  10.067  67.431  1.00  0.00    -0.099 C  
BRANCH   5   6
HETATM    6  C   UNL     2      -6.923  11.111  68.044  1.00  0.00    -0.068 C  
BRANCH   6   7
HETATM    7  C   UNL     2      -6.222  11.929  66.966  1.00  0.00    -0.145 C  
BRANCH   7   8
HETATM    8  C   UNL     2      -6.234  13.413  67.326  1.00  0.00     0.232 C  
BRANCH   8   9
HETATM    9  C   UNL     2      -5.496  13.660  68.636  1.00  0.00    -0.084 C  
BRANCH   9  10
HETATM   10  C   UNL     2      -5.697  15.096  69.112  1.00  0.00    -0.098 C  
BRANCH  10  11
HETATM   11  C   UNL     2      -5.410  16.081  67.983  1.00  0.00    -0.128 C  
BRANCH  11  12
HETATM   12  C   UNL     2      -6.683  16.791  67.534  1.00  0.00    -0.173 C  
BRANCH  12  13
HETATM   13  C   UNL     2      -7.441  17.354  68.732  1.00  0.00    -0.258 C  
BRANCH  13  14
HETATM   14  O   UNL     2      -8.602  18.067  68.297  1.00  0.00    -0.272 OA 
BRANCH  14  15
HETATM   15  C   UNL     2      -9.773  17.358  68.317  1.00  0.00    -0.299 C  
HETATM   16  O   UNL     2     -10.054  16.536  69.185  1.00  0.00    -0.262 OA 
BRANCH  15  17
HETATM   17  C   UNL     2     -10.560  17.591  67.079  1.00  0.00    -0.245 C  
HETATM   18  S   UNL     2     -10.183  16.373  65.871  1.00  0.00    -0.348 S  
HETATM   19  O   UNL     2      -8.752  16.534  65.628  1.00  0.00    -0.401 OA 
HETATM   20  O   UNL     2     -11.035  16.772  64.751  1.00  0.00    -0.732 OA 
HETATM   21  O   UNL     2     -10.566  15.109  66.498  1.00  0.00    -0.291 OA 
ENDBRANCH  15  17
ENDBRANCH  14  15
ENDBRANCH  13  14
ENDBRANCH  12  13
ENDBRANCH  11  12
ENDBRANCH  10  11
ENDBRANCH   9  10
ENDBRANCH   8   9
ENDBRANCH   7   8
ENDBRANCH   6   7
ENDBRANCH   5   6
ENDBRANCH   4   5
ENDBRANCH   3   4
TORSDOF 13
ENDMDL
MODEL      419
REMARK 921   NORMALIZED FREE ENERGY PREDICTED BY IDOCK:   -1.94 KCAL/MOL
REMARK 922        TOTAL FREE ENERGY PREDICTED BY IDOCK:   -4.98 KCAL/MOL
REMARK 923 INTER-LIGAND FREE ENERGY PREDICTED BY IDOCK:   -4.62 KCAL/MOL
REMARK 924 INTRA-LIGAND FREE ENERGY PREDICTED BY IDOCK:   -0.36 KCAL/MOL
REMARK 927      BINDING AFFINITY PREDICTED BY RF-SCORE:    0.00 PKD
ROOT
HETATM    1 NA   UNL     1     -10.837  10.289  62.782  1.00  0.00    -0.498 Na 
HETATM    2  C   UNL     2     -12.375  12.890  63.354  1.00  0.00    -0.498 C  
HETATM    3  C   UNL     2     -12.887  12.822  64.784  1.00  0.00    -0.374 C  
ENDROOT
BRANCH   3   4
HETATM    4  C   UNL     2     -12.378  14.008  65.595  1.00  0.00    -0.502 C  
BRANCH   4   5
HETATM    5  C   UNL     2     -10.942  13.794  66.064  1.00  0.00    -0.284 C  
BRANCH   5   6
HETATM    6  C   UNL     2     -10.834  12.501  66.868  1.00  0.00    -0.280 C  
BRANCH   6   7
HETATM    7  C   UNL     2     -10.887  11.278  65.959  1.00  0.00    -0.273 C  
BRANCH   7   8
HETATM    8  C   UNL     2      -9.517  10.609  65.880  1.00  0.00    -0.239 C  
BRANCH   8   9
HETATM    9  C   UNL     2      -8.715  10.863  67.151  1.00  0.00    -0.132 C  
BRANCH   9  10
HETATM   10  C   UNL     2      -8.328   9.548  67.823  1.00  0.00    -0.118 C  
BRANCH  10  11
HETATM   11  C   UNL     2      -7.091   9.734  68.695  1.00  0.00    -0.071 C  
BRANCH  11  12
HETATM   12  C   UNL     2      -7.475  10.045  70.138  1.00  0.00    -0.176 C  
BRANCH  12  13
HETATM   13  C   UNL     2      -7.878   8.774  70.877  1.00  0.00    -0.120 C  
BRANCH  13  14
HETATM   14  O   UNL     2      -9.081   8.990  71.622  1.00  0.00    -0.300 OA 
BRANCH  14  15
HETATM   15  C   UNL     2     -10.237   8.598  71.002  1.00  0.00    -0.220 C  
HETATM   16  O   UNL     2     -10.277   7.756  70.109  1.00  0.00    -0.198 OA 
BRANCH  15  17
HETATM   17  C   UNL     2     -11.384   9.438  71.432  1.00  0.00    -0.381 C  
HETATM   18  S   UNL     2     -11.760  10.642  70.211  1.00  0.00    -0.368 S  
HETATM   19  O   UNL     2     -10.537  11.433  70.094  1.00  0.00     0.362 OA 
HETATM   20  O   UNL     2     -12.886  11.354  70.813  1.00  0.00    -0.265 OA 
HETATM   21  O   UNL     2     -12.106   9.859  69.025  1.00  0.00     0.313 OA 
ENDBRANCH  15  17
ENDBRANCH  14  15
ENDBRANCH  13  14
ENDBRANCH  12  13
ENDBRANCH  11  12
ENDBRANCH  10  11
ENDBRANCH   9  10
ENDBRANCH   8   9
ENDBRANCH   7   8
ENDBRANCH   6   7
ENDBRANCH   5   6
ENDBRANCH   4   5
ENDBRANCH   3   4
TORSDOF 13
ENDMDL
MODEL      420
REMARK 921   NORMALIZED FREE ENERGY PREDICTED BY IDOCK:   -1.94 KCAL/MOL
REMARK 922        TOTAL FREE ENERGY PREDICTED BY IDOCK:   -4.97 KCAL/MOL
REMARK 923 INTER-LIGAND FREE ENERGY PREDICTED BY IDOCK:   -4.67 KCAL/MOL
REMARK 924 INTRA-LIGAND FREE ENERGY PREDICTED BY IDOCK:   -0.30 KCAL/MOL
REMARK 927      BINDING AFFINITY PREDICTED BY RF-SCORE:    0.00 PKD
ROOT
HETATM    1 NA   UNL     1     -11.679  15.223  66.336  1.00  0.00    -0.339 Na 
HETATM    2  C   UNL     2     -11.826  12.617  67.963  1.00  0.00    -0.376 C  
HETATM    3  C   UNL     2     -11.259  12.899  69.344  1.00  0.00    -0.197 C  
ENDROOT
BRANCH   3   4
HETATM    4  C   UNL     2     -12.284  12.568  70.424  1.00  0.00    -0.368 C  
BRANCH   4   5
HETATM    5  C   UNL     2     -12.187  11.110  70.862  1.00  0.00    -0.468 C  
BRANCH   5   6
HETATM    6  C   UNL     2     -11.574  10.262  69.751  1.00  0.00    -0.294 C  
BRANCH   6   7
HETATM    7  C   UNL     2     -10.419   9.415  70.273  1.00  0.00    -0.298 C  
BRANCH   7   8
HETATM    8  C   UNL     2      -9.080  10.041  69.891  1.00  0.00    -0.188 C  
BRANCH   8   9
HETATM    9  C   UNL     2      -8.440   9.288  68.731  1.00  0.00    -0.129 C  
BRANCH   9  10
HETATM   10  C   UNL     2      -8.673  10.020  67.411  1.00  0.00    -0.125 C  
BRANCH  10  11
HETATM   11  C   UNL     2      -9.690   9.272  66.555  1.00  0.00    -0.305 C  
BRANCH  11  12
HETATM   12  C   UNL     2      -9.035   8.678  65.313  1.00  0.00    -0.150 C  
BRANCH  12  13
HETATM   13  C   UNL     2      -8.473   7.291  65.606  1.00  0.00    -0.131 C  
BRANCH  13  14
HETATM   14  O   UNL     2      -9.370   6.556  66.443  1.00  0.00    -0.160 OA 
BRANCH  14  15
HETATM   15  C   UNL     2      -9.603   5.261  66.065  1.00  0.00    -0.149 C  
HETATM   16  O   UNL     2     -10.166   4.436  66.779  1.00  0.00    -0.202 OA 
BRANCH  15  17
HETATM   17  C   UNL     2      -8.940   4.956  64.771  1.00  0.00    -0.125 C  
HETATM   18  S   UNL     2      -9.590   3.479  64.078  1.00  0.00    -0.165 S  
HETATM   19  O   UNL     2      -9.302   2.453  65.077  1.00  0.00    -0.141 OA 
HETATM   20  O   UNL     2      -8.822   3.352  62.841  1.00  0.00    -0.091 OA 
HETATM   21  O   UNL     2     -11.010   3.766  63.878  1.00  0.00    -0.272 OA 
ENDBRANCH  15  17
ENDBRANCH  14  15
ENDBRANCH  13  14
ENDBRANCH  12  13
ENDBRANCH  11  12
ENDBRANCH  10  11
ENDBRANCH   9  10
ENDBRANCH   8   9
ENDBRANCH   7   8
ENDBRANCH   6   7
ENDBRANCH   5   6
ENDBRANCH   4   5
ENDBRANCH   3   4
TORSDOF 13
ENDMDL
MODEL      421
REMARK 921   NORMALIZED FREE ENERGY PREDICTED BY IDOCK:   -1.92 KCAL/MOL
REMARK 922        TOTAL FREE ENERGY PREDICTED BY IDOCK:   -4.94 KCAL/MOL
REMARK 923 INTER-LIGAND FREE ENERGY PREDICTED BY IDOCK:   -5.30 KCAL/MOL
REMARK 924 INTRA-LIGAND FREE ENERGY PREDICTED BY IDOCK:    0.36 KCAL/MOL
REMARK 927      BINDING AFFINITY PREDICTED BY RF-SCORE:    0.00 PKD
ROOT
HETATM    1 NA   UNL     1      -7.871   8.498  69.754  1.00  0.00    -0.076 Na 
HETATM    2  C   UNL     2      -7.381   6.738  67.280  1.00  0.00    -0.091 C  
HETATM    3  C   UNL     2      -7.038   5.339  67.766  1.00  0.00    -0.067 C  
ENDROOT
BRANCH   3   4
HETATM    4  C   UNL     2      -8.006   4.314  67.184  1.00  0.00    -0.097 C  
BRANCH   4   5
HETATM    5  C   UNL     2      -8.148   3.097  68.093  1.00  0.00    -0.080 C  
BRANCH   5   6
HETATM    6  C   UNL     2      -9.034   3.429  69.290  1.00  0.00    -0.178 C  
BRANCH   6   7
HETATM    7  C   UNL     2      -9.338   4.921  69.358  1.00  0.00    -0.186 C  
BRANCH   7   8
HETATM    8  C   UNL     2     -10.188   5.240  70.585  1.00  0.00    -0.327 C  
BRANCH   8   9
HETATM    9  C   UNL     2     -10.965   6.536  70.385  1.00  0.00    -0.353 C  
BRANCH   9  10
HETATM   10  C   UNL     2     -11.556   7.026  71.705  1.00  0.00    -0.320 C  
BRANCH  10  11
HETATM   11  C   UNL     2     -12.833   7.822  71.458  1.00  0.00    -0.357 C  
BRANCH  11  12
HETATM   12  C   UNL     2     -12.929   9.017  72.401  1.00  0.00    -0.471 C  
BRANCH  12  13
HETATM   13  C   UNL     2     -12.939  10.326  71.618  1.00  0.00    -0.465 C  
BRANCH  13  14
HETATM   14  O   UNL     2     -12.072  10.236  70.484  1.00  0.00    -0.279 OA 
BRANCH  14  15
HETATM   15  C   UNL     2     -11.675  11.431  69.948  1.00  0.00    -0.346 C  
HETATM   16  O   UNL     2     -12.228  12.500  70.188  1.00  0.00    -0.302 OA 
BRANCH  15  17
HETATM   17  C   UNL     2     -10.616  11.231  68.926  1.00  0.00    -0.207 C  
HETATM   18  S   UNL     2     -10.902  12.258  67.531  1.00  0.00    -0.244 S  
HETATM   19  O   UNL     2     -12.208  11.835  67.031  1.00  0.00    -0.425 OA 
HETATM   20  O   UNL     2      -9.780  11.917  66.657  1.00  0.00    -0.197 OA 
HETATM   21  O   UNL     2     -10.856  13.618  68.066  1.00  0.00    -0.237 OA 
ENDBRANCH  15  17
ENDBRANCH  14  15
ENDBRANCH  13  14
ENDBRANCH  12  13
ENDBRANCH  11  12
ENDBRANCH  10  11
ENDBRANCH   9  10
ENDBRANCH   8   9
ENDBRANCH   7   8
ENDBRANCH   6   7
ENDBRANCH   5   6
ENDBRANCH   4   5
ENDBRANCH   3   4
TORSDOF 13
ENDMDL
MODEL      422
REMARK 921   NORMALIZED FREE ENERGY PREDICTED BY IDOCK:   -1.92 KCAL/MOL
REMARK 922        TOTAL FREE ENERGY PREDICTED BY IDOCK:   -4.93 KCAL/MOL
REMARK 923 INTER-LIGAND FREE ENERGY PREDICTED BY IDOCK:   -4.04 KCAL/MOL
REMARK 924 INTRA-LIGAND FREE ENERGY PREDICTED BY IDOCK:   -0.89 KCAL/MOL
REMARK 927      BINDING AFFINITY PREDICTED BY RF-SCORE:    0.00 PKD
ROOT
HETATM    1 NA   UNL     1     -12.390   9.979  68.761  1.00  0.00    -0.507 Na 
HETATM    2  C   UNL     2     -10.928  11.321  66.413  1.00  0.00    -0.285 C  
HETATM    3  C   UNL     2      -9.596  10.614  66.230  1.00  0.00    -0.228 C  
ENDROOT
BRANCH   3   4
HETATM    4  C   UNL     2      -9.469  10.061  64.814  1.00  0.00    -0.366 C  
BRANCH   4   5
HETATM    5  C   UNL     2      -8.010   9.828  64.431  1.00  0.00    -0.145 C  
BRANCH   5   6
HETATM    6  C   UNL     2      -7.809   8.390  63.961  1.00  0.00    -0.146 C  
BRANCH   6   7
HETATM    7  C   UNL     2      -7.628   7.442  65.141  1.00  0.00    -0.104 C  
BRANCH   7   8
HETATM    8  C   UNL     2      -8.493   6.197  64.966  1.00  0.00    -0.071 C  
BRANCH   8   9
HETATM    9  C   UNL     2      -9.593   6.148  66.020  1.00  0.00    -0.002 C  
BRANCH   9  10
HETATM   10  C   UNL     2     -10.174   4.741  66.135  1.00  0.00    -0.313 C  
BRANCH  10  11
HETATM   11  C   UNL     2      -9.134   3.774  66.691  1.00  0.00    -0.167 C  
BRANCH  11  12
HETATM   12  C   UNL     2      -9.436   3.412  68.141  1.00  0.00    -0.211 C  
BRANCH  12  13
HETATM   13  C   UNL     2      -8.544   4.202  69.094  1.00  0.00    -0.082 C  
BRANCH  13  14
HETATM   14  O   UNL     2      -9.339   4.898  70.059  1.00  0.00    -0.124 OA 
BRANCH  14  15
HETATM   15  C   UNL     2      -8.930   4.776  71.359  1.00  0.00    -0.133 C  
HETATM   16  O   UNL     2      -7.809   5.087  71.751  1.00  0.00    -0.103 OA 
BRANCH  15  17
HETATM   17  C   UNL     2      -9.951   4.070  72.175  1.00  0.00    -0.172 C  
HETATM   18  S   UNL     2     -10.990   5.222  72.997  1.00  0.00    -0.319 S  
HETATM   19  O   UNL     2     -10.079   5.994  73.838  1.00  0.00    -0.199 OA 
HETATM   20  O   UNL     2     -11.901   4.349  73.735  1.00  0.00    -0.071 OA 
HETATM   21  O   UNL     2     -11.622   5.976  71.915  1.00  0.00    -0.295 OA 
ENDBRANCH  15  17
ENDBRANCH  14  15
ENDBRANCH  13  14
ENDBRANCH  12  13
ENDBRANCH  11  12
ENDBRANCH  10  11
ENDBRANCH   9  10
ENDBRANCH   8   9
ENDBRANCH   7   8
ENDBRANCH   6   7
ENDBRANCH   5   6
ENDBRANCH   4   5
ENDBRANCH   3   4
TORSDOF 13
ENDMDL
MODEL      423
REMARK 921   NORMALIZED FREE ENERGY PREDICTED BY IDOCK:   -1.91 KCAL/MOL
REMARK 922        TOTAL FREE ENERGY PREDICTED BY IDOCK:   -4.92 KCAL/MOL
REMARK 923 INTER-LIGAND FREE ENERGY PREDICTED BY IDOCK:   -4.65 KCAL/MOL
REMARK 924 INTRA-LIGAND FREE ENERGY PREDICTED BY IDOCK:   -0.27 KCAL/MOL
REMARK 927      BINDING AFFINITY PREDICTED BY RF-SCORE:    0.00 PKD
ROOT
HETATM    1 NA   UNL     1      -6.036  20.015  65.916  1.00  0.00    -0.167 Na 
HETATM    2  C   UNL     2      -8.173  18.415  67.444  1.00  0.00    -0.248 C  
HETATM    3  C   UNL     2      -9.303  18.107  66.475  1.00  0.00    -0.301 C  
ENDROOT
BRANCH   3   4
HETATM    4  C   UNL     2      -9.539  16.603  66.384  1.00  0.00    -0.308 C  
BRANCH   4   5
HETATM    5  C   UNL     2     -10.611  16.265  65.352  1.00  0.00    -0.371 C  
BRANCH   5   6
HETATM    6  C   UNL     2     -10.651  14.759  65.103  1.00  0.00    -0.439 C  
BRANCH   6   7
HETATM    7  C   UNL     2     -10.706  13.983  66.414  1.00  0.00    -0.278 C  
BRANCH   7   8
HETATM    8  C   UNL     2      -9.348  13.360  66.725  1.00  0.00    -0.260 C  
BRANCH   8   9
HETATM    9  C   UNL     2      -9.512  12.062  67.508  1.00  0.00    -0.178 C  
BRANCH   9  10
HETATM   10  C   UNL     2     -10.286  11.029  66.694  1.00  0.00    -0.288 C  
BRANCH  10  11
HETATM   11  C   UNL     2     -10.993  10.040  67.616  1.00  0.00    -0.297 C  
BRANCH  11  12
HETATM   12  C   UNL     2     -10.481   8.620  67.399  1.00  0.00    -0.351 C  
BRANCH  12  13
HETATM   13  C   UNL     2      -9.087   8.635  66.779  1.00  0.00    -0.149 C  
BRANCH  13  14
HETATM   14  O   UNL     2      -8.466   7.354  66.918  1.00  0.00    -0.118 OA 
BRANCH  14  15
HETATM   15  C   UNL     2      -8.144   6.724  65.746  1.00  0.00    -0.123 C  
HETATM   16  O   UNL     2      -8.314   7.224  64.637  1.00  0.00    -0.070 OA 
BRANCH  15  17
HETATM   17  C   UNL     2      -7.732   5.318  65.992  1.00  0.00    -0.091 C  
HETATM   18  S   UNL     2      -9.063   4.219  65.669  1.00  0.00    -0.146 S  
HETATM   19  O   UNL     2     -10.110   4.636  66.599  1.00  0.00    -0.218 OA 
HETATM   20  O   UNL     2      -8.471   2.917  65.969  1.00  0.00    -0.096 OA 
HETATM   21  O   UNL     2      -9.372   4.430  64.255  1.00  0.00    -0.154 OA 
ENDBRANCH  15  17
ENDBRANCH  14  15
ENDBRANCH  13  14
ENDBRANCH  12  13
ENDBRANCH  11  12
ENDBRANCH  10  11
ENDBRANCH   9  10
ENDBRANCH   8   9
ENDBRANCH   7   8
ENDBRANCH   6   7
ENDBRANCH   5   6
ENDBRANCH   4   5
ENDBRANCH   3   4
TORSDOF 13
ENDMDL
MODEL      424
REMARK 921   NORMALIZED FREE ENERGY PREDICTED BY IDOCK:   -1.90 KCAL/MOL
REMARK 922        TOTAL FREE ENERGY PREDICTED BY IDOCK:   -4.92 KCAL/MOL
REMARK 923 INTER-LIGAND FREE ENERGY PREDICTED BY IDOCK:   -4.71 KCAL/MOL
REMARK 924 INTRA-LIGAND FREE ENERGY PREDICTED BY IDOCK:   -0.21 KCAL/MOL
REMARK 927      BINDING AFFINITY PREDICTED BY RF-SCORE:    0.00 PKD
ROOT
HETATM    1 NA   UNL     1     -10.591  10.366  63.411  1.00  0.00    -0.440 Na 
HETATM    2  C   UNL     2     -11.893  13.115  63.865  1.00  0.00    -0.533 C  
HETATM    3  C   UNL     2     -11.956  13.357  65.364  1.00  0.00    -0.419 C  
ENDROOT
BRANCH   3   4
HETATM    4  C   UNL     2     -11.231  14.647  65.733  1.00  0.00    -0.336 C  
BRANCH   4   5
HETATM    5  C   UNL     2      -9.725  14.527  65.516  1.00  0.00    -0.232 C  
BRANCH   5   6
HETATM    6  C   UNL     2      -8.998  15.681  66.201  1.00  0.00    -0.362 C  
BRANCH   6   7
HETATM    7  C   UNL     2      -8.185  15.193  67.394  1.00  0.00    -0.215 C  
BRANCH   7   8
HETATM    8  C   UNL     2      -6.703  15.500  67.195  1.00  0.00    -0.022 C  
BRANCH   8   9
HETATM    9  C   UNL     2      -6.503  16.942  66.743  1.00  0.00    -0.247 C  
BRANCH   9  10
HETATM   10  C   UNL     2      -5.597  17.697  67.713  1.00  0.00    -0.142 C  
BRANCH  10  11
HETATM   11  C   UNL     2      -5.818  19.201  67.594  1.00  0.00    -0.195 C  
BRANCH  11  12
HETATM   12  C   UNL     2      -7.295  19.528  67.403  1.00  0.00    -0.261 C  
BRANCH  12  13
HETATM   13  C   UNL     2      -8.060  19.366  68.712  1.00  0.00    -0.353 C  
BRANCH  13  14
HETATM   14  O   UNL     2      -8.974  18.269  68.623  1.00  0.00    -0.319 OA 
BRANCH  14  15
HETATM   15  C   UNL     2     -10.231  18.507  69.109  1.00  0.00    -0.041 C  
HETATM   16  O   UNL     2     -10.512  19.463  69.826  1.00  0.00     0.266 OA 
BRANCH  15  17
HETATM   17  C   UNL     2     -11.146  17.379  68.798  1.00  0.00     0.216 C  
HETATM   18  S   UNL     2     -10.877  16.042  69.904  1.00  0.00    -0.362 S  
HETATM   19  O   UNL     2      -9.482  15.669  69.687  1.00  0.00    -0.282 OA 
HETATM   20  O   UNL     2     -11.848  15.053  69.438  1.00  0.00    -0.303 OA 
HETATM   21  O   UNL     2     -11.171  16.599  71.224  1.00  0.00    -0.122 OA 
ENDBRANCH  15  17
ENDBRANCH  14  15
ENDBRANCH  13  14
ENDBRANCH  12  13
ENDBRANCH  11  12
ENDBRANCH  10  11
ENDBRANCH   9  10
ENDBRANCH   8   9
ENDBRANCH   7   8
ENDBRANCH   6   7
ENDBRANCH   5   6
ENDBRANCH   4   5
ENDBRANCH   3   4
TORSDOF 13
ENDMDL
MODEL      425
REMARK 921   NORMALIZED FREE ENERGY PREDICTED BY IDOCK:   -1.88 KCAL/MOL
REMARK 922        TOTAL FREE ENERGY PREDICTED BY IDOCK:   -4.87 KCAL/MOL
REMARK 923 INTER-LIGAND FREE ENERGY PREDICTED BY IDOCK:   -4.22 KCAL/MOL
REMARK 924 INTRA-LIGAND FREE ENERGY PREDICTED BY IDOCK:   -0.65 KCAL/MOL
REMARK 927      BINDING AFFINITY PREDICTED BY RF-SCORE:    0.00 PKD
ROOT
HETATM    1 NA   UNL     1      -5.169   1.778  63.250  1.00  0.00    -0.002 Na 
HETATM    2  C   UNL     2      -7.252   4.033  63.067  1.00  0.00    -0.049 C  
HETATM    3  C   UNL     2      -8.499   3.460  62.414  1.00  0.00    -0.073 C  
ENDROOT
BRANCH   3   4
HETATM    4  C   UNL     2      -9.713   3.641  63.320  1.00  0.00    -0.136 C  
BRANCH   4   5
HETATM    5  C   UNL     2      -9.366   3.378  64.783  1.00  0.00    -0.148 C  
BRANCH   5   6
HETATM    6  C   UNL     2     -10.232   4.242  65.696  1.00  0.00    -0.217 C  
BRANCH   6   7
HETATM    7  C   UNL     2      -9.559   5.575  66.000  1.00  0.00    -0.128 C  
BRANCH   7   8
HETATM    8  C   UNL     2      -8.380   5.377  66.949  1.00  0.00    -0.108 C  
BRANCH   8   9
HETATM    9  C   UNL     2      -8.699   5.929  68.333  1.00  0.00    -0.112 C  
BRANCH   9  10
HETATM   10  C   UNL     2      -8.015   7.276  68.554  1.00  0.00    -0.124 C  
BRANCH  10  11
HETATM   11  C   UNL     2      -8.927   8.419  68.122  1.00  0.00    -0.139 C  
BRANCH  11  12
HETATM   12  C   UNL     2      -8.203   9.379  67.185  1.00  0.00    -0.113 C  
BRANCH  12  13
HETATM   13  C   UNL     2      -8.575  10.825  67.497  1.00  0.00    -0.125 C  
BRANCH  13  14
HETATM   14  O   UNL     2      -9.590  11.284  66.599  1.00  0.00    -0.189 OA 
BRANCH  14  15
HETATM   15  C   UNL     2     -10.240  12.427  66.977  1.00  0.00    -0.220 C  
HETATM   16  O   UNL     2      -9.772  13.246  67.764  1.00  0.00    -0.205 OA 
BRANCH  15  17
HETATM   17  C   UNL     2     -11.628  12.451  66.450  1.00  0.00    -0.384 C  
HETATM   18  S   UNL     2     -11.923  13.933  65.554  1.00  0.00    -0.406 S  
HETATM   19  O   UNL     2     -11.709  14.996  66.532  1.00  0.00    -0.266 OA 
HETATM   20  O   UNL     2     -13.314  13.770  65.133  1.00  0.00    -0.688 OA 
HETATM   21  O   UNL     2     -10.953  13.894  64.460  1.00  0.00    -0.388 OA 
ENDBRANCH  15  17
ENDBRANCH  14  15
ENDBRANCH  13  14
ENDBRANCH  12  13
ENDBRANCH  11  12
ENDBRANCH  10  11
ENDBRANCH   9  10
ENDBRANCH   8   9
ENDBRANCH   7   8
ENDBRANCH   6   7
ENDBRANCH   5   6
ENDBRANCH   4   5
ENDBRANCH   3   4
TORSDOF 13
ENDMDL
MODEL      426
REMARK 921   NORMALIZED FREE ENERGY PREDICTED BY IDOCK:   -1.88 KCAL/MOL
REMARK 922        TOTAL FREE ENERGY PREDICTED BY IDOCK:   -4.87 KCAL/MOL
REMARK 923 INTER-LIGAND FREE ENERGY PREDICTED BY IDOCK:   -4.19 KCAL/MOL
REMARK 924 INTRA-LIGAND FREE ENERGY PREDICTED BY IDOCK:   -0.68 KCAL/MOL
REMARK 927      BINDING AFFINITY PREDICTED BY RF-SCORE:    0.00 PKD
ROOT
HETATM    1 NA   UNL     1     -13.654  10.340  71.130  1.00  0.00    -0.348 Na 
HETATM    2  C   UNL     2     -12.129  12.578  69.671  1.00  0.00    -0.272 C  
HETATM    3  C   UNL     2     -12.602  13.907  70.237  1.00  0.00    -0.328 C  
ENDROOT
BRANCH   3   4
HETATM    4  C   UNL     2     -11.426  14.704  70.791  1.00  0.00    -0.232 C  
BRANCH   4   5
HETATM    5  C   UNL     2     -11.140  15.943  69.947  1.00  0.00    -0.343 C  
BRANCH   5   6
HETATM    6  C   UNL     2     -10.340  15.564  68.703  1.00  0.00    -0.219 C  
BRANCH   6   7
HETATM    7  C   UNL     2      -9.146  16.490  68.508  1.00  0.00    -0.231 C  
BRANCH   7   8
HETATM    8  C   UNL     2      -7.953  16.006  69.329  1.00  0.00    -0.217 C  
BRANCH   8   9
HETATM    9  C   UNL     2      -7.757  14.503  69.168  1.00  0.00    -0.082 C  
BRANCH   9  10
HETATM   10  C   UNL     2      -7.499  14.140  67.708  1.00  0.00    -0.174 C  
BRANCH  10  11
HETATM   11  C   UNL     2      -6.406  13.081  67.603  1.00  0.00    -0.162 C  
BRANCH  11  12
HETATM   12  C   UNL     2      -6.735  11.863  68.459  1.00  0.00    -0.068 C  
BRANCH  12  13
HETATM   13  C   UNL     2      -7.413  10.781  67.624  1.00  0.00    -0.095 C  
BRANCH  13  14
HETATM   14  O   UNL     2      -7.509   9.563  68.370  1.00  0.00    -0.076 OA 
BRANCH  14  15
HETATM   15  C   UNL     2      -8.766   9.230  68.796  1.00  0.00    -0.132 C  
HETATM   16  O   UNL     2      -9.669   8.881  68.040  1.00  0.00    -0.149 OA 
BRANCH  15  17
HETATM   17  C   UNL     2      -8.930   9.511  70.245  1.00  0.00    -0.248 C  
HETATM   18  S   UNL     2      -9.539   8.093  71.084  1.00  0.00    -0.166 S  
HETATM   19  O   UNL     2     -10.825   7.820  70.447  1.00  0.00    -0.237 OA 
HETATM   20  O   UNL     2      -9.635   8.566  72.464  1.00  0.00    -0.282 OA 
HETATM   21  O   UNL     2      -8.512   7.075  70.866  1.00  0.00    -0.131 OA 
ENDBRANCH  15  17
ENDBRANCH  14  15
ENDBRANCH  13  14
ENDBRANCH  12  13
ENDBRANCH  11  12
ENDBRANCH  10  11
ENDBRANCH   9  10
ENDBRANCH   8   9
ENDBRANCH   7   8
ENDBRANCH   6   7
ENDBRANCH   5   6
ENDBRANCH   4   5
ENDBRANCH   3   4
TORSDOF 13
ENDMDL
MODEL      427
REMARK 921   NORMALIZED FREE ENERGY PREDICTED BY IDOCK:   -1.87 KCAL/MOL
REMARK 922        TOTAL FREE ENERGY PREDICTED BY IDOCK:   -4.85 KCAL/MOL
REMARK 923 INTER-LIGAND FREE ENERGY PREDICTED BY IDOCK:   -4.36 KCAL/MOL
REMARK 924 INTRA-LIGAND FREE ENERGY PREDICTED BY IDOCK:   -0.50 KCAL/MOL
REMARK 927      BINDING AFFINITY PREDICTED BY RF-SCORE:    0.00 PKD
ROOT
HETATM    1 NA   UNL     1      -7.045  15.988  66.255  1.00  0.00    -0.195 Na 
HETATM    2  C   UNL     2      -9.764  15.482  67.600  1.00  0.00    -0.212 C  
HETATM    3  C   UNL     2     -10.172  14.050  67.297  1.00  0.00    -0.260 C  
ENDROOT
BRANCH   3   4
HETATM    4  C   UNL     2     -10.407  13.273  68.588  1.00  0.00    -0.206 C  
BRANCH   4   5
HETATM    5  C   UNL     2     -11.859  12.818  68.713  1.00  0.00    -0.346 C  
BRANCH   5   6
HETATM    6  C   UNL     2     -11.954  11.302  68.560  1.00  0.00    -0.288 C  
BRANCH   6   7
HETATM    7  C   UNL     2     -11.408  10.586  69.790  1.00  0.00    -0.367 C  
BRANCH   7   8
HETATM    8  C   UNL     2     -12.511  10.378  70.824  1.00  0.00    -0.461 C  
BRANCH   8   9
HETATM    9  C   UNL     2     -12.446   8.974  71.413  1.00  0.00    -0.378 C  
BRANCH   9  10
HETATM   10  C   UNL     2     -11.095   8.324  71.126  1.00  0.00    -0.289 C  
BRANCH  10  11
HETATM   11  C   UNL     2     -11.114   6.850  71.518  1.00  0.00    -0.276 C  
BRANCH  11  12
HETATM   12  C   UNL     2     -11.028   5.951  70.289  1.00  0.00    -0.390 C  
BRANCH  12  13
HETATM   13  C   UNL     2      -9.948   6.444  69.332  1.00  0.00    -0.158 C  
BRANCH  13  14
HETATM   14  O   UNL     2      -9.623   5.426  68.380  1.00  0.00    -0.118 OA 
BRANCH  14  15
HETATM   15  C   UNL     2      -8.367   5.499  67.843  1.00  0.00    -0.099 C  
HETATM   16  O   UNL     2      -7.671   4.516  67.606  1.00  0.00    -0.084 OA 
BRANCH  15  17
HETATM   17  C   UNL     2      -7.907   6.909  67.751  1.00  0.00    -0.113 C  
HETATM   18  S   UNL     2      -6.235   7.048  68.270  1.00  0.00    -0.036 S  
HETATM   19  O   UNL     2      -6.246   6.583  69.654  1.00  0.00    -0.034 OA 
HETATM   20  O   UNL     2      -5.980   8.480  68.115  1.00  0.00    -0.044 OA 
HETATM   21  O   UNL     2      -5.494   6.200  67.337  1.00  0.00    -0.005 OA 
ENDBRANCH  15  17
ENDBRANCH  14  15
ENDBRANCH  13  14
ENDBRANCH  12  13
ENDBRANCH  11  12
ENDBRANCH  10  11
ENDBRANCH   9  10
ENDBRANCH   8   9
ENDBRANCH   7   8
ENDBRANCH   6   7
ENDBRANCH   5   6
ENDBRANCH   4   5
ENDBRANCH   3   4
TORSDOF 13
ENDMDL
MODEL      428
REMARK 921   NORMALIZED FREE ENERGY PREDICTED BY IDOCK:   -1.84 KCAL/MOL
REMARK 922        TOTAL FREE ENERGY PREDICTED BY IDOCK:   -4.80 KCAL/MOL
REMARK 923 INTER-LIGAND FREE ENERGY PREDICTED BY IDOCK:   -4.05 KCAL/MOL
REMARK 924 INTRA-LIGAND FREE ENERGY PREDICTED BY IDOCK:   -0.76 KCAL/MOL
REMARK 927      BINDING AFFINITY PREDICTED BY RF-SCORE:    0.00 PKD
ROOT
HETATM    1 NA   UNL     1     -11.577  16.433  71.571  1.00  0.00    -0.332 Na 
HETATM    2  C   UNL     2      -9.882  17.058  69.082  1.00  0.00    -0.198 C  
HETATM    3  C   UNL     2      -8.811  15.987  68.969  1.00  0.00    -0.244 C  
ENDROOT
BRANCH   3   4
HETATM    4  C   UNL     2      -8.896  15.279  67.621  1.00  0.00    -0.180 C  
BRANCH   4   5
HETATM    5  C   UNL     2     -10.062  14.297  67.575  1.00  0.00    -0.236 C  
BRANCH   5   6
HETATM    6  C   UNL     2     -10.175  13.544  68.898  1.00  0.00    -0.069 C  
BRANCH   6   7
HETATM    7  C   UNL     2     -10.774  12.157  68.698  1.00  0.00    -0.261 C  
BRANCH   7   8
HETATM    8  C   UNL     2     -11.712  12.147  67.493  1.00  0.00    -0.385 C  
BRANCH   8   9
HETATM    9  C   UNL     2     -11.498  10.896  66.649  1.00  0.00     0.271 C  
BRANCH   9  10
HETATM   10  C   UNL     2     -10.010  10.634  66.429  1.00  0.00    -0.273 C  
BRANCH  10  11
HETATM   11  C   UNL     2      -9.754  10.164  65.001  1.00  0.00    -0.384 C  
BRANCH  11  12
HETATM   12  C   UNL     2      -8.990   8.845  64.983  1.00  0.00    -0.160 C  
BRANCH  12  13
HETATM   13  C   UNL     2      -9.323   8.009  66.214  1.00  0.00    -0.184 C  
BRANCH  13  14
HETATM   14  O   UNL     2      -8.822   6.677  66.063  1.00  0.00    -0.153 OA 
BRANCH  14  15
HETATM   15  C   UNL     2      -9.754   5.681  66.171  1.00  0.00    -0.098 C  
HETATM   16  O   UNL     2      -9.873   4.770  65.357  1.00  0.00    -0.164 OA 
BRANCH  15  17
HETATM   17  C   UNL     2     -10.691   5.946  67.293  1.00  0.00    -0.297 C  
HETATM   18  S   UNL     2     -10.040   5.328  68.802  1.00  0.00    -0.160 S  
HETATM   19  O   UNL     2      -9.884   3.895  68.568  1.00  0.00    -0.090 OA 
HETATM   20  O   UNL     2     -11.089   5.675  69.759  1.00  0.00    -0.328 OA 
HETATM   21  O   UNL     2      -8.790   6.064  68.985  1.00  0.00    -0.121 OA 
ENDBRANCH  15  17
ENDBRANCH  14  15
ENDBRANCH  13  14
ENDBRANCH  12  13
ENDBRANCH  11  12
ENDBRANCH  10  11
ENDBRANCH   9  10
ENDBRANCH   8   9
ENDBRANCH   7   8
ENDBRANCH   6   7
ENDBRANCH   5   6
ENDBRANCH   4   5
ENDBRANCH   3   4
TORSDOF 13
ENDMDL
MODEL      429
REMARK 921   NORMALIZED FREE ENERGY PREDICTED BY IDOCK:   -1.82 KCAL/MOL
REMARK 922        TOTAL FREE ENERGY PREDICTED BY IDOCK:   -4.77 KCAL/MOL
REMARK 923 INTER-LIGAND FREE ENERGY PREDICTED BY IDOCK:   -4.07 KCAL/MOL
REMARK 924 INTRA-LIGAND FREE ENERGY PREDICTED BY IDOCK:   -0.70 KCAL/MOL
REMARK 927      BINDING AFFINITY PREDICTED BY RF-SCORE:    0.00 PKD
ROOT
HETATM    1 NA   UNL     1      -6.188   2.350  63.936  1.00  0.00    -0.011 Na 
HETATM    2  C   UNL     2      -7.599   3.945  66.155  1.00  0.00    -0.089 C  
HETATM    3  C   UNL     2      -9.090   3.678  66.041  1.00  0.00    -0.155 C  
ENDROOT
BRANCH   3   4
HETATM    4  C   UNL     2      -9.637   3.113  67.348  1.00  0.00    -0.074 C  
BRANCH   4   5
HETATM    5  C   UNL     2      -8.515   2.691  68.291  1.00  0.00    -0.097 C  
BRANCH   5   6
HETATM    6  C   UNL     2      -9.091   2.218  69.623  1.00  0.00    -0.175 C  
BRANCH   6   7
HETATM    7  C   UNL     2      -9.798   3.353  70.354  1.00  0.00    -0.020 C  
BRANCH   7   8
HETATM    8  C   UNL     2      -8.806   4.452  70.727  1.00  0.00    -0.139 C  
BRANCH   8   9
HETATM    9  C   UNL     2      -9.302   5.248  71.928  1.00  0.00    -0.167 C  
BRANCH   9  10
HETATM   10  C   UNL     2      -9.433   6.729  71.584  1.00  0.00    -0.155 C  
BRANCH  10  11
HETATM   11  C   UNL     2     -10.670   7.326  72.248  1.00  0.00    -0.266 C  
BRANCH  11  12
HETATM   12  C   UNL     2     -11.834   7.413  71.267  1.00  0.00    -0.330 C  
BRANCH  12  13
HETATM   13  C   UNL     2     -11.947   8.817  70.682  1.00  0.00    -0.054 C  
BRANCH  13  14
HETATM   14  O   UNL     2     -10.768   9.574  70.971  1.00  0.00    -0.300 OA 
BRANCH  14  15
HETATM   15  C   UNL     2     -10.014   9.930  69.886  1.00  0.00    -0.252 C  
HETATM   16  O   UNL     2      -8.803  10.130  69.937  1.00  0.00    -0.174 OA 
BRANCH  15  17
HETATM   17  C   UNL     2     -10.873  10.203  68.706  1.00  0.00    -0.225 C  
HETATM   18  S   UNL     2     -11.119  11.931  68.507  1.00  0.00    -0.265 S  
HETATM   19  O   UNL     2     -11.771  12.348  69.746  1.00  0.00    -0.307 OA 
HETATM   20  O   UNL     2     -11.975  11.989  67.323  1.00  0.00    -0.591 OA 
HETATM   21  O   UNL     2      -9.774  12.467  68.305  1.00  0.00    -0.219 OA 
ENDBRANCH  15  17
ENDBRANCH  14  15
ENDBRANCH  13  14
ENDBRANCH  12  13
ENDBRANCH  11  12
ENDBRANCH  10  11
ENDBRANCH   9  10
ENDBRANCH   8   9
ENDBRANCH   7   8
ENDBRANCH   6   7
ENDBRANCH   5   6
ENDBRANCH   4   5
ENDBRANCH   3   4
TORSDOF 13
ENDMDL
MODEL      430
REMARK 921   NORMALIZED FREE ENERGY PREDICTED BY IDOCK:   -1.76 KCAL/MOL
REMARK 922        TOTAL FREE ENERGY PREDICTED BY IDOCK:   -4.66 KCAL/MOL
REMARK 923 INTER-LIGAND FREE ENERGY PREDICTED BY IDOCK:   -4.01 KCAL/MOL
REMARK 924 INTRA-LIGAND FREE ENERGY PREDICTED BY IDOCK:   -0.65 KCAL/MOL
REMARK 927      BINDING AFFINITY PREDICTED BY RF-SCORE:    0.00 PKD
ROOT
HETATM    1 NA   UNL     1     -11.995  17.045  71.456  1.00  0.00    -0.612 Na 
HETATM    2  C   UNL     2     -12.186  14.863  69.297  1.00  0.00    -0.221 C  
HETATM    3  C   UNL     2     -11.398  13.659  69.783  1.00  0.00    -0.181 C  
ENDROOT
BRANCH   3   4
HETATM    4  C   UNL     2     -12.284  12.419  69.832  1.00  0.00    -0.227 C  
BRANCH   4   5
HETATM    5  C   UNL     2     -11.644  11.241  69.102  1.00  0.00    -0.387 C  
BRANCH   5   6
HETATM    6  C   UNL     2     -11.448  10.068  70.058  1.00  0.00    -0.310 C  
BRANCH   6   7
HETATM    7  C   UNL     2     -10.067   9.443  69.893  1.00  0.00    -0.243 C  
BRANCH   7   8
HETATM    8  C   UNL     2     -10.169   8.100  69.175  1.00  0.00    -0.219 C  
BRANCH   8   9
HETATM    9  C   UNL     2     -11.196   7.199  69.851  1.00  0.00    -0.241 C  
BRANCH   9  10
HETATM   10  C   UNL     2     -10.529   5.956  70.435  1.00  0.00    -0.324 C  
BRANCH  10  11
HETATM   11  C   UNL     2     -10.901   5.787  71.904  1.00  0.00    -0.309 C  
BRANCH  11  12
HETATM   12  C   UNL     2     -10.382   6.951  72.742  1.00  0.00    -0.238 C  
BRANCH  12  13
HETATM   13  C   UNL     2      -8.873   7.106  72.579  1.00  0.00    -0.123 C  
BRANCH  13  14
HETATM   14  O   UNL     2      -8.195   5.957  73.098  1.00  0.00    -0.116 OA 
BRANCH  14  15
HETATM   15  C   UNL     2      -6.853   6.112  73.314  1.00  0.00    -0.075 C  
HETATM   16  O   UNL     2      -6.384   6.767  74.241  1.00  0.00    -0.074 OA 
BRANCH  15  17
HETATM   17  C   UNL     2      -6.063   5.534  72.196  1.00  0.00    -0.034 C  
HETATM   18  S   UNL     2      -6.145   3.780  72.224  1.00  0.00    -0.010 S  
HETATM   19  O   UNL     2      -5.579   3.412  73.520  1.00  0.00     0.000 OA 
HETATM   20  O   UNL     2      -5.318   3.411  71.076  1.00  0.00    -0.007 OA 
HETATM   21  O   UNL     2      -7.568   3.481  72.063  1.00  0.00    -0.054 OA 
ENDBRANCH  15  17
ENDBRANCH  14  15
ENDBRANCH  13  14
ENDBRANCH  12  13
ENDBRANCH  11  12
ENDBRANCH  10  11
ENDBRANCH   9  10
ENDBRANCH   8   9
ENDBRANCH   7   8
ENDBRANCH   6   7
ENDBRANCH   5   6
ENDBRANCH   4   5
ENDBRANCH   3   4
TORSDOF 13
ENDMDL
MODEL      431
REMARK 921   NORMALIZED FREE ENERGY PREDICTED BY IDOCK:   -1.75 KCAL/MOL
REMARK 922        TOTAL FREE ENERGY PREDICTED BY IDOCK:   -4.65 KCAL/MOL
REMARK 923 INTER-LIGAND FREE ENERGY PREDICTED BY IDOCK:   -4.01 KCAL/MOL
REMARK 924 INTRA-LIGAND FREE ENERGY PREDICTED BY IDOCK:   -0.64 KCAL/MOL
REMARK 927      BINDING AFFINITY PREDICTED BY RF-SCORE:    0.00 PKD
ROOT
HETATM    1 NA   UNL     1     -14.240   7.208  70.250  1.00  0.00    -0.577 Na 
HETATM    2  C   UNL     2     -12.484   6.090  72.513  1.00  0.00     0.116 C  
HETATM    3  C   UNL     2     -11.033   6.343  72.143  1.00  0.00    -0.288 C  
ENDROOT
BRANCH   3   4
HETATM    4  C   UNL     2     -10.334   7.157  73.227  1.00  0.00    -0.369 C  
BRANCH   4   5
HETATM    5  C   UNL     2      -9.083   7.847  72.692  1.00  0.00    -0.256 C  
BRANCH   5   6
HETATM    6  C   UNL     2      -8.793   7.389  71.265  1.00  0.00    -0.138 C  
BRANCH   6   7
HETATM    7  C   UNL     2      -8.767   8.568  70.300  1.00  0.00    -0.144 C  
BRANCH   7   8
HETATM    8  C   UNL     2      -7.343   9.090  70.129  1.00  0.00    -0.065 C  
BRANCH   8   9
HETATM    9  C   UNL     2      -7.349  10.551  69.692  1.00  0.00    -0.151 C  
BRANCH   9  10
HETATM   10  C   UNL     2      -6.165  10.850  68.776  1.00  0.00    -0.044 C  
BRANCH  10  11
HETATM   11  C   UNL     2      -6.555  11.870  67.711  1.00  0.00    -0.084 C  
BRANCH  11  12
HETATM   12  C   UNL     2      -7.575  12.868  68.250  1.00  0.00    -0.134 C  
BRANCH  12  13
HETATM   13  C   UNL     2      -6.879  14.099  68.820  1.00  0.00    -0.101 C  
BRANCH  13  14
HETATM   14  O   UNL     2      -6.862  15.155  67.855  1.00  0.00    -0.124 OA 
BRANCH  14  15
HETATM   15  C   UNL     2      -7.466  16.319  68.242  1.00  0.00    -0.157 C  
HETATM   16  O   UNL     2      -7.038  17.435  67.959  1.00  0.00    -0.176 OA 
BRANCH  15  17
HETATM   17  C   UNL     2      -8.590  16.052  69.176  1.00  0.00    -0.247 C  
HETATM   18  S   UNL     2     -10.132  16.265  68.364  1.00  0.00    -0.247 S  
HETATM   19  O   UNL     2     -10.123  17.659  67.930  1.00  0.00    -0.311 OA 
HETATM   20  O   UNL     2     -11.089  15.969  69.430  1.00  0.00    -0.284 OA 
HETATM   21  O   UNL     2     -10.111  15.280  67.283  1.00  0.00    -0.233 OA 
ENDBRANCH  15  17
ENDBRANCH  14  15
ENDBRANCH  13  14
ENDBRANCH  12  13
ENDBRANCH  11  12
ENDBRANCH  10  11
ENDBRANCH   9  10
ENDBRANCH   8   9
ENDBRANCH   7   8
ENDBRANCH   6   7
ENDBRANCH   5   6
ENDBRANCH   4   5
ENDBRANCH   3   4
TORSDOF 13
ENDMDL
MODEL      432
REMARK 921   NORMALIZED FREE ENERGY PREDICTED BY IDOCK:   -1.75 KCAL/MOL
REMARK 922        TOTAL FREE ENERGY PREDICTED BY IDOCK:   -4.64 KCAL/MOL
REMARK 923 INTER-LIGAND FREE ENERGY PREDICTED BY IDOCK:   -4.34 KCAL/MOL
REMARK 924 INTRA-LIGAND FREE ENERGY PREDICTED BY IDOCK:   -0.29 KCAL/MOL
REMARK 927      BINDING AFFINITY PREDICTED BY RF-SCORE:    0.00 PKD
ROOT
HETATM    1 NA   UNL     1     -14.277  10.787  72.651  1.00  0.00    -0.519 Na 
HETATM    2  C   UNL     2     -12.157   9.110  71.185  1.00  0.00    -0.365 C  
HETATM    3  C   UNL     2     -11.929   7.842  71.992  1.00  0.00    -0.350 C  
ENDROOT
BRANCH   3   4
HETATM    4  C   UNL     2     -12.191   6.606  71.137  1.00  0.00    -0.357 C  
BRANCH   4   5
HETATM    5  C   UNL     2     -10.969   5.694  71.079  1.00  0.00    -0.247 C  
BRANCH   5   6
HETATM    6  C   UNL     2     -10.044   5.971  72.261  1.00  0.00    -0.205 C  
BRANCH   6   7
HETATM    7  C   UNL     2      -8.579   5.891  71.848  1.00  0.00    -0.137 C  
BRANCH   7   8
HETATM    8  C   UNL     2      -8.431   6.122  70.346  1.00  0.00    -0.133 C  
BRANCH   8   9
HETATM    9  C   UNL     2      -7.718   7.440  70.067  1.00  0.00    -0.095 C  
BRANCH   9  10
HETATM   10  C   UNL     2      -7.365   7.566  68.587  1.00  0.00    -0.095 C  
BRANCH  10  11
HETATM   11  C   UNL     2      -7.687   8.966  68.076  1.00  0.00    -0.101 C  
BRANCH  11  12
HETATM   12  C   UNL     2      -8.387   9.797  69.146  1.00  0.00    -0.137 C  
BRANCH  12  13
HETATM   13  C   UNL     2      -8.211  11.288  68.877  1.00  0.00    -0.079 C  
BRANCH  13  14
HETATM   14  O   UNL     2      -8.386  11.568  67.485  1.00  0.00    -0.134 OA 
BRANCH  14  15
HETATM   15  C   UNL     2      -9.298  12.544  67.189  1.00  0.00    -0.201 C  
HETATM   16  O   UNL     2      -9.771  13.308  68.026  1.00  0.00    -0.210 OA 
BRANCH  15  17
HETATM   17  C   UNL     2      -9.754  12.438  65.780  1.00  0.00    -0.200 C  
HETATM   18  S   UNL     2      -9.949  10.755  65.318  1.00  0.00    -0.303 S  
HETATM   19  O   UNL     2      -8.619  10.177  65.490  1.00  0.00    -0.139 OA 
HETATM   20  O   UNL     2     -10.387  10.863  63.927  1.00  0.00    -0.346 OA 
HETATM   21  O   UNL     2     -10.969  10.244  66.233  1.00  0.00     0.010 OA 
ENDBRANCH  15  17
ENDBRANCH  14  15
ENDBRANCH  13  14
ENDBRANCH  12  13
ENDBRANCH  11  12
ENDBRANCH  10  11
ENDBRANCH   9  10
ENDBRANCH   8   9
ENDBRANCH   7   8
ENDBRANCH   6   7
ENDBRANCH   5   6
ENDBRANCH   4   5
ENDBRANCH   3   4
TORSDOF 13
ENDMDL
MODEL      433
REMARK 921   NORMALIZED FREE ENERGY PREDICTED BY IDOCK:   -1.72 KCAL/MOL
REMARK 922        TOTAL FREE ENERGY PREDICTED BY IDOCK:   -4.59 KCAL/MOL
REMARK 923 INTER-LIGAND FREE ENERGY PREDICTED BY IDOCK:   -3.25 KCAL/MOL
REMARK 924 INTRA-LIGAND FREE ENERGY PREDICTED BY IDOCK:   -1.35 KCAL/MOL
REMARK 927      BINDING AFFINITY PREDICTED BY RF-SCORE:    0.00 PKD
ROOT
HETATM    1 NA   UNL     1     -10.991  12.801  67.750  1.00  0.00    -0.206 Na 
HETATM    2  C   UNL     2      -7.991  12.140  67.598  1.00  0.00    -0.157 C  
HETATM    3  C   UNL     2      -7.598  11.466  68.902  1.00  0.00    -0.114 C  
ENDROOT
BRANCH   3   4
HETATM    4  C   UNL     2      -6.990  10.093  68.636  1.00  0.00    -0.062 C  
BRANCH   4   5
HETATM    5  C   UNL     2      -6.684   9.891  67.155  1.00  0.00    -0.074 C  
BRANCH   5   6
HETATM    6  C   UNL     2      -7.595   8.815  66.567  1.00  0.00    -0.095 C  
BRANCH   6   7
HETATM    7  C   UNL     2      -8.491   8.202  67.637  1.00  0.00    -0.131 C  
BRANCH   7   8
HETATM    8  C   UNL     2      -8.332   6.684  67.663  1.00  0.00    -0.122 C  
BRANCH   8   9
HETATM    9  C   UNL     2      -8.575   6.137  69.065  1.00  0.00    -0.121 C  
BRANCH   9  10
HETATM   10  C   UNL     2      -7.660   6.816  70.081  1.00  0.00    -0.099 C  
BRANCH  10  11
HETATM   11  C   UNL     2      -8.309   6.830  71.462  1.00  0.00    -0.115 C  
BRANCH  11  12
HETATM   12  C   UNL     2      -8.444   8.253  71.993  1.00  0.00    -0.227 C  
BRANCH  12  13
HETATM   13  C   UNL     2      -9.806   8.461  72.647  1.00  0.00    -0.259 C  
BRANCH  13  14
HETATM   14  O   UNL     2     -10.850   8.005  71.781  1.00  0.00    -0.225 OA 
BRANCH  14  15
HETATM   15  C   UNL     2     -11.629   8.985  71.228  1.00  0.00    -0.317 C  
HETATM   16  O   UNL     2     -12.517   9.572  71.839  1.00  0.00    -0.369 OA 
BRANCH  15  17
HETATM   17  C   UNL     2     -11.369   9.114  69.771  1.00  0.00     0.030 C  
HETATM   18  S   UNL     2     -11.803  10.720  69.207  1.00  0.00    -0.252 S  
HETATM   19  O   UNL     2     -13.228  10.835  69.505  1.00  0.00     0.110 OA 
HETATM   20  O   UNL     2     -11.487  10.644  67.781  1.00  0.00    -0.460 OA 
HETATM   21  O   UNL     2     -10.936  11.618  69.969  1.00  0.00     0.018 OA 
ENDBRANCH  15  17
ENDBRANCH  14  15
ENDBRANCH  13  14
ENDBRANCH  12  13
ENDBRANCH  11  12
ENDBRANCH  10  11
ENDBRANCH   9  10
ENDBRANCH   8   9
ENDBRANCH   7   8
ENDBRANCH   6   7
ENDBRANCH   5   6
ENDBRANCH   4   5
ENDBRANCH   3   4
TORSDOF 13
ENDMDL
MODEL      434
REMARK 921   NORMALIZED FREE ENERGY PREDICTED BY IDOCK:   -1.71 KCAL/MOL
REMARK 922        TOTAL FREE ENERGY PREDICTED BY IDOCK:   -4.58 KCAL/MOL
REMARK 923 INTER-LIGAND FREE ENERGY PREDICTED BY IDOCK:   -4.05 KCAL/MOL
REMARK 924 INTRA-LIGAND FREE ENERGY PREDICTED BY IDOCK:   -0.53 KCAL/MOL
REMARK 927      BINDING AFFINITY PREDICTED BY RF-SCORE:    0.00 PKD
ROOT
HETATM    1 NA   UNL     1      -7.531  18.139  65.354  1.00  0.00    -0.229 Na 
HETATM    2  C   UNL     2     -10.321  17.129  66.163  1.00  0.00    -0.327 C  
HETATM    3  C   UNL     2     -10.677  15.968  65.249  1.00  0.00    -0.417 C  
ENDROOT
BRANCH   3   4
HETATM    4  C   UNL     2     -10.979  14.715  66.064  1.00  0.00    -0.325 C  
BRANCH   4   5
HETATM    5  C   UNL     2     -11.766  13.692  65.251  1.00  0.00    -0.349 C  
BRANCH   5   6
HETATM    6  C   UNL     2     -11.654  12.309  65.887  1.00  0.00    -0.450 C  
BRANCH   6   7
HETATM    7  C   UNL     2     -10.699  12.321  67.074  1.00  0.00    -0.263 C  
BRANCH   7   8
HETATM    8  C   UNL     2      -9.489  11.433  66.797  1.00  0.00    -0.197 C  
BRANCH   8   9
HETATM    9  C   UNL     2      -9.255  10.460  67.947  1.00  0.00    -0.143 C  
BRANCH   9  10
HETATM   10  C   UNL     2     -10.274   9.324  67.916  1.00  0.00    -0.263 C  
BRANCH  10  11
HETATM   11  C   UNL     2      -9.725   8.132  67.138  1.00  0.00    -0.259 C  
BRANCH  11  12
HETATM   12  C   UNL     2     -10.224   6.815  67.721  1.00  0.00    -0.212 C  
BRANCH  12  13
HETATM   13  C   UNL     2      -9.410   5.642  67.187  1.00  0.00    -0.115 C  
BRANCH  13  14
HETATM   14  O   UNL     2      -8.977   4.803  68.262  1.00  0.00    -0.106 OA 
BRANCH  14  15
HETATM   15  C   UNL     2      -7.870   4.040  68.008  1.00  0.00    -0.077 C  
HETATM   16  O   UNL     2      -7.470   3.153  68.756  1.00  0.00    -0.049 OA 
BRANCH  15  17
HETATM   17  C   UNL     2      -7.141   4.540  66.814  1.00  0.00    -0.074 C  
HETATM   18  S   UNL     2      -6.966   3.266  65.619  1.00  0.00    -0.058 S  
HETATM   19  O   UNL     2      -6.207   2.225  66.307  1.00  0.00    -0.023 OA 
HETATM   20  O   UNL     2      -6.233   3.942  64.549  1.00  0.00    -0.022 OA 
HETATM   21  O   UNL     2      -8.339   2.903  65.272  1.00  0.00    -0.090 OA 
ENDBRANCH  15  17
ENDBRANCH  14  15
ENDBRANCH  13  14
ENDBRANCH  12  13
ENDBRANCH  11  12
ENDBRANCH  10  11
ENDBRANCH   9  10
ENDBRANCH   8   9
ENDBRANCH   7   8
ENDBRANCH   6   7
ENDBRANCH   5   6
ENDBRANCH   4   5
ENDBRANCH   3   4
TORSDOF 13
ENDMDL
MODEL      435
REMARK 921   NORMALIZED FREE ENERGY PREDICTED BY IDOCK:   -1.69 KCAL/MOL
REMARK 922        TOTAL FREE ENERGY PREDICTED BY IDOCK:   -4.53 KCAL/MOL
REMARK 923 INTER-LIGAND FREE ENERGY PREDICTED BY IDOCK:   -3.37 KCAL/MOL
REMARK 924 INTRA-LIGAND FREE ENERGY PREDICTED BY IDOCK:   -1.16 KCAL/MOL
REMARK 927      BINDING AFFINITY PREDICTED BY RF-SCORE:    0.00 PKD
ROOT
HETATM    1 NA   UNL     1     -10.025  11.469  69.800  1.00  0.00    -0.398 Na 
HETATM    2  C   UNL     2      -8.132  12.374  67.551  1.00  0.00    -0.173 C  
HETATM    3  C   UNL     2      -6.736  11.879  67.893  1.00  0.00    -0.079 C  
ENDROOT
BRANCH   3   4
HETATM    4  C   UNL     2      -6.186  11.004  66.772  1.00  0.00    -0.110 C  
BRANCH   4   5
HETATM    5  C   UNL     2      -7.268  10.106  66.178  1.00  0.00    -0.115 C  
BRANCH   5   6
HETATM    6  C   UNL     2      -6.930   9.755  64.731  1.00  0.00    -0.122 C  
BRANCH   6   7
HETATM    7  C   UNL     2      -6.121   8.466  64.649  1.00  0.00    -0.064 C  
BRANCH   7   8
HETATM    8  C   UNL     2      -6.601   7.605  63.483  1.00  0.00    -0.058 C  
BRANCH   8   9
HETATM    9  C   UNL     2      -7.886   6.868  63.845  1.00  0.00    -0.107 C  
BRANCH   9  10
HETATM   10  C   UNL     2      -7.769   6.212  65.219  1.00  0.00    -0.095 C  
BRANCH  10  11
HETATM   11  C   UNL     2      -9.146   6.042  65.851  1.00  0.00    -0.117 C  
BRANCH  11  12
HETATM   12  C   UNL     2      -9.076   5.176  67.104  1.00  0.00    -0.112 C  
BRANCH  12  13
HETATM   13  C   UNL     2      -9.985   5.728  68.197  1.00  0.00    -0.148 C  
BRANCH  13  14
HETATM   14  O   UNL     2      -9.865   7.151  68.274  1.00  0.00    -0.145 OA 
BRANCH  14  15
HETATM   15  C   UNL     2      -9.190   7.629  69.364  1.00  0.00    -0.149 C  
HETATM   16  O   UNL     2      -8.181   8.324  69.287  1.00  0.00    -0.114 OA 
BRANCH  15  17
HETATM   17  C   UNL     2      -9.738   7.060  70.622  1.00  0.00    -0.172 C  
HETATM   18  S   UNL     2     -10.624   8.282  71.519  1.00  0.00    -0.251 S  
HETATM   19  O   UNL     2      -9.633   9.319  71.793  1.00  0.00    -0.291 OA 
HETATM   20  O   UNL     2     -11.067   7.542  72.699  1.00  0.00    -0.292 OA 
HETATM   21  O   UNL     2     -11.704   8.681  70.617  1.00  0.00    -0.255 OA 
ENDBRANCH  15  17
ENDBRANCH  14  15
ENDBRANCH  13  14
ENDBRANCH  12  13
ENDBRANCH  11  12
ENDBRANCH  10  11
ENDBRANCH   9  10
ENDBRANCH   8   9
ENDBRANCH   7   8
ENDBRANCH   6   7
ENDBRANCH   5   6
ENDBRANCH   4   5
ENDBRANCH   3   4
TORSDOF 13
ENDMDL
MODEL      436
REMARK 921   NORMALIZED FREE ENERGY PREDICTED BY IDOCK:   -1.67 KCAL/MOL
REMARK 922        TOTAL FREE ENERGY PREDICTED BY IDOCK:   -4.50 KCAL/MOL
REMARK 923 INTER-LIGAND FREE ENERGY PREDICTED BY IDOCK:   -4.09 KCAL/MOL
REMARK 924 INTRA-LIGAND FREE ENERGY PREDICTED BY IDOCK:   -0.41 KCAL/MOL
REMARK 927      BINDING AFFINITY PREDICTED BY RF-SCORE:    0.00 PKD
ROOT
HETATM    1 NA   UNL     1     -12.247  17.009  72.127  1.00  0.00    -0.528 Na 
HETATM    2  C   UNL     2     -12.923  14.654  70.268  1.00  0.00    -0.166 C  
HETATM    3  C   UNL     2     -11.946  13.530  70.569  1.00  0.00    -0.344 C  
ENDROOT
BRANCH   3   4
HETATM    4  C   UNL     2     -12.692  12.259  70.960  1.00  0.00    -0.319 C  
BRANCH   4   5
HETATM    5  C   UNL     2     -12.427  11.126  69.973  1.00  0.00    -0.292 C  
BRANCH   5   6
HETATM    6  C   UNL     2     -12.187   9.816  70.720  1.00  0.00    -0.342 C  
BRANCH   6   7
HETATM    7  C   UNL     2     -10.898   9.145  70.260  1.00  0.00    -0.282 C  
BRANCH   7   8
HETATM    8  C   UNL     2     -11.098   7.637  70.126  1.00  0.00    -0.229 C  
BRANCH   8   9
HETATM    9  C   UNL     2     -10.166   6.880  71.065  1.00  0.00    -0.213 C  
BRANCH   9  10
HETATM   10  C   UNL     2      -9.542   5.678  70.362  1.00  0.00    -0.217 C  
BRANCH  10  11
HETATM   11  C   UNL     2      -8.067   5.932  70.071  1.00  0.00    -0.109 C  
BRANCH  11  12
HETATM   12  C   UNL     2      -7.873   6.530  68.682  1.00  0.00    -0.110 C  
BRANCH  12  13
HETATM   13  C   UNL     2      -6.878   5.706  67.871  1.00  0.00    -0.064 C  
BRANCH  13  14
HETATM   14  O   UNL     2      -7.154   4.309  68.013  1.00  0.00    -0.058 OA 
BRANCH  14  15
HETATM   15  C   UNL     2      -7.399   3.634  66.848  1.00  0.00    -0.068 C  
HETATM   16  O   UNL     2      -6.514   3.199  66.116  1.00  0.00    -0.031 OA 
BRANCH  15  17
HETATM   17  C   UNL     2      -8.846   3.653  66.514  1.00  0.00    -0.129 C  
HETATM   18  S   UNL     2      -9.116   4.467  64.981  1.00  0.00    -0.154 S  
HETATM   19  O   UNL     2      -8.602   5.817  65.193  1.00  0.00    -0.149 OA 
HETATM   20  O   UNL     2     -10.569   4.387  64.838  1.00  0.00    -0.196 OA 
HETATM   21  O   UNL     2      -8.370   3.666  64.010  1.00  0.00    -0.089 OA 
ENDBRANCH  15  17
ENDBRANCH  14  15
ENDBRANCH  13  14
ENDBRANCH  12  13
ENDBRANCH  11  12
ENDBRANCH  10  11
ENDBRANCH   9  10
ENDBRANCH   8   9
ENDBRANCH   7   8
ENDBRANCH   6   7
ENDBRANCH   5   6
ENDBRANCH   4   5
ENDBRANCH   3   4
TORSDOF 13
ENDMDL
MODEL      437
REMARK 921   NORMALIZED FREE ENERGY PREDICTED BY IDOCK:   -1.66 KCAL/MOL
REMARK 922        TOTAL FREE ENERGY PREDICTED BY IDOCK:   -4.48 KCAL/MOL
REMARK 923 INTER-LIGAND FREE ENERGY PREDICTED BY IDOCK:   -5.17 KCAL/MOL
REMARK 924 INTRA-LIGAND FREE ENERGY PREDICTED BY IDOCK:    0.69 KCAL/MOL
REMARK 927      BINDING AFFINITY PREDICTED BY RF-SCORE:    0.00 PKD
ROOT
HETATM    1 NA   UNL     1      -6.537   7.165  63.541  1.00  0.00    -0.039 Na 
HETATM    2  C   UNL     2      -7.613   9.876  62.565  1.00  0.00    -0.129 C  
HETATM    3  C   UNL     2      -9.113   9.896  62.810  1.00  0.00    -0.300 C  
ENDROOT
BRANCH   3   4
HETATM    4  C   UNL     2      -9.499  11.080  63.689  1.00  0.00    -0.298 C  
BRANCH   4   5
HETATM    5  C   UNL     2     -10.200  10.627  64.967  1.00  0.00    -0.380 C  
BRANCH   5   6
HETATM    6  C   UNL     2     -10.174  11.742  66.009  1.00  0.00    -0.265 C  
BRANCH   6   7
HETATM    7  C   UNL     2      -9.894  11.191  67.402  1.00  0.00    -0.195 C  
BRANCH   7   8
HETATM    8  C   UNL     2     -10.892  10.091  67.754  1.00  0.00    -0.337 C  
BRANCH   8   9
HETATM    9  C   UNL     2     -11.116  10.022  69.260  1.00  0.00    -0.248 C  
BRANCH   9  10
HETATM   10  C   UNL     2     -11.771  11.302  69.773  1.00  0.00    -0.422 C  
BRANCH  10  11
HETATM   11  C   UNL     2     -10.984  12.527  69.319  1.00  0.00    -0.138 C  
BRANCH  11  12
HETATM   12  C   UNL     2     -11.915  13.685  68.977  1.00  0.00    -0.392 C  
BRANCH  12  13
HETATM   13  C   UNL     2     -11.893  14.741  70.077  1.00  0.00    -0.311 C  
BRANCH  13  14
HETATM   14  O   UNL     2     -10.780  15.624  69.900  1.00  0.00    -0.272 OA 
BRANCH  14  15
HETATM   15  C   UNL     2     -10.778  16.344  68.736  1.00  0.00    -0.321 C  
HETATM   16  O   UNL     2     -11.749  16.430  67.989  1.00  0.00    -0.074 OA 
BRANCH  15  17
HETATM   17  C   UNL     2      -9.417  16.852  68.426  1.00  0.00    -0.258 C  
HETATM   18  S   UNL     2      -8.591  15.767  67.319  1.00  0.00    -0.202 S  
HETATM   19  O   UNL     2      -8.532  14.496  68.036  1.00  0.00    -0.146 OA 
HETATM   20  O   UNL     2      -7.296  16.426  67.148  1.00  0.00    -0.155 OA 
HETATM   21  O   UNL     2      -9.429  15.764  66.121  1.00  0.00    -0.284 OA 
ENDBRANCH  15  17
ENDBRANCH  14  15
ENDBRANCH  13  14
ENDBRANCH  12  13
ENDBRANCH  11  12
ENDBRANCH  10  11
ENDBRANCH   9  10
ENDBRANCH   8   9
ENDBRANCH   7   8
ENDBRANCH   6   7
ENDBRANCH   5   6
ENDBRANCH   4   5
ENDBRANCH   3   4
TORSDOF 13
ENDMDL
MODEL      438
REMARK 921   NORMALIZED FREE ENERGY PREDICTED BY IDOCK:   -1.59 KCAL/MOL
REMARK 922        TOTAL FREE ENERGY PREDICTED BY IDOCK:   -4.36 KCAL/MOL
REMARK 923 INTER-LIGAND FREE ENERGY PREDICTED BY IDOCK:   -3.63 KCAL/MOL
REMARK 924 INTRA-LIGAND FREE ENERGY PREDICTED BY IDOCK:   -0.73 KCAL/MOL
REMARK 927      BINDING AFFINITY PREDICTED BY RF-SCORE:    0.00 PKD
ROOT
HETATM    1 NA   UNL     1      -9.880  20.184  69.235  1.00  0.00    -0.337 Na 
HETATM    2  C   UNL     2     -10.065  18.014  67.063  1.00  0.00    -0.348 C  
HETATM    3  C   UNL     2      -8.929  18.243  66.080  1.00  0.00    -0.115 C  
ENDROOT
BRANCH   3   4
HETATM    4  C   UNL     2      -8.051  17.000  65.972  1.00  0.00    -0.178 C  
BRANCH   4   5
HETATM    5  C   UNL     2      -6.571  17.343  66.116  1.00  0.00    -0.249 C  
BRANCH   5   6
HETATM    6  C   UNL     2      -6.402  18.651  66.885  1.00  0.00    -0.194 C  
BRANCH   6   7
HETATM    7  C   UNL     2      -5.476  18.473  68.082  1.00  0.00    -0.171 C  
BRANCH   7   8
HETATM    8  C   UNL     2      -5.890  19.399  69.223  1.00  0.00    -0.277 C  
BRANCH   8   9
HETATM    9  C   UNL     2      -6.091  18.614  70.514  1.00  0.00     0.108 C  
BRANCH   9  10
HETATM   10  C   UNL     2      -5.133  17.428  70.586  1.00  0.00    -0.266 C  
BRANCH  10  11
HETATM   11  C   UNL     2      -5.883  16.154  70.960  1.00  0.00     0.416 C  
BRANCH  11  12
HETATM   12  C   UNL     2      -6.417  15.443  69.721  1.00  0.00    -0.171 C  
BRANCH  12  13
HETATM   13  C   UNL     2      -7.925  15.243  69.818  1.00  0.00    -0.039 C  
BRANCH  13  14
HETATM   14  O   UNL     2      -8.518  15.275  68.516  1.00  0.00    -0.148 OA 
BRANCH  14  15
HETATM   15  C   UNL     2      -9.452  14.305  68.269  1.00  0.00    -0.209 C  
HETATM   16  O   UNL     2     -10.310  13.966  69.079  1.00  0.00    -0.200 OA 
BRANCH  15  17
HETATM   17  C   UNL     2      -9.180  13.618  66.980  1.00  0.00    -0.250 C  
HETATM   18  S   UNL     2     -10.478  12.504  66.589  1.00  0.00    -0.236 S  
HETATM   19  O   UNL     2     -10.491  11.558  67.702  1.00  0.00    -0.181 OA 
HETATM   20  O   UNL     2     -10.029  11.936  65.318  1.00  0.00    -0.246 OA 
HETATM   21  O   UNL     2     -11.665  13.352  66.483  1.00  0.00    -0.337 OA 
ENDBRANCH  15  17
ENDBRANCH  14  15
ENDBRANCH  13  14
ENDBRANCH  12  13
ENDBRANCH  11  12
ENDBRANCH  10  11
ENDBRANCH   9  10
ENDBRANCH   8   9
ENDBRANCH   7   8
ENDBRANCH   6   7
ENDBRANCH   5   6
ENDBRANCH   4   5
ENDBRANCH   3   4
TORSDOF 13
ENDMDL
MODEL      439
REMARK 921   NORMALIZED FREE ENERGY PREDICTED BY IDOCK:   -1.53 KCAL/MOL
REMARK 922        TOTAL FREE ENERGY PREDICTED BY IDOCK:   -4.25 KCAL/MOL
REMARK 923 INTER-LIGAND FREE ENERGY PREDICTED BY IDOCK:   -3.69 KCAL/MOL
REMARK 924 INTRA-LIGAND FREE ENERGY PREDICTED BY IDOCK:   -0.56 KCAL/MOL
REMARK 927      BINDING AFFINITY PREDICTED BY RF-SCORE:    0.00 PKD
ROOT
HETATM    1 NA   UNL     1      -6.532   7.131  63.540  1.00  0.00    -0.039 Na 
HETATM    2  C   UNL     2      -7.606   9.857  62.606  1.00  0.00    -0.128 C  
HETATM    3  C   UNL     2      -9.092   9.903  62.921  1.00  0.00    -0.291 C  
ENDROOT
BRANCH   3   4
HETATM    4  C   UNL     2      -9.417  11.097  63.813  1.00  0.00    -0.258 C  
BRANCH   4   5
HETATM    5  C   UNL     2     -10.089  10.661  65.112  1.00  0.00    -0.374 C  
BRANCH   5   6
HETATM    6  C   UNL     2      -9.903  11.727  66.188  1.00  0.00    -0.254 C  
BRANCH   6   7
HETATM    7  C   UNL     2      -9.671  11.098  67.557  1.00  0.00    -0.193 C  
BRANCH   7   8
HETATM    8  C   UNL     2     -10.872  10.249  67.967  1.00  0.00    -0.325 C  
BRANCH   8   9
HETATM    9  C   UNL     2     -11.054  10.259  69.480  1.00  0.00    -0.310 C  
BRANCH   9  10
HETATM   10  C   UNL     2     -10.035   9.346  70.158  1.00  0.00    -0.269 C  
BRANCH  10  11
HETATM   11  C   UNL     2      -9.999   7.983  69.474  1.00  0.00    -0.186 C  
BRANCH  11  12
HETATM   12  C   UNL     2      -8.568   7.475  69.332  1.00  0.00    -0.133 C  
BRANCH  12  13
HETATM   13  C   UNL     2      -8.317   6.293  70.262  1.00  0.00    -0.126 C  
BRANCH  13  14
HETATM   14  O   UNL     2      -8.387   5.062  69.535  1.00  0.00    -0.087 OA 
BRANCH  14  15
HETATM   15  C   UNL     2      -7.510   4.944  68.490  1.00  0.00    -0.070 C  
HETATM   16  O   UNL     2      -6.552   5.692  68.320  1.00  0.00    -0.045 OA 
BRANCH  15  17
HETATM   17  C   UNL     2      -7.971   3.917  67.521  1.00  0.00    -0.090 C  
HETATM   18  S   UNL     2      -8.873   4.663  66.212  1.00  0.00    -0.116 S  
HETATM   19  O   UNL     2     -10.001   5.312  66.874  1.00  0.00    -0.155 OA 
HETATM   20  O   UNL     2      -9.236   3.511  65.388  1.00  0.00    -0.143 OA 
HETATM   21  O   UNL     2      -7.915   5.574  65.586  1.00  0.00    -0.102 OA 
ENDBRANCH  15  17
ENDBRANCH  14  15
ENDBRANCH  13  14
ENDBRANCH  12  13
ENDBRANCH  11  12
ENDBRANCH  10  11
ENDBRANCH   9  10
ENDBRANCH   8   9
ENDBRANCH   7   8
ENDBRANCH   6   7
ENDBRANCH   5   6
ENDBRANCH   4   5
ENDBRANCH   3   4
TORSDOF 13
ENDMDL
MODEL      440
REMARK 921   NORMALIZED FREE ENERGY PREDICTED BY IDOCK:   -1.39 KCAL/MOL
REMARK 922        TOTAL FREE ENERGY PREDICTED BY IDOCK:   -4.01 KCAL/MOL
REMARK 923 INTER-LIGAND FREE ENERGY PREDICTED BY IDOCK:   -3.06 KCAL/MOL
REMARK 924 INTRA-LIGAND FREE ENERGY PREDICTED BY IDOCK:   -0.95 KCAL/MOL
REMARK 927      BINDING AFFINITY PREDICTED BY RF-SCORE:    0.00 PKD
ROOT
HETATM    1 NA   UNL     1     -11.850  15.824  71.206  1.00  0.00    -0.257 Na 
HETATM    2  C   UNL     2      -9.728  15.966  68.985  1.00  0.00    -0.243 C  
HETATM    3  C   UNL     2      -8.937  14.669  69.014  1.00  0.00    -0.093 C  
ENDROOT
BRANCH   3   4
HETATM    4  C   UNL     2      -9.001  13.968  67.661  1.00  0.00    -0.194 C  
BRANCH   4   5
HETATM    5  C   UNL     2     -10.265  13.123  67.525  1.00  0.00    -0.225 C  
BRANCH   5   6
HETATM    6  C   UNL     2     -10.379  12.149  68.695  1.00  0.00    -0.211 C  
BRANCH   6   7
HETATM    7  C   UNL     2     -10.346  10.702  68.215  1.00  0.00    -0.201 C  
BRANCH   7   8
HETATM    8  C   UNL     2     -10.893  10.596  66.794  1.00  0.00    -0.233 C  
BRANCH   8   9
HETATM    9  C   UNL     2     -10.022   9.677  65.945  1.00  0.00    -0.351 C  
BRANCH   9  10
HETATM   10  C   UNL     2      -8.542   9.895  66.248  1.00  0.00    -0.137 C  
BRANCH  10  11
HETATM   11  C   UNL     2      -7.705   9.729  64.984  1.00  0.00    -0.126 C  
BRANCH  11  12
HETATM   12  C   UNL     2      -6.708   8.585  65.128  1.00  0.00    -0.064 C  
BRANCH  12  13
HETATM   13  C   UNL     2      -7.236   7.524  66.089  1.00  0.00    -0.074 C  
BRANCH  13  14
HETATM   14  O   UNL     2      -6.484   6.313  65.957  1.00  0.00    -0.043 OA 
BRANCH  14  15
HETATM   15  C   UNL     2      -7.195   5.220  65.543  1.00  0.00    -0.068 C  
HETATM   16  O   UNL     2      -6.844   4.491  64.619  1.00  0.00    -0.044 OA 
BRANCH  15  17
HETATM   17  C   UNL     2      -8.506   5.141  66.238  1.00  0.00    -0.114 C  
HETATM   18  S   UNL     2      -8.402   4.082  67.634  1.00  0.00    -0.095 S  
HETATM   19  O   UNL     2      -8.017   2.787  67.078  1.00  0.00    -0.074 OA 
HETATM   20  O   UNL     2      -9.763   4.132  68.165  1.00  0.00    -0.152 OA 
HETATM   21  O   UNL     2      -7.397   4.710  68.492  1.00  0.00    -0.063 OA 
ENDBRANCH  15  17
ENDBRANCH  14  15
ENDBRANCH  13  14
ENDBRANCH  12  13
ENDBRANCH  11  12
ENDBRANCH  10  11
ENDBRANCH   9  10
ENDBRANCH   8   9
ENDBRANCH   7   8
ENDBRANCH   6   7
ENDBRANCH   5   6
ENDBRANCH   4   5
ENDBRANCH   3   4
TORSDOF 13
ENDMDL
MODEL      441
REMARK 921   NORMALIZED FREE ENERGY PREDICTED BY IDOCK:   -1.37 KCAL/MOL
REMARK 922        TOTAL FREE ENERGY PREDICTED BY IDOCK:   -3.98 KCAL/MOL
REMARK 923 INTER-LIGAND FREE ENERGY PREDICTED BY IDOCK:   -3.46 KCAL/MOL
REMARK 924 INTRA-LIGAND FREE ENERGY PREDICTED BY IDOCK:   -0.52 KCAL/MOL
REMARK 927      BINDING AFFINITY PREDICTED BY RF-SCORE:    0.00 PKD
ROOT
HETATM    1 NA   UNL     1     -10.257   1.624  67.461  1.00  0.00    -0.403 Na 
HETATM    2  C   UNL     2      -7.562   3.016  66.955  1.00  0.00    -0.075 C  
HETATM    3  C   UNL     2      -7.848   4.464  66.591  1.00  0.00    -0.098 C  
ENDROOT
BRANCH   3   4
HETATM    4  C   UNL     2      -7.130   5.411  67.546  1.00  0.00    -0.067 C  
BRANCH   4   5
HETATM    5  C   UNL     2      -5.935   6.083  66.878  1.00  0.00    -0.018 C  
BRANCH   5   6
HETATM    6  C   UNL     2      -6.028   7.600  67.026  1.00  0.00    -0.047 C  
BRANCH   6   7
HETATM    7  C   UNL     2      -6.840   7.988  68.256  1.00  0.00    -0.072 C  
BRANCH   7   8
HETATM    8  C   UNL     2      -7.895   9.030  67.895  1.00  0.00    -0.101 C  
BRANCH   8   9
HETATM    9  C   UNL     2      -7.274  10.185  67.117  1.00  0.00    -0.090 C  
BRANCH   9  10
HETATM   10  C   UNL     2      -7.207  11.446  67.975  1.00  0.00    -0.084 C  
BRANCH  10  11
HETATM   11  C   UNL     2      -5.876  12.162  67.773  1.00  0.00    -0.089 C  
BRANCH  11  12
HETATM   12  C   UNL     2      -6.064  13.674  67.733  1.00  0.00    -0.143 C  
BRANCH  12  13
HETATM   13  C   UNL     2      -7.485  14.056  68.134  1.00  0.00    -0.131 C  
BRANCH  13  14
HETATM   14  O   UNL     2      -8.066  14.918  67.152  1.00  0.00    -0.198 OA 
BRANCH  14  15
HETATM   15  C   UNL     2      -9.415  14.779  66.967  1.00  0.00    -0.231 C  
HETATM   16  O   UNL     2     -10.117  15.625  66.420  1.00  0.00    -0.261 OA 
BRANCH  15  17
HETATM   17  C   UNL     2      -9.925  13.567  67.659  1.00  0.00    -0.229 C  
HETATM   18  S   UNL     2     -11.376  13.944  68.574  1.00  0.00    -0.301 S  
HETATM   19  O   UNL     2     -10.946  14.960  69.531  1.00  0.00    -0.256 OA 
HETATM   20  O   UNL     2     -11.710  12.652  69.172  1.00  0.00    -0.290 OA 
HETATM   21  O   UNL     2     -12.330  14.407  67.567  1.00  0.00    -0.273 OA 
ENDBRANCH  15  17
ENDBRANCH  14  15
ENDBRANCH  13  14
ENDBRANCH  12  13
ENDBRANCH  11  12
ENDBRANCH  10  11
ENDBRANCH   9  10
ENDBRANCH   8   9
ENDBRANCH   7   8
ENDBRANCH   6   7
ENDBRANCH   5   6
ENDBRANCH   4   5
ENDBRANCH   3   4
TORSDOF 13
ENDMDL
MODEL      442
REMARK 921   NORMALIZED FREE ENERGY PREDICTED BY IDOCK:   -1.35 KCAL/MOL
REMARK 922        TOTAL FREE ENERGY PREDICTED BY IDOCK:   -3.93 KCAL/MOL
REMARK 923 INTER-LIGAND FREE ENERGY PREDICTED BY IDOCK:   -3.00 KCAL/MOL
REMARK 924 INTRA-LIGAND FREE ENERGY PREDICTED BY IDOCK:   -0.93 KCAL/MOL
REMARK 927      BINDING AFFINITY PREDICTED BY RF-SCORE:    0.00 PKD
ROOT
HETATM    1 NA   UNL     1      -8.231   7.224  62.611  1.00  0.00    -0.110 Na 
HETATM    2  C   UNL     2      -7.847   6.109  65.452  1.00  0.00    -0.106 C  
HETATM    3  C   UNL     2      -9.197   6.140  66.149  1.00  0.00    -0.150 C  
ENDROOT
BRANCH   3   4
HETATM    4  C   UNL     2      -9.587   4.746  66.629  1.00  0.00    -0.182 C  
BRANCH   4   5
HETATM    5  C   UNL     2      -8.454   4.082  67.407  1.00  0.00    -0.102 C  
BRANCH   5   6
HETATM    6  C   UNL     2      -7.977   2.827  66.681  1.00  0.00    -0.077 C  
BRANCH   6   7
HETATM    7  C   UNL     2      -7.416   1.801  67.659  1.00  0.00    -0.054 C  
BRANCH   7   8
HETATM    8  C   UNL     2      -7.827   2.143  69.089  1.00  0.00    -0.052 C  
BRANCH   8   9
HETATM    9  C   UNL     2      -6.880   1.500  70.095  1.00  0.00    -0.032 C  
BRANCH   9  10
HETATM   10  C   UNL     2      -6.418   2.518  71.136  1.00  0.00    -0.023 C  
BRANCH  10  11
HETATM   11  C   UNL     2      -7.041   3.883  70.864  1.00  0.00    -0.033 C  
BRANCH  11  12
HETATM   12  C   UNL     2      -7.967   4.303  72.001  1.00  0.00    -0.090 C  
BRANCH  12  13
HETATM   13  C   UNL     2      -9.311   4.779  71.458  1.00  0.00    -0.147 C  
BRANCH  13  14
HETATM   14  O   UNL     2      -9.514   6.160  71.770  1.00  0.00    -0.152 OA 
BRANCH  14  15
HETATM   15  C   UNL     2     -10.614   6.436  72.536  1.00  0.00    -0.214 C  
HETATM   16  O   UNL     2     -11.254   5.580  73.139  1.00  0.00    -0.286 OA 
BRANCH  15  17
HETATM   17  C   UNL     2     -11.018   7.859  72.396  1.00  0.00    -0.325 C  
HETATM   18  S   UNL     2     -12.289   8.026  71.196  1.00  0.00    -0.159 S  
HETATM   19  O   UNL     2     -11.691   7.520  69.963  1.00  0.00    -0.045 OA 
HETATM   20  O   UNL     2     -12.535   9.468  71.203  1.00  0.00    -0.311 OA 
HETATM   21  O   UNL     2     -13.392   7.224  71.724  1.00  0.00    -0.350 OA 
ENDBRANCH  15  17
ENDBRANCH  14  15
ENDBRANCH  13  14
ENDBRANCH  12  13
ENDBRANCH  11  12
ENDBRANCH  10  11
ENDBRANCH   9  10
ENDBRANCH   8   9
ENDBRANCH   7   8
ENDBRANCH   6   7
ENDBRANCH   5   6
ENDBRANCH   4   5
ENDBRANCH   3   4
TORSDOF 13
ENDMDL
MODEL      443
REMARK 921   NORMALIZED FREE ENERGY PREDICTED BY IDOCK:   -1.30 KCAL/MOL
REMARK 922        TOTAL FREE ENERGY PREDICTED BY IDOCK:   -3.84 KCAL/MOL
REMARK 923 INTER-LIGAND FREE ENERGY PREDICTED BY IDOCK:   -4.34 KCAL/MOL
REMARK 924 INTRA-LIGAND FREE ENERGY PREDICTED BY IDOCK:    0.50 KCAL/MOL
REMARK 927      BINDING AFFINITY PREDICTED BY RF-SCORE:    0.00 PKD
ROOT
HETATM    1 NA   UNL     1      -5.842   6.136  62.837  1.00  0.00    -0.020 Na 
HETATM    2  C   UNL     2      -6.929   8.995  62.515  1.00  0.00    -0.092 C  
HETATM    3  C   UNL     2      -8.367   9.003  63.007  1.00  0.00    -0.197 C  
ENDROOT
BRANCH   3   4
HETATM    4  C   UNL     2      -8.549  10.028  64.121  1.00  0.00    -0.195 C  
BRANCH   4   5
HETATM    5  C   UNL     2      -9.360   9.457  65.282  1.00  0.00    -0.303 C  
BRANCH   5   6
HETATM    6  C   UNL     2      -8.746   9.877  66.615  1.00  0.00    -0.138 C  
BRANCH   6   7
HETATM    7  C   UNL     2      -8.946   8.805  67.680  1.00  0.00    -0.141 C  
BRANCH   7   8
HETATM    8  C   UNL     2     -10.431   8.618  67.979  1.00  0.00    -0.254 C  
BRANCH   8   9
HETATM    9  C   UNL     2     -11.017   9.870  68.622  1.00  0.00    -0.222 C  
BRANCH   9  10
HETATM   10  C   UNL     2     -10.506  10.039  70.050  1.00  0.00    -0.337 C  
BRANCH  10  11
HETATM   11  C   UNL     2     -10.244   8.680  70.691  1.00  0.00    -0.237 C  
BRANCH  11  12
HETATM   12  C   UNL     2     -11.136   8.464  71.909  1.00  0.00    -0.378 C  
BRANCH  12  13
HETATM   13  C   UNL     2     -12.236   7.453  71.603  1.00  0.00    -0.330 C  
BRANCH  13  14
HETATM   14  O   UNL     2     -11.778   6.123  71.860  1.00  0.00    -0.309 OA 
BRANCH  14  15
HETATM   15  C   UNL     2     -10.864   5.999  72.872  1.00  0.00    -0.258 C  
HETATM   16  O   UNL     2     -10.716   6.834  73.759  1.00  0.00    -0.325 OA 
BRANCH  15  17
HETATM   17  C   UNL     2      -9.981   4.824  72.652  1.00  0.00    -0.164 C  
HETATM   18  S   UNL     2      -8.564   5.283  71.722  1.00  0.00    -0.131 S  
HETATM   19  O   UNL     2      -9.105   5.784  70.461  1.00  0.00    -0.143 OA 
HETATM   20  O   UNL     2      -7.842   4.017  71.610  1.00  0.00    -0.067 OA 
HETATM   21  O   UNL     2      -7.896   6.287  72.551  1.00  0.00    -0.102 OA 
ENDBRANCH  15  17
ENDBRANCH  14  15
ENDBRANCH  13  14
ENDBRANCH  12  13
ENDBRANCH  11  12
ENDBRANCH  10  11
ENDBRANCH   9  10
ENDBRANCH   8   9
ENDBRANCH   7   8
ENDBRANCH   6   7
ENDBRANCH   5   6
ENDBRANCH   4   5
ENDBRANCH   3   4
TORSDOF 13
ENDMDL
MODEL      444
REMARK 921   NORMALIZED FREE ENERGY PREDICTED BY IDOCK:   -1.10 KCAL/MOL
REMARK 922        TOTAL FREE ENERGY PREDICTED BY IDOCK:   -3.50 KCAL/MOL
REMARK 923 INTER-LIGAND FREE ENERGY PREDICTED BY IDOCK:   -2.39 KCAL/MOL
REMARK 924 INTRA-LIGAND FREE ENERGY PREDICTED BY IDOCK:   -1.11 KCAL/MOL
REMARK 927      BINDING AFFINITY PREDICTED BY RF-SCORE:    0.00 PKD
ROOT
HETATM    1 NA   UNL     1     -10.139  20.996  68.935  1.00  0.00    -0.127 Na 
HETATM    2  C   UNL     2     -10.535  18.145  67.851  1.00  0.00    -0.408 C  
HETATM    3  C   UNL     2      -9.398  17.854  66.885  1.00  0.00    -0.276 C  
ENDROOT
BRANCH   3   4
HETATM    4  C   UNL     2      -8.629  16.611  67.319  1.00  0.00    -0.208 C  
BRANCH   4   5
HETATM    5  C   UNL     2      -7.152  16.917  67.554  1.00  0.00    -0.170 C  
BRANCH   5   6
HETATM    6  C   UNL     2      -6.753  16.542  68.978  1.00  0.00    -0.200 C  
BRANCH   6   7
HETATM    7  C   UNL     2      -5.549  15.608  68.989  1.00  0.00    -0.103 C  
BRANCH   7   8
HETATM    8  C   UNL     2      -5.624  14.650  70.175  1.00  0.00    -0.119 C  
BRANCH   8   9
HETATM    9  C   UNL     2      -5.766  13.208  69.700  1.00  0.00    -0.105 C  
BRANCH   9  10
HETATM   10  C   UNL     2      -5.614  13.116  68.184  1.00  0.00    -0.097 C  
BRANCH  10  11
HETATM   11  C   UNL     2      -6.783  12.349  67.574  1.00  0.00    -0.146 C  
BRANCH  11  12
HETATM   12  C   UNL     2      -8.079  13.146  67.674  1.00  0.00    -0.176 C  
BRANCH  12  13
HETATM   13  C   UNL     2      -9.225  12.260  68.151  1.00  0.00    -0.197 C  
BRANCH  13  14
HETATM   14  O   UNL     2     -10.303  12.290  67.212  1.00  0.00    -0.212 OA 
BRANCH  14  15
HETATM   15  C   UNL     2     -10.704  11.072  66.734  1.00  0.00    -0.266 C  
HETATM   16  O   UNL     2     -10.830  10.074  67.438  1.00  0.00    -0.282 OA 
BRANCH  15  17
HETATM   17  C   UNL     2     -10.796  11.084  65.251  1.00  0.00    -0.102 C  
HETATM   18  S   UNL     2      -9.696   9.906  64.555  1.00  0.00    -0.022 S  
HETATM   19  O   UNL     2      -8.375  10.333  65.008  1.00  0.00    -0.159 OA 
HETATM   20  O   UNL     2      -9.927  10.075  63.121  1.00  0.00     0.075 OA 
HETATM   21  O   UNL     2     -10.150   8.624  65.092  1.00  0.00     0.914 OA 
ENDBRANCH  15  17
ENDBRANCH  14  15
ENDBRANCH  13  14
ENDBRANCH  12  13
ENDBRANCH  11  12
ENDBRANCH  10  11
ENDBRANCH   9  10
ENDBRANCH   8   9
ENDBRANCH   7   8
ENDBRANCH   6   7
ENDBRANCH   5   6
ENDBRANCH   4   5
ENDBRANCH   3   4
TORSDOF 13
ENDMDL
MODEL      445
REMARK 921   NORMALIZED FREE ENERGY PREDICTED BY IDOCK:    0.55 KCAL/MOL
REMARK 922        TOTAL FREE ENERGY PREDICTED BY IDOCK:   -0.60 KCAL/MOL
REMARK 923 INTER-LIGAND FREE ENERGY PREDICTED BY IDOCK:   -3.37 KCAL/MOL
REMARK 924 INTRA-LIGAND FREE ENERGY PREDICTED BY IDOCK:    2.76 KCAL/MOL
REMARK 927      BINDING AFFINITY PREDICTED BY RF-SCORE:    0.00 PKD
ROOT
HETATM    1 NA   UNL     1     -11.866  15.052  66.249  1.00  0.00    -0.347 Na 
HETATM    2  C   UNL     2     -12.347  12.509  67.910  1.00  0.00     0.413 C  
HETATM    3  C   UNL     2     -11.343  12.503  69.051  1.00  0.00    -0.342 C  
ENDROOT
BRANCH   3   4
HETATM    4  C   UNL     2     -12.057  12.427  70.396  1.00  0.00    -0.381 C  
BRANCH   4   5
HETATM    5  C   UNL     2     -11.923  11.044  71.026  1.00  0.00    -0.334 C  
BRANCH   5   6
HETATM    6  C   UNL     2     -11.227  10.087  70.062  1.00  0.00    -0.345 C  
BRANCH   6   7
HETATM    7  C   UNL     2     -10.395   9.053  70.812  1.00  0.00    -0.305 C  
BRANCH   7   8
HETATM    8  C   UNL     2      -8.911   9.397  70.728  1.00  0.00    -0.233 C  
BRANCH   8   9
HETATM    9  C   UNL     2      -8.251   8.676  69.559  1.00  0.00    -0.115 C  
BRANCH   9  10
HETATM   10  C   UNL     2      -8.578   9.367  68.238  1.00  0.00    -0.120 C  
BRANCH  10  11
HETATM   11  C   UNL     2     -10.058   9.212  67.903  1.00  0.00    -0.246 C  
BRANCH  11  12
HETATM   12  C   UNL     2     -10.250   8.519  66.559  1.00  0.00    -0.286 C  
BRANCH  12  13
HETATM   13  C   UNL     2      -9.090   8.828  65.618  1.00  0.00    -0.191 C  
BRANCH  13  14
HETATM   14  O   UNL     2      -7.841   8.554  66.260  1.00  0.00    -0.095 OA 
BRANCH  14  15
HETATM   15  C   UNL     2      -7.104   7.541  65.710  1.00  0.00    -0.065 C  
HETATM   16  O   UNL     2      -6.047   7.134  66.184  1.00  0.00    -0.035 OA 
BRANCH  15  17
HETATM   17  C   UNL     2      -7.661   7.130  64.395  1.00  0.00    -0.112 C  
HETATM   18  S   UNL     2      -7.249   5.459  64.045  1.00  0.00    -0.053 S  
HETATM   19  O   UNL     2      -5.789   5.442  64.032  1.00  0.00    -0.020 OA 
HETATM   20  O   UNL     2      -7.868   5.253  62.737  1.00  0.00    -0.068 OA 
HETATM   21  O   UNL     2      -7.867   4.698  65.131  1.00  0.00    -0.088 OA 
ENDBRANCH  15  17
ENDBRANCH  14  15
ENDBRANCH  13  14
ENDBRANCH  12  13
ENDBRANCH  11  12
ENDBRANCH  10  11
ENDBRANCH   9  10
ENDBRANCH   8   9
ENDBRANCH   7   8
ENDBRANCH   6   7
ENDBRANCH   5   6
ENDBRANCH   4   5
ENDBRANCH   3   4
TORSDOF 13
ENDMDL
MODEL      446
REMARK 921   NORMALIZED FREE ENERGY PREDICTED BY IDOCK:    0.77 KCAL/MOL
REMARK 922        TOTAL FREE ENERGY PREDICTED BY IDOCK:   -0.21 KCAL/MOL
REMARK 923 INTER-LIGAND FREE ENERGY PREDICTED BY IDOCK:    0.49 KCAL/MOL
REMARK 924 INTRA-LIGAND FREE ENERGY PREDICTED BY IDOCK:   -0.70 KCAL/MOL
REMARK 927      BINDING AFFINITY PREDICTED BY RF-SCORE:    0.00 PKD
ROOT
HETATM    1 NA   UNL     1     -11.558   1.855  67.185  1.00  0.00     4.272 Na 
HETATM    2  C   UNL     2      -8.719   2.978  67.549  1.00  0.00    -0.139 C  
HETATM    3  C   UNL     2      -8.692   4.375  66.951  1.00  0.00    -0.112 C  
ENDROOT
BRANCH   3   4
HETATM    4  C   UNL     2      -8.255   5.399  67.994  1.00  0.00    -0.099 C  
BRANCH   4   5
HETATM    5  C   UNL     2      -6.892   5.996  67.658  1.00  0.00    -0.060 C  
BRANCH   5   6
HETATM    6  C   UNL     2      -6.896   7.502  67.912  1.00  0.00    -0.071 C  
BRANCH   6   7
HETATM    7  C   UNL     2      -7.607   7.842  69.216  1.00  0.00    -0.098 C  
BRANCH   7   8
HETATM    8  C   UNL     2      -8.732   8.843  68.968  1.00  0.00    -0.136 C  
BRANCH   8   9
HETATM    9  C   UNL     2      -8.294   9.919  67.980  1.00  0.00    -0.113 C  
BRANCH   9  10
HETATM   10  C   UNL     2      -8.180  11.277  68.668  1.00  0.00    -0.146 C  
BRANCH  10  11
HETATM   11  C   UNL     2      -6.938  12.020  68.187  1.00  0.00    -0.079 C  
BRANCH  11  12
HETATM   12  C   UNL     2      -7.218  13.508  68.012  1.00  0.00    -0.125 C  
BRANCH  12  13
HETATM   13  C   UNL     2      -8.599  13.867  68.551  1.00  0.00    -0.137 C  
BRANCH  13  14
HETATM   14  O   UNL     2      -9.271  14.752  67.650  1.00  0.00    -0.186 OA 
BRANCH  14  15
HETATM   15  C   UNL     2     -10.639  14.704  67.686  1.00  0.00    -0.256 C  
HETATM   16  O   UNL     2     -11.280  14.328  68.663  1.00  0.00    -0.240 OA 
BRANCH  15  17
HETATM   17  C   UNL     2     -11.218  14.998  66.350  1.00  0.00    -0.310 C  
HETATM   18  S   UNL     2     -11.653  13.510  65.524  1.00  0.00    -0.332 S  
HETATM   19  O   UNL     2     -10.393  12.780  65.407  1.00  0.00    -0.285 OA 
HETATM   20  O   UNL     2     -12.186  14.004  64.255  1.00  0.00    -0.518 OA 
HETATM   21  O   UNL     2     -12.649  12.890  66.396  1.00  0.00    -0.343 OA 
ENDBRANCH  15  17
ENDBRANCH  14  15
ENDBRANCH  13  14
ENDBRANCH  12  13
ENDBRANCH  11  12
ENDBRANCH  10  11
ENDBRANCH   9  10
ENDBRANCH   8   9
ENDBRANCH   7   8
ENDBRANCH   6   7
ENDBRANCH   5   6
ENDBRANCH   4   5
ENDBRANCH   3   4
TORSDOF 13
ENDMDL
MODEL      447
REMARK 921   NORMALIZED FREE ENERGY PREDICTED BY IDOCK:    2.55 KCAL/MOL
REMARK 922        TOTAL FREE ENERGY PREDICTED BY IDOCK:    2.93 KCAL/MOL
REMARK 923 INTER-LIGAND FREE ENERGY PREDICTED BY IDOCK:    1.28 KCAL/MOL
REMARK 924 INTRA-LIGAND FREE ENERGY PREDICTED BY IDOCK:    1.64 KCAL/MOL
REMARK 927      BINDING AFFINITY PREDICTED BY RF-SCORE:    0.00 PKD
ROOT
HETATM    1 NA   UNL     1     -12.585  12.477  71.998  1.00  0.00    -0.281 Na 
HETATM    2  C   UNL     2     -11.349  14.921  70.597  1.00  0.00    -0.275 C  
HETATM    3  C   UNL     2     -11.986  16.167  71.189  1.00  0.00    -0.357 C  
ENDROOT
BRANCH   3   4
HETATM    4  C   UNL     2     -10.922  17.093  71.768  1.00  0.00     1.629 C  
BRANCH   4   5
HETATM    5  C   UNL     2     -10.553  18.205  70.790  1.00  0.00     2.242 C  
BRANCH   5   6
HETATM    6  C   UNL     2     -10.889  17.787  69.360  1.00  0.00     0.646 C  
BRANCH   6   7
HETATM    7  C   UNL     2     -10.087  18.592  68.345  1.00  0.00    -0.423 C  
BRANCH   7   8
HETATM    8  C   UNL     2      -8.694  17.995  68.168  1.00  0.00    -0.277 C  
BRANCH   8   9
HETATM    9  C   UNL     2      -8.772  16.615  67.524  1.00  0.00    -0.198 C  
BRANCH   9  10
HETATM   10  C   UNL     2      -7.671  16.437  66.481  1.00  0.00    -0.295 C  
BRANCH  10  11
HETATM   11  C   UNL     2      -6.388  15.937  67.136  1.00  0.00    -0.059 C  
BRANCH  11  12
HETATM   12  C   UNL     2      -6.645  15.460  68.561  1.00  0.00    -0.109 C  
BRANCH  12  13
HETATM   13  C   UNL     2      -5.333  15.292  69.322  1.00  0.00    -0.095 C  
BRANCH  13  14
HETATM   14  O   UNL     2      -5.459  14.269  70.314  1.00  0.00    -0.099 OA 
BRANCH  14  15
HETATM   15  C   UNL     2      -5.826  13.036  69.847  1.00  0.00    -0.132 C  
HETATM   16  O   UNL     2      -5.195  12.007  70.075  1.00  0.00    -0.074 OA 
BRANCH  15  17
HETATM   17  C   UNL     2      -6.970  13.141  68.904  1.00  0.00    -0.093 C  
HETATM   18  S   UNL     2      -6.948  11.813  67.756  1.00  0.00    -0.104 S  
HETATM   19  O   UNL     2      -5.672  11.957  67.060  1.00  0.00    -0.126 OA 
HETATM   20  O   UNL     2      -8.122  12.095  66.931  1.00  0.00    -0.168 OA 
HETATM   21  O   UNL     2      -7.068  10.614  68.585  1.00  0.00    -0.068 OA 
ENDBRANCH  15  17
ENDBRANCH  14  15
ENDBRANCH  13  14
ENDBRANCH  12  13
ENDBRANCH  11  12
ENDBRANCH  10  11
ENDBRANCH   9  10
ENDBRANCH   8   9
ENDBRANCH   7   8
ENDBRANCH   6   7
ENDBRANCH   5   6
ENDBRANCH   4   5
ENDBRANCH   3   4
TORSDOF 13
ENDMDL
MODEL      448
REMARK 921   NORMALIZED FREE ENERGY PREDICTED BY IDOCK:    3.60 KCAL/MOL
REMARK 922        TOTAL FREE ENERGY PREDICTED BY IDOCK:    4.78 KCAL/MOL
REMARK 923 INTER-LIGAND FREE ENERGY PREDICTED BY IDOCK:   -2.63 KCAL/MOL
REMARK 924 INTRA-LIGAND FREE ENERGY PREDICTED BY IDOCK:    7.41 KCAL/MOL
REMARK 927      BINDING AFFINITY PREDICTED BY RF-SCORE:    0.00 PKD
ROOT
HETATM    1 NA   UNL     1     -11.456  13.105  67.452  1.00  0.00    -0.244 Na 
HETATM    2  C   UNL     2      -9.793  15.651  67.911  1.00  0.00    -0.217 C  
HETATM    3  C   UNL     2     -10.682  16.847  67.612  1.00  0.00    -0.290 C  
ENDROOT
BRANCH   3   4
HETATM    4  C   UNL     2     -10.766  17.772  68.821  1.00  0.00    -0.004 C  
BRANCH   4   5
HETATM    5  C   UNL     2      -9.393  18.307  69.215  1.00  0.00     0.139 C  
BRANCH   5   6
HETATM    6  C   UNL     2      -8.592  18.680  67.971  1.00  0.00    -0.321 C  
BRANCH   6   7
HETATM    7  C   UNL     2      -8.079  17.439  67.250  1.00  0.00    -0.218 C  
BRANCH   7   8
HETATM    8  C   UNL     2      -8.042  16.245  68.199  1.00  0.00    -0.158 C  
BRANCH   8   9
HETATM    9  C   UNL     2      -7.399  15.037  67.527  1.00  0.00    -0.228 C  
BRANCH   9  10
HETATM   10  C   UNL     2      -5.946  14.877  67.967  1.00  0.00    -0.158 C  
BRANCH  10  11
HETATM   11  C   UNL     2      -5.869  14.547  69.455  1.00  0.00    -0.097 C  
BRANCH  11  12
HETATM   12  C   UNL     2      -6.326  13.118  69.727  1.00  0.00    -0.065 C  
BRANCH  12  13
HETATM   13  C   UNL     2      -5.159  12.144  69.603  1.00  0.00    -0.071 C  
BRANCH  13  14
HETATM   14  O   UNL     2      -5.556  10.835  70.023  1.00  0.00    -0.050 OA 
BRANCH  14  15
HETATM   15  C   UNL     2      -6.021  10.013  69.032  1.00  0.00    -0.037 C  
HETATM   16  O   UNL     2      -5.291   9.406  68.255  1.00  0.00    -0.037 OA 
BRANCH  15  17
HETATM   17  C   UNL     2      -7.501  10.094  68.923  1.00  0.00    -0.086 C  
HETATM   18  S   UNL     2      -7.984  10.317  67.250  1.00  0.00    -0.107 S  
HETATM   19  O   UNL     2      -7.353  11.574  66.855  1.00  0.00    -0.140 OA 
HETATM   20  O   UNL     2      -9.442  10.378  67.353  1.00  0.00    -0.148 OA 
HETATM   21  O   UNL     2      -7.478   9.129  66.564  1.00  0.00    -0.091 OA 
ENDBRANCH  15  17
ENDBRANCH  14  15
ENDBRANCH  13  14
ENDBRANCH  12  13
ENDBRANCH  11  12
ENDBRANCH  10  11
ENDBRANCH   9  10
ENDBRANCH   8   9
ENDBRANCH   7   8
ENDBRANCH   6   7
ENDBRANCH   5   6
ENDBRANCH   4   5
ENDBRANCH   3   4
TORSDOF 13
ENDMDL
MODEL      449
REMARK 921   NORMALIZED FREE ENERGY PREDICTED BY IDOCK:    4.06 KCAL/MOL
REMARK 922        TOTAL FREE ENERGY PREDICTED BY IDOCK:    5.58 KCAL/MOL
REMARK 923 INTER-LIGAND FREE ENERGY PREDICTED BY IDOCK:    4.70 KCAL/MOL
REMARK 924 INTRA-LIGAND FREE ENERGY PREDICTED BY IDOCK:    0.88 KCAL/MOL
REMARK 927      BINDING AFFINITY PREDICTED BY RF-SCORE:    0.00 PKD
ROOT
HETATM    1 NA   UNL     1     -12.965   1.467  68.065  1.00  0.00     7.024 Na 
HETATM    2  C   UNL     2     -10.066   2.458  68.329  1.00  0.00     1.124 C  
HETATM    3  C   UNL     2      -9.980   3.823  67.666  1.00  0.00     0.135 C  
ENDROOT
BRANCH   3   4
HETATM    4  C   UNL     2      -9.471   4.869  68.652  1.00  0.00    -0.198 C  
BRANCH   4   5
HETATM    5  C   UNL     2      -8.062   5.335  68.300  1.00  0.00    -0.094 C  
BRANCH   5   6
HETATM    6  C   UNL     2      -7.958   6.853  68.427  1.00  0.00    -0.122 C  
BRANCH   6   7
HETATM    7  C   UNL     2      -7.741   7.274  69.876  1.00  0.00    -0.103 C  
BRANCH   7   8
HETATM    8  C   UNL     2      -8.805   8.280  70.306  1.00  0.00    -0.141 C  
BRANCH   8   9
HETATM    9  C   UNL     2      -9.086   9.284  69.194  1.00  0.00    -0.145 C  
BRANCH   9  10
HETATM   10  C   UNL     2      -8.769  10.706  69.651  1.00  0.00     0.132 C  
BRANCH  10  11
HETATM   11  C   UNL     2      -8.048  11.475  68.548  1.00  0.00    -0.146 C  
BRANCH  11  12
HETATM   12  C   UNL     2      -8.728  12.811  68.272  1.00  0.00    -0.168 C  
BRANCH  12  13
HETATM   13  C   UNL     2     -10.028  12.608  67.500  1.00  0.00    -0.205 C  
BRANCH  13  14
HETATM   14  O   UNL     2     -10.383  13.803  66.797  1.00  0.00    -0.266 OA 
BRANCH  14  15
HETATM   15  C   UNL     2      -9.333  14.580  66.387  1.00  0.00    -0.273 C  
HETATM   16  O   UNL     2      -8.170  14.387  66.730  1.00  0.00    -0.098 OA 
BRANCH  15  17
HETATM   17  C   UNL     2      -9.811  15.763  65.626  1.00  0.00    -0.322 C  
HETATM   18  S   UNL     2      -9.862  17.182  66.660  1.00  0.00    -0.302 S  
HETATM   19  O   UNL     2     -10.797  16.822  67.723  1.00  0.00    -0.341 OA 
HETATM   20  O   UNL     2     -10.353  18.214  65.747  1.00  0.00    -0.586 OA 
HETATM   21  O   UNL     2      -8.477  17.367  67.090  1.00  0.00    -0.203 OA 
ENDBRANCH  15  17
ENDBRANCH  14  15
ENDBRANCH  13  14
ENDBRANCH  12  13
ENDBRANCH  11  12
ENDBRANCH  10  11
ENDBRANCH   9  10
ENDBRANCH   8   9
ENDBRANCH   7   8
ENDBRANCH   6   7
ENDBRANCH   5   6
ENDBRANCH   4   5
ENDBRANCH   3   4
TORSDOF 13
ENDMDL
MODEL      450
REMARK 921   NORMALIZED FREE ENERGY PREDICTED BY IDOCK:    4.50 KCAL/MOL
REMARK 922        TOTAL FREE ENERGY PREDICTED BY IDOCK:    6.35 KCAL/MOL
REMARK 923 INTER-LIGAND FREE ENERGY PREDICTED BY IDOCK:   -0.37 KCAL/MOL
REMARK 924 INTRA-LIGAND FREE ENERGY PREDICTED BY IDOCK:    6.71 KCAL/MOL
REMARK 927      BINDING AFFINITY PREDICTED BY RF-SCORE:    0.00 PKD
ROOT
HETATM    1 NA   UNL     1      -8.532   6.972  69.939  1.00  0.00    -0.119 Na 
HETATM    2  C   UNL     2      -7.382   4.760  68.139  1.00  0.00    -0.066 C  
HETATM    3  C   UNL     2      -8.233   3.516  68.331  1.00  0.00    -0.088 C  
ENDROOT
BRANCH   3   4
HETATM    4  C   UNL     2      -8.810   3.047  67.000  1.00  0.00    -0.158 C  
BRANCH   4   5
HETATM    5  C   UNL     2      -9.524   1.706  67.138  1.00  0.00     0.086 C  
BRANCH   5   6
HETATM    6  C   UNL     2     -10.071   1.540  68.554  1.00  0.00     0.556 C  
BRANCH   6   7
HETATM    7  C   UNL     2      -9.405   2.510  69.522  1.00  0.00    -0.172 C  
BRANCH   7   8
HETATM    8  C   UNL     2     -10.366   3.633  69.902  1.00  0.00     1.123 C  
BRANCH   8   9
HETATM    9  C   UNL     2      -9.673   4.989  69.830  1.00  0.00    -0.266 C  
BRANCH   9  10
HETATM   10  C   UNL     2     -10.364   6.003  70.738  1.00  0.00    -0.280 C  
BRANCH  10  11
HETATM   11  C   UNL     2     -11.639   6.526  70.085  1.00  0.00    -0.466 C  
BRANCH  11  12
HETATM   12  C   UNL     2     -12.206   7.713  70.856  1.00  0.00    -0.194 C  
BRANCH  12  13
HETATM   13  C   UNL     2     -12.145   8.985  70.017  1.00  0.00     0.556 C  
BRANCH  13  14
HETATM   14  O   UNL     2     -11.071   8.909  69.074  1.00  0.00    -0.017 OA 
BRANCH  14  15
HETATM   15  C   UNL     2     -10.103   9.867  69.202  1.00  0.00    -0.200 C  
HETATM   16  O   UNL     2     -10.118  10.735  70.071  1.00  0.00     0.058 OA 
BRANCH  15  17
HETATM   17  C   UNL     2      -9.148   9.817  68.066  1.00  0.00    -0.125 C  
HETATM   18  S   UNL     2      -8.723  11.438  67.544  1.00  0.00    -0.143 S  
HETATM   19  O   UNL     2      -9.995  12.034  67.142  1.00  0.00    -0.194 OA 
HETATM   20  O   UNL     2      -7.801  11.178  66.439  1.00  0.00    -0.156 OA 
HETATM   21  O   UNL     2      -8.099  12.046  68.719  1.00  0.00    -0.100 OA 
ENDBRANCH  15  17
ENDBRANCH  14  15
ENDBRANCH  13  14
ENDBRANCH  12  13
ENDBRANCH  11  12
ENDBRANCH  10  11
ENDBRANCH   9  10
ENDBRANCH   8   9
ENDBRANCH   7   8
ENDBRANCH   6   7
ENDBRANCH   5   6
ENDBRANCH   4   5
ENDBRANCH   3   4
TORSDOF 13
ENDMDL
MODEL      451
REMARK 921   NORMALIZED FREE ENERGY PREDICTED BY IDOCK:    8.96 KCAL/MOL
REMARK 922        TOTAL FREE ENERGY PREDICTED BY IDOCK:   14.21 KCAL/MOL
REMARK 923 INTER-LIGAND FREE ENERGY PREDICTED BY IDOCK:    0.22 KCAL/MOL
REMARK 924 INTRA-LIGAND FREE ENERGY PREDICTED BY IDOCK:   13.99 KCAL/MOL
REMARK 927      BINDING AFFINITY PREDICTED BY RF-SCORE:    0.00 PKD
ROOT
HETATM    1 NA   UNL     1     -11.419  13.105  67.463  1.00  0.00    -0.239 Na 
HETATM    2  C   UNL     2      -9.502  15.432  68.068  1.00  0.00    -0.201 C  
HETATM    3  C   UNL     2     -10.313  16.718  68.050  1.00  0.00    -0.317 C  
ENDROOT
BRANCH   3   4
HETATM    4  C   UNL     2     -10.183  17.455  69.379  1.00  0.00    -0.119 C  
BRANCH   4   5
HETATM    5  C   UNL     2      -8.728  17.795  69.693  1.00  0.00     0.996 C  
BRANCH   5   6
HETATM    6  C   UNL     2      -8.024  18.318  68.443  1.00  0.00    -0.320 C  
BRANCH   6   7
HETATM    7  C   UNL     2      -8.019  17.275  67.332  1.00  0.00    -0.201 C  
BRANCH   7   8
HETATM    8  C   UNL     2      -8.280  15.883  67.902  1.00  0.00    -0.151 C  
BRANCH   8   9
HETATM    9  C   UNL     2      -8.154  14.820  66.817  1.00  0.00     0.037 C  
BRANCH   9  10
HETATM   10  C   UNL     2      -6.749  14.222  66.800  1.00  0.00     1.678 C  
BRANCH  10  11
HETATM   11  C   UNL     2      -6.486  13.434  68.079  1.00  0.00    -0.131 C  
BRANCH  11  12
HETATM   12  C   UNL     2      -7.150  12.062  68.028  1.00  0.00    -0.086 C  
BRANCH  12  13
HETATM   13  C   UNL     2      -6.640  11.257  66.837  1.00  0.00    -0.130 C  
BRANCH  13  14
HETATM   14  O   UNL     2      -5.575  10.390  67.240  1.00  0.00    -0.041 OA 
BRANCH  14  15
HETATM   15  C   UNL     2      -5.949   9.126  67.606  1.00  0.00    -0.050 C  
HETATM   16  O   UNL     2      -6.180   8.226  66.803  1.00  0.00    -0.052 OA 
BRANCH  15  17
HETATM   17  C   UNL     2      -6.199   9.046  69.068  1.00  0.00    -0.043 C  
HETATM   18  S   UNL     2      -7.756   8.300  69.389  1.00  0.00    -0.104 S  
HETATM   19  O   UNL     2      -8.720   9.178  68.733  1.00  0.00    -0.129 OA 
HETATM   20  O   UNL     2      -7.815   8.319  70.850  1.00  0.00    -0.080 OA 
HETATM   21  O   UNL     2      -7.642   6.962  68.809  1.00  0.00    -0.100 OA 
ENDBRANCH  15  17
ENDBRANCH  14  15
ENDBRANCH  13  14
ENDBRANCH  12  13
ENDBRANCH  11  12
ENDBRANCH  10  11
ENDBRANCH   9  10
ENDBRANCH   8   9
ENDBRANCH   7   8
ENDBRANCH   6   7
ENDBRANCH   5   6
ENDBRANCH   4   5
ENDBRANCH   3   4
TORSDOF 13
ENDMDL
MODEL      452
REMARK 921   NORMALIZED FREE ENERGY PREDICTED BY IDOCK:    9.29 KCAL/MOL
REMARK 922        TOTAL FREE ENERGY PREDICTED BY IDOCK:   14.80 KCAL/MOL
REMARK 923 INTER-LIGAND FREE ENERGY PREDICTED BY IDOCK:   15.63 KCAL/MOL
REMARK 924 INTRA-LIGAND FREE ENERGY PREDICTED BY IDOCK:   -0.84 KCAL/MOL
REMARK 927      BINDING AFFINITY PREDICTED BY RF-SCORE:    0.00 PKD
ROOT
HETATM    1 NA   UNL     1     -14.016   1.524  67.330  1.00  0.00     8.591 Na 
HETATM    2  C   UNL     2     -11.602   1.543  65.426  1.00  0.00     6.156 C  
HETATM    3  C   UNL     2     -11.622   2.857  64.663  1.00  0.00     2.966 C  
ENDROOT
BRANCH   3   4
HETATM    4  C   UNL     2     -10.319   3.621  64.870  1.00  0.00    -0.013 C  
BRANCH   4   5
HETATM    5  C   UNL     2      -9.429   3.559  63.632  1.00  0.00    -0.126 C  
BRANCH   5   6
HETATM    6  C   UNL     2      -7.963   3.433  64.038  1.00  0.00    -0.082 C  
BRANCH   6   7
HETATM    7  C   UNL     2      -7.532   1.973  64.112  1.00  0.00    -0.059 C  
BRANCH   7   8
HETATM    8  C   UNL     2      -7.006   1.640  65.506  1.00  0.00    -0.042 C  
BRANCH   8   9
HETATM    9  C   UNL     2      -6.073   2.735  66.010  1.00  0.00    -0.024 C  
BRANCH   9  10
HETATM   10  C   UNL     2      -5.851   2.611  67.516  1.00  0.00    -0.019 C  
BRANCH  10  11
HETATM   11  C   UNL     2      -5.870   3.985  68.176  1.00  0.00    -0.026 C  
BRANCH  11  12
HETATM   12  C   UNL     2      -6.727   3.979  69.438  1.00  0.00    -0.041 C  
BRANCH  12  13
HETATM   13  C   UNL     2      -7.975   4.836  69.251  1.00  0.00    -0.070 C  
BRANCH  13  14
HETATM   14  O   UNL     2      -8.725   4.897  70.467  1.00  0.00    -0.104 OA 
BRANCH  14  15
HETATM   15  C   UNL     2      -9.926   5.547  70.388  1.00  0.00    -0.214 C  
HETATM   16  O   UNL     2     -10.773   5.307  69.531  1.00  0.00    -0.252 OA 
BRANCH  15  17
HETATM   17  C   UNL     2      -9.988   6.674  71.354  1.00  0.00    -0.183 C  
HETATM   18  S   UNL     2      -9.770   8.208  70.527  1.00  0.00    -0.175 S  
HETATM   19  O   UNL     2      -8.447   8.104  69.916  1.00  0.00    -0.122 OA 
HETATM   20  O   UNL     2      -9.855   9.168  71.627  1.00  0.00    -0.305 OA 
HETATM   21  O   UNL     2     -10.884   8.273  69.583  1.00  0.00    -0.226 OA 
ENDBRANCH  15  17
ENDBRANCH  14  15
ENDBRANCH  13  14
ENDBRANCH  12  13
ENDBRANCH  11  12
ENDBRANCH  10  11
ENDBRANCH   9  10
ENDBRANCH   8   9
ENDBRANCH   7   8
ENDBRANCH   6   7
ENDBRANCH   5   6
ENDBRANCH   4   5
ENDBRANCH   3   4
TORSDOF 13
ENDMDL
MODEL      453
REMARK 921   NORMALIZED FREE ENERGY PREDICTED BY IDOCK:    9.92 KCAL/MOL
REMARK 922        TOTAL FREE ENERGY PREDICTED BY IDOCK:   15.89 KCAL/MOL
REMARK 923 INTER-LIGAND FREE ENERGY PREDICTED BY IDOCK:   16.52 KCAL/MOL
REMARK 924 INTRA-LIGAND FREE ENERGY PREDICTED BY IDOCK:   -0.63 KCAL/MOL
REMARK 927      BINDING AFFINITY PREDICTED BY RF-SCORE:    0.00 PKD
ROOT
HETATM    1 NA   UNL     1     -13.984   1.504  67.318  1.00  0.00     9.070 Na 
HETATM    2  C   UNL     2     -11.565   1.469  65.419  1.00  0.00     6.156 C  
HETATM    3  C   UNL     2     -11.559   2.781  64.651  1.00  0.00     3.103 C  
ENDROOT
BRANCH   3   4
HETATM    4  C   UNL     2     -10.241   3.519  64.858  1.00  0.00     0.009 C  
BRANCH   4   5
HETATM    5  C   UNL     2      -9.353   3.442  63.619  1.00  0.00    -0.108 C  
BRANCH   5   6
HETATM    6  C   UNL     2      -7.890   3.283  64.025  1.00  0.00    -0.081 C  
BRANCH   6   7
HETATM    7  C   UNL     2      -7.688   2.052  64.900  1.00  0.00    -0.068 C  
BRANCH   7   8
HETATM    8  C   UNL     2      -7.056   2.441  66.234  1.00  0.00    -0.056 C  
BRANCH   8   9
HETATM    9  C   UNL     2      -5.901   3.414  66.025  1.00  0.00    -0.023 C  
BRANCH   9  10
HETATM   10  C   UNL     2      -5.511   4.086  67.339  1.00  0.00    -0.017 C  
BRANCH  10  11
HETATM   11  C   UNL     2      -5.657   5.601  67.231  1.00  0.00    -0.012 C  
BRANCH  11  12
HETATM   12  C   UNL     2      -6.357   6.176  68.456  1.00  0.00    -0.040 C  
BRANCH  12  13
HETATM   13  C   UNL     2      -7.859   5.914  68.396  1.00  0.00    -0.105 C  
BRANCH  13  14
HETATM   14  O   UNL     2      -8.526   6.987  67.726  1.00  0.00    -0.119 OA 
BRANCH  14  15
HETATM   15  C   UNL     2      -9.404   7.706  68.492  1.00  0.00    -0.147 C  
HETATM   16  O   UNL     2      -9.955   7.259  69.494  1.00  0.00    -0.166 OA 
BRANCH  15  17
HETATM   17  C   UNL     2      -9.719   9.012  67.858  1.00  0.00    -0.155 C  
HETATM   18  S   UNL     2     -10.197  10.188  69.071  1.00  0.00    -0.221 S  
HETATM   19  O   UNL     2     -11.379   9.602  69.696  1.00  0.00    -0.185 OA 
HETATM   20  O   UNL     2     -10.466  11.377  68.263  1.00  0.00    -0.184 OA 
HETATM   21  O   UNL     2      -9.028  10.304  69.943  1.00  0.00    -0.133 OA 
ENDBRANCH  15  17
ENDBRANCH  14  15
ENDBRANCH  13  14
ENDBRANCH  12  13
ENDBRANCH  11  12
ENDBRANCH  10  11
ENDBRANCH   9  10
ENDBRANCH   8   9
ENDBRANCH   7   8
ENDBRANCH   6   7
ENDBRANCH   5   6
ENDBRANCH   4   5
ENDBRANCH   3   4
TORSDOF 13
ENDMDL
