MODEL        1
REMARK 921   NORMALIZED FREE ENERGY PREDICTED BY IDOCK:   -6.08 KCAL/MOL
REMARK 922        TOTAL FREE ENERGY PREDICTED BY IDOCK:   -9.42 KCAL/MOL
REMARK 923 INTER-LIGAND FREE ENERGY PREDICTED BY IDOCK:   -8.21 KCAL/MOL
REMARK 924 INTRA-LIGAND FREE ENERGY PREDICTED BY IDOCK:   -1.21 KCAL/MOL
REMARK 927      BINDING AFFINITY PREDICTED BY RF-SCORE:    0.00 PKD
ROOT
HETATM    1 NA   UNL     1     -11.072  12.264  70.667  1.00  0.00    -0.485 Na 
HETATM    2  C   UNL     2     -13.856  14.610  71.416  1.00  0.00    -0.473 C  
HETATM    3  C   UNL     2     -12.839  15.734  71.551  1.00  0.00    -0.512 C  
ENDROOT
BRANCH   3   4
HETATM    4  C   UNL     2     -11.439  15.254  71.173  1.00  0.00    -0.414 C  
BRANCH   4   5
HETATM    5  C   UNL     2     -11.308  14.799  69.716  1.00  0.00    -0.319 C  
HETATM    6  C   UNL     2     -11.330  15.917  68.645  1.00  0.00    -0.376 C  
HETATM    7  C   UNL     2     -10.287  17.032  68.888  1.00  0.00    -0.337 C  
HETATM    8  C   UNL     2     -11.160  15.336  67.220  1.00  0.00    -0.325 C  
HETATM    9  C   UNL     2      -8.830  16.604  68.764  1.00  0.00    -0.264 C  
BRANCH   8  10
HETATM   10  C   UNL     2     -12.211  14.306  66.803  1.00  0.00    -0.384 C  
BRANCH  10  11
HETATM   11  C   UNL     2     -11.691  12.949  66.280  1.00  0.00    -0.399 C  
BRANCH  11  12
HETATM   12  C   UNL     2     -11.654  11.902  67.419  1.00  0.00    -0.367 C  
HETATM   13  C   UNL     2      -9.227  12.250  68.183  1.00  0.00    -0.197 C  
HETATM   14  C   UNL     2     -10.279  11.251  67.696  1.00  0.00    -0.206 C  
HETATM   15  C   UNL     2     -10.438  10.151  68.757  1.00  0.00    -0.223 C  
ENDBRANCH  11  12
BRANCH  11  16
HETATM   16  O   UNL     2     -12.571  12.474  65.264  1.00  0.00    -0.645 OA 
HETATM   17  O   UNL     2     -10.809  12.570  63.575  1.00  0.00    -0.440 OA 
HETATM   18  O   UNL     2     -13.065  11.822  62.972  1.00  0.00    -0.508 OA 
HETATM   19  S   UNL     2     -12.247  12.791  63.694  1.00  0.00    -0.502 S  
HETATM   20  O   UNL     2     -12.641  14.181  63.511  1.00  0.00    -0.834 OA 
ENDBRANCH  11  16
ENDBRANCH  10  11
ENDBRANCH   8  10
ENDBRANCH   4   5
ENDBRANCH   3   4
TORSDOF 6
ENDMDL
MODEL        2
REMARK 921   NORMALIZED FREE ENERGY PREDICTED BY IDOCK:   -6.05 KCAL/MOL
REMARK 922        TOTAL FREE ENERGY PREDICTED BY IDOCK:   -9.37 KCAL/MOL
REMARK 923 INTER-LIGAND FREE ENERGY PREDICTED BY IDOCK:   -8.41 KCAL/MOL
REMARK 924 INTRA-LIGAND FREE ENERGY PREDICTED BY IDOCK:   -0.96 KCAL/MOL
REMARK 927      BINDING AFFINITY PREDICTED BY RF-SCORE:    0.00 PKD
ROOT
HETATM    1 NA   UNL     1     -10.808  19.743  70.853  1.00  0.00    -0.777 Na 
HETATM    2  C   UNL     2      -9.676  20.309  67.358  1.00  0.00    -0.584 C  
HETATM    3  C   UNL     2      -9.476  18.808  67.206  1.00  0.00    -0.326 C  
ENDROOT
BRANCH   3   4
HETATM    4  C   UNL     2      -9.973  18.062  68.443  1.00  0.00    -0.382 C  
BRANCH   4   5
HETATM    5  C   UNL     2     -10.992  16.959  68.137  1.00  0.00    -0.290 C  
HETATM    6  C   UNL     2     -10.693  15.564  68.738  1.00  0.00    -0.249 C  
HETATM    7  C   UNL     2     -10.459  15.581  70.266  1.00  0.00    -0.282 C  
HETATM    8  C   UNL     2     -11.806  14.548  68.385  1.00  0.00    -0.351 C  
HETATM    9  C   UNL     2     -11.672  15.955  71.109  1.00  0.00    -0.490 C  
BRANCH   8  10
HETATM   10  C   UNL     2     -12.053  14.339  66.891  1.00  0.00    -0.440 C  
BRANCH  10  11
HETATM   11  C   UNL     2     -11.581  12.999  66.284  1.00  0.00    -0.360 C  
BRANCH  11  12
HETATM   12  C   UNL     2     -11.456  11.915  67.381  1.00  0.00    -0.393 C  
HETATM   13  C   UNL     2      -8.975  12.235  67.960  1.00  0.00    -0.190 C  
HETATM   14  C   UNL     2     -10.067  11.254  67.526  1.00  0.00    -0.207 C  
HETATM   15  C   UNL     2     -10.144  10.120  68.559  1.00  0.00    -0.186 C  
ENDBRANCH  11  12
BRANCH  11  16
HETATM   16  O   UNL     2     -12.540  12.558  65.326  1.00  0.00    -0.645 OA 
HETATM   17  O   UNL     2     -10.835  12.351  63.589  1.00  0.00    -0.411 OA 
HETATM   18  O   UNL     2     -13.177  11.817  63.097  1.00  0.00    -0.538 OA 
HETATM   19  S   UNL     2     -12.236  12.736  63.729  1.00  0.00    -0.491 S  
HETATM   20  O   UNL     2     -12.483  14.146  63.463  1.00  0.00    -0.817 OA 
ENDBRANCH  11  16
ENDBRANCH  10  11
ENDBRANCH   8  10
ENDBRANCH   4   5
ENDBRANCH   3   4
TORSDOF 6
ENDMDL
MODEL        3
REMARK 921   NORMALIZED FREE ENERGY PREDICTED BY IDOCK:   -5.68 KCAL/MOL
REMARK 922        TOTAL FREE ENERGY PREDICTED BY IDOCK:   -8.88 KCAL/MOL
REMARK 923 INTER-LIGAND FREE ENERGY PREDICTED BY IDOCK:   -8.14 KCAL/MOL
REMARK 924 INTRA-LIGAND FREE ENERGY PREDICTED BY IDOCK:   -0.74 KCAL/MOL
REMARK 927      BINDING AFFINITY PREDICTED BY RF-SCORE:    0.00 PKD
ROOT
HETATM    1 NA   UNL     1     -13.996  11.903  64.046  1.00  0.00    -0.741 Na 
HETATM    2  C   UNL     2     -10.376  11.108  63.766  1.00  0.00    -0.447 C  
HETATM    3  C   UNL     2     -10.148  11.794  65.105  1.00  0.00    -0.298 C  
ENDROOT
BRANCH   3   4
HETATM    4  C   UNL     2     -11.473  12.209  65.741  1.00  0.00    -0.414 C  
BRANCH   4   5
HETATM    5  C   UNL     2     -11.319  12.974  67.060  1.00  0.00    -0.343 C  
HETATM    6  C   UNL     2     -11.910  12.293  68.319  1.00  0.00    -0.367 C  
HETATM    7  C   UNL     2     -11.398  10.852  68.546  1.00  0.00    -0.367 C  
HETATM    8  C   UNL     2     -11.666  13.146  69.587  1.00  0.00    -0.370 C  
HETATM    9  C   UNL     2      -9.915  10.728  68.874  1.00  0.00    -0.213 C  
BRANCH   8  10
HETATM   10  C   UNL     2     -12.238  14.564  69.544  1.00  0.00    -0.306 C  
BRANCH  10  11
HETATM   11  C   UNL     2     -11.485  15.647  70.348  1.00  0.00    -0.354 C  
BRANCH  11  12
HETATM   12  C   UNL     2     -11.466  15.296  71.855  1.00  0.00    -0.504 C  
HETATM   13  C   UNL     2     -13.990  15.430  72.313  1.00  0.00    -0.661 C  
HETATM   14  C   UNL     2     -12.594  15.918  72.709  1.00  0.00    -0.567 C  
HETATM   15  C   UNL     2     -12.360  15.582  74.190  1.00  0.00    -0.806 C  
ENDBRANCH  11  12
BRANCH  11  16
HETATM   16  O   UNL     2     -10.137  15.715  69.888  1.00  0.00    -0.283 OA 
HETATM   17  O   UNL     2     -10.409  18.035  69.177  1.00  0.00    -0.322 OA 
HETATM   18  O   UNL     2      -8.264  16.886  68.867  1.00  0.00    -0.254 OA 
HETATM   19  S   UNL     2      -9.719  16.820  68.758  1.00  0.00    -0.266 S  
HETATM   20  O   UNL     2     -10.214  16.269  67.505  1.00  0.00    -0.258 OA 
ENDBRANCH  11  16
ENDBRANCH  10  11
ENDBRANCH   8  10
ENDBRANCH   4   5
ENDBRANCH   3   4
TORSDOF 6
ENDMDL
MODEL        4
REMARK 921   NORMALIZED FREE ENERGY PREDICTED BY IDOCK:   -5.60 KCAL/MOL
REMARK 922        TOTAL FREE ENERGY PREDICTED BY IDOCK:   -8.76 KCAL/MOL
REMARK 923 INTER-LIGAND FREE ENERGY PREDICTED BY IDOCK:   -7.74 KCAL/MOL
REMARK 924 INTRA-LIGAND FREE ENERGY PREDICTED BY IDOCK:   -1.02 KCAL/MOL
REMARK 927      BINDING AFFINITY PREDICTED BY RF-SCORE:    0.00 PKD
ROOT
HETATM    1 NA   UNL     1     -14.252  11.663  64.031  1.00  0.00    -0.598 Na 
HETATM    2  C   UNL     2     -10.620  12.082  63.362  1.00  0.00    -0.478 C  
HETATM    3  C   UNL     2     -10.473  12.753  64.720  1.00  0.00    -0.357 C  
ENDROOT
BRANCH   3   4
HETATM    4  C   UNL     2     -11.783  12.697  65.503  1.00  0.00    -0.446 C  
BRANCH   4   5
HETATM    5  C   UNL     2     -11.658  13.152  66.961  1.00  0.00    -0.408 C  
HETATM    6  C   UNL     2     -11.569  12.029  68.024  1.00  0.00    -0.407 C  
HETATM    7  C   UNL     2     -10.447  11.001  67.751  1.00  0.00    -0.232 C  
HETATM    8  C   UNL     2     -11.416  12.613  69.449  1.00  0.00    -0.330 C  
HETATM    9  C   UNL     2      -9.026  11.542  67.848  1.00  0.00    -0.159 C  
BRANCH   8  10
HETATM   10  C   UNL     2     -12.535  13.553  69.896  1.00  0.00    -0.194 C  
BRANCH  10  11
HETATM   11  C   UNL     2     -12.121  14.975  70.335  1.00  0.00    -0.333 C  
BRANCH  11  12
HETATM   12  C   UNL     2     -11.906  15.887  69.103  1.00  0.00    -0.340 C  
HETATM   13  C   UNL     2      -9.406  15.438  68.722  1.00  0.00    -0.209 C  
HETATM   14  C   UNL     2     -10.492  16.493  68.947  1.00  0.00    -0.304 C  
HETATM   15  C   UNL     2     -10.481  17.468  67.759  1.00  0.00    -0.381 C  
ENDBRANCH  11  12
BRANCH  11  16
HETATM   16  O   UNL     2     -13.160  15.538  71.132  1.00  0.00    -0.472 OA 
HETATM   17  O   UNL     2     -11.767  15.483  73.137  1.00  0.00    -0.447 OA 
HETATM   18  O   UNL     2     -14.062  16.339  73.245  1.00  0.00    -0.434 OA 
HETATM   19  S   UNL     2     -13.162  15.303  72.750  1.00  0.00    -0.532 S  
HETATM   20  O   UNL     2     -13.644  13.939  72.922  1.00  0.00    -0.680 OA 
ENDBRANCH  11  16
ENDBRANCH  10  11
ENDBRANCH   8  10
ENDBRANCH   4   5
ENDBRANCH   3   4
TORSDOF 6
ENDMDL
MODEL        5
REMARK 921   NORMALIZED FREE ENERGY PREDICTED BY IDOCK:   -5.54 KCAL/MOL
REMARK 922        TOTAL FREE ENERGY PREDICTED BY IDOCK:   -8.69 KCAL/MOL
REMARK 923 INTER-LIGAND FREE ENERGY PREDICTED BY IDOCK:   -7.91 KCAL/MOL
REMARK 924 INTRA-LIGAND FREE ENERGY PREDICTED BY IDOCK:   -0.78 KCAL/MOL
REMARK 927      BINDING AFFINITY PREDICTED BY RF-SCORE:    0.00 PKD
ROOT
HETATM    1 NA   UNL     1     -14.159  12.546  72.892  1.00  0.00    -0.552 Na 
HETATM    2  C   UNL     2     -14.139   8.858  72.432  1.00  0.00    -0.493 C  
HETATM    3  C   UNL     2     -12.978   9.011  71.459  1.00  0.00    -0.391 C  
ENDROOT
BRANCH   3   4
HETATM    4  C   UNL     2     -12.494  10.459  71.408  1.00  0.00    -0.521 C  
BRANCH   4   5
HETATM    5  C   UNL     2     -12.429  11.044  69.994  1.00  0.00    -0.319 C  
HETATM    6  C   UNL     2     -11.013  11.268  69.409  1.00  0.00    -0.282 C  
HETATM    7  C   UNL     2     -10.121  10.006  69.439  1.00  0.00    -0.235 C  
HETATM    8  C   UNL     2     -11.080  11.833  67.970  1.00  0.00    -0.297 C  
HETATM    9  C   UNL     2     -10.577   8.860  68.544  1.00  0.00    -0.183 C  
BRANCH   8  10
HETATM   10  C   UNL     2     -11.831  13.156  67.819  1.00  0.00    -0.392 C  
BRANCH  10  11
HETATM   11  C   UNL     2     -11.436  14.053  66.626  1.00  0.00    -0.364 C  
BRANCH  11  12
HETATM   12  C   UNL     2     -10.185  14.898  66.968  1.00  0.00    -0.256 C  
HETATM   13  C   UNL     2     -10.674  16.932  65.479  1.00  0.00    -0.171 C  
HETATM   14  C   UNL     2      -9.674  15.835  65.850  1.00  0.00    -0.389 C  
HETATM   15  C   UNL     2      -8.362  16.499  66.298  1.00  0.00    -0.364 C  
ENDBRANCH  11  12
BRANCH  11  16
HETATM   16  O   UNL     2     -11.125  13.229  65.506  1.00  0.00    -0.281 OA 
HETATM   17  O   UNL     2     -12.511  14.583  64.018  1.00  0.00    -0.778 OA 
HETATM   18  O   UNL     2     -11.314  12.624  63.156  1.00  0.00    -0.397 OA 
HETATM   19  S   UNL     2     -12.137  13.187  64.222  1.00  0.00    -0.421 S  
HETATM   20  O   UNL     2     -13.242  12.343  64.652  1.00  0.00    -0.822 OA 
ENDBRANCH  11  16
ENDBRANCH  10  11
ENDBRANCH   8  10
ENDBRANCH   4   5
ENDBRANCH   3   4
TORSDOF 6
ENDMDL
MODEL        6
REMARK 921   NORMALIZED FREE ENERGY PREDICTED BY IDOCK:   -5.47 KCAL/MOL
REMARK 922        TOTAL FREE ENERGY PREDICTED BY IDOCK:   -8.59 KCAL/MOL
REMARK 923 INTER-LIGAND FREE ENERGY PREDICTED BY IDOCK:   -7.52 KCAL/MOL
REMARK 924 INTRA-LIGAND FREE ENERGY PREDICTED BY IDOCK:   -1.07 KCAL/MOL
REMARK 927      BINDING AFFINITY PREDICTED BY RF-SCORE:    0.00 PKD
ROOT
HETATM    1 NA   UNL     1     -11.238  17.429  64.953  1.00  0.00    -0.454 Na 
HETATM    2  C   UNL     2      -8.834  20.069  65.985  1.00  0.00    -0.254 C  
HETATM    3  C   UNL     2      -9.500  20.106  67.353  1.00  0.00    -0.531 C  
ENDROOT
BRANCH   3   4
HETATM    4  C   UNL     2     -10.558  19.010  67.476  1.00  0.00    -0.546 C  
BRANCH   4   5
HETATM    5  C   UNL     2     -10.279  17.998  68.592  1.00  0.00    -0.385 C  
HETATM    6  C   UNL     2      -9.839  16.584  68.138  1.00  0.00    -0.244 C  
HETATM    7  C   UNL     2      -8.622  16.586  67.186  1.00  0.00    -0.208 C  
HETATM    8  C   UNL     2      -9.559  15.665  69.352  1.00  0.00    -0.287 C  
HETATM    9  C   UNL     2      -7.311  17.064  67.800  1.00  0.00    -0.172 C  
BRANCH   8  10
HETATM   10  C   UNL     2     -10.732  15.473  70.314  1.00  0.00    -0.352 C  
BRANCH  10  11
HETATM   11  C   UNL     2     -11.848  14.501  69.872  1.00  0.00    -0.317 C  
BRANCH  11  12
HETATM   12  C   UNL     2     -11.259  13.334  69.043  1.00  0.00    -0.320 C  
HETATM   13  C   UNL     2     -12.000  14.107  66.709  1.00  0.00    -0.475 C  
HETATM   14  C   UNL     2     -12.015  12.978  67.743  1.00  0.00    -0.344 C  
HETATM   15  C   UNL     2     -11.387  11.727  67.111  1.00  0.00    -0.387 C  
ENDBRANCH  11  12
BRANCH  11  16
HETATM   16  O   UNL     2     -12.476  13.956  71.029  1.00  0.00    -0.340 OA 
HETATM   17  O   UNL     2     -14.353  15.507  70.845  1.00  0.00    -0.392 OA 
HETATM   18  O   UNL     2     -14.272  13.870  72.669  1.00  0.00    -0.672 OA 
HETATM   19  S   UNL     2     -13.548  14.856  71.873  1.00  0.00    -0.458 S  
HETATM   20  O   UNL     2     -12.726  15.780  72.643  1.00  0.00    -0.384 OA 
ENDBRANCH  11  16
ENDBRANCH  10  11
ENDBRANCH   8  10
ENDBRANCH   4   5
ENDBRANCH   3   4
TORSDOF 6
ENDMDL
MODEL        7
REMARK 921   NORMALIZED FREE ENERGY PREDICTED BY IDOCK:   -5.40 KCAL/MOL
REMARK 922        TOTAL FREE ENERGY PREDICTED BY IDOCK:   -8.50 KCAL/MOL
REMARK 923 INTER-LIGAND FREE ENERGY PREDICTED BY IDOCK:   -7.27 KCAL/MOL
REMARK 924 INTRA-LIGAND FREE ENERGY PREDICTED BY IDOCK:   -1.23 KCAL/MOL
REMARK 927      BINDING AFFINITY PREDICTED BY RF-SCORE:    0.00 PKD
ROOT
HETATM    1 NA   UNL     1     -14.217  14.447  65.382  1.00  0.00    -0.758 Na 
HETATM    2  C   UNL     2     -12.608  11.760  63.380  1.00  0.00    -0.458 C  
HETATM    3  C   UNL     2     -11.289  12.513  63.474  1.00  0.00    -0.556 C  
ENDROOT
BRANCH   3   4
HETATM    4  C   UNL     2     -11.418  13.729  64.391  1.00  0.00    -0.392 C  
BRANCH   4   5
HETATM    5  C   UNL     2     -10.371  13.780  65.508  1.00  0.00    -0.333 C  
HETATM    6  C   UNL     2     -10.870  13.429  66.931  1.00  0.00    -0.282 C  
HETATM    7  C   UNL     2     -11.590  12.064  67.020  1.00  0.00    -0.387 C  
HETATM    8  C   UNL     2      -9.717  13.487  67.963  1.00  0.00    -0.228 C  
HETATM    9  C   UNL     2     -10.714  10.844  66.761  1.00  0.00    -0.309 C  
BRANCH   8  10
HETATM   10  C   UNL     2      -8.998  14.832  68.068  1.00  0.00    -0.174 C  
BRANCH  10  11
HETATM   11  C   UNL     2      -9.838  16.039  68.542  1.00  0.00    -0.216 C  
BRANCH  11  12
HETATM   12  C   UNL     2     -10.161  15.922  70.051  1.00  0.00    -0.187 C  
HETATM   13  C   UNL     2     -12.435  14.744  69.868  1.00  0.00    -0.283 C  
HETATM   14  C   UNL     2     -11.660  15.940  70.426  1.00  0.00    -0.387 C  
HETATM   15  C   UNL     2     -11.806  15.947  71.956  1.00  0.00    -0.609 C  
ENDBRANCH  11  12
BRANCH  11  16
HETATM   16  O   UNL     2      -9.091  17.235  68.336  1.00  0.00    -0.250 OA 
HETATM   17  O   UNL     2     -11.035  18.391  67.414  1.00  0.00    -0.351 OA 
HETATM   18  O   UNL     2      -8.878  19.544  67.594  1.00  0.00    -0.300 OA 
HETATM   19  S   UNL     2      -9.590  18.324  67.224  1.00  0.00    -0.288 S  
HETATM   20  O   UNL     2      -9.195  17.750  65.945  1.00  0.00    -0.519 OA 
ENDBRANCH  11  16
ENDBRANCH  10  11
ENDBRANCH   8  10
ENDBRANCH   4   5
ENDBRANCH   3   4
TORSDOF 6
ENDMDL
MODEL        8
REMARK 921   NORMALIZED FREE ENERGY PREDICTED BY IDOCK:   -5.32 KCAL/MOL
REMARK 922        TOTAL FREE ENERGY PREDICTED BY IDOCK:   -8.39 KCAL/MOL
REMARK 923 INTER-LIGAND FREE ENERGY PREDICTED BY IDOCK:   -7.38 KCAL/MOL
REMARK 924 INTRA-LIGAND FREE ENERGY PREDICTED BY IDOCK:   -1.01 KCAL/MOL
REMARK 927      BINDING AFFINITY PREDICTED BY RF-SCORE:    0.00 PKD
ROOT
HETATM    1 NA   UNL     1      -8.130  21.030  66.418  1.00  0.00    -0.477 Na 
HETATM    2  C   UNL     2      -6.554  19.839  69.567  1.00  0.00    -0.388 C  
HETATM    3  C   UNL     2      -6.792  18.406  69.114  1.00  0.00    -0.260 C  
ENDROOT
BRANCH   3   4
HETATM    4  C   UNL     2      -7.348  18.366  67.692  1.00  0.00    -0.219 C  
BRANCH   4   5
HETATM    5  C   UNL     2      -8.553  17.436  67.520  1.00  0.00    -0.221 C  
HETATM    6  C   UNL     2      -9.859  17.868  68.232  1.00  0.00    -0.348 C  
HETATM    7  C   UNL     2     -10.315  19.302  67.879  1.00  0.00    -0.518 C  
HETATM    8  C   UNL     2     -11.007  16.866  67.959  1.00  0.00    -0.271 C  
HETATM    9  C   UNL     2     -10.743  19.516  66.433  1.00  0.00    -0.528 C  
BRANCH   8  10
HETATM   10  C   UNL     2     -10.733  15.423  68.382  1.00  0.00    -0.256 C  
BRANCH  10  11
HETATM   11  C   UNL     2     -10.897  14.333  67.299  1.00  0.00    -0.284 C  
BRANCH  11  12
HETATM   12  C   UNL     2     -11.420  13.016  67.923  1.00  0.00    -0.352 C  
HETATM   13  C   UNL     2      -9.179  11.783  68.155  1.00  0.00    -0.186 C  
HETATM   14  C   UNL     2     -10.605  11.744  67.599  1.00  0.00    -0.237 C  
HETATM   15  C   UNL     2     -11.322  10.515  68.180  1.00  0.00    -0.324 C  
ENDBRANCH  11  12
BRANCH  11  16
HETATM   16  O   UNL     2     -11.845  14.777  66.332  1.00  0.00    -0.330 OA 
HETATM   17  O   UNL     2     -10.633  13.679  64.517  1.00  0.00    -0.417 OA 
HETATM   18  O   UNL     2     -12.687  14.937  64.053  1.00  0.00    -0.792 OA 
HETATM   19  S   UNL     2     -11.410  14.890  64.760  1.00  0.00    -0.376 S  
HETATM   20  O   UNL     2     -10.623  16.113  64.683  1.00  0.00    -0.597 OA 
ENDBRANCH  11  16
ENDBRANCH  10  11
ENDBRANCH   8  10
ENDBRANCH   4   5
ENDBRANCH   3   4
TORSDOF 6
ENDMDL
MODEL        9
REMARK 921   NORMALIZED FREE ENERGY PREDICTED BY IDOCK:   -5.31 KCAL/MOL
REMARK 922        TOTAL FREE ENERGY PREDICTED BY IDOCK:   -8.38 KCAL/MOL
REMARK 923 INTER-LIGAND FREE ENERGY PREDICTED BY IDOCK:   -7.25 KCAL/MOL
REMARK 924 INTRA-LIGAND FREE ENERGY PREDICTED BY IDOCK:   -1.14 KCAL/MOL
REMARK 927      BINDING AFFINITY PREDICTED BY RF-SCORE:    0.00 PKD
ROOT
HETATM    1 NA   UNL     1     -12.844   8.287  73.301  1.00  0.00    -0.598 Na 
HETATM    2  C   UNL     2     -11.360   6.263  70.559  1.00  0.00    -0.428 C  
HETATM    3  C   UNL     2     -10.447   7.433  70.223  1.00  0.00    -0.229 C  
ENDROOT
BRANCH   3   4
HETATM    4  C   UNL     2     -10.601   8.559  71.245  1.00  0.00    -0.296 C  
BRANCH   4   5
HETATM    5  C   UNL     2     -10.561   9.964  70.635  1.00  0.00    -0.341 C  
HETATM    6  C   UNL     2     -11.841  10.427  69.896  1.00  0.00    -0.314 C  
HETATM    7  C   UNL     2     -13.125  10.318  70.748  1.00  0.00    -0.360 C  
HETATM    8  C   UNL     2     -11.687  11.868  69.352  1.00  0.00    -0.401 C  
HETATM    9  C   UNL     2     -13.191  11.246  71.955  1.00  0.00    -0.491 C  
BRANCH   8  10
HETATM   10  C   UNL     2     -10.520  12.085  68.388  1.00  0.00    -0.231 C  
BRANCH  10  11
HETATM   11  C   UNL     2     -10.680  11.524  66.958  1.00  0.00    -0.259 C  
BRANCH  11  12
HETATM   12  C   UNL     2     -10.685   9.976  66.975  1.00  0.00    -0.248 C  
HETATM   13  C   UNL     2      -8.309   9.593  67.871  1.00  0.00    -0.117 C  
HETATM   14  C   UNL     2      -9.315   9.292  66.759  1.00  0.00    -0.202 C  
HETATM   15  C   UNL     2      -9.510   7.771  66.673  1.00  0.00    -0.263 C  
ENDBRANCH  11  12
BRANCH  11  16
HETATM   16  O   UNL     2     -11.923  11.968  66.420  1.00  0.00    -0.611 OA 
HETATM   17  O   UNL     2     -10.801  13.322  64.725  1.00  0.00    -0.320 OA 
HETATM   18  O   UNL     2     -13.249  13.263  64.843  1.00  0.00    -0.703 OA 
HETATM   19  S   UNL     2     -11.989  13.364  65.572  1.00  0.00    -0.425 S  
HETATM   20  O   UNL     2     -11.948  14.411  66.583  1.00  0.00    -0.407 OA 
ENDBRANCH  11  16
ENDBRANCH  10  11
ENDBRANCH   8  10
ENDBRANCH   4   5
ENDBRANCH   3   4
TORSDOF 6
ENDMDL
MODEL       10
REMARK 921   NORMALIZED FREE ENERGY PREDICTED BY IDOCK:   -5.27 KCAL/MOL
REMARK 922        TOTAL FREE ENERGY PREDICTED BY IDOCK:   -8.33 KCAL/MOL
REMARK 923 INTER-LIGAND FREE ENERGY PREDICTED BY IDOCK:   -7.49 KCAL/MOL
REMARK 924 INTRA-LIGAND FREE ENERGY PREDICTED BY IDOCK:   -0.83 KCAL/MOL
REMARK 927      BINDING AFFINITY PREDICTED BY RF-SCORE:    0.00 PKD
ROOT
HETATM    1 NA   UNL     1     -11.878  16.002  63.236  1.00  0.00    -0.907 Na 
HETATM    2  C   UNL     2     -10.519  18.095  65.990  1.00  0.00    -0.346 C  
HETATM    3  C   UNL     2      -9.797  16.869  66.531  1.00  0.00    -0.307 C  
ENDROOT
BRANCH   3   4
HETATM    4  C   UNL     2      -9.954  15.679  65.586  1.00  0.00    -0.388 C  
BRANCH   4   5
HETATM    5  C   UNL     2     -10.153  14.338  66.300  1.00  0.00    -0.308 C  
HETATM    6  C   UNL     2     -11.618  13.918  66.572  1.00  0.00    -0.385 C  
HETATM    7  C   UNL     2     -12.511  13.919  65.310  1.00  0.00    -0.504 C  
HETATM    8  C   UNL     2     -11.688  12.537  67.268  1.00  0.00    -0.431 C  
HETATM    9  C   UNL     2     -12.151  12.881  64.254  1.00  0.00    -0.487 C  
BRANCH   8  10
HETATM   10  C   UNL     2     -10.947  12.436  68.602  1.00  0.00    -0.283 C  
BRANCH  10  11
HETATM   11  C   UNL     2     -10.904  11.047  69.275  1.00  0.00    -0.238 C  
BRANCH  11  12
HETATM   12  C   UNL     2     -11.939  10.962  70.423  1.00  0.00    -0.453 C  
HETATM   13  C   UNL     2     -10.870   9.052  71.765  1.00  0.00    -0.437 C  
HETATM   14  C   UNL     2     -12.128   9.568  71.063  1.00  0.00    -0.398 C  
HETATM   15  C   UNL     2     -13.272   9.625  72.086  1.00  0.00    -0.535 C  
ENDBRANCH  11  12
BRANCH  11  16
HETATM   16  O   UNL     2     -11.226  10.051  68.308  1.00  0.00    -0.229 OA 
HETATM   17  O   UNL     2      -9.200   8.784  68.814  1.00  0.00    -0.141 OA 
HETATM   18  O   UNL     2     -10.762   7.990  67.098  1.00  0.00    -0.322 OA 
HETATM   19  S   UNL     2     -10.040   9.123  67.670  1.00  0.00    -0.236 S  
HETATM   20  O   UNL     2      -9.383   9.984  66.698  1.00  0.00    -0.158 OA 
ENDBRANCH  11  16
ENDBRANCH  10  11
ENDBRANCH   8  10
ENDBRANCH   4   5
ENDBRANCH   3   4
TORSDOF 6
ENDMDL
MODEL       11
REMARK 921   NORMALIZED FREE ENERGY PREDICTED BY IDOCK:   -5.27 KCAL/MOL
REMARK 922        TOTAL FREE ENERGY PREDICTED BY IDOCK:   -8.33 KCAL/MOL
REMARK 923 INTER-LIGAND FREE ENERGY PREDICTED BY IDOCK:   -7.38 KCAL/MOL
REMARK 924 INTRA-LIGAND FREE ENERGY PREDICTED BY IDOCK:   -0.95 KCAL/MOL
REMARK 927      BINDING AFFINITY PREDICTED BY RF-SCORE:    0.00 PKD
ROOT
HETATM    1 NA   UNL     1     -14.299  12.499  72.844  1.00  0.00    -0.570 Na 
HETATM    2  C   UNL     2     -12.395  15.382  74.217  1.00  0.00    -0.807 C  
HETATM    3  C   UNL     2     -12.368  15.995  72.824  1.00  0.00    -0.603 C  
ENDROOT
BRANCH   3   4
HETATM    4  C   UNL     2     -13.208  15.173  71.847  1.00  0.00    -0.476 C  
BRANCH   4   5
HETATM    5  C   UNL     2     -12.420  14.085  71.110  1.00  0.00    -0.447 C  
HETATM    6  C   UNL     2     -12.215  14.299  69.590  1.00  0.00    -0.371 C  
HETATM    7  C   UNL     2     -11.583  15.663  69.233  1.00  0.00    -0.375 C  
HETATM    8  C   UNL     2     -11.382  13.152  68.968  1.00  0.00    -0.332 C  
HETATM    9  C   UNL     2     -10.148  15.864  69.704  1.00  0.00    -0.271 C  
BRANCH   8  10
HETATM   10  C   UNL     2     -11.966  11.749  69.140  1.00  0.00    -0.356 C  
BRANCH  10  11
HETATM   11  C   UNL     2     -10.967  10.605  69.418  1.00  0.00    -0.255 C  
BRANCH  11  12
HETATM   12  C   UNL     2     -11.239   9.965  70.801  1.00  0.00    -0.427 C  
HETATM   13  C   UNL     2      -8.931   8.911  71.199  1.00  0.00    -0.305 C  
HETATM   14  C   UNL     2     -10.442   8.680  71.122  1.00  0.00    -0.291 C  
HETATM   15  C   UNL     2     -10.919   8.103  72.464  1.00  0.00    -0.439 C  
ENDBRANCH  11  12
BRANCH  11  16
HETATM   16  O   UNL     2     -11.123   9.598  68.422  1.00  0.00    -0.156 OA 
HETATM   17  O   UNL     2      -8.794   9.815  67.718  1.00  0.00    -0.128 OA 
HETATM   18  O   UNL     2     -10.280   8.210  66.609  1.00  0.00    -0.292 OA 
HETATM   19  S   UNL     2     -10.109   9.559  67.140  1.00  0.00    -0.247 S  
HETATM   20  O   UNL     2     -10.580  10.624  66.266  1.00  0.00    -0.229 OA 
ENDBRANCH  11  16
ENDBRANCH  10  11
ENDBRANCH   8  10
ENDBRANCH   4   5
ENDBRANCH   3   4
TORSDOF 6
ENDMDL
MODEL       12
REMARK 921   NORMALIZED FREE ENERGY PREDICTED BY IDOCK:   -5.27 KCAL/MOL
REMARK 922        TOTAL FREE ENERGY PREDICTED BY IDOCK:   -8.32 KCAL/MOL
REMARK 923 INTER-LIGAND FREE ENERGY PREDICTED BY IDOCK:   -7.44 KCAL/MOL
REMARK 924 INTRA-LIGAND FREE ENERGY PREDICTED BY IDOCK:   -0.88 KCAL/MOL
REMARK 927      BINDING AFFINITY PREDICTED BY RF-SCORE:    0.00 PKD
ROOT
HETATM    1 NA   UNL     1     -10.408   9.696  63.787  1.00  0.00    -0.445 Na 
HETATM    2  C   UNL     2     -10.169   7.584  66.836  1.00  0.00    -0.359 C  
HETATM    3  C   UNL     2     -10.175   8.850  67.682  1.00  0.00    -0.296 C  
ENDROOT
BRANCH   3   4
HETATM    4  C   UNL     2     -10.410  10.086  66.817  1.00  0.00    -0.283 C  
BRANCH   4   5
HETATM    5  C   UNL     2     -11.293  11.150  67.477  1.00  0.00    -0.351 C  
HETATM    6  C   UNL     2     -11.041  12.615  67.042  1.00  0.00    -0.322 C  
HETATM    7  C   UNL     2     -11.105  12.830  65.513  1.00  0.00    -0.318 C  
HETATM    8  C   UNL     2     -12.012  13.588  67.754  1.00  0.00    -0.369 C  
HETATM    9  C   UNL     2     -12.474  12.619  64.878  1.00  0.00    -0.564 C  
BRANCH   8  10
HETATM   10  C   UNL     2     -11.959  13.567  69.282  1.00  0.00    -0.378 C  
BRANCH  10  11
HETATM   11  C   UNL     2     -11.823  14.930  69.996  1.00  0.00    -0.307 C  
BRANCH  11  12
HETATM   12  C   UNL     2     -11.654  16.073  68.965  1.00  0.00    -0.350 C  
HETATM   13  C   UNL     2      -9.099  15.994  68.718  1.00  0.00    -0.222 C  
HETATM   14  C   UNL     2     -10.323  16.856  69.035  1.00  0.00    -0.333 C  
HETATM   15  C   UNL     2     -10.367  18.029  68.043  1.00  0.00    -0.397 C  
ENDBRANCH  11  12
BRANCH  11  16
HETATM   16  O   UNL     2     -13.005  15.181  70.751  1.00  0.00    -0.393 OA 
HETATM   17  O   UNL     2     -11.715  15.661  72.769  1.00  0.00    -0.445 OA 
HETATM   18  O   UNL     2     -14.165  15.764  72.810  1.00  0.00    -0.539 OA 
HETATM   19  S   UNL     2     -12.975  15.036  72.379  1.00  0.00    -0.394 S  
HETATM   20  O   UNL     2     -13.015  13.601  72.622  1.00  0.00    -0.378 OA 
ENDBRANCH  11  16
ENDBRANCH  10  11
ENDBRANCH   8  10
ENDBRANCH   4   5
ENDBRANCH   3   4
TORSDOF 6
ENDMDL
MODEL       13
REMARK 921   NORMALIZED FREE ENERGY PREDICTED BY IDOCK:   -5.26 KCAL/MOL
REMARK 922        TOTAL FREE ENERGY PREDICTED BY IDOCK:   -8.31 KCAL/MOL
REMARK 923 INTER-LIGAND FREE ENERGY PREDICTED BY IDOCK:   -7.39 KCAL/MOL
REMARK 924 INTRA-LIGAND FREE ENERGY PREDICTED BY IDOCK:   -0.92 KCAL/MOL
REMARK 927      BINDING AFFINITY PREDICTED BY RF-SCORE:    0.00 PKD
ROOT
HETATM    1 NA   UNL     1     -14.367  12.589  72.967  1.00  0.00    -0.583 Na 
HETATM    2  C   UNL     2     -12.439  15.518  74.199  1.00  0.00    -0.805 C  
HETATM    3  C   UNL     2     -12.386  16.051  72.774  1.00  0.00    -0.603 C  
ENDROOT
BRANCH   3   4
HETATM    4  C   UNL     2     -13.226  15.186  71.835  1.00  0.00    -0.476 C  
BRANCH   4   5
HETATM    5  C   UNL     2     -12.508  13.927  71.338  1.00  0.00    -0.424 C  
HETATM    6  C   UNL     2     -12.378  13.773  69.803  1.00  0.00    -0.311 C  
HETATM    7  C   UNL     2     -11.729  14.992  69.108  1.00  0.00    -0.345 C  
HETATM    8  C   UNL     2     -11.611  12.482  69.429  1.00  0.00    -0.368 C  
HETATM    9  C   UNL     2     -10.266  15.240  69.454  1.00  0.00    -0.258 C  
BRANCH   8  10
HETATM   10  C   UNL     2     -12.223  11.181  69.951  1.00  0.00    -0.385 C  
BRANCH  10  11
HETATM   11  C   UNL     2     -11.305   9.940  69.986  1.00  0.00    -0.249 C  
BRANCH  11  12
HETATM   12  C   UNL     2      -9.906  10.278  69.414  1.00  0.00    -0.247 C  
HETATM   13  C   UNL     2     -10.302   9.566  66.979  1.00  0.00    -0.319 C  
HETATM   14  C   UNL     2      -9.431   9.409  68.228  1.00  0.00    -0.147 C  
HETATM   15  C   UNL     2      -7.985   9.782  67.866  1.00  0.00    -0.104 C  
ENDBRANCH  11  12
BRANCH  11  16
HETATM   16  O   UNL     2     -11.145   9.516  71.337  1.00  0.00    -0.351 OA 
HETATM   17  O   UNL     2     -11.847   7.241  70.795  1.00  0.00    -0.309 OA 
HETATM   18  O   UNL     2     -11.243   7.837  73.096  1.00  0.00    -0.402 OA 
HETATM   19  S   UNL     2     -11.961   8.209  71.881  1.00  0.00    -0.343 S  
HETATM   20  O   UNL     2     -13.320   8.687  72.096  1.00  0.00    -0.361 OA 
ENDBRANCH  11  16
ENDBRANCH  10  11
ENDBRANCH   8  10
ENDBRANCH   4   5
ENDBRANCH   3   4
TORSDOF 6
ENDMDL
MODEL       14
REMARK 921   NORMALIZED FREE ENERGY PREDICTED BY IDOCK:   -5.25 KCAL/MOL
REMARK 922        TOTAL FREE ENERGY PREDICTED BY IDOCK:   -8.30 KCAL/MOL
REMARK 923 INTER-LIGAND FREE ENERGY PREDICTED BY IDOCK:   -7.49 KCAL/MOL
REMARK 924 INTRA-LIGAND FREE ENERGY PREDICTED BY IDOCK:   -0.81 KCAL/MOL
REMARK 927      BINDING AFFINITY PREDICTED BY RF-SCORE:    0.00 PKD
ROOT
HETATM    1 NA   UNL     1     -14.073   9.925  69.921  1.00  0.00    -0.658 Na 
HETATM    2  C   UNL     2     -10.448   9.187  70.279  1.00  0.00    -0.257 C  
HETATM    3  C   UNL     2     -10.176  10.051  69.057  1.00  0.00    -0.216 C  
ENDROOT
BRANCH   3   4
HETATM    4  C   UNL     2     -11.452  10.745  68.583  1.00  0.00    -0.365 C  
BRANCH   4   5
HETATM    5  C   UNL     2     -11.346  12.272  68.523  1.00  0.00    -0.332 C  
HETATM    6  C   UNL     2     -10.487  12.855  67.373  1.00  0.00    -0.235 C  
HETATM    7  C   UNL     2     -10.904  12.354  65.971  1.00  0.00    -0.308 C  
HETATM    8  C   UNL     2     -10.482  14.402  67.402  1.00  0.00    -0.261 C  
HETATM    9  C   UNL     2     -12.282  12.802  65.498  1.00  0.00    -0.519 C  
BRANCH   8  10
HETATM   10  C   UNL     2      -9.968  15.032  68.696  1.00  0.00    -0.220 C  
BRANCH  10  11
HETATM   11  C   UNL     2     -10.734  16.264  69.228  1.00  0.00    -0.307 C  
BRANCH  11  12
HETATM   12  C   UNL     2     -10.763  17.390  68.166  1.00  0.00    -0.343 C  
HETATM   13  C   UNL     2      -8.457  18.419  68.633  1.00  0.00    -0.318 C  
HETATM   14  C   UNL     2      -9.963  18.666  68.511  1.00  0.00    -0.430 C  
HETATM   15  C   UNL     2     -10.198  19.728  67.425  1.00  0.00    -0.575 C  
ENDBRANCH  11  12
BRANCH  11  16
HETATM   16  O   UNL     2     -12.078  15.887  69.517  1.00  0.00    -0.329 OA 
HETATM   17  O   UNL     2     -11.820  16.461  71.877  1.00  0.00    -0.497 OA 
HETATM   18  O   UNL     2     -13.952  15.583  71.040  1.00  0.00    -0.535 OA 
HETATM   19  S   UNL     2     -12.496  15.473  71.042  1.00  0.00    -0.457 S  
HETATM   20  O   UNL     2     -11.985  14.120  71.209  1.00  0.00    -0.325 OA 
ENDBRANCH  11  16
ENDBRANCH  10  11
ENDBRANCH   8  10
ENDBRANCH   4   5
ENDBRANCH   3   4
TORSDOF 6
ENDMDL
MODEL       15
REMARK 921   NORMALIZED FREE ENERGY PREDICTED BY IDOCK:   -5.24 KCAL/MOL
REMARK 922        TOTAL FREE ENERGY PREDICTED BY IDOCK:   -8.29 KCAL/MOL
REMARK 923 INTER-LIGAND FREE ENERGY PREDICTED BY IDOCK:   -7.53 KCAL/MOL
REMARK 924 INTRA-LIGAND FREE ENERGY PREDICTED BY IDOCK:   -0.76 KCAL/MOL
REMARK 927      BINDING AFFINITY PREDICTED BY RF-SCORE:    0.00 PKD
ROOT
HETATM    1 NA   UNL     1      -6.961  19.540  66.042  1.00  0.00    -0.196 Na 
HETATM    2  C   UNL     2     -10.634  20.091  65.898  1.00  0.00    -0.459 C  
HETATM    3  C   UNL     2     -10.769  19.373  67.233  1.00  0.00    -0.603 C  
ENDROOT
BRANCH   3   4
HETATM    4  C   UNL     2      -9.397  19.039  67.816  1.00  0.00    -0.347 C  
BRANCH   4   5
HETATM    5  C   UNL     2      -9.273  17.603  68.335  1.00  0.00    -0.288 C  
HETATM    6  C   UNL     2      -9.201  16.491  67.261  1.00  0.00    -0.224 C  
HETATM    7  C   UNL     2      -8.090  16.711  66.210  1.00  0.00    -0.361 C  
HETATM    8  C   UNL     2      -9.047  15.092  67.907  1.00  0.00    -0.179 C  
HETATM    9  C   UNL     2      -6.663  16.632  66.739  1.00  0.00    -0.241 C  
BRANCH   8  10
HETATM   10  C   UNL     2     -10.158  14.693  68.879  1.00  0.00    -0.234 C  
BRANCH  10  11
HETATM   11  C   UNL     2     -11.177  13.643  68.385  1.00  0.00    -0.276 C  
BRANCH  11  12
HETATM   12  C   UNL     2     -12.107  13.197  69.539  1.00  0.00    -0.296 C  
HETATM   13  C   UNL     2     -12.785  15.518  70.405  1.00  0.00    -0.382 C  
HETATM   14  C   UNL     2     -12.187  14.152  70.751  1.00  0.00    -0.435 C  
HETATM   15  C   UNL     2     -13.041  13.509  71.855  1.00  0.00    -0.475 C  
ENDBRANCH  11  12
BRANCH  11  16
HETATM   16  O   UNL     2     -11.981  14.220  67.360  1.00  0.00    -0.395 OA 
HETATM   17  O   UNL     2     -12.130  12.096  66.163  1.00  0.00    -0.621 OA 
HETATM   18  O   UNL     2     -13.237  14.098  65.278  1.00  0.00    -0.760 OA 
HETATM   19  S   UNL     2     -12.037  13.525  65.881  1.00  0.00    -0.454 S  
HETATM   20  O   UNL     2     -10.787  13.914  65.245  1.00  0.00    -0.304 OA 
ENDBRANCH  11  16
ENDBRANCH  10  11
ENDBRANCH   8  10
ENDBRANCH   4   5
ENDBRANCH   3   4
TORSDOF 6
ENDMDL
MODEL       16
REMARK 921   NORMALIZED FREE ENERGY PREDICTED BY IDOCK:   -5.24 KCAL/MOL
REMARK 922        TOTAL FREE ENERGY PREDICTED BY IDOCK:   -8.28 KCAL/MOL
REMARK 923 INTER-LIGAND FREE ENERGY PREDICTED BY IDOCK:   -7.39 KCAL/MOL
REMARK 924 INTRA-LIGAND FREE ENERGY PREDICTED BY IDOCK:   -0.89 KCAL/MOL
REMARK 927      BINDING AFFINITY PREDICTED BY RF-SCORE:    0.00 PKD
ROOT
HETATM    1 NA   UNL     1     -12.776   6.616  69.614  1.00  0.00    -0.640 Na 
HETATM    2  C   UNL     2     -10.704   8.083  72.328  1.00  0.00    -0.360 C  
HETATM    3  C   UNL     2     -10.358   9.241  71.403  1.00  0.00    -0.392 C  
ENDROOT
BRANCH   3   4
HETATM    4  C   UNL     2     -11.144   9.152  70.096  1.00  0.00    -0.248 C  
BRANCH   4   5
HETATM    5  C   UNL     2     -11.792  10.472  69.668  1.00  0.00    -0.306 C  
HETATM    6  C   UNL     2     -10.828  11.588  69.195  1.00  0.00    -0.241 C  
HETATM    7  C   UNL     2      -9.869  11.144  68.067  1.00  0.00    -0.185 C  
HETATM    8  C   UNL     2     -11.602  12.856  68.762  1.00  0.00    -0.351 C  
HETATM    9  C   UNL     2     -10.533  10.814  66.735  1.00  0.00    -0.305 C  
BRANCH   8  10
HETATM   10  C   UNL     2     -12.498  13.475  69.835  1.00  0.00    -0.194 C  
BRANCH  10  11
HETATM   11  C   UNL     2     -12.105  14.877  70.351  1.00  0.00    -0.330 C  
BRANCH  11  12
HETATM   12  C   UNL     2     -11.819  15.835  69.168  1.00  0.00    -0.367 C  
HETATM   13  C   UNL     2      -9.253  15.757  69.222  1.00  0.00    -0.266 C  
HETATM   14  C   UNL     2     -10.503  16.640  69.252  1.00  0.00    -0.333 C  
HETATM   15  C   UNL     2     -10.432  17.630  68.079  1.00  0.00    -0.395 C  
ENDBRANCH  11  12
BRANCH  11  16
HETATM   16  O   UNL     2     -13.186  15.414  71.109  1.00  0.00    -0.462 OA 
HETATM   17  O   UNL     2     -11.791  15.625  73.103  1.00  0.00    -0.448 OA 
HETATM   18  O   UNL     2     -14.148  16.299  73.162  1.00  0.00    -0.403 OA 
HETATM   19  S   UNL     2     -13.168  15.304  72.740  1.00  0.00    -0.532 S  
HETATM   20  O   UNL     2     -13.538  13.924  73.019  1.00  0.00    -0.628 OA 
ENDBRANCH  11  16
ENDBRANCH  10  11
ENDBRANCH   8  10
ENDBRANCH   4   5
ENDBRANCH   3   4
TORSDOF 6
ENDMDL
MODEL       17
REMARK 921   NORMALIZED FREE ENERGY PREDICTED BY IDOCK:   -5.21 KCAL/MOL
REMARK 922        TOTAL FREE ENERGY PREDICTED BY IDOCK:   -8.25 KCAL/MOL
REMARK 923 INTER-LIGAND FREE ENERGY PREDICTED BY IDOCK:   -7.29 KCAL/MOL
REMARK 924 INTRA-LIGAND FREE ENERGY PREDICTED BY IDOCK:   -0.96 KCAL/MOL
REMARK 927      BINDING AFFINITY PREDICTED BY RF-SCORE:    0.00 PKD
ROOT
HETATM    1 NA   UNL     1     -10.785  18.328  70.028  1.00  0.00    -0.518 Na 
HETATM    2  C   UNL     2     -10.025  20.636  67.215  1.00  0.00    -0.452 C  
HETATM    3  C   UNL     2      -8.554  20.265  67.342  1.00  0.00    -0.420 C  
ENDROOT
BRANCH   3   4
HETATM    4  C   UNL     2      -8.356  19.150  68.367  1.00  0.00    -0.384 C  
BRANCH   4   5
HETATM    5  C   UNL     2      -8.824  17.772  67.887  1.00  0.00    -0.251 C  
HETATM    6  C   UNL     2      -8.234  17.278  66.544  1.00  0.00    -0.311 C  
HETATM    7  C   UNL     2      -6.689  17.294  66.500  1.00  0.00    -0.286 C  
HETATM    8  C   UNL     2      -8.758  15.867  66.184  1.00  0.00    -0.328 C  
HETATM    9  C   UNL     2      -5.997  16.319  67.444  1.00  0.00    -0.190 C  
BRANCH   8  10
HETATM   10  C   UNL     2     -10.278  15.741  66.069  1.00  0.00    -0.352 C  
BRANCH  10  11
HETATM   11  C   UNL     2     -10.919  14.457  66.638  1.00  0.00    -0.318 C  
BRANCH  11  12
HETATM   12  C   UNL     2     -11.426  14.692  68.082  1.00  0.00    -0.346 C  
HETATM   13  C   UNL     2     -10.894  12.378  69.059  1.00  0.00    -0.194 C  
HETATM   14  C   UNL     2     -11.964  13.447  68.822  1.00  0.00    -0.359 C  
HETATM   15  C   UNL     2     -12.544  13.869  70.181  1.00  0.00    -0.285 C  
ENDBRANCH  11  12
BRANCH  11  16
HETATM   16  O   UNL     2     -12.032  14.093  65.827  1.00  0.00    -0.370 OA 
HETATM   17  O   UNL     2     -11.330  11.754  65.765  1.00  0.00    -0.318 OA 
HETATM   18  O   UNL     2     -13.356  12.472  64.584  1.00  0.00    -0.804 OA 
HETATM   19  S   UNL     2     -11.958  12.748  64.900  1.00  0.00    -0.428 S  
HETATM   20  O   UNL     2     -11.137  13.132  63.760  1.00  0.00    -0.371 OA 
ENDBRANCH  11  16
ENDBRANCH  10  11
ENDBRANCH   8  10
ENDBRANCH   4   5
ENDBRANCH   3   4
TORSDOF 6
ENDMDL
MODEL       18
REMARK 921   NORMALIZED FREE ENERGY PREDICTED BY IDOCK:   -5.20 KCAL/MOL
REMARK 922        TOTAL FREE ENERGY PREDICTED BY IDOCK:   -8.23 KCAL/MOL
REMARK 923 INTER-LIGAND FREE ENERGY PREDICTED BY IDOCK:   -7.35 KCAL/MOL
REMARK 924 INTRA-LIGAND FREE ENERGY PREDICTED BY IDOCK:   -0.88 KCAL/MOL
REMARK 927      BINDING AFFINITY PREDICTED BY RF-SCORE:    0.00 PKD
ROOT
HETATM    1 NA   UNL     1      -9.677   9.232  72.153  1.00  0.00    -0.272 Na 
HETATM    2  C   UNL     2     -13.159   7.961  71.887  1.00  0.00    -0.316 C  
HETATM    3  C   UNL     2     -13.602   9.343  71.427  1.00  0.00    -0.362 C  
ENDROOT
BRANCH   3   4
HETATM    4  C   UNL     2     -12.400  10.267  71.235  1.00  0.00    -0.506 C  
BRANCH   4   5
HETATM    5  C   UNL     2     -12.323  10.907  69.845  1.00  0.00    -0.354 C  
HETATM    6  C   UNL     2     -10.901  11.149  69.281  1.00  0.00    -0.277 C  
HETATM    7  C   UNL     2     -10.013   9.885  69.268  1.00  0.00    -0.217 C  
HETATM    8  C   UNL     2     -10.955  11.771  67.864  1.00  0.00    -0.272 C  
HETATM    9  C   UNL     2     -10.465   8.776  68.325  1.00  0.00    -0.236 C  
BRANCH   8  10
HETATM   10  C   UNL     2     -11.702  13.101  67.760  1.00  0.00    -0.401 C  
BRANCH  10  11
HETATM   11  C   UNL     2     -11.333  14.020  66.574  1.00  0.00    -0.336 C  
BRANCH  11  12
HETATM   12  C   UNL     2     -10.077  14.861  66.905  1.00  0.00    -0.242 C  
HETATM   13  C   UNL     2     -10.725  17.021  65.676  1.00  0.00    -0.150 C  
HETATM   14  C   UNL     2      -9.676  15.921  65.854  1.00  0.00    -0.386 C  
HETATM   15  C   UNL     2      -8.347  16.574  66.266  1.00  0.00    -0.364 C  
ENDBRANCH  11  12
BRANCH  11  16
HETATM   16  O   UNL     2     -11.044  13.215  65.434  1.00  0.00    -0.276 OA 
HETATM   17  O   UNL     2     -12.579  14.499  64.034  1.00  0.00    -0.797 OA 
HETATM   18  O   UNL     2     -11.333  12.607  63.095  1.00  0.00    -0.397 OA 
HETATM   19  S   UNL     2     -12.123  13.124  64.208  1.00  0.00    -0.421 S  
HETATM   20  O   UNL     2     -13.158  12.223  64.696  1.00  0.00    -0.770 OA 
ENDBRANCH  11  16
ENDBRANCH  10  11
ENDBRANCH   8  10
ENDBRANCH   4   5
ENDBRANCH   3   4
TORSDOF 6
ENDMDL
MODEL       19
REMARK 921   NORMALIZED FREE ENERGY PREDICTED BY IDOCK:   -5.19 KCAL/MOL
REMARK 922        TOTAL FREE ENERGY PREDICTED BY IDOCK:   -8.22 KCAL/MOL
REMARK 923 INTER-LIGAND FREE ENERGY PREDICTED BY IDOCK:   -7.38 KCAL/MOL
REMARK 924 INTRA-LIGAND FREE ENERGY PREDICTED BY IDOCK:   -0.84 KCAL/MOL
REMARK 927      BINDING AFFINITY PREDICTED BY RF-SCORE:    0.00 PKD
ROOT
HETATM    1 NA   UNL     1     -11.316  10.700  63.442  1.00  0.00    -0.558 Na 
HETATM    2  C   UNL     2      -9.680   9.046  66.340  1.00  0.00    -0.337 C  
HETATM    3  C   UNL     2     -10.321  10.076  67.258  1.00  0.00    -0.293 C  
ENDROOT
BRANCH   3   4
HETATM    4  C   UNL     2     -11.280  10.978  66.483  1.00  0.00    -0.079 C  
BRANCH   4   5
HETATM    5  C   UNL     2     -11.288  12.434  66.960  1.00  0.00    -0.388 C  
HETATM    6  C   UNL     2     -10.359  13.410  66.198  1.00  0.00    -0.295 C  
HETATM    7  C   UNL     2     -10.580  13.413  64.668  1.00  0.00    -0.431 C  
HETATM    8  C   UNL     2     -10.479  14.851  66.751  1.00  0.00    -0.284 C  
HETATM    9  C   UNL     2     -11.929  13.946  64.202  1.00  0.00    -0.464 C  
BRANCH   8  10
HETATM   10  C   UNL     2     -10.159  15.011  68.238  1.00  0.00    -0.222 C  
BRANCH  10  11
HETATM   11  C   UNL     2     -10.772  16.232  68.958  1.00  0.00    -0.300 C  
BRANCH  11  12
HETATM   12  C   UNL     2     -10.819  17.458  68.013  1.00  0.00    -0.281 C  
HETATM   13  C   UNL     2      -8.473  18.392  68.480  1.00  0.00    -0.346 C  
HETATM   14  C   UNL     2      -9.976  18.679  68.447  1.00  0.00    -0.428 C  
HETATM   15  C   UNL     2     -10.231  19.846  67.481  1.00  0.00    -0.562 C  
ENDBRANCH  11  12
BRANCH  11  16
HETATM   16  O   UNL     2     -12.106  15.920  69.350  1.00  0.00    -0.330 OA 
HETATM   17  O   UNL     2     -11.585  16.272  71.710  1.00  0.00    -0.459 OA 
HETATM   18  O   UNL     2     -13.844  15.609  71.026  1.00  0.00    -0.567 OA 
HETATM   19  S   UNL     2     -12.407  15.405  70.873  1.00  0.00    -0.433 S  
HETATM   20  O   UNL     2     -11.982  14.012  70.880  1.00  0.00    -0.324 OA 
ENDBRANCH  11  16
ENDBRANCH  10  11
ENDBRANCH   8  10
ENDBRANCH   4   5
ENDBRANCH   3   4
TORSDOF 6
ENDMDL
MODEL       20
REMARK 921   NORMALIZED FREE ENERGY PREDICTED BY IDOCK:   -5.18 KCAL/MOL
REMARK 922        TOTAL FREE ENERGY PREDICTED BY IDOCK:   -8.20 KCAL/MOL
REMARK 923 INTER-LIGAND FREE ENERGY PREDICTED BY IDOCK:   -7.23 KCAL/MOL
REMARK 924 INTRA-LIGAND FREE ENERGY PREDICTED BY IDOCK:   -0.97 KCAL/MOL
REMARK 927      BINDING AFFINITY PREDICTED BY RF-SCORE:    0.00 PKD
ROOT
HETATM    1 NA   UNL     1     -11.759   9.608  67.971  1.00  0.00    -0.504 Na 
HETATM    2  C   UNL     2     -12.139   8.974  71.613  1.00  0.00    -0.422 C  
HETATM    3  C   UNL     2     -12.683  10.387  71.777  1.00  0.00    -0.525 C  
ENDROOT
BRANCH   3   4
HETATM    4  C   UNL     2     -12.857  11.067  70.420  1.00  0.00    -0.221 C  
BRANCH   4   5
HETATM    5  C   UNL     2     -11.770  12.097  70.095  1.00  0.00    -0.301 C  
HETATM    6  C   UNL     2     -12.255  13.543  69.829  1.00  0.00    -0.330 C  
HETATM    7  C   UNL     2     -13.132  14.123  70.962  1.00  0.00    -0.370 C  
HETATM    8  C   UNL     2     -11.066  14.492  69.543  1.00  0.00    -0.285 C  
HETATM    9  C   UNL     2     -12.422  14.344  72.292  1.00  0.00    -0.321 C  
BRANCH   8  10
HETATM   10  C   UNL     2     -10.184  14.099  68.357  1.00  0.00    -0.247 C  
BRANCH  10  11
HETATM   11  C   UNL     2     -10.512  14.750  66.996  1.00  0.00    -0.270 C  
BRANCH  11  12
HETATM   12  C   UNL     2      -9.438  15.801  66.619  1.00  0.00    -0.279 C  
HETATM   13  C   UNL     2     -10.168  17.683  68.206  1.00  0.00    -0.374 C  
HETATM   14  C   UNL     2      -9.860  17.281  66.762  1.00  0.00    -0.296 C  
HETATM   15  C   UNL     2      -8.738  18.186  66.230  1.00  0.00    -0.195 C  
ENDBRANCH  11  12
BRANCH  11  16
HETATM   16  O   UNL     2     -10.524  13.743  65.988  1.00  0.00    -0.285 OA 
HETATM   17  O   UNL     2     -12.916  14.040  65.600  1.00  0.00    -0.608 OA 
HETATM   18  O   UNL     2     -11.650  12.376  64.319  1.00  0.00    -0.327 OA 
HETATM   19  S   UNL     2     -11.920  12.975  65.623  1.00  0.00    -0.452 S  
HETATM   20  O   UNL     2     -12.109  12.021  66.707  1.00  0.00    -0.613 OA 
ENDBRANCH  11  16
ENDBRANCH  10  11
ENDBRANCH   8  10
ENDBRANCH   4   5
ENDBRANCH   3   4
TORSDOF 6
ENDMDL
MODEL       21
REMARK 921   NORMALIZED FREE ENERGY PREDICTED BY IDOCK:   -5.17 KCAL/MOL
REMARK 922        TOTAL FREE ENERGY PREDICTED BY IDOCK:   -8.19 KCAL/MOL
REMARK 923 INTER-LIGAND FREE ENERGY PREDICTED BY IDOCK:   -6.94 KCAL/MOL
REMARK 924 INTRA-LIGAND FREE ENERGY PREDICTED BY IDOCK:   -1.25 KCAL/MOL
REMARK 927      BINDING AFFINITY PREDICTED BY RF-SCORE:    0.00 PKD
ROOT
HETATM    1 NA   UNL     1     -11.312  16.334  63.591  1.00  0.00    -0.685 Na 
HETATM    2  C   UNL     2     -10.700  19.281  65.771  1.00  0.00    -0.417 C  
HETATM    3  C   UNL     2      -9.874  18.395  66.693  1.00  0.00    -0.362 C  
ENDROOT
BRANCH   3   4
HETATM    4  C   UNL     2      -9.706  16.996  66.103  1.00  0.00    -0.283 C  
BRANCH   4   5
HETATM    5  C   UNL     2     -10.190  15.870  67.022  1.00  0.00    -0.283 C  
HETATM    6  C   UNL     2      -9.162  14.757  67.342  1.00  0.00    -0.200 C  
HETATM    7  C   UNL     2      -7.826  15.289  67.909  1.00  0.00    -0.149 C  
HETATM    8  C   UNL     2      -9.758  13.697  68.300  1.00  0.00    -0.231 C  
HETATM    9  C   UNL     2      -7.911  15.944  69.282  1.00  0.00    -0.229 C  
BRANCH   8  10
HETATM   10  C   UNL     2     -11.022  12.998  67.799  1.00  0.00    -0.273 C  
BRANCH  10  11
HETATM   11  C   UNL     2     -10.886  12.136  66.524  1.00  0.00    -0.270 C  
BRANCH  11  12
HETATM   12  C   UNL     2     -10.617  10.656  66.890  1.00  0.00    -0.311 C  
HETATM   13  C   UNL     2      -8.300  10.407  65.810  1.00  0.00    -0.158 C  
HETATM   14  C   UNL     2      -9.729   9.865  65.903  1.00  0.00    -0.326 C  
HETATM   15  C   UNL     2      -9.666   8.392  66.337  1.00  0.00    -0.312 C  
ENDBRANCH  11  12
BRANCH  11  16
HETATM   16  O   UNL     2     -12.103  12.200  65.786  1.00  0.00    -0.572 OA 
HETATM   17  O   UNL     2     -10.911  12.188  63.655  1.00  0.00    -0.387 OA 
HETATM   18  O   UNL     2     -13.361  12.300  63.705  1.00  0.00    -0.599 OA 
HETATM   19  S   UNL     2     -12.099  12.783  64.259  1.00  0.00    -0.452 S  
HETATM   20  O   UNL     2     -12.013  14.227  64.417  1.00  0.00    -0.438 OA 
ENDBRANCH  11  16
ENDBRANCH  10  11
ENDBRANCH   8  10
ENDBRANCH   4   5
ENDBRANCH   3   4
TORSDOF 6
ENDMDL
MODEL       22
REMARK 921   NORMALIZED FREE ENERGY PREDICTED BY IDOCK:   -5.16 KCAL/MOL
REMARK 922        TOTAL FREE ENERGY PREDICTED BY IDOCK:   -8.17 KCAL/MOL
REMARK 923 INTER-LIGAND FREE ENERGY PREDICTED BY IDOCK:   -7.34 KCAL/MOL
REMARK 924 INTRA-LIGAND FREE ENERGY PREDICTED BY IDOCK:   -0.83 KCAL/MOL
REMARK 927      BINDING AFFINITY PREDICTED BY RF-SCORE:    0.00 PKD
ROOT
HETATM    1 NA   UNL     1     -12.787   6.686  69.480  1.00  0.00    -0.606 Na 
HETATM    2  C   UNL     2     -12.845   9.543  71.856  1.00  0.00    -0.508 C  
HETATM    3  C   UNL     2     -11.426   9.893  71.431  1.00  0.00    -0.393 C  
ENDROOT
BRANCH   3   4
HETATM    4  C   UNL     2     -10.967   9.007  70.274  1.00  0.00    -0.274 C  
BRANCH   4   5
HETATM    5  C   UNL     2     -11.035   9.687  68.903  1.00  0.00    -0.153 C  
HETATM    6  C   UNL     2      -9.866   9.389  67.932  1.00  0.00    -0.197 C  
HETATM    7  C   UNL     2      -9.618   7.881  67.700  1.00  0.00    -0.183 C  
HETATM    8  C   UNL     2     -10.063  10.107  66.575  1.00  0.00    -0.296 C  
HETATM    9  C   UNL     2     -10.734   7.139  66.974  1.00  0.00    -0.420 C  
BRANCH   8  10
HETATM   10  C   UNL     2     -10.194  11.629  66.652  1.00  0.00    -0.249 C  
BRANCH  10  11
HETATM   11  C   UNL     2     -11.611  12.219  66.475  1.00  0.00    -0.377 C  
BRANCH  11  12
HETATM   12  C   UNL     2     -12.100  12.872  67.790  1.00  0.00    -0.218 C  
HETATM   13  C   UNL     2     -10.128  14.471  68.181  1.00  0.00    -0.227 C  
HETATM   14  C   UNL     2     -10.995  13.350  68.760  1.00  0.00    -0.290 C  
HETATM   15  C   UNL     2     -11.639  13.851  70.062  1.00  0.00    -0.282 C  
ENDBRANCH  11  12
BRANCH  11  16
HETATM   16  O   UNL     2     -11.575  13.222  65.463  1.00  0.00    -0.311 OA 
HETATM   17  O   UNL     2     -13.391  12.159  64.225  1.00  0.00    -0.761 OA 
HETATM   18  O   UNL     2     -12.354  14.215  63.382  1.00  0.00    -0.714 OA 
HETATM   19  S   UNL     2     -12.157  12.894  63.971  1.00  0.00    -0.474 S  
HETATM   20  O   UNL     2     -11.118  12.091  63.340  1.00  0.00    -0.410 OA 
ENDBRANCH  11  16
ENDBRANCH  10  11
ENDBRANCH   8  10
ENDBRANCH   4   5
ENDBRANCH   3   4
TORSDOF 6
ENDMDL
MODEL       23
REMARK 921   NORMALIZED FREE ENERGY PREDICTED BY IDOCK:   -5.15 KCAL/MOL
REMARK 922        TOTAL FREE ENERGY PREDICTED BY IDOCK:   -8.16 KCAL/MOL
REMARK 923 INTER-LIGAND FREE ENERGY PREDICTED BY IDOCK:   -7.94 KCAL/MOL
REMARK 924 INTRA-LIGAND FREE ENERGY PREDICTED BY IDOCK:   -0.23 KCAL/MOL
REMARK 927      BINDING AFFINITY PREDICTED BY RF-SCORE:    0.00 PKD
ROOT
HETATM    1 NA   UNL     1     -14.370  12.155  73.046  1.00  0.00    -0.589 Na 
HETATM    2  C   UNL     2     -12.144   9.513  71.676  1.00  0.00    -0.474 C  
HETATM    3  C   UNL     2     -11.705  10.482  70.588  1.00  0.00    -0.453 C  
ENDROOT
BRANCH   3   4
HETATM    4  C   UNL     2     -12.298  11.871  70.819  1.00  0.00    -0.416 C  
BRANCH   4   5
HETATM    5  C   UNL     2     -11.701  12.961  69.924  1.00  0.00    -0.324 C  
HETATM    6  C   UNL     2     -12.458  14.311  69.891  1.00  0.00    -0.315 C  
HETATM    7  C   UNL     2     -12.696  14.926  71.289  1.00  0.00    -0.412 C  
HETATM    8  C   UNL     2     -11.742  15.336  68.978  1.00  0.00    -0.368 C  
HETATM    9  C   UNL     2     -11.441  15.368  72.032  1.00  0.00    -0.521 C  
BRANCH   8  10
HETATM   10  C   UNL     2     -11.556  14.901  67.524  1.00  0.00    -0.355 C  
BRANCH  10  11
HETATM   11  C   UNL     2     -10.426  15.591  66.727  1.00  0.00    -0.295 C  
BRANCH  11  12
HETATM   12  C   UNL     2      -9.994  14.718  65.524  1.00  0.00    -0.390 C  
HETATM   13  C   UNL     2     -12.325  14.065  64.665  1.00  0.00    -0.425 C  
HETATM   14  C   UNL     2     -10.956  13.571  65.139  1.00  0.00    -0.328 C  
HETATM   15  C   UNL     2     -10.326  12.727  64.021  1.00  0.00    -0.392 C  
ENDBRANCH  11  12
BRANCH  11  16
HETATM   16  O   UNL     2     -10.904  16.837  66.227  1.00  0.00    -0.161 OA 
HETATM   17  O   UNL     2      -8.633  17.695  65.958  1.00  0.00    -0.503 OA 
HETATM   18  O   UNL     2     -10.562  19.089  65.369  1.00  0.00    -0.517 OA 
HETATM   19  S   UNL     2      -9.961  18.169  66.330  1.00  0.00    -0.369 S  
HETATM   20  O   UNL     2     -10.064  18.585  67.722  1.00  0.00    -0.329 OA 
ENDBRANCH  11  16
ENDBRANCH  10  11
ENDBRANCH   8  10
ENDBRANCH   4   5
ENDBRANCH   3   4
TORSDOF 6
ENDMDL
MODEL       24
REMARK 921   NORMALIZED FREE ENERGY PREDICTED BY IDOCK:   -5.15 KCAL/MOL
REMARK 922        TOTAL FREE ENERGY PREDICTED BY IDOCK:   -8.16 KCAL/MOL
REMARK 923 INTER-LIGAND FREE ENERGY PREDICTED BY IDOCK:   -7.27 KCAL/MOL
REMARK 924 INTRA-LIGAND FREE ENERGY PREDICTED BY IDOCK:   -0.89 KCAL/MOL
REMARK 927      BINDING AFFINITY PREDICTED BY RF-SCORE:    0.00 PKD
ROOT
HETATM    1 NA   UNL     1     -14.013  10.562  72.948  1.00  0.00    -0.637 Na 
HETATM    2  C   UNL     2     -13.261   7.198  71.559  1.00  0.00    -0.419 C  
HETATM    3  C   UNL     2     -11.874   7.693  71.176  1.00  0.00    -0.314 C  
ENDROOT
BRANCH   3   4
HETATM    4  C   UNL     2     -11.634   9.108  71.701  1.00  0.00    -0.449 C  
BRANCH   4   5
HETATM    5  C   UNL     2     -12.092  10.214  70.746  1.00  0.00    -0.438 C  
HETATM    6  C   UNL     2     -10.972  11.018  70.041  1.00  0.00    -0.152 C  
HETATM    7  C   UNL     2      -9.952  10.134  69.286  1.00  0.00    -0.234 C  
HETATM    8  C   UNL     2     -11.560  12.082  69.083  1.00  0.00    -0.370 C  
HETATM    9  C   UNL     2     -10.505   9.378  68.084  1.00  0.00    -0.267 C  
BRANCH   8  10
HETATM   10  C   UNL     2     -12.493  13.105  69.732  1.00  0.00    -0.039 C  
BRANCH  10  11
HETATM   11  C   UNL     2     -11.945  14.538  69.909  1.00  0.00    -0.328 C  
BRANCH  11  12
HETATM   12  C   UNL     2     -11.725  14.858  71.408  1.00  0.00    -0.387 C  
HETATM   13  C   UNL     2     -14.172  15.251  72.081  1.00  0.00    -0.667 C  
HETATM   14  C   UNL     2     -12.750  15.818  72.053  1.00  0.00    -0.518 C  
HETATM   15  C   UNL     2     -12.320  16.134  73.494  1.00  0.00    -0.664 C  
ENDBRANCH  11  12
BRANCH  11  16
HETATM   16  O   UNL     2     -10.690  14.643  69.241  1.00  0.00    -0.244 OA 
HETATM   17  O   UNL     2     -11.277  16.820  68.302  1.00  0.00    -0.333 OA 
HETATM   18  O   UNL     2      -9.102  15.801  67.805  1.00  0.00    -0.187 OA 
HETATM   19  S   UNL     2     -10.544  15.613  67.933  1.00  0.00    -0.286 S  
HETATM   20  O   UNL     2     -11.162  14.863  66.849  1.00  0.00    -0.335 OA 
ENDBRANCH  11  16
ENDBRANCH  10  11
ENDBRANCH   8  10
ENDBRANCH   4   5
ENDBRANCH   3   4
TORSDOF 6
ENDMDL
MODEL       25
REMARK 921   NORMALIZED FREE ENERGY PREDICTED BY IDOCK:   -5.10 KCAL/MOL
REMARK 922        TOTAL FREE ENERGY PREDICTED BY IDOCK:   -8.10 KCAL/MOL
REMARK 923 INTER-LIGAND FREE ENERGY PREDICTED BY IDOCK:   -7.53 KCAL/MOL
REMARK 924 INTRA-LIGAND FREE ENERGY PREDICTED BY IDOCK:   -0.57 KCAL/MOL
REMARK 927      BINDING AFFINITY PREDICTED BY RF-SCORE:    0.00 PKD
ROOT
HETATM    1 NA   UNL     1     -10.294   9.595  63.970  1.00  0.00    -0.400 Na 
HETATM    2  C   UNL     2     -10.390   7.583  67.093  1.00  0.00    -0.384 C  
HETATM    3  C   UNL     2     -10.524   8.873  67.890  1.00  0.00    -0.281 C  
ENDROOT
BRANCH   3   4
HETATM    4  C   UNL     2     -10.675  10.077  66.962  1.00  0.00    -0.248 C  
BRANCH   4   5
HETATM    5  C   UNL     2     -11.442  11.249  67.582  1.00  0.00    -0.341 C  
HETATM    6  C   UNL     2     -11.052  12.662  67.084  1.00  0.00    -0.321 C  
HETATM    7  C   UNL     2     -11.111  12.819  65.548  1.00  0.00    -0.318 C  
HETATM    8  C   UNL     2     -11.915  13.756  67.760  1.00  0.00    -0.391 C  
HETATM    9  C   UNL     2     -12.501  12.718  64.932  1.00  0.00    -0.563 C  
BRANCH   8  10
HETATM   10  C   UNL     2     -11.848  13.793  69.287  1.00  0.00    -0.392 C  
BRANCH  10  11
HETATM   11  C   UNL     2     -11.399  15.122  69.935  1.00  0.00    -0.284 C  
BRANCH  11  12
HETATM   12  C   UNL     2     -11.550  15.058  71.474  1.00  0.00    -0.409 C  
HETATM   13  C   UNL     2     -14.112  15.148  71.615  1.00  0.00    -0.645 C  
HETATM   14  C   UNL     2     -12.788  15.770  72.064  1.00  0.00    -0.511 C  
HETATM   15  C   UNL     2     -12.722  15.727  73.598  1.00  0.00    -0.729 C  
ENDBRANCH  11  12
BRANCH  11  16
HETATM   16  O   UNL     2     -10.026  15.349  69.629  1.00  0.00    -0.258 OA 
HETATM   17  O   UNL     2     -10.405  17.740  69.310  1.00  0.00    -0.318 OA 
HETATM   18  O   UNL     2      -8.163  16.790  69.017  1.00  0.00    -0.238 OA 
HETATM   19  S   UNL     2      -9.593  16.661  68.756  1.00  0.00    -0.259 S  
HETATM   20  O   UNL     2      -9.936  16.318  67.383  1.00  0.00    -0.241 OA 
ENDBRANCH  11  16
ENDBRANCH  10  11
ENDBRANCH   8  10
ENDBRANCH   4   5
ENDBRANCH   3   4
TORSDOF 6
ENDMDL
MODEL       26
REMARK 921   NORMALIZED FREE ENERGY PREDICTED BY IDOCK:   -5.10 KCAL/MOL
REMARK 922        TOTAL FREE ENERGY PREDICTED BY IDOCK:   -8.10 KCAL/MOL
REMARK 923 INTER-LIGAND FREE ENERGY PREDICTED BY IDOCK:   -7.13 KCAL/MOL
REMARK 924 INTRA-LIGAND FREE ENERGY PREDICTED BY IDOCK:   -0.97 KCAL/MOL
REMARK 927      BINDING AFFINITY PREDICTED BY RF-SCORE:    0.00 PKD
ROOT
HETATM    1 NA   UNL     1     -11.506   8.239  67.923  1.00  0.00    -0.463 Na 
HETATM    2  C   UNL     2     -11.887   9.719  71.311  1.00  0.00    -0.481 C  
HETATM    3  C   UNL     2     -11.992  11.096  70.671  1.00  0.00    -0.459 C  
ENDROOT
BRANCH   3   4
HETATM    4  C   UNL     2     -12.024  10.990  69.147  1.00  0.00    -0.394 C  
BRANCH   4   5
HETATM    5  C   UNL     2     -11.886  12.334  68.426  1.00  0.00    -0.358 C  
HETATM    6  C   UNL     2     -10.480  12.982  68.447  1.00  0.00    -0.261 C  
HETATM    7  C   UNL     2      -9.358  12.052  67.931  1.00  0.00    -0.190 C  
HETATM    8  C   UNL     2     -10.462  14.317  67.662  1.00  0.00    -0.248 C  
HETATM    9  C   UNL     2      -9.437  11.688  66.453  1.00  0.00    -0.232 C  
BRANCH   8  10
HETATM   10  C   UNL     2     -11.443  15.380  68.155  1.00  0.00    -0.352 C  
BRANCH  10  11
HETATM   11  C   UNL     2     -10.920  16.378  69.212  1.00  0.00    -0.322 C  
BRANCH  11  12
HETATM   12  C   UNL     2     -10.874  15.719  70.612  1.00  0.00    -0.281 C  
HETATM   13  C   UNL     2     -13.400  15.460  70.999  1.00  0.00    -0.545 C  
HETATM   14  C   UNL     2     -12.077  16.011  71.537  1.00  0.00    -0.513 C  
HETATM   15  C   UNL     2     -11.819  15.397  72.922  1.00  0.00    -0.547 C  
ENDBRANCH  11  12
BRANCH  11  16
HETATM   16  O   UNL     2      -9.598  16.777  68.862  1.00  0.00    -0.247 OA 
HETATM   17  O   UNL     2     -10.121  19.135  69.225  1.00  0.00    -0.339 OA 
HETATM   18  O   UNL     2      -7.878  18.460  68.500  1.00  0.00    -0.292 OA 
HETATM   19  S   UNL     2      -9.319  18.300  68.337  1.00  0.00    -0.321 S  
HETATM   20  O   UNL     2      -9.783  18.303  66.956  1.00  0.00    -0.284 OA 
ENDBRANCH  11  16
ENDBRANCH  10  11
ENDBRANCH   8  10
ENDBRANCH   4   5
ENDBRANCH   3   4
TORSDOF 6
ENDMDL
MODEL       27
REMARK 921   NORMALIZED FREE ENERGY PREDICTED BY IDOCK:   -5.07 KCAL/MOL
REMARK 922        TOTAL FREE ENERGY PREDICTED BY IDOCK:   -8.06 KCAL/MOL
REMARK 923 INTER-LIGAND FREE ENERGY PREDICTED BY IDOCK:   -7.17 KCAL/MOL
REMARK 924 INTRA-LIGAND FREE ENERGY PREDICTED BY IDOCK:   -0.89 KCAL/MOL
REMARK 927      BINDING AFFINITY PREDICTED BY RF-SCORE:    0.00 PKD
ROOT
HETATM    1 NA   UNL     1     -12.474   6.575  69.568  1.00  0.00    -0.611 Na 
HETATM    2  C   UNL     2     -11.431   7.736  72.941  1.00  0.00    -0.359 C  
HETATM    3  C   UNL     2     -10.388   8.629  72.284  1.00  0.00    -0.376 C  
ENDROOT
BRANCH   3   4
HETATM    4  C   UNL     2     -10.522   8.599  70.763  1.00  0.00    -0.249 C  
BRANCH   4   5
HETATM    5  C   UNL     2     -10.456   9.981  70.104  1.00  0.00    -0.338 C  
HETATM    6  C   UNL     2     -11.779  10.520  69.509  1.00  0.00    -0.313 C  
HETATM    7  C   UNL     2     -12.954  10.532  70.513  1.00  0.00    -0.289 C  
HETATM    8  C   UNL     2     -11.590  11.931  68.901  1.00  0.00    -0.370 C  
HETATM    9  C   UNL     2     -12.804  11.493  71.686  1.00  0.00    -0.475 C  
BRANCH   8  10
HETATM   10  C   UNL     2     -10.537  12.034  67.797  1.00  0.00    -0.234 C  
BRANCH  10  11
HETATM   11  C   UNL     2     -10.731  13.151  66.748  1.00  0.00    -0.267 C  
BRANCH  11  12
HETATM   12  C   UNL     2     -11.814  12.752  65.717  1.00  0.00    -0.484 C  
HETATM   13  C   UNL     2     -10.425  11.105  64.318  1.00  0.00    -0.427 C  
HETATM   14  C   UNL     2     -11.300  12.361  64.312  1.00  0.00    -0.420 C  
HETATM   15  C   UNL     2     -12.496  12.121  63.378  1.00  0.00    -0.625 C  
ENDBRANCH  11  12
BRANCH  11  16
HETATM   16  O   UNL     2     -11.158  14.340  67.407  1.00  0.00    -0.288 OA 
HETATM   17  O   UNL     2      -9.457  15.679  66.277  1.00  0.00    -0.266 OA 
HETATM   18  O   UNL     2     -10.999  16.724  67.872  1.00  0.00    -0.337 OA 
HETATM   19  S   UNL     2     -10.123  15.595  67.572  1.00  0.00    -0.257 S  
HETATM   20  O   UNL     2      -9.238  15.202  68.659  1.00  0.00    -0.180 OA 
ENDBRANCH  11  16
ENDBRANCH  10  11
ENDBRANCH   8  10
ENDBRANCH   4   5
ENDBRANCH   3   4
TORSDOF 6
ENDMDL
MODEL       28
REMARK 921   NORMALIZED FREE ENERGY PREDICTED BY IDOCK:   -5.07 KCAL/MOL
REMARK 922        TOTAL FREE ENERGY PREDICTED BY IDOCK:   -8.05 KCAL/MOL
REMARK 923 INTER-LIGAND FREE ENERGY PREDICTED BY IDOCK:   -8.07 KCAL/MOL
REMARK 924 INTRA-LIGAND FREE ENERGY PREDICTED BY IDOCK:    0.02 KCAL/MOL
REMARK 927      BINDING AFFINITY PREDICTED BY RF-SCORE:    0.00 PKD
ROOT
HETATM    1 NA   UNL     1     -11.678  16.022  63.295  1.00  0.00    -0.880 Na 
HETATM    2  C   UNL     2     -10.411  18.254  65.983  1.00  0.00    -0.377 C  
HETATM    3  C   UNL     2      -9.886  17.029  66.718  1.00  0.00    -0.283 C  
ENDROOT
BRANCH   3   4
HETATM    4  C   UNL     2     -10.065  15.767  65.877  1.00  0.00    -0.381 C  
BRANCH   4   5
HETATM    5  C   UNL     2     -10.237  14.487  66.701  1.00  0.00    -0.276 C  
HETATM    6  C   UNL     2     -11.677  13.924  66.798  1.00  0.00    -0.423 C  
HETATM    7  C   UNL     2     -12.350  13.696  65.426  1.00  0.00    -0.510 C  
HETATM    8  C   UNL     2     -11.715  12.618  67.629  1.00  0.00    -0.420 C  
HETATM    9  C   UNL     2     -11.721  12.612  64.560  1.00  0.00    -0.416 C  
BRANCH   8  10
HETATM   10  C   UNL     2     -11.191  12.736  69.061  1.00  0.00    -0.317 C  
BRANCH  10  11
HETATM   11  C   UNL     2     -12.216  13.117  70.152  1.00  0.00    -0.290 C  
BRANCH  11  12
HETATM   12  C   UNL     2     -12.560  11.890  71.032  1.00  0.00    -0.381 C  
HETATM   13  C   UNL     2     -10.753  10.281  70.171  1.00  0.00    -0.334 C  
HETATM   14  C   UNL     2     -12.247  10.507  70.417  1.00  0.00    -0.415 C  
HETATM   15  C   UNL     2     -12.762   9.402  71.353  1.00  0.00    -0.425 C  
ENDBRANCH  11  12
BRANCH  11  16
HETATM   16  O   UNL     2     -11.653  14.123  70.988  1.00  0.00    -0.182 OA 
HETATM   17  O   UNL     2     -13.677  15.484  70.857  1.00  0.00    -0.524 OA 
HETATM   18  O   UNL     2     -11.749  16.254  72.162  1.00  0.00    -0.495 OA 
HETATM   19  S   UNL     2     -12.229  15.652  70.922  1.00  0.00    -0.427 S  
HETATM   20  O   UNL     2     -11.651  16.210  69.707  1.00  0.00    -0.314 OA 
ENDBRANCH  11  16
ENDBRANCH  10  11
ENDBRANCH   8  10
ENDBRANCH   4   5
ENDBRANCH   3   4
TORSDOF 6
ENDMDL
MODEL       29
REMARK 921   NORMALIZED FREE ENERGY PREDICTED BY IDOCK:   -5.06 KCAL/MOL
REMARK 922        TOTAL FREE ENERGY PREDICTED BY IDOCK:   -8.04 KCAL/MOL
REMARK 923 INTER-LIGAND FREE ENERGY PREDICTED BY IDOCK:   -7.18 KCAL/MOL
REMARK 924 INTRA-LIGAND FREE ENERGY PREDICTED BY IDOCK:   -0.86 KCAL/MOL
REMARK 927      BINDING AFFINITY PREDICTED BY RF-SCORE:    0.00 PKD
ROOT
HETATM    1 NA   UNL     1      -6.807  12.146  65.937  1.00  0.00    -0.349 Na 
HETATM    2  C   UNL     2      -9.123  10.007  63.968  1.00  0.00    -0.296 C  
HETATM    3  C   UNL     2     -10.147  10.131  65.087  1.00  0.00    -0.329 C  
ENDROOT
BRANCH   3   4
HETATM    4  C   UNL     2      -9.670  11.106  66.161  1.00  0.00    -0.253 C  
BRANCH   4   5
HETATM    5  C   UNL     2     -10.777  12.004  66.723  1.00  0.00    -0.280 C  
HETATM    6  C   UNL     2     -10.735  13.492  66.294  1.00  0.00    -0.288 C  
HETATM    7  C   UNL     2     -10.692  13.697  64.763  1.00  0.00    -0.420 C  
HETATM    8  C   UNL     2     -11.918  14.286  66.900  1.00  0.00    -0.467 C  
HETATM    9  C   UNL     2     -11.942  13.259  64.008  1.00  0.00    -0.525 C  
BRANCH   8  10
HETATM   10  C   UNL     2     -12.004  14.271  68.427  1.00  0.00    -0.344 C  
BRANCH  10  11
HETATM   11  C   UNL     2     -11.331  15.442  69.177  1.00  0.00    -0.315 C  
BRANCH  11  12
HETATM   12  C   UNL     2     -11.208  15.125  70.687  1.00  0.00    -0.321 C  
HETATM   13  C   UNL     2     -13.650  15.538  71.368  1.00  0.00    -0.561 C  
HETATM   14  C   UNL     2     -12.180  15.884  71.619  1.00  0.00    -0.544 C  
HETATM   15  C   UNL     2     -11.845  15.559  73.083  1.00  0.00    -0.542 C  
ENDBRANCH  11  12
BRANCH  11  16
HETATM   16  O   UNL     2     -10.021  15.639  68.653  1.00  0.00    -0.199 OA 
HETATM   17  O   UNL     2     -10.121  18.042  69.077  1.00  0.00    -0.377 OA 
HETATM   18  O   UNL     2      -8.124  17.045  68.062  1.00  0.00    -0.193 OA 
HETATM   19  S   UNL     2      -9.582  17.111  68.092  1.00  0.00    -0.280 S  
HETATM   20  O   UNL     2     -10.217  17.210  66.786  1.00  0.00    -0.295 OA 
ENDBRANCH  11  16
ENDBRANCH  10  11
ENDBRANCH   8  10
ENDBRANCH   4   5
ENDBRANCH   3   4
TORSDOF 6
ENDMDL
MODEL       30
REMARK 921   NORMALIZED FREE ENERGY PREDICTED BY IDOCK:   -5.05 KCAL/MOL
REMARK 922        TOTAL FREE ENERGY PREDICTED BY IDOCK:   -8.03 KCAL/MOL
REMARK 923 INTER-LIGAND FREE ENERGY PREDICTED BY IDOCK:   -7.11 KCAL/MOL
REMARK 924 INTRA-LIGAND FREE ENERGY PREDICTED BY IDOCK:   -0.92 KCAL/MOL
REMARK 927      BINDING AFFINITY PREDICTED BY RF-SCORE:    0.00 PKD
ROOT
HETATM    1 NA   UNL     1     -12.589   6.958  69.724  1.00  0.00    -0.590 Na 
HETATM    2  C   UNL     2     -10.860   7.532  72.964  1.00  0.00    -0.445 C  
HETATM    3  C   UNL     2      -9.863   8.428  72.244  1.00  0.00    -0.383 C  
ENDROOT
BRANCH   3   4
HETATM    4  C   UNL     2     -10.263   8.631  70.784  1.00  0.00    -0.250 C  
BRANCH   4   5
HETATM    5  C   UNL     2     -10.396  10.101  70.372  1.00  0.00    -0.178 C  
HETATM    6  C   UNL     2     -11.691  10.486  69.616  1.00  0.00    -0.328 C  
HETATM    7  C   UNL     2     -12.987  10.083  70.357  1.00  0.00    -0.052 C  
HETATM    8  C   UNL     2     -11.721  11.997  69.283  1.00  0.00    -0.389 C  
HETATM    9  C   UNL     2     -13.244  10.813  71.669  1.00  0.00    -0.487 C  
BRANCH   8  10
HETATM   10  C   UNL     2     -10.552  12.505  68.439  1.00  0.00    -0.256 C  
BRANCH  10  11
HETATM   11  C   UNL     2     -10.444  11.965  66.996  1.00  0.00    -0.224 C  
BRANCH  11  12
HETATM   12  C   UNL     2      -9.824  10.547  66.987  1.00  0.00    -0.223 C  
HETATM   13  C   UNL     2      -8.814  10.581  64.626  1.00  0.00    -0.211 C  
HETATM   14  C   UNL     2      -9.736   9.855  65.608  1.00  0.00    -0.346 C  
HETATM   15  C   UNL     2      -9.224   8.417  65.788  1.00  0.00    -0.175 C  
ENDBRANCH  11  12
BRANCH  11  16
HETATM   16  O   UNL     2     -11.749  11.887  66.429  1.00  0.00    -0.522 OA 
HETATM   17  O   UNL     2     -11.079  13.211  64.489  1.00  0.00    -0.323 OA 
HETATM   18  O   UNL     2     -13.381  12.391  64.695  1.00  0.00    -0.778 OA 
HETATM   19  S   UNL     2     -12.238  13.017  65.353  1.00  0.00    -0.487 S  
HETATM   20  O   UNL     2     -12.562  14.181  66.166  1.00  0.00    -0.465 OA 
ENDBRANCH  11  16
ENDBRANCH  10  11
ENDBRANCH   8  10
ENDBRANCH   4   5
ENDBRANCH   3   4
TORSDOF 6
ENDMDL
MODEL       31
REMARK 921   NORMALIZED FREE ENERGY PREDICTED BY IDOCK:   -5.05 KCAL/MOL
REMARK 922        TOTAL FREE ENERGY PREDICTED BY IDOCK:   -8.02 KCAL/MOL
REMARK 923 INTER-LIGAND FREE ENERGY PREDICTED BY IDOCK:   -7.26 KCAL/MOL
REMARK 924 INTRA-LIGAND FREE ENERGY PREDICTED BY IDOCK:   -0.76 KCAL/MOL
REMARK 927      BINDING AFFINITY PREDICTED BY RF-SCORE:    0.00 PKD
ROOT
HETATM    1 NA   UNL     1     -14.188  13.934  65.220  1.00  0.00    -0.625 Na 
HETATM    2  C   UNL     2     -11.329  11.802  64.173  1.00  0.00    -0.430 C  
HETATM    3  C   UNL     2     -10.402  12.994  64.368  1.00  0.00    -0.397 C  
ENDROOT
BRANCH   3   4
HETATM    4  C   UNL     2     -11.153  14.180  64.970  1.00  0.00    -0.372 C  
BRANCH   4   5
HETATM    5  C   UNL     2     -11.695  13.924  66.380  1.00  0.00    -0.403 C  
HETATM    6  C   UNL     2     -10.675  14.049  67.538  1.00  0.00    -0.271 C  
HETATM    7  C   UNL     2      -9.920  15.398  67.560  1.00  0.00    -0.226 C  
HETATM    8  C   UNL     2     -11.347  13.798  68.910  1.00  0.00    -0.328 C  
HETATM    9  C   UNL     2     -10.777  16.623  67.854  1.00  0.00    -0.344 C  
BRANCH   8  10
HETATM   10  C   UNL     2     -12.026  12.438  69.068  1.00  0.00    -0.291 C  
BRANCH  10  11
HETATM   11  C   UNL     2     -12.566  12.084  70.472  1.00  0.00    -0.109 C  
BRANCH  11  12
HETATM   12  C   UNL     2     -11.920  10.778  70.993  1.00  0.00    -0.409 C  
HETATM   13  C   UNL     2     -14.030   9.317  71.095  1.00  0.00    -0.051 C  
HETATM   14  C   UNL     2     -12.825   9.873  71.859  1.00  0.00    -0.524 C  
HETATM   15  C   UNL     2     -12.003   8.693  72.400  1.00  0.00    -0.410 C  
ENDBRANCH  11  12
BRANCH  11  16
HETATM   16  O   UNL     2     -12.239  13.136  71.375  1.00  0.00    -0.157 OA 
HETATM   17  O   UNL     2     -14.409  12.973  72.484  1.00  0.00    -0.548 OA 
HETATM   18  O   UNL     2     -12.760  14.631  73.224  1.00  0.00    -0.477 OA 
HETATM   19  S   UNL     2     -13.432  13.987  72.100  1.00  0.00    -0.523 S  
HETATM   20  O   UNL     2     -13.911  14.898  71.070  1.00  0.00    -0.367 OA 
ENDBRANCH  11  16
ENDBRANCH  10  11
ENDBRANCH   8  10
ENDBRANCH   4   5
ENDBRANCH   3   4
TORSDOF 6
ENDMDL
MODEL       32
REMARK 921   NORMALIZED FREE ENERGY PREDICTED BY IDOCK:   -5.01 KCAL/MOL
REMARK 922        TOTAL FREE ENERGY PREDICTED BY IDOCK:   -7.97 KCAL/MOL
REMARK 923 INTER-LIGAND FREE ENERGY PREDICTED BY IDOCK:   -7.28 KCAL/MOL
REMARK 924 INTRA-LIGAND FREE ENERGY PREDICTED BY IDOCK:   -0.69 KCAL/MOL
REMARK 927      BINDING AFFINITY PREDICTED BY RF-SCORE:    0.00 PKD
ROOT
HETATM    1 NA   UNL     1     -11.935   7.761  69.364  1.00  0.00    -0.440 Na 
HETATM    2  C   UNL     2     -13.133  10.637  71.391  1.00  0.00    -0.499 C  
HETATM    3  C   UNL     2     -12.159  11.537  70.644  1.00  0.00    -0.450 C  
ENDROOT
BRANCH   3   4
HETATM    4  C   UNL     2     -11.466  10.776  69.515  1.00  0.00    -0.365 C  
BRANCH   4   5
HETATM    5  C   UNL     2     -11.015  11.663  68.350  1.00  0.00    -0.265 C  
HETATM    6  C   UNL     2      -9.571  11.438  67.837  1.00  0.00    -0.180 C  
HETATM    7  C   UNL     2      -9.267   9.970  67.458  1.00  0.00    -0.151 C  
HETATM    8  C   UNL     2      -9.245  12.370  66.644  1.00  0.00    -0.218 C  
HETATM    9  C   UNL     2     -10.040   9.430  66.261  1.00  0.00    -0.328 C  
BRANCH   8  10
HETATM   10  C   UNL     2      -9.383  13.866  66.925  1.00  0.00    -0.265 C  
BRANCH  10  11
HETATM   11  C   UNL     2     -10.550  14.603  66.231  1.00  0.00    -0.306 C  
BRANCH  11  12
HETATM   12  C   UNL     2     -10.170  16.075  65.937  1.00  0.00    -0.386 C  
HETATM   13  C   UNL     2     -10.273  16.987  68.335  1.00  0.00    -0.331 C  
HETATM   14  C   UNL     2     -10.765  17.132  66.893  1.00  0.00    -0.121 C  
HETATM   15  C   UNL     2     -10.403  18.539  66.392  1.00  0.00    -0.456 C  
ENDBRANCH  11  12
BRANCH  11  16
HETATM   16  O   UNL     2     -10.837  13.959  64.993  1.00  0.00    -0.337 OA 
HETATM   17  O   UNL     2     -13.202  14.554  65.136  1.00  0.00    -0.499 OA 
HETATM   18  O   UNL     2     -12.360  13.269  63.224  1.00  0.00    -0.721 OA 
HETATM   19  S   UNL     2     -12.360  13.456  64.672  1.00  0.00    -0.363 S  
HETATM   20  O   UNL     2     -12.514  12.234  65.448  1.00  0.00    -0.596 OA 
ENDBRANCH  11  16
ENDBRANCH  10  11
ENDBRANCH   8  10
ENDBRANCH   4   5
ENDBRANCH   3   4
TORSDOF 6
ENDMDL
MODEL       33
REMARK 921   NORMALIZED FREE ENERGY PREDICTED BY IDOCK:   -5.00 KCAL/MOL
REMARK 922        TOTAL FREE ENERGY PREDICTED BY IDOCK:   -7.96 KCAL/MOL
REMARK 923 INTER-LIGAND FREE ENERGY PREDICTED BY IDOCK:   -7.16 KCAL/MOL
REMARK 924 INTRA-LIGAND FREE ENERGY PREDICTED BY IDOCK:   -0.80 KCAL/MOL
REMARK 927      BINDING AFFINITY PREDICTED BY RF-SCORE:    0.00 PKD
ROOT
HETATM    1 NA   UNL     1     -14.314  12.384  73.042  1.00  0.00    -0.597 Na 
HETATM    2  C   UNL     2     -12.533  15.385  74.319  1.00  0.00    -0.761 C  
HETATM    3  C   UNL     2     -12.641  16.008  72.935  1.00  0.00    -0.577 C  
ENDROOT
BRANCH   3   4
HETATM    4  C   UNL     2     -13.483  15.135  72.006  1.00  0.00    -0.520 C  
BRANCH   4   5
HETATM    5  C   UNL     2     -12.704  13.990  71.350  1.00  0.00    -0.442 C  
HETATM    6  C   UNL     2     -12.400  14.146  69.840  1.00  0.00    -0.382 C  
HETATM    7  C   UNL     2     -11.687  15.470  69.481  1.00  0.00    -0.380 C  
HETATM    8  C   UNL     2     -11.585  12.945  69.302  1.00  0.00    -0.368 C  
HETATM    9  C   UNL     2     -10.274  15.622  70.031  1.00  0.00    -0.277 C  
BRANCH   8  10
HETATM   10  C   UNL     2     -12.242  11.575  69.479  1.00  0.00    -0.287 C  
BRANCH  10  11
HETATM   11  C   UNL     2     -11.446  10.348  68.982  1.00  0.00    -0.193 C  
BRANCH  11  12
HETATM   12  C   UNL     2     -10.917  10.585  67.546  1.00  0.00    -0.365 C  
HETATM   13  C   UNL     2     -10.036   8.221  67.065  1.00  0.00    -0.353 C  
HETATM   14  C   UNL     2      -9.713   9.716  67.117  1.00  0.00    -0.222 C  
HETATM   15  C   UNL     2      -9.230  10.161  65.727  1.00  0.00    -0.221 C  
ENDBRANCH  11  12
BRANCH  11  16
HETATM   16  O   UNL     2     -10.329  10.137  69.841  1.00  0.00    -0.250 OA 
HETATM   17  O   UNL     2     -11.042   7.857  70.348  1.00  0.00    -0.254 OA 
HETATM   18  O   UNL     2      -9.005   8.773  71.360  1.00  0.00    -0.199 OA 
HETATM   19  S   UNL     2     -10.404   8.992  71.006  1.00  0.00    -0.305 S  
HETATM   20  O   UNL     2     -11.215   9.590  72.057  1.00  0.00    -0.207 OA 
ENDBRANCH  11  16
ENDBRANCH  10  11
ENDBRANCH   8  10
ENDBRANCH   4   5
ENDBRANCH   3   4
TORSDOF 6
ENDMDL
MODEL       34
REMARK 921   NORMALIZED FREE ENERGY PREDICTED BY IDOCK:   -4.98 KCAL/MOL
REMARK 922        TOTAL FREE ENERGY PREDICTED BY IDOCK:   -7.94 KCAL/MOL
REMARK 923 INTER-LIGAND FREE ENERGY PREDICTED BY IDOCK:   -6.86 KCAL/MOL
REMARK 924 INTRA-LIGAND FREE ENERGY PREDICTED BY IDOCK:   -1.08 KCAL/MOL
REMARK 927      BINDING AFFINITY PREDICTED BY RF-SCORE:    0.00 PKD
ROOT
HETATM    1 NA   UNL     1     -11.780  16.053  64.397  1.00  0.00    -0.385 Na 
HETATM    2  C   UNL     2      -8.502  16.136  66.147  1.00  0.00    -0.288 C  
HETATM    3  C   UNL     2      -9.208  16.652  67.392  1.00  0.00    -0.216 C  
ENDROOT
BRANCH   3   4
HETATM    4  C   UNL     2     -10.723  16.664  67.197  1.00  0.00    -0.202 C  
BRANCH   4   5
HETATM    5  C   UNL     2     -11.433  15.426  67.754  1.00  0.00    -0.284 C  
HETATM    6  C   UNL     2     -10.675  14.636  68.849  1.00  0.00    -0.251 C  
HETATM    7  C   UNL     2     -10.229  15.504  70.047  1.00  0.00    -0.286 C  
HETATM    8  C   UNL     2     -11.505  13.430  69.350  1.00  0.00    -0.333 C  
HETATM    9  C   UNL     2     -11.357  16.077  70.897  1.00  0.00    -0.421 C  
BRANCH   8  10
HETATM   10  C   UNL     2     -11.907  12.418  68.277  1.00  0.00    -0.364 C  
BRANCH  10  11
HETATM   11  C   UNL     2     -11.065  12.400  66.982  1.00  0.00    -0.278 C  
BRANCH  11  12
HETATM   12  C   UNL     2      -9.974  11.304  67.055  1.00  0.00    -0.226 C  
HETATM   13  C   UNL     2      -7.953  12.804  67.563  1.00  0.00    -0.177 C  
HETATM   14  C   UNL     2      -8.549  11.737  66.642  1.00  0.00    -0.170 C  
HETATM   15  C   UNL     2      -7.621  10.513  66.644  1.00  0.00    -0.120 C  
ENDBRANCH  11  12
BRANCH  11  16
HETATM   16  O   UNL     2     -11.916  12.111  65.876  1.00  0.00    -0.561 OA 
HETATM   17  O   UNL     2     -10.829  13.804  64.490  1.00  0.00    -0.393 OA 
HETATM   18  O   UNL     2     -12.685  12.473  63.596  1.00  0.00    -0.712 OA 
HETATM   19  S   UNL     2     -12.156  13.241  64.719  1.00  0.00    -0.433 S  
HETATM   20  O   UNL     2     -13.095  14.182  65.313  1.00  0.00    -0.763 OA 
ENDBRANCH  11  16
ENDBRANCH  10  11
ENDBRANCH   8  10
ENDBRANCH   4   5
ENDBRANCH   3   4
TORSDOF 6
ENDMDL
MODEL       35
REMARK 921   NORMALIZED FREE ENERGY PREDICTED BY IDOCK:   -4.98 KCAL/MOL
REMARK 922        TOTAL FREE ENERGY PREDICTED BY IDOCK:   -7.93 KCAL/MOL
REMARK 923 INTER-LIGAND FREE ENERGY PREDICTED BY IDOCK:   -6.58 KCAL/MOL
REMARK 924 INTRA-LIGAND FREE ENERGY PREDICTED BY IDOCK:   -1.35 KCAL/MOL
REMARK 927      BINDING AFFINITY PREDICTED BY RF-SCORE:    0.00 PKD
ROOT
HETATM    1 NA   UNL     1     -11.137  18.063  64.605  1.00  0.00    -0.494 Na 
HETATM    2  C   UNL     2      -9.156  20.338  66.777  1.00  0.00    -0.424 C  
HETATM    3  C   UNL     2      -9.865  19.754  67.991  1.00  0.00    -0.533 C  
ENDROOT
BRANCH   3   4
HETATM    4  C   UNL     2     -10.764  18.586  67.592  1.00  0.00    -0.405 C  
BRANCH   4   5
HETATM    5  C   UNL     2     -10.304  17.230  68.137  1.00  0.00    -0.357 C  
HETATM    6  C   UNL     2      -9.933  16.158  67.084  1.00  0.00    -0.251 C  
HETATM    7  C   UNL     2      -8.884  16.633  66.053  1.00  0.00    -0.242 C  
HETATM    8  C   UNL     2      -9.457  14.847  67.757  1.00  0.00    -0.203 C  
HETATM    9  C   UNL     2      -7.496  16.914  66.614  1.00  0.00    -0.303 C  
BRANCH   8  10
HETATM   10  C   UNL     2     -10.459  14.198  68.711  1.00  0.00    -0.249 C  
BRANCH  10  11
HETATM   11  C   UNL     2     -11.068  12.848  68.274  1.00  0.00    -0.264 C  
BRANCH  11  12
HETATM   12  C   UNL     2     -10.551  12.443  66.873  1.00  0.00    -0.251 C  
HETATM   13  C   UNL     2     -12.305  13.662  65.447  1.00  0.00    -0.510 C  
HETATM   14  C   UNL     2     -11.621  12.330  65.763  1.00  0.00    -0.443 C  
HETATM   15  C   UNL     2     -10.970  11.797  64.477  1.00  0.00    -0.382 C  
ENDBRANCH  11  12
BRANCH  11  16
HETATM   16  O   UNL     2     -10.679  11.839  69.203  1.00  0.00    -0.202 OA 
HETATM   17  O   UNL     2     -12.756  10.601  68.858  1.00  0.00    -0.070 OA 
HETATM   18  O   UNL     2     -11.066   9.774  70.431  1.00  0.00    -0.260 OA 
HETATM   19  S   UNL     2     -11.819  10.920  69.930  1.00  0.00    -0.379 S  
HETATM   20  O   UNL     2     -12.382  11.780  70.961  1.00  0.00    -0.358 OA 
ENDBRANCH  11  16
ENDBRANCH  10  11
ENDBRANCH   8  10
ENDBRANCH   4   5
ENDBRANCH   3   4
TORSDOF 6
ENDMDL
MODEL       36
REMARK 921   NORMALIZED FREE ENERGY PREDICTED BY IDOCK:   -4.96 KCAL/MOL
REMARK 922        TOTAL FREE ENERGY PREDICTED BY IDOCK:   -7.91 KCAL/MOL
REMARK 923 INTER-LIGAND FREE ENERGY PREDICTED BY IDOCK:   -7.40 KCAL/MOL
REMARK 924 INTRA-LIGAND FREE ENERGY PREDICTED BY IDOCK:   -0.51 KCAL/MOL
REMARK 927      BINDING AFFINITY PREDICTED BY RF-SCORE:    0.00 PKD
ROOT
HETATM    1 NA   UNL     1     -11.878   9.632  68.033  1.00  0.00    -0.531 Na 
HETATM    2  C   UNL     2      -8.202   9.870  67.544  1.00  0.00    -0.114 C  
HETATM    3  C   UNL     2      -8.436  10.018  66.047  1.00  0.00    -0.137 C  
ENDROOT
BRANCH   3   4
HETATM    4  C   UNL     2      -9.928  10.119  65.734  1.00  0.00    -0.339 C  
BRANCH   4   5
HETATM    5  C   UNL     2     -10.576  11.426  66.202  1.00  0.00    -0.316 C  
HETATM    6  C   UNL     2     -10.251  12.690  65.368  1.00  0.00    -0.301 C  
HETATM    7  C   UNL     2     -10.544  12.531  63.859  1.00  0.00    -0.472 C  
HETATM    8  C   UNL     2     -10.985  13.935  65.922  1.00  0.00    -0.284 C  
HETATM    9  C   UNL     2     -12.013  12.368  63.491  1.00  0.00    -0.627 C  
BRANCH   8  10
HETATM   10  C   UNL     2     -10.682  14.280  67.380  1.00  0.00    -0.282 C  
BRANCH  10  11
HETATM   11  C   UNL     2     -10.766  15.770  67.778  1.00  0.00    -0.307 C  
BRANCH  11  12
HETATM   12  C   UNL     2     -10.585  15.940  69.306  1.00  0.00    -0.252 C  
HETATM   13  C   UNL     2     -12.408  14.312  70.093  1.00  0.00    -0.413 C  
HETATM   14  C   UNL     2     -11.853  15.736  70.165  1.00  0.00    -0.369 C  
HETATM   15  C   UNL     2     -11.537  16.065  71.632  1.00  0.00    -0.538 C  
ENDBRANCH  11  12
BRANCH  11  16
HETATM   16  O   UNL     2      -9.724  16.487  67.122  1.00  0.00    -0.237 OA 
HETATM   17  O   UNL     2     -10.980  18.579  67.228  1.00  0.00    -0.365 OA 
HETATM   18  O   UNL     2      -8.761  18.517  66.186  1.00  0.00    -0.462 OA 
HETATM   19  S   UNL     2     -10.065  17.878  66.333  1.00  0.00    -0.365 S  
HETATM   20  O   UNL     2     -10.681  17.451  65.085  1.00  0.00    -0.684 OA 
ENDBRANCH  11  16
ENDBRANCH  10  11
ENDBRANCH   8  10
ENDBRANCH   4   5
ENDBRANCH   3   4
TORSDOF 6
ENDMDL
MODEL       37
REMARK 921   NORMALIZED FREE ENERGY PREDICTED BY IDOCK:   -4.96 KCAL/MOL
REMARK 922        TOTAL FREE ENERGY PREDICTED BY IDOCK:   -7.91 KCAL/MOL
REMARK 923 INTER-LIGAND FREE ENERGY PREDICTED BY IDOCK:   -7.38 KCAL/MOL
REMARK 924 INTRA-LIGAND FREE ENERGY PREDICTED BY IDOCK:   -0.53 KCAL/MOL
REMARK 927      BINDING AFFINITY PREDICTED BY RF-SCORE:    0.00 PKD
ROOT
HETATM    1 NA   UNL     1     -13.999  11.996  72.874  1.00  0.00    -0.599 Na 
HETATM    2  C   UNL     2     -13.753  15.693  72.581  1.00  0.00    -0.666 C  
HETATM    3  C   UNL     2     -12.501  15.518  71.733  1.00  0.00    -0.474 C  
ENDROOT
BRANCH   3   4
HETATM    4  C   UNL     2     -12.244  14.042  71.436  1.00  0.00    -0.349 C  
BRANCH   4   5
HETATM    5  C   UNL     2     -12.520  13.642  69.983  1.00  0.00    -0.267 C  
HETATM    6  C   UNL     2     -11.552  12.606  69.361  1.00  0.00    -0.369 C  
HETATM    7  C   UNL     2     -11.413  11.309  70.190  1.00  0.00    -0.336 C  
HETATM    8  C   UNL     2     -11.951  12.262  67.906  1.00  0.00    -0.240 C  
HETATM    9  C   UNL     2     -12.668  10.449  70.276  1.00  0.00    -0.221 C  
BRANCH   8  10
HETATM   10  C   UNL     2     -12.003  13.449  66.943  1.00  0.00    -0.437 C  
BRANCH  10  11
HETATM   11  C   UNL     2     -10.668  13.889  66.303  1.00  0.00    -0.285 C  
BRANCH  11  12
HETATM   12  C   UNL     2     -10.271  12.932  65.153  1.00  0.00    -0.288 C  
HETATM   13  C   UNL     2     -12.094  13.581  63.465  1.00  0.00    -0.425 C  
HETATM   14  C   UNL     2     -11.425  12.448  64.246  1.00  0.00    -0.427 C  
HETATM   15  C   UNL     2     -10.890  11.412  63.244  1.00  0.00    -0.292 C  
ENDBRANCH  11  12
BRANCH  11  16
HETATM   16  O   UNL     2     -10.820  15.199  65.762  1.00  0.00    -0.329 OA 
HETATM   17  O   UNL     2      -8.744  15.959  66.801  1.00  0.00    -0.219 OA 
HETATM   18  O   UNL     2     -10.091  17.499  65.449  1.00  0.00    -0.526 OA 
HETATM   19  S   UNL     2     -10.074  16.465  66.479  1.00  0.00    -0.308 S  
HETATM   20  O   UNL     2     -10.889  16.756  67.651  1.00  0.00    -0.326 OA 
ENDBRANCH  11  16
ENDBRANCH  10  11
ENDBRANCH   8  10
ENDBRANCH   4   5
ENDBRANCH   3   4
TORSDOF 6
ENDMDL
MODEL       38
REMARK 921   NORMALIZED FREE ENERGY PREDICTED BY IDOCK:   -4.93 KCAL/MOL
REMARK 922        TOTAL FREE ENERGY PREDICTED BY IDOCK:   -7.87 KCAL/MOL
REMARK 923 INTER-LIGAND FREE ENERGY PREDICTED BY IDOCK:   -7.18 KCAL/MOL
REMARK 924 INTRA-LIGAND FREE ENERGY PREDICTED BY IDOCK:   -0.69 KCAL/MOL
REMARK 927      BINDING AFFINITY PREDICTED BY RF-SCORE:    0.00 PKD
ROOT
HETATM    1 NA   UNL     1     -12.721   6.917  69.675  1.00  0.00    -0.603 Na 
HETATM    2  C   UNL     2     -10.984   7.523  72.905  1.00  0.00    -0.434 C  
HETATM    3  C   UNL     2     -10.011   8.441  72.180  1.00  0.00    -0.376 C  
ENDROOT
BRANCH   3   4
HETATM    4  C   UNL     2     -10.425   8.637  70.722  1.00  0.00    -0.249 C  
BRANCH   4   5
HETATM    5  C   UNL     2     -10.454  10.102  70.274  1.00  0.00    -0.284 C  
HETATM    6  C   UNL     2     -11.775  10.596  69.636  1.00  0.00    -0.368 C  
HETATM    7  C   UNL     2     -13.023  10.345  70.513  1.00  0.00    -0.280 C  
HETATM    8  C   UNL     2     -11.691  12.094  69.254  1.00  0.00    -0.386 C  
HETATM    9  C   UNL     2     -13.074  11.130  71.819  1.00  0.00    -0.536 C  
BRANCH   8  10
HETATM   10  C   UNL     2     -10.569  12.461  68.282  1.00  0.00    -0.236 C  
BRANCH  10  11
HETATM   11  C   UNL     2     -10.850  13.611  67.290  1.00  0.00    -0.284 C  
BRANCH  11  12
HETATM   12  C   UNL     2     -10.182  14.922  67.769  1.00  0.00    -0.236 C  
HETATM   13  C   UNL     2     -11.989  15.695  69.421  1.00  0.00    -0.349 C  
HETATM   14  C   UNL     2     -11.142  16.054  68.198  1.00  0.00    -0.344 C  
HETATM   15  C   UNL     2     -10.332  17.320  68.518  1.00  0.00    -0.371 C  
ENDBRANCH  11  12
BRANCH  11  16
HETATM   16  O   UNL     2     -10.307  13.271  66.017  1.00  0.00    -0.277 OA 
HETATM   17  O   UNL     2     -12.459  12.425  65.230  1.00  0.00    -0.611 OA 
HETATM   18  O   UNL     2     -10.493  12.365  63.766  1.00  0.00    -0.406 OA 
HETATM   19  S   UNL     2     -11.036  12.130  65.100  1.00  0.00    -0.320 S  
HETATM   20  O   UNL     2     -10.643  10.866  65.707  1.00  0.00    -0.232 OA 
ENDBRANCH  11  16
ENDBRANCH  10  11
ENDBRANCH   8  10
ENDBRANCH   4   5
ENDBRANCH   3   4
TORSDOF 6
ENDMDL
MODEL       39
REMARK 921   NORMALIZED FREE ENERGY PREDICTED BY IDOCK:   -4.91 KCAL/MOL
REMARK 922        TOTAL FREE ENERGY PREDICTED BY IDOCK:   -7.83 KCAL/MOL
REMARK 923 INTER-LIGAND FREE ENERGY PREDICTED BY IDOCK:   -7.01 KCAL/MOL
REMARK 924 INTRA-LIGAND FREE ENERGY PREDICTED BY IDOCK:   -0.83 KCAL/MOL
REMARK 927      BINDING AFFINITY PREDICTED BY RF-SCORE:    0.00 PKD
ROOT
HETATM    1 NA   UNL     1     -11.922  15.857  63.261  1.00  0.00    -0.903 Na 
HETATM    2  C   UNL     2     -10.365  17.868  65.970  1.00  0.00    -0.318 C  
HETATM    3  C   UNL     2      -9.705  16.602  66.497  1.00  0.00    -0.291 C  
ENDROOT
BRANCH   3   4
HETATM    4  C   UNL     2      -9.958  15.422  65.560  1.00  0.00    -0.379 C  
BRANCH   4   5
HETATM    5  C   UNL     2     -10.147  14.084  66.281  1.00  0.00    -0.307 C  
HETATM    6  C   UNL     2     -11.586  13.752  66.745  1.00  0.00    -0.394 C  
HETATM    7  C   UNL     2     -12.638  13.832  65.615  1.00  0.00    -0.551 C  
HETATM    8  C   UNL     2     -11.652  12.365  67.430  1.00  0.00    -0.433 C  
HETATM    9  C   UNL     2     -12.492  12.794  64.509  1.00  0.00    -0.501 C  
BRANCH   8  10
HETATM   10  C   UNL     2     -10.747  12.193  68.650  1.00  0.00    -0.261 C  
BRANCH  10  11
HETATM   11  C   UNL     2     -11.441  12.075  70.025  1.00  0.00    -0.101 C  
BRANCH  11  12
HETATM   12  C   UNL     2     -12.516  13.176  70.191  1.00  0.00    -0.192 C  
HETATM   13  C   UNL     2     -10.967  15.222  70.259  1.00  0.00    -0.313 C  
HETATM   14  C   UNL     2     -12.077  14.440  70.964  1.00  0.00    -0.417 C  
HETATM   15  C   UNL     2     -13.286  15.370  71.154  1.00  0.00    -0.580 C  
ENDBRANCH  11  12
BRANCH  11  16
HETATM   16  O   UNL     2     -12.082  10.806  70.115  1.00  0.00    -0.294 OA 
HETATM   17  O   UNL     2     -10.106   9.784  71.123  1.00  0.00    -0.171 OA 
HETATM   18  O   UNL     2     -12.117   8.445  70.706  1.00  0.00    -0.203 OA 
HETATM   19  S   UNL     2     -11.182   9.444  70.198  1.00  0.00    -0.184 S  
HETATM   20  O   UNL     2     -10.729   9.219  68.832  1.00  0.00    -0.215 OA 
ENDBRANCH  11  16
ENDBRANCH  10  11
ENDBRANCH   8  10
ENDBRANCH   4   5
ENDBRANCH   3   4
TORSDOF 6
ENDMDL
MODEL       40
REMARK 921   NORMALIZED FREE ENERGY PREDICTED BY IDOCK:   -4.90 KCAL/MOL
REMARK 922        TOTAL FREE ENERGY PREDICTED BY IDOCK:   -7.82 KCAL/MOL
REMARK 923 INTER-LIGAND FREE ENERGY PREDICTED BY IDOCK:   -6.53 KCAL/MOL
REMARK 924 INTRA-LIGAND FREE ENERGY PREDICTED BY IDOCK:   -1.29 KCAL/MOL
REMARK 927      BINDING AFFINITY PREDICTED BY RF-SCORE:    0.00 PKD
ROOT
HETATM    1 NA   UNL     1     -12.442   6.518  72.717  1.00  0.00    -0.454 Na 
HETATM    2  C   UNL     2      -9.626   4.948  70.868  1.00  0.00    -0.241 C  
HETATM    3  C   UNL     2     -10.164   5.557  69.582  1.00  0.00    -0.336 C  
ENDROOT
BRANCH   3   4
HETATM    4  C   UNL     2     -11.346   6.483  69.866  1.00  0.00    -0.469 C  
BRANCH   4   5
HETATM    5  C   UNL     2     -11.125   7.931  69.419  1.00  0.00     0.068 C  
HETATM    6  C   UNL     2     -11.179   9.007  70.530  1.00  0.00    -0.301 C  
HETATM    7  C   UNL     2     -10.226   8.728  71.715  1.00  0.00    -0.408 C  
HETATM    8  C   UNL     2     -10.912  10.421  69.959  1.00  0.00    -0.370 C  
HETATM    9  C   UNL     2      -8.739   8.790  71.387  1.00  0.00    -0.278 C  
BRANCH   8  10
HETATM   10  C   UNL     2     -11.872  10.876  68.859  1.00  0.00    -0.340 C  
BRANCH  10  11
HETATM   11  C   UNL     2     -11.239  11.437  67.567  1.00  0.00    -0.292 C  
BRANCH  11  12
HETATM   12  C   UNL     2     -10.691  10.290  66.683  1.00  0.00    -0.183 C  
HETATM   13  C   UNL     2      -8.331  10.129  67.682  1.00  0.00    -0.114 C  
HETATM   14  C   UNL     2      -9.169  10.310  66.415  1.00  0.00    -0.186 C  
HETATM   15  C   UNL     2      -8.809   9.192  65.425  1.00  0.00    -0.236 C  
ENDBRANCH  11  12
BRANCH  11  16
HETATM   16  O   UNL     2     -12.236  12.135  66.825  1.00  0.00    -0.553 OA 
HETATM   17  O   UNL     2     -10.553  13.438  65.627  1.00  0.00    -0.272 OA 
HETATM   18  O   UNL     2     -12.938  13.782  65.177  1.00  0.00    -0.738 OA 
HETATM   19  S   UNL     2     -11.894  13.598  66.179  1.00  0.00    -0.417 S  
HETATM   20  O   UNL     2     -11.955  14.520  67.304  1.00  0.00    -0.405 OA 
ENDBRANCH  11  16
ENDBRANCH  10  11
ENDBRANCH   8  10
ENDBRANCH   4   5
ENDBRANCH   3   4
TORSDOF 6
ENDMDL
MODEL       41
REMARK 921   NORMALIZED FREE ENERGY PREDICTED BY IDOCK:   -4.90 KCAL/MOL
REMARK 922        TOTAL FREE ENERGY PREDICTED BY IDOCK:   -7.82 KCAL/MOL
REMARK 923 INTER-LIGAND FREE ENERGY PREDICTED BY IDOCK:   -6.98 KCAL/MOL
REMARK 924 INTRA-LIGAND FREE ENERGY PREDICTED BY IDOCK:   -0.84 KCAL/MOL
REMARK 927      BINDING AFFINITY PREDICTED BY RF-SCORE:    0.00 PKD
ROOT
HETATM    1 NA   UNL     1      -9.212   8.507  73.724  1.00  0.00    -0.231 Na 
HETATM    2  C   UNL     2     -11.040   5.784  71.976  1.00  0.00    -0.318 C  
HETATM    3  C   UNL     2     -12.280   6.666  71.952  1.00  0.00    -0.381 C  
ENDROOT
BRANCH   3   4
HETATM    4  C   UNL     2     -11.969   8.063  72.485  1.00  0.00    -0.384 C  
BRANCH   4   5
HETATM    5  C   UNL     2     -12.256   9.190  71.487  1.00  0.00    -0.422 C  
HETATM    6  C   UNL     2     -11.026   9.964  70.955  1.00  0.00    -0.392 C  
HETATM    7  C   UNL     2      -9.937   9.055  70.341  1.00  0.00    -0.244 C  
HETATM    8  C   UNL     2     -11.442  11.052  69.936  1.00  0.00    -0.400 C  
HETATM    9  C   UNL     2     -10.336   8.325  69.065  1.00  0.00    -0.233 C  
BRANCH   8  10
HETATM   10  C   UNL     2     -12.427  12.098  70.459  1.00  0.00    -0.282 C  
BRANCH  10  11
HETATM   11  C   UNL     2     -12.086  13.579  70.185  1.00  0.00    -0.354 C  
BRANCH  11  12
HETATM   12  C   UNL     2     -12.097  13.871  68.665  1.00  0.00    -0.337 C  
HETATM   13  C   UNL     2      -9.565  13.800  68.241  1.00  0.00    -0.219 C  
HETATM   14  C   UNL     2     -10.858  14.609  68.108  1.00  0.00    -0.256 C  
HETATM   15  C   UNL     2     -11.081  14.936  66.624  1.00  0.00    -0.329 C  
ENDBRANCH  11  12
BRANCH  11  16
HETATM   16  O   UNL     2     -13.066  14.406  70.806  1.00  0.00    -0.356 OA 
HETATM   17  O   UNL     2     -11.552  14.974  72.636  1.00  0.00    -0.356 OA 
HETATM   18  O   UNL     2     -13.827  15.888  72.581  1.00  0.00    -0.543 OA 
HETATM   19  S   UNL     2     -12.970  14.719  72.408  1.00  0.00    -0.391 S  
HETATM   20  O   UNL     2     -13.456  13.505  73.049  1.00  0.00    -0.552 OA 
ENDBRANCH  11  16
ENDBRANCH  10  11
ENDBRANCH   8  10
ENDBRANCH   4   5
ENDBRANCH   3   4
TORSDOF 6
ENDMDL
MODEL       42
REMARK 921   NORMALIZED FREE ENERGY PREDICTED BY IDOCK:   -4.89 KCAL/MOL
REMARK 922        TOTAL FREE ENERGY PREDICTED BY IDOCK:   -7.81 KCAL/MOL
REMARK 923 INTER-LIGAND FREE ENERGY PREDICTED BY IDOCK:   -6.79 KCAL/MOL
REMARK 924 INTRA-LIGAND FREE ENERGY PREDICTED BY IDOCK:   -1.02 KCAL/MOL
REMARK 927      BINDING AFFINITY PREDICTED BY RF-SCORE:    0.00 PKD
ROOT
HETATM    1 NA   UNL     1     -12.204   6.536  68.699  1.00  0.00    -0.557 Na 
HETATM    2  C   UNL     2     -12.792   8.469  71.819  1.00  0.00    -0.380 C  
HETATM    3  C   UNL     2     -11.285   8.596  71.994  1.00  0.00    -0.434 C  
ENDROOT
BRANCH   3   4
HETATM    4  C   UNL     2     -10.543   8.023  70.788  1.00  0.00    -0.228 C  
BRANCH   4   5
HETATM    5  C   UNL     2     -10.637   8.890  69.529  1.00  0.00    -0.233 C  
HETATM    6  C   UNL     2      -9.826  10.210  69.544  1.00  0.00    -0.255 C  
HETATM    7  C   UNL     2      -8.329  10.016  69.875  1.00  0.00    -0.169 C  
HETATM    8  C   UNL     2      -9.978  10.979  68.210  1.00  0.00    -0.190 C  
HETATM    9  C   UNL     2      -7.523   9.247  68.836  1.00  0.00    -0.075 C  
BRANCH   8  10
HETATM   10  C   UNL     2     -11.410  11.348  67.824  1.00  0.00    -0.354 C  
BRANCH  10  11
HETATM   11  C   UNL     2     -11.679  12.825  67.462  1.00  0.00    -0.364 C  
BRANCH  11  12
HETATM   12  C   UNL     2     -10.865  13.771  68.378  1.00  0.00    -0.268 C  
HETATM   13  C   UNL     2     -12.355  13.658  70.468  1.00  0.00    -0.425 C  
HETATM   14  C   UNL     2     -11.678  14.558  69.431  1.00  0.00    -0.361 C  
HETATM   15  C   UNL     2     -10.750  15.539  70.165  1.00  0.00    -0.345 C  
ENDBRANCH  11  12
BRANCH  11  16
HETATM   16  O   UNL     2     -11.278  13.054  66.114  1.00  0.00    -0.280 OA 
HETATM   17  O   UNL     2     -13.308  14.325  65.636  1.00  0.00    -0.529 OA 
HETATM   18  O   UNL     2     -11.625  13.974  63.887  1.00  0.00    -0.251 OA 
HETATM   19  S   UNL     2     -12.403  13.390  64.976  1.00  0.00    -0.438 S  
HETATM   20  O   UNL     2     -13.012  12.103  64.671  1.00  0.00    -0.651 OA 
ENDBRANCH  11  16
ENDBRANCH  10  11
ENDBRANCH   8  10
ENDBRANCH   4   5
ENDBRANCH   3   4
TORSDOF 6
ENDMDL
MODEL       43
REMARK 921   NORMALIZED FREE ENERGY PREDICTED BY IDOCK:   -4.87 KCAL/MOL
REMARK 922        TOTAL FREE ENERGY PREDICTED BY IDOCK:   -7.78 KCAL/MOL
REMARK 923 INTER-LIGAND FREE ENERGY PREDICTED BY IDOCK:   -6.92 KCAL/MOL
REMARK 924 INTRA-LIGAND FREE ENERGY PREDICTED BY IDOCK:   -0.86 KCAL/MOL
REMARK 927      BINDING AFFINITY PREDICTED BY RF-SCORE:    0.00 PKD
ROOT
HETATM    1 NA   UNL     1     -12.076  13.661  62.423  1.00  0.00    -0.734 Na 
HETATM    2  C   UNL     2     -10.021  11.228  64.340  1.00  0.00    -0.338 C  
HETATM    3  C   UNL     2     -10.897  11.486  65.558  1.00  0.00    -0.313 C  
ENDROOT
BRANCH   3   4
HETATM    4  C   UNL     2     -12.070  12.399  65.205  1.00  0.00    -0.451 C  
BRANCH   4   5
HETATM    5  C   UNL     2     -12.266  13.566  66.178  1.00  0.00    -0.484 C  
HETATM    6  C   UNL     2     -11.038  14.481  66.407  1.00  0.00    -0.331 C  
HETATM    7  C   UNL     2     -10.435  15.050  65.103  1.00  0.00    -0.438 C  
HETATM    8  C   UNL     2     -11.370  15.636  67.383  1.00  0.00    -0.163 C  
HETATM    9  C   UNL     2     -11.325  16.022  64.339  1.00  0.00    -0.253 C  
BRANCH   8  10
HETATM   10  C   UNL     2     -11.861  15.205  68.766  1.00  0.00    -0.329 C  
BRANCH  10  11
HETATM   11  C   UNL     2     -10.872  15.368  69.941  1.00  0.00    -0.293 C  
BRANCH  11  12
HETATM   12  C   UNL     2      -9.621  16.164  69.497  1.00  0.00    -0.150 C  
HETATM   13  C   UNL     2      -8.215  14.209  68.605  1.00  0.00    -0.116 C  
HETATM   14  C   UNL     2      -8.277  15.404  69.559  1.00  0.00    -0.207 C  
HETATM   15  C   UNL     2      -7.129  16.366  69.215  1.00  0.00    -0.222 C  
ENDBRANCH  11  12
BRANCH  11  16
HETATM   16  O   UNL     2     -11.512  16.088  70.991  1.00  0.00    -0.386 OA 
HETATM   17  O   UNL     2     -12.426  14.038  71.954  1.00  0.00    -0.298 OA 
HETATM   18  O   UNL     2     -12.893  16.211  72.991  1.00  0.00    -0.457 OA 
HETATM   19  S   UNL     2     -12.799  15.435  71.758  1.00  0.00    -0.443 S  
HETATM   20  O   UNL     2     -13.909  15.618  70.834  1.00  0.00    -0.516 OA 
ENDBRANCH  11  16
ENDBRANCH  10  11
ENDBRANCH   8  10
ENDBRANCH   4   5
ENDBRANCH   3   4
TORSDOF 6
ENDMDL
MODEL       44
REMARK 921   NORMALIZED FREE ENERGY PREDICTED BY IDOCK:   -4.87 KCAL/MOL
REMARK 922        TOTAL FREE ENERGY PREDICTED BY IDOCK:   -7.78 KCAL/MOL
REMARK 923 INTER-LIGAND FREE ENERGY PREDICTED BY IDOCK:   -6.82 KCAL/MOL
REMARK 924 INTRA-LIGAND FREE ENERGY PREDICTED BY IDOCK:   -0.96 KCAL/MOL
REMARK 927      BINDING AFFINITY PREDICTED BY RF-SCORE:    0.00 PKD
ROOT
HETATM    1 NA   UNL     1     -12.887  16.082  63.656  1.00  0.00    -0.786 Na 
HETATM    2  C   UNL     2     -12.085  12.454  63.552  1.00  0.00    -0.651 C  
HETATM    3  C   UNL     2     -12.136  12.425  65.073  1.00  0.00    -0.468 C  
ENDROOT
BRANCH   3   4
HETATM    4  C   UNL     2     -12.598  13.770  65.631  1.00  0.00    -0.551 C  
BRANCH   4   5
HETATM    5  C   UNL     2     -11.509  14.539  66.385  1.00  0.00    -0.362 C  
HETATM    6  C   UNL     2     -11.708  14.688  67.913  1.00  0.00    -0.379 C  
HETATM    7  C   UNL     2     -11.930  13.345  68.645  1.00  0.00    -0.362 C  
HETATM    8  C   UNL     2     -10.530  15.455  68.562  1.00  0.00    -0.234 C  
HETATM    9  C   UNL     2     -10.739  12.394  68.645  1.00  0.00    -0.260 C  
BRANCH   8  10
HETATM   10  C   UNL     2     -10.281  16.860  68.013  1.00  0.00    -0.310 C  
BRANCH  10  11
HETATM   11  C   UNL     2      -8.848  17.420  68.148  1.00  0.00    -0.253 C  
BRANCH  11  12
HETATM   12  C   UNL     2      -7.933  16.410  68.882  1.00  0.00    -0.236 C  
HETATM   13  C   UNL     2      -6.274  18.075  69.917  1.00  0.00    -0.105 C  
HETATM   14  C   UNL     2      -6.454  16.830  69.045  1.00  0.00    -0.195 C  
HETATM   15  C   UNL     2      -5.659  15.674  69.671  1.00  0.00    -0.117 C  
ENDBRANCH  11  12
BRANCH  11  16
HETATM   16  O   UNL     2      -8.311  17.645  66.847  1.00  0.00    -0.220 OA 
HETATM   17  O   UNL     2      -7.724  19.952  67.396  1.00  0.00    -0.261 OA 
HETATM   18  O   UNL     2      -7.253  19.050  65.165  1.00  0.00    -0.407 OA 
HETATM   19  S   UNL     2      -8.207  19.169  66.263  1.00  0.00    -0.269 S  
HETATM   20  O   UNL     2      -9.566  19.502  65.860  1.00  0.00    -0.399 OA 
ENDBRANCH  11  16
ENDBRANCH  10  11
ENDBRANCH   8  10
ENDBRANCH   4   5
ENDBRANCH   3   4
TORSDOF 6
ENDMDL
MODEL       45
REMARK 921   NORMALIZED FREE ENERGY PREDICTED BY IDOCK:   -4.85 KCAL/MOL
REMARK 922        TOTAL FREE ENERGY PREDICTED BY IDOCK:   -7.76 KCAL/MOL
REMARK 923 INTER-LIGAND FREE ENERGY PREDICTED BY IDOCK:   -6.94 KCAL/MOL
REMARK 924 INTRA-LIGAND FREE ENERGY PREDICTED BY IDOCK:   -0.82 KCAL/MOL
REMARK 927      BINDING AFFINITY PREDICTED BY RF-SCORE:    0.00 PKD
ROOT
HETATM    1 NA   UNL     1     -11.523  17.393  71.093  1.00  0.00    -0.620 Na 
HETATM    2  C   UNL     2      -9.623  18.743  68.198  1.00  0.00    -0.373 C  
HETATM    3  C   UNL     2     -10.201  17.632  67.333  1.00  0.00    -0.345 C  
ENDROOT
BRANCH   3   4
HETATM    4  C   UNL     2     -11.236  16.817  68.107  1.00  0.00    -0.154 C  
BRANCH   4   5
HETATM    5  C   UNL     2     -11.165  15.309  67.845  1.00  0.00    -0.333 C  
HETATM    6  C   UNL     2     -10.589  14.442  68.991  1.00  0.00    -0.245 C  
HETATM    7  C   UNL     2     -11.298  14.653  70.349  1.00  0.00    -0.232 C  
HETATM    8  C   UNL     2     -10.597  12.939  68.619  1.00  0.00    -0.256 C  
HETATM    9  C   UNL     2     -12.751  14.199  70.406  1.00  0.00    -0.341 C  
BRANCH   8  10
HETATM   10  C   UNL     2      -9.818  12.572  67.356  1.00  0.00    -0.201 C  
BRANCH  10  11
HETATM   11  C   UNL     2     -10.428  11.480  66.450  1.00  0.00    -0.250 C  
BRANCH  11  12
HETATM   12  C   UNL     2     -10.602  10.155  67.232  1.00  0.00    -0.321 C  
HETATM   13  C   UNL     2      -8.642   8.846  66.212  1.00  0.00    -0.145 C  
HETATM   14  C   UNL     2     -10.145   8.872  66.501  1.00  0.00    -0.356 C  
HETATM   15  C   UNL     2     -10.502   7.643  67.352  1.00  0.00    -0.367 C  
ENDBRANCH  11  12
BRANCH  11  16
HETATM   16  O   UNL     2     -11.712  11.907  66.005  1.00  0.00    -0.455 OA 
HETATM   17  O   UNL     2     -11.157  11.431  63.675  1.00  0.00    -0.399 OA 
HETATM   18  O   UNL     2     -13.360  12.332  64.264  1.00  0.00    -0.777 OA 
HETATM   19  S   UNL     2     -11.915  12.400  64.459  1.00  0.00    -0.403 S  
HETATM   20  O   UNL     2     -11.355  13.744  64.426  1.00  0.00    -0.373 OA 
ENDBRANCH  11  16
ENDBRANCH  10  11
ENDBRANCH   8  10
ENDBRANCH   4   5
ENDBRANCH   3   4
TORSDOF 6
ENDMDL
MODEL       46
REMARK 921   NORMALIZED FREE ENERGY PREDICTED BY IDOCK:   -4.85 KCAL/MOL
REMARK 922        TOTAL FREE ENERGY PREDICTED BY IDOCK:   -7.75 KCAL/MOL
REMARK 923 INTER-LIGAND FREE ENERGY PREDICTED BY IDOCK:   -6.89 KCAL/MOL
REMARK 924 INTRA-LIGAND FREE ENERGY PREDICTED BY IDOCK:   -0.87 KCAL/MOL
REMARK 927      BINDING AFFINITY PREDICTED BY RF-SCORE:    0.00 PKD
ROOT
HETATM    1 NA   UNL     1     -11.499  17.013  70.424  1.00  0.00    -0.471 Na 
HETATM    2  C   UNL     2     -14.035  15.487  72.672  1.00  0.00    -0.617 C  
HETATM    3  C   UNL     2     -13.500  14.111  72.301  1.00  0.00    -0.578 C  
ENDROOT
BRANCH   3   4
HETATM    4  C   UNL     2     -12.255  14.227  71.423  1.00  0.00    -0.408 C  
BRANCH   4   5
HETATM    5  C   UNL     2     -12.469  13.771  69.976  1.00  0.00    -0.301 C  
HETATM    6  C   UNL     2     -11.549  12.631  69.474  1.00  0.00    -0.348 C  
HETATM    7  C   UNL     2     -11.568  11.374  70.373  1.00  0.00    -0.267 C  
HETATM    8  C   UNL     2     -11.881  12.241  68.013  1.00  0.00    -0.368 C  
HETATM    9  C   UNL     2     -12.891  10.619  70.415  1.00  0.00    -0.277 C  
BRANCH   8  10
HETATM   10  C   UNL     2     -11.775  13.373  66.991  1.00  0.00    -0.426 C  
BRANCH  10  11
HETATM   11  C   UNL     2     -10.565  13.339  66.031  1.00  0.00    -0.286 C  
BRANCH  11  12
HETATM   12  C   UNL     2      -9.293  13.871  66.735  1.00  0.00    -0.286 C  
HETATM   13  C   UNL     2     -10.163  16.194  67.398  1.00  0.00    -0.272 C  
HETATM   14  C   UNL     2      -9.074  15.399  66.673  1.00  0.00    -0.310 C  
HETATM   15  C   UNL     2      -7.714  15.748  67.298  1.00  0.00    -0.232 C  
ENDBRANCH  11  12
BRANCH  11  16
HETATM   16  O   UNL     2     -10.325  11.991  65.633  1.00  0.00    -0.237 OA 
HETATM   17  O   UNL     2      -9.705  12.681  63.373  1.00  0.00    -0.165 OA 
HETATM   18  O   UNL     2      -9.692  10.308  63.993  1.00  0.00    -0.306 OA 
HETATM   19  S   UNL     2     -10.394  11.587  64.050  1.00  0.00    -0.395 S  
HETATM   20  O   UNL     2     -11.817  11.518  63.750  1.00  0.00    -0.336 OA 
ENDBRANCH  11  16
ENDBRANCH  10  11
ENDBRANCH   8  10
ENDBRANCH   4   5
ENDBRANCH   3   4
TORSDOF 6
ENDMDL
MODEL       47
REMARK 921   NORMALIZED FREE ENERGY PREDICTED BY IDOCK:   -4.84 KCAL/MOL
REMARK 922        TOTAL FREE ENERGY PREDICTED BY IDOCK:   -7.75 KCAL/MOL
REMARK 923 INTER-LIGAND FREE ENERGY PREDICTED BY IDOCK:   -6.63 KCAL/MOL
REMARK 924 INTRA-LIGAND FREE ENERGY PREDICTED BY IDOCK:   -1.12 KCAL/MOL
REMARK 927      BINDING AFFINITY PREDICTED BY RF-SCORE:    0.00 PKD
ROOT
HETATM    1 NA   UNL     1     -13.205   6.762  69.991  1.00  0.00    -0.620 Na 
HETATM    2  C   UNL     2     -10.628   7.557  72.548  1.00  0.00    -0.321 C  
HETATM    3  C   UNL     2     -10.485   8.943  71.936  1.00  0.00    -0.415 C  
ENDROOT
BRANCH   3   4
HETATM    4  C   UNL     2     -11.521   9.166  70.836  1.00  0.00    -0.357 C  
BRANCH   4   5
HETATM    5  C   UNL     2     -11.118  10.226  69.805  1.00  0.00    -0.340 C  
HETATM    6  C   UNL     2      -9.732  10.042  69.140  1.00  0.00    -0.217 C  
HETATM    7  C   UNL     2      -9.532   8.653  68.492  1.00  0.00    -0.146 C  
HETATM    8  C   UNL     2      -9.454  11.155  68.100  1.00  0.00    -0.180 C  
HETATM    9  C   UNL     2     -10.421   8.356  67.291  1.00  0.00    -0.373 C  
BRANCH   8  10
HETATM   10  C   UNL     2      -9.495  12.583  68.642  1.00  0.00    -0.010 C  
BRANCH  10  11
HETATM   11  C   UNL     2     -10.661  13.479  68.167  1.00  0.00    -0.245 C  
BRANCH  11  12
HETATM   12  C   UNL     2     -11.463  12.781  67.042  1.00  0.00    -0.397 C  
HETATM   13  C   UNL     2     -10.433  13.992  65.025  1.00  0.00    -0.440 C  
HETATM   14  C   UNL     2     -11.717  13.621  65.770  1.00  0.00    -0.369 C  
HETATM   15  C   UNL     2     -12.630  12.839  64.813  1.00  0.00    -0.518 C  
ENDBRANCH  11  12
BRANCH  11  16
HETATM   16  O   UNL     2     -11.541  13.717  69.262  1.00  0.00    -0.271 OA 
HETATM   17  O   UNL     2     -11.833  16.058  68.627  1.00  0.00    -0.367 OA 
HETATM   18  O   UNL     2     -12.976  15.157  70.601  1.00  0.00    -0.385 OA 
HETATM   19  S   UNL     2     -11.739  15.238  69.830  1.00  0.00    -0.348 S  
HETATM   20  O   UNL     2     -10.542  15.493  70.619  1.00  0.00    -0.308 OA 
ENDBRANCH  11  16
ENDBRANCH  10  11
ENDBRANCH   8  10
ENDBRANCH   4   5
ENDBRANCH   3   4
TORSDOF 6
ENDMDL
MODEL       48
REMARK 921   NORMALIZED FREE ENERGY PREDICTED BY IDOCK:   -4.82 KCAL/MOL
REMARK 922        TOTAL FREE ENERGY PREDICTED BY IDOCK:   -7.71 KCAL/MOL
REMARK 923 INTER-LIGAND FREE ENERGY PREDICTED BY IDOCK:   -6.51 KCAL/MOL
REMARK 924 INTRA-LIGAND FREE ENERGY PREDICTED BY IDOCK:   -1.20 KCAL/MOL
REMARK 927      BINDING AFFINITY PREDICTED BY RF-SCORE:    0.00 PKD
ROOT
HETATM    1 NA   UNL     1     -13.669  11.333  72.819  1.00  0.00    -0.626 Na 
HETATM    2  C   UNL     2     -12.675   7.948  71.649  1.00  0.00    -0.352 C  
HETATM    3  C   UNL     2     -11.631   8.593  70.749  1.00  0.00    -0.273 C  
ENDROOT
BRANCH   3   4
HETATM    4  C   UNL     2     -11.555  10.100  70.991  1.00  0.00    -0.462 C  
BRANCH   4   5
HETATM    5  C   UNL     2     -11.904  10.947  69.762  1.00  0.00    -0.419 C  
HETATM    6  C   UNL     2     -10.708  11.542  68.979  1.00  0.00    -0.233 C  
HETATM    7  C   UNL     2      -9.662  10.491  68.547  1.00  0.00    -0.170 C  
HETATM    8  C   UNL     2     -11.187  12.349  67.748  1.00  0.00    -0.327 C  
HETATM    9  C   UNL     2     -10.142   9.472  67.520  1.00  0.00    -0.257 C  
BRANCH   8  10
HETATM   10  C   UNL     2     -12.135  13.509  68.052  1.00  0.00    -0.298 C  
BRANCH  10  11
HETATM   11  C   UNL     2     -11.646  14.564  69.068  1.00  0.00    -0.298 C  
BRANCH  11  12
HETATM   12  C   UNL     2     -11.101  15.816  68.338  1.00  0.00    -0.341 C  
HETATM   13  C   UNL     2      -8.675  15.041  68.006  1.00  0.00    -0.159 C  
HETATM   14  C   UNL     2      -9.603  16.128  68.555  1.00  0.00    -0.215 C  
HETATM   15  C   UNL     2      -9.253  17.460  67.875  1.00  0.00    -0.256 C  
ENDBRANCH  11  12
BRANCH  11  16
HETATM   16  O   UNL     2     -12.742  14.966  69.886  1.00  0.00    -0.216 OA 
HETATM   17  O   UNL     2     -11.322  15.103  71.868  1.00  0.00    -0.413 OA 
HETATM   18  O   UNL     2     -13.715  15.617  72.020  1.00  0.00    -0.476 OA 
HETATM   19  S   UNL     2     -12.683  14.724  71.502  1.00  0.00    -0.357 S  
HETATM   20  O   UNL     2     -12.959  13.305  71.671  1.00  0.00    -0.369 OA 
ENDBRANCH  11  16
ENDBRANCH  10  11
ENDBRANCH   8  10
ENDBRANCH   4   5
ENDBRANCH   3   4
TORSDOF 6
ENDMDL
MODEL       49
REMARK 921   NORMALIZED FREE ENERGY PREDICTED BY IDOCK:   -4.81 KCAL/MOL
REMARK 922        TOTAL FREE ENERGY PREDICTED BY IDOCK:   -7.70 KCAL/MOL
REMARK 923 INTER-LIGAND FREE ENERGY PREDICTED BY IDOCK:   -6.99 KCAL/MOL
REMARK 924 INTRA-LIGAND FREE ENERGY PREDICTED BY IDOCK:   -0.71 KCAL/MOL
REMARK 927      BINDING AFFINITY PREDICTED BY RF-SCORE:    0.00 PKD
ROOT
HETATM    1 NA   UNL     1      -6.377  18.450  64.849  1.00  0.00    -0.215 Na 
HETATM    2  C   UNL     2      -5.429  16.822  68.053  1.00  0.00    -0.124 C  
HETATM    3  C   UNL     2      -6.342  17.793  68.788  1.00  0.00    -0.212 C  
ENDROOT
BRANCH   3   4
HETATM    4  C   UNL     2      -7.126  18.659  67.803  1.00  0.00    -0.230 C  
BRANCH   4   5
HETATM    5  C   UNL     2      -8.069  17.867  66.891  1.00  0.00    -0.250 C  
HETATM    6  C   UNL     2      -9.547  17.779  67.344  1.00  0.00    -0.264 C  
HETATM    7  C   UNL     2     -10.197  19.155  67.616  1.00  0.00    -0.492 C  
HETATM    8  C   UNL     2     -10.401  16.982  66.329  1.00  0.00    -0.309 C  
HETATM    9  C   UNL     2     -10.368  20.051  66.395  1.00  0.00    -0.573 C  
BRANCH   8  10
HETATM   10  C   UNL     2      -9.937  15.550  66.063  1.00  0.00    -0.356 C  
BRANCH  10  11
HETATM   11  C   UNL     2     -10.723  14.419  66.763  1.00  0.00    -0.292 C  
BRANCH  11  12
HETATM   12  C   UNL     2     -11.200  14.871  68.165  1.00  0.00    -0.310 C  
HETATM   13  C   UNL     2     -11.365  12.562  69.278  1.00  0.00    -0.307 C  
HETATM   14  C   UNL     2     -12.088  13.866  68.934  1.00  0.00    -0.355 C  
HETATM   15  C   UNL     2     -12.580  14.512  70.238  1.00  0.00    -0.378 C  
ENDBRANCH  11  12
BRANCH  11  16
HETATM   16  O   UNL     2     -11.871  14.097  65.982  1.00  0.00    -0.368 OA 
HETATM   17  O   UNL     2     -11.196  11.756  65.803  1.00  0.00    -0.322 OA 
HETATM   18  O   UNL     2     -13.259  12.538  64.730  1.00  0.00    -0.839 OA 
HETATM   19  S   UNL     2     -11.847  12.789  65.002  1.00  0.00    -0.407 S  
HETATM   20  O   UNL     2     -11.066  13.210  63.847  1.00  0.00    -0.388 OA 
ENDBRANCH  11  16
ENDBRANCH  10  11
ENDBRANCH   8  10
ENDBRANCH   4   5
ENDBRANCH   3   4
TORSDOF 6
ENDMDL
MODEL       50
REMARK 921   NORMALIZED FREE ENERGY PREDICTED BY IDOCK:   -4.81 KCAL/MOL
REMARK 922        TOTAL FREE ENERGY PREDICTED BY IDOCK:   -7.70 KCAL/MOL
REMARK 923 INTER-LIGAND FREE ENERGY PREDICTED BY IDOCK:   -6.38 KCAL/MOL
REMARK 924 INTRA-LIGAND FREE ENERGY PREDICTED BY IDOCK:   -1.32 KCAL/MOL
REMARK 927      BINDING AFFINITY PREDICTED BY RF-SCORE:    0.00 PKD
ROOT
HETATM    1 NA   UNL     1     -10.657  15.818  64.147  1.00  0.00    -0.561 Na 
HETATM    2  C   UNL     2     -12.119  12.533  63.205  1.00  0.00    -0.525 C  
HETATM    3  C   UNL     2     -12.828  12.491  64.551  1.00  0.00    -0.352 C  
ENDROOT
BRANCH   3   4
HETATM    4  C   UNL     2     -12.626  13.797  65.318  1.00  0.00    -0.510 C  
BRANCH   4   5
HETATM    5  C   UNL     2     -12.213  13.604  66.780  1.00  0.00    -0.416 C  
HETATM    6  C   UNL     2     -10.795  13.029  67.021  1.00  0.00    -0.278 C  
HETATM    7  C   UNL     2      -9.673  13.821  66.313  1.00  0.00    -0.297 C  
HETATM    8  C   UNL     2     -10.485  12.909  68.533  1.00  0.00    -0.260 C  
HETATM    9  C   UNL     2      -9.451  15.240  66.824  1.00  0.00    -0.264 C  
BRANCH   8  10
HETATM   10  C   UNL     2     -11.454  12.040  69.335  1.00  0.00    -0.361 C  
BRANCH  10  11
HETATM   11  C   UNL     2     -11.082  10.551  69.505  1.00  0.00    -0.268 C  
BRANCH  11  12
HETATM   12  C   UNL     2      -9.627  10.295  69.043  1.00  0.00    -0.210 C  
HETATM   13  C   UNL     2     -10.117   9.489  66.655  1.00  0.00    -0.321 C  
HETATM   14  C   UNL     2      -9.437   9.179  67.990  1.00  0.00    -0.157 C  
HETATM   15  C   UNL     2      -7.937   8.963  67.738  1.00  0.00    -0.102 C  
ENDBRANCH  11  12
BRANCH  11  16
HETATM   16  O   UNL     2     -11.181  10.201  70.883  1.00  0.00    -0.337 OA 
HETATM   17  O   UNL     2     -11.785   7.897  70.341  1.00  0.00    -0.163 OA 
HETATM   18  O   UNL     2     -11.619   8.618  72.680  1.00  0.00    -0.315 OA 
HETATM   19  S   UNL     2     -12.095   8.922  71.333  1.00  0.00    -0.336 S  
HETATM   20  O   UNL     2     -13.466   9.407  71.263  1.00  0.00    -0.350 OA 
ENDBRANCH  11  16
ENDBRANCH  10  11
ENDBRANCH   8  10
ENDBRANCH   4   5
ENDBRANCH   3   4
TORSDOF 6
ENDMDL
MODEL       51
REMARK 921   NORMALIZED FREE ENERGY PREDICTED BY IDOCK:   -4.80 KCAL/MOL
REMARK 922        TOTAL FREE ENERGY PREDICTED BY IDOCK:   -7.68 KCAL/MOL
REMARK 923 INTER-LIGAND FREE ENERGY PREDICTED BY IDOCK:   -7.05 KCAL/MOL
REMARK 924 INTRA-LIGAND FREE ENERGY PREDICTED BY IDOCK:   -0.63 KCAL/MOL
REMARK 927      BINDING AFFINITY PREDICTED BY RF-SCORE:    0.00 PKD
ROOT
HETATM    1 NA   UNL     1     -13.378  11.861  72.726  1.00  0.00    -0.529 Na 
HETATM    2  C   UNL     2     -12.496  15.244  73.988  1.00  0.00    -0.757 C  
HETATM    3  C   UNL     2     -12.777  15.806  72.602  1.00  0.00    -0.546 C  
ENDROOT
BRANCH   3   4
HETATM    4  C   UNL     2     -13.347  14.730  71.679  1.00  0.00    -0.443 C  
BRANCH   4   5
HETATM    5  C   UNL     2     -12.284  13.963  70.885  1.00  0.00    -0.436 C  
HETATM    6  C   UNL     2     -12.180  14.300  69.377  1.00  0.00    -0.319 C  
HETATM    7  C   UNL     2     -11.991  15.806  69.088  1.00  0.00    -0.312 C  
HETATM    8  C   UNL     2     -11.055  13.485  68.694  1.00  0.00    -0.299 C  
HETATM    9  C   UNL     2     -10.673  16.404  69.563  1.00  0.00    -0.325 C  
BRANCH   8  10
HETATM   10  C   UNL     2     -11.191  11.966  68.797  1.00  0.00    -0.314 C  
BRANCH  10  11
HETATM   11  C   UNL     2     -10.673  11.135  67.603  1.00  0.00    -0.230 C  
BRANCH  11  12
HETATM   12  C   UNL     2     -11.009   9.636  67.792  1.00  0.00    -0.203 C  
HETATM   13  C   UNL     2      -8.673   8.659  67.364  1.00  0.00    -0.136 C  
HETATM   14  C   UNL     2     -10.154   8.641  66.976  1.00  0.00    -0.342 C  
HETATM   15  C   UNL     2     -10.695   7.217  67.174  1.00  0.00    -0.422 C  
ENDBRANCH  11  12
BRANCH  11  16
HETATM   16  O   UNL     2     -11.307  11.588  66.410  1.00  0.00    -0.313 OA 
HETATM   17  O   UNL     2      -9.310  11.142  65.077  1.00  0.00    -0.220 OA 
HETATM   18  O   UNL     2     -11.323  12.065  64.023  1.00  0.00    -0.347 OA 
HETATM   19  S   UNL     2     -10.400  12.109  65.153  1.00  0.00    -0.286 S  
HETATM   20  O   UNL     2      -9.970  13.445  65.540  1.00  0.00    -0.275 OA 
ENDBRANCH  11  16
ENDBRANCH  10  11
ENDBRANCH   8  10
ENDBRANCH   4   5
ENDBRANCH   3   4
TORSDOF 6
ENDMDL
MODEL       52
REMARK 921   NORMALIZED FREE ENERGY PREDICTED BY IDOCK:   -4.78 KCAL/MOL
REMARK 922        TOTAL FREE ENERGY PREDICTED BY IDOCK:   -7.67 KCAL/MOL
REMARK 923 INTER-LIGAND FREE ENERGY PREDICTED BY IDOCK:   -6.62 KCAL/MOL
REMARK 924 INTRA-LIGAND FREE ENERGY PREDICTED BY IDOCK:   -1.05 KCAL/MOL
REMARK 927      BINDING AFFINITY PREDICTED BY RF-SCORE:    0.00 PKD
ROOT
HETATM    1 NA   UNL     1      -7.526   8.453  72.463  1.00  0.00    -0.081 Na 
HETATM    2  C   UNL     2     -10.645   6.652  73.380  1.00  0.00    -0.333 C  
HETATM    3  C   UNL     2     -11.442   7.685  72.597  1.00  0.00    -0.403 C  
ENDROOT
BRANCH   3   4
HETATM    4  C   UNL     2     -10.514   8.649  71.860  1.00  0.00    -0.410 C  
BRANCH   4   5
HETATM    5  C   UNL     2     -11.069   9.147  70.522  1.00  0.00    -0.308 C  
HETATM    6  C   UNL     2     -10.233   8.805  69.264  1.00  0.00    -0.215 C  
HETATM    7  C   UNL     2      -9.921   7.299  69.115  1.00  0.00    -0.170 C  
HETATM    8  C   UNL     2     -10.910   9.335  67.976  1.00  0.00    -0.166 C  
HETATM    9  C   UNL     2     -11.126   6.403  68.858  1.00  0.00    -0.420 C  
BRANCH   8  10
HETATM   10  C   UNL     2     -11.161  10.842  67.940  1.00  0.00    -0.387 C  
BRANCH  10  11
HETATM   11  C   UNL     2     -10.889  11.565  66.603  1.00  0.00    -0.287 C  
BRANCH  11  12
HETATM   12  C   UNL     2     -10.480  10.552  65.506  1.00  0.00    -0.220 C  
HETATM   13  C   UNL     2      -7.944  10.551  65.908  1.00  0.00    -0.154 C  
HETATM   14  C   UNL     2      -9.074  10.746  64.894  1.00  0.00    -0.221 C  
HETATM   15  C   UNL     2      -8.875   9.750  63.741  1.00  0.00    -0.259 C  
ENDBRANCH  11  12
BRANCH  11  16
HETATM   16  O   UNL     2     -12.078  12.226  66.180  1.00  0.00    -0.625 OA 
HETATM   17  O   UNL     2     -10.808  14.067  65.200  1.00  0.00    -0.327 OA 
HETATM   18  O   UNL     2     -13.258  14.065  65.107  1.00  0.00    -0.768 OA 
HETATM   19  S   UNL     2     -12.061  13.839  65.911  1.00  0.00    -0.460 S  
HETATM   20  O   UNL     2     -12.095  14.433  67.240  1.00  0.00    -0.406 OA 
ENDBRANCH  11  16
ENDBRANCH  10  11
ENDBRANCH   8  10
ENDBRANCH   4   5
ENDBRANCH   3   4
TORSDOF 6
ENDMDL
MODEL       53
REMARK 921   NORMALIZED FREE ENERGY PREDICTED BY IDOCK:   -4.78 KCAL/MOL
REMARK 922        TOTAL FREE ENERGY PREDICTED BY IDOCK:   -7.66 KCAL/MOL
REMARK 923 INTER-LIGAND FREE ENERGY PREDICTED BY IDOCK:   -7.05 KCAL/MOL
REMARK 924 INTRA-LIGAND FREE ENERGY PREDICTED BY IDOCK:   -0.61 KCAL/MOL
REMARK 927      BINDING AFFINITY PREDICTED BY RF-SCORE:    0.00 PKD
ROOT
HETATM    1 NA   UNL     1     -12.201   7.776  69.586  1.00  0.00    -0.444 Na 
HETATM    2  C   UNL     2      -9.331   6.198  67.828  1.00  0.00    -0.109 C  
HETATM    3  C   UNL     2      -9.438   7.266  66.748  1.00  0.00    -0.218 C  
ENDROOT
BRANCH   3   4
HETATM    4  C   UNL     2     -10.480   8.318  67.121  1.00  0.00    -0.386 C  
BRANCH   4   5
HETATM    5  C   UNL     2      -9.930   9.747  67.178  1.00  0.00    -0.252 C  
HETATM    6  C   UNL     2     -10.252  10.554  68.460  1.00  0.00    -0.190 C  
HETATM    7  C   UNL     2      -9.843   9.836  69.767  1.00  0.00    -0.262 C  
HETATM    8  C   UNL     2      -9.619  11.966  68.412  1.00  0.00    -0.196 C  
HETATM    9  C   UNL     2      -8.344   9.647  69.967  1.00  0.00    -0.197 C  
BRANCH   8  10
HETATM   10  C   UNL     2     -10.044  12.834  67.227  1.00  0.00    -0.226 C  
BRANCH  10  11
HETATM   11  C   UNL     2     -11.538  13.215  67.139  1.00  0.00    -0.361 C  
BRANCH  11  12
HETATM   12  C   UNL     2     -12.011  13.884  68.452  1.00  0.00    -0.391 C  
HETATM   13  C   UNL     2     -10.928  16.189  68.121  1.00  0.00    -0.341 C  
HETATM   14  C   UNL     2     -11.077  14.970  69.033  1.00  0.00    -0.270 C  
HETATM   15  C   UNL     2     -11.619  15.438  70.393  1.00  0.00    -0.352 C  
ENDBRANCH  11  12
BRANCH  11  16
HETATM   16  O   UNL     2     -11.720  14.143  66.073  1.00  0.00    -0.356 OA 
HETATM   17  O   UNL     2     -13.086  12.558  64.813  1.00  0.00    -0.853 OA 
HETATM   18  O   UNL     2     -12.614  14.785  63.902  1.00  0.00    -0.834 OA 
HETATM   19  S   UNL     2     -12.093  13.600  64.576  1.00  0.00    -0.419 S  
HETATM   20  O   UNL     2     -10.834  13.097  64.045  1.00  0.00    -0.390 OA 
ENDBRANCH  11  16
ENDBRANCH  10  11
ENDBRANCH   8  10
ENDBRANCH   4   5
ENDBRANCH   3   4
TORSDOF 6
ENDMDL
MODEL       54
REMARK 921   NORMALIZED FREE ENERGY PREDICTED BY IDOCK:   -4.74 KCAL/MOL
REMARK 922        TOTAL FREE ENERGY PREDICTED BY IDOCK:   -7.61 KCAL/MOL
REMARK 923 INTER-LIGAND FREE ENERGY PREDICTED BY IDOCK:   -6.73 KCAL/MOL
REMARK 924 INTRA-LIGAND FREE ENERGY PREDICTED BY IDOCK:   -0.88 KCAL/MOL
REMARK 927      BINDING AFFINITY PREDICTED BY RF-SCORE:    0.00 PKD
ROOT
HETATM    1 NA   UNL     1      -6.294  11.474  65.582  1.00  0.00    -0.296 Na 
HETATM    2  C   UNL     2      -8.464   9.937  62.984  1.00  0.00    -0.175 C  
HETATM    3  C   UNL     2      -9.654  10.099  63.918  1.00  0.00    -0.302 C  
ENDROOT
BRANCH   3   4
HETATM    4  C   UNL     2      -9.262  10.871  65.177  1.00  0.00    -0.240 C  
BRANCH   4   5
HETATM    5  C   UNL     2     -10.451  11.454  65.947  1.00  0.00    -0.309 C  
HETATM    6  C   UNL     2     -10.748  12.956  65.715  1.00  0.00    -0.293 C  
HETATM    7  C   UNL     2     -10.918  13.334  64.226  1.00  0.00    -0.418 C  
HETATM    8  C   UNL     2     -11.986  13.417  66.523  1.00  0.00    -0.452 C  
HETATM    9  C   UNL     2     -12.136  12.734  63.534  1.00  0.00    -0.642 C  
BRANCH   8  10
HETATM   10  C   UNL     2     -11.894  13.215  68.035  1.00  0.00    -0.398 C  
BRANCH  10  11
HETATM   11  C   UNL     2     -11.589  14.465  68.891  1.00  0.00    -0.306 C  
BRANCH  11  12
HETATM   12  C   UNL     2     -11.246  15.675  67.988  1.00  0.00    -0.339 C  
HETATM   13  C   UNL     2      -8.842  16.086  68.794  1.00  0.00    -0.227 C  
HETATM   14  C   UNL     2     -10.232  16.686  68.569  1.00  0.00    -0.282 C  
HETATM   15  C   UNL     2     -10.100  17.884  67.616  1.00  0.00    -0.350 C  
ENDBRANCH  11  12
BRANCH  11  16
HETATM   16  O   UNL     2     -12.742  14.795  69.661  1.00  0.00    -0.135 OA 
HETATM   17  O   UNL     2     -11.423  14.990  71.707  1.00  0.00    -0.381 OA 
HETATM   18  O   UNL     2     -13.846  15.365  71.753  1.00  0.00    -0.465 OA 
HETATM   19  S   UNL     2     -12.742  14.539  71.276  1.00  0.00    -0.367 S  
HETATM   20  O   UNL     2     -12.944  13.104  71.420  1.00  0.00    -0.354 OA 
ENDBRANCH  11  16
ENDBRANCH  10  11
ENDBRANCH   8  10
ENDBRANCH   4   5
ENDBRANCH   3   4
TORSDOF 6
ENDMDL
MODEL       55
REMARK 921   NORMALIZED FREE ENERGY PREDICTED BY IDOCK:   -4.74 KCAL/MOL
REMARK 922        TOTAL FREE ENERGY PREDICTED BY IDOCK:   -7.61 KCAL/MOL
REMARK 923 INTER-LIGAND FREE ENERGY PREDICTED BY IDOCK:   -6.84 KCAL/MOL
REMARK 924 INTRA-LIGAND FREE ENERGY PREDICTED BY IDOCK:   -0.77 KCAL/MOL
REMARK 927      BINDING AFFINITY PREDICTED BY RF-SCORE:    0.00 PKD
ROOT
HETATM    1 NA   UNL     1     -13.564   8.818  73.284  1.00  0.00    -0.570 Na 
HETATM    2  C   UNL     2     -11.566   5.804  72.425  1.00  0.00    -0.320 C  
HETATM    3  C   UNL     2     -10.382   6.708  72.116  1.00  0.00    -0.222 C  
ENDROOT
BRANCH   3   4
HETATM    4  C   UNL     2     -10.693   8.160  72.473  1.00  0.00    -0.419 C  
BRANCH   4   5
HETATM    5  C   UNL     2     -11.232   8.988  71.302  1.00  0.00    -0.385 C  
HETATM    6  C   UNL     2     -10.191   9.830  70.523  1.00  0.00    -0.321 C  
HETATM    7  C   UNL     2      -8.987   9.010  70.008  1.00  0.00    -0.184 C  
HETATM    8  C   UNL     2     -10.851  10.595  69.349  1.00  0.00    -0.289 C  
HETATM    9  C   UNL     2      -9.310   7.972  68.940  1.00  0.00    -0.150 C  
BRANCH   8  10
HETATM   10  C   UNL     2     -11.982  11.546  69.740  1.00  0.00    -0.415 C  
BRANCH  10  11
HETATM   11  C   UNL     2     -11.890  12.996  69.216  1.00  0.00    -0.316 C  
BRANCH  11  12
HETATM   12  C   UNL     2     -11.390  13.949  70.329  1.00  0.00    -0.007 C  
HETATM   13  C   UNL     2     -13.667  14.658  71.281  1.00  0.00    -0.439 C  
HETATM   14  C   UNL     2     -12.332  15.119  70.692  1.00  0.00    -0.420 C  
HETATM   15  C   UNL     2     -11.638  16.038  71.710  1.00  0.00    -0.534 C  
ENDBRANCH  11  12
BRANCH  11  16
HETATM   16  O   UNL     2     -10.961  13.043  68.137  1.00  0.00    -0.227 OA 
HETATM   17  O   UNL     2     -12.512  14.318  66.746  1.00  0.00    -0.376 OA 
HETATM   18  O   UNL     2     -10.302  13.693  65.886  1.00  0.00    -0.287 OA 
HETATM   19  S   UNL     2     -11.498  13.277  66.610  1.00  0.00    -0.365 S  
HETATM   20  O   UNL     2     -12.038  11.985  66.209  1.00  0.00    -0.596 OA 
ENDBRANCH  11  16
ENDBRANCH  10  11
ENDBRANCH   8  10
ENDBRANCH   4   5
ENDBRANCH   3   4
TORSDOF 6
ENDMDL
MODEL       56
REMARK 921   NORMALIZED FREE ENERGY PREDICTED BY IDOCK:   -4.72 KCAL/MOL
REMARK 922        TOTAL FREE ENERGY PREDICTED BY IDOCK:   -7.59 KCAL/MOL
REMARK 923 INTER-LIGAND FREE ENERGY PREDICTED BY IDOCK:   -6.47 KCAL/MOL
REMARK 924 INTRA-LIGAND FREE ENERGY PREDICTED BY IDOCK:   -1.11 KCAL/MOL
REMARK 927      BINDING AFFINITY PREDICTED BY RF-SCORE:    0.00 PKD
ROOT
HETATM    1 NA   UNL     1     -10.979  17.289  65.924  1.00  0.00    -0.317 Na 
HETATM    2  C   UNL     2      -9.754  20.517  67.301  1.00  0.00    -0.600 C  
HETATM    3  C   UNL     2      -8.459  19.825  67.703  1.00  0.00    -0.361 C  
ENDROOT
BRANCH   3   4
HETATM    4  C   UNL     2      -8.424  18.387  67.189  1.00  0.00    -0.254 C  
BRANCH   4   5
HETATM    5  C   UNL     2      -8.919  17.351  68.202  1.00  0.00    -0.260 C  
HETATM    6  C   UNL     2      -8.379  15.910  68.028  1.00  0.00    -0.161 C  
HETATM    7  C   UNL     2      -6.837  15.824  67.980  1.00  0.00    -0.141 C  
HETATM    8  C   UNL     2      -8.927  14.966  69.126  1.00  0.00    -0.140 C  
HETATM    9  C   UNL     2      -6.120  16.199  69.271  1.00  0.00    -0.146 C  
BRANCH   8  10
HETATM   10  C   UNL     2     -10.450  14.859  69.199  1.00  0.00    -0.246 C  
BRANCH  10  11
HETATM   11  C   UNL     2     -11.096  13.612  68.555  1.00  0.00    -0.275 C  
BRANCH  11  12
HETATM   12  C   UNL     2     -11.722  12.700  69.637  1.00  0.00    -0.373 C  
HETATM   13  C   UNL     2     -10.231  10.635  69.310  1.00  0.00    -0.235 C  
HETATM   14  C   UNL     2     -11.660  11.181  69.361  1.00  0.00    -0.388 C  
HETATM   15  C   UNL     2     -12.433  10.429  70.456  1.00  0.00    -0.403 C  
ENDBRANCH  11  12
BRANCH  11  16
HETATM   16  O   UNL     2     -12.131  14.029  67.668  1.00  0.00    -0.382 OA 
HETATM   17  O   UNL     2     -11.305  12.577  65.886  1.00  0.00    -0.308 OA 
HETATM   18  O   UNL     2     -13.280  13.984  65.523  1.00  0.00    -0.710 OA 
HETATM   19  S   UNL     2     -11.923  13.888  66.052  1.00  0.00    -0.436 S  
HETATM   20  O   UNL     2     -11.047  14.996  65.697  1.00  0.00    -0.337 OA 
ENDBRANCH  11  16
ENDBRANCH  10  11
ENDBRANCH   8  10
ENDBRANCH   4   5
ENDBRANCH   3   4
TORSDOF 6
ENDMDL
MODEL       57
REMARK 921   NORMALIZED FREE ENERGY PREDICTED BY IDOCK:   -4.72 KCAL/MOL
REMARK 922        TOTAL FREE ENERGY PREDICTED BY IDOCK:   -7.58 KCAL/MOL
REMARK 923 INTER-LIGAND FREE ENERGY PREDICTED BY IDOCK:   -7.29 KCAL/MOL
REMARK 924 INTRA-LIGAND FREE ENERGY PREDICTED BY IDOCK:   -0.29 KCAL/MOL
REMARK 927      BINDING AFFINITY PREDICTED BY RF-SCORE:    0.00 PKD
ROOT
HETATM    1 NA   UNL     1      -8.709  11.700  63.238  1.00  0.00    -0.346 Na 
HETATM    2  C   UNL     2     -12.151  13.100  63.333  1.00  0.00    -0.558 C  
HETATM    3  C   UNL     2     -11.764  13.903  64.566  1.00  0.00    -0.430 C  
ENDROOT
BRANCH   3   4
HETATM    4  C   UNL     2     -10.274  13.753  64.871  1.00  0.00    -0.374 C  
BRANCH   4   5
HETATM    5  C   UNL     2      -9.934  13.823  66.364  1.00  0.00    -0.301 C  
HETATM    6  C   UNL     2     -11.106  13.579  67.346  1.00  0.00    -0.300 C  
HETATM    7  C   UNL     2     -11.863  12.255  67.095  1.00  0.00    -0.328 C  
HETATM    8  C   UNL     2     -10.631  13.647  68.818  1.00  0.00    -0.247 C  
HETATM    9  C   UNL     2     -11.061  10.984  67.352  1.00  0.00    -0.370 C  
BRANCH   8  10
HETATM   10  C   UNL     2      -9.974  14.962  69.235  1.00  0.00    -0.181 C  
BRANCH  10  11
HETATM   11  C   UNL     2     -10.915  16.154  69.520  1.00  0.00    -0.341 C  
BRANCH  11  12
HETATM   12  C   UNL     2     -11.012  17.082  68.285  1.00  0.00    -0.269 C  
HETATM   13  C   UNL     2      -8.746  18.269  68.515  1.00  0.00    -0.325 C  
HETATM   14  C   UNL     2     -10.263  18.430  68.390  1.00  0.00    -0.407 C  
HETATM   15  C   UNL     2     -10.565  19.281  67.147  1.00  0.00    -0.575 C  
ENDBRANCH  11  12
BRANCH  11  16
HETATM   16  O   UNL     2     -12.219  15.659  69.812  1.00  0.00    -0.360 OA 
HETATM   17  O   UNL     2     -12.118  16.499  72.103  1.00  0.00    -0.419 OA 
HETATM   18  O   UNL     2     -14.106  15.303  71.307  1.00  0.00    -0.486 OA 
HETATM   19  S   UNL     2     -12.648  15.360  71.361  1.00  0.00    -0.443 S  
HETATM   20  O   UNL     2     -11.998  14.098  71.685  1.00  0.00    -0.230 OA 
ENDBRANCH  11  16
ENDBRANCH  10  11
ENDBRANCH   8  10
ENDBRANCH   4   5
ENDBRANCH   3   4
TORSDOF 6
ENDMDL
MODEL       58
REMARK 921   NORMALIZED FREE ENERGY PREDICTED BY IDOCK:   -4.72 KCAL/MOL
REMARK 922        TOTAL FREE ENERGY PREDICTED BY IDOCK:   -7.58 KCAL/MOL
REMARK 923 INTER-LIGAND FREE ENERGY PREDICTED BY IDOCK:   -6.48 KCAL/MOL
REMARK 924 INTRA-LIGAND FREE ENERGY PREDICTED BY IDOCK:   -1.10 KCAL/MOL
REMARK 927      BINDING AFFINITY PREDICTED BY RF-SCORE:    0.00 PKD
ROOT
HETATM    1 NA   UNL     1     -14.033  14.229  65.370  1.00  0.00    -0.803 Na 
HETATM    2  C   UNL     2     -10.795  16.021  65.024  1.00  0.00    -0.421 C  
HETATM    3  C   UNL     2     -10.513  15.743  66.494  1.00  0.00    -0.304 C  
ENDROOT
BRANCH   3   4
HETATM    4  C   UNL     2     -11.588  14.840  67.097  1.00  0.00    -0.373 C  
BRANCH   4   5
HETATM    5  C   UNL     2     -11.081  13.454  67.505  1.00  0.00    -0.294 C  
HETATM    6  C   UNL     2     -11.736  12.247  66.788  1.00  0.00    -0.411 C  
HETATM    7  C   UNL     2     -11.683  12.335  65.246  1.00  0.00    -0.413 C  
HETATM    8  C   UNL     2     -11.120  10.908  67.263  1.00  0.00    -0.350 C  
HETATM    9  C   UNL     2     -10.290  12.256  64.634  1.00  0.00    -0.330 C  
BRANCH   8  10
HETATM   10  C   UNL     2     -11.221  10.636  68.764  1.00  0.00    -0.337 C  
BRANCH  10  11
HETATM   11  C   UNL     2     -10.857   9.213  69.243  1.00  0.00    -0.132 C  
BRANCH  11  12
HETATM   12  C   UNL     2      -9.477   8.785  68.687  1.00  0.00    -0.143 C  
HETATM   13  C   UNL     2     -10.283   7.343  66.721  1.00  0.00    -0.313 C  
HETATM   14  C   UNL     2      -9.426   7.408  67.988  1.00  0.00    -0.146 C  
HETATM   15  C   UNL     2      -7.973   7.077  67.613  1.00  0.00    -0.114 C  
ENDBRANCH  11  12
BRANCH  11  16
HETATM   16  O   UNL     2     -10.788   9.204  70.666  1.00  0.00    -0.230 OA 
HETATM   17  O   UNL     2     -11.964   7.067  70.794  1.00  0.00    -0.349 OA 
HETATM   18  O   UNL     2     -11.239   8.207  72.840  1.00  0.00    -0.381 OA 
HETATM   19  S   UNL     2     -11.865   8.325  71.527  1.00  0.00    -0.307 S  
HETATM   20  O   UNL     2     -13.088   9.114  71.500  1.00  0.00    -0.333 OA 
ENDBRANCH  11  16
ENDBRANCH  10  11
ENDBRANCH   8  10
ENDBRANCH   4   5
ENDBRANCH   3   4
TORSDOF 6
ENDMDL
MODEL       59
REMARK 921   NORMALIZED FREE ENERGY PREDICTED BY IDOCK:   -4.72 KCAL/MOL
REMARK 922        TOTAL FREE ENERGY PREDICTED BY IDOCK:   -7.58 KCAL/MOL
REMARK 923 INTER-LIGAND FREE ENERGY PREDICTED BY IDOCK:   -7.10 KCAL/MOL
REMARK 924 INTRA-LIGAND FREE ENERGY PREDICTED BY IDOCK:   -0.48 KCAL/MOL
REMARK 927      BINDING AFFINITY PREDICTED BY RF-SCORE:    0.00 PKD
ROOT
HETATM    1 NA   UNL     1     -10.711  16.086  64.316  1.00  0.00    -0.446 Na 
HETATM    2  C   UNL     2     -11.802  12.672  63.330  1.00  0.00    -0.594 C  
HETATM    3  C   UNL     2     -12.650  12.606  64.592  1.00  0.00    -0.517 C  
ENDROOT
BRANCH   3   4
HETATM    4  C   UNL     2     -12.636  13.943  65.332  1.00  0.00    -0.538 C  
BRANCH   4   5
HETATM    5  C   UNL     2     -12.278  13.829  66.818  1.00  0.00    -0.440 C  
HETATM    6  C   UNL     2     -10.981  13.053  67.153  1.00  0.00    -0.293 C  
HETATM    7  C   UNL     2      -9.733  13.576  66.405  1.00  0.00    -0.296 C  
HETATM    8  C   UNL     2     -10.714  13.034  68.677  1.00  0.00    -0.273 C  
HETATM    9  C   UNL     2      -9.282  14.981  66.785  1.00  0.00    -0.280 C  
BRANCH   8  10
HETATM   10  C   UNL     2     -11.825  12.420  69.530  1.00  0.00    -0.368 C  
BRANCH  10  11
HETATM   11  C   UNL     2     -11.537  11.044  70.169  1.00  0.00    -0.334 C  
BRANCH  11  12
HETATM   12  C   UNL     2     -12.718  10.600  71.066  1.00  0.00    -0.512 C  
HETATM   13  C   UNL     2     -11.586   8.617  72.240  1.00  0.00    -0.424 C  
HETATM   14  C   UNL     2     -12.779   9.094  71.409  1.00  0.00    -0.383 C  
HETATM   15  C   UNL     2     -14.069   8.799  72.190  1.00  0.00    -0.519 C  
ENDBRANCH  11  12
BRANCH  11  16
HETATM   16  O   UNL     2     -11.372  10.076  69.137  1.00  0.00    -0.189 OA 
HETATM   17  O   UNL     2      -9.403   9.126  70.226  1.00  0.00    -0.185 OA 
HETATM   18  O   UNL     2     -10.209   8.205  68.101  1.00  0.00    -0.196 OA 
HETATM   19  S   UNL     2      -9.905   9.399  68.883  1.00  0.00    -0.177 S  
HETATM   20  O   UNL     2      -9.147  10.420  68.173  1.00  0.00    -0.137 OA 
ENDBRANCH  11  16
ENDBRANCH  10  11
ENDBRANCH   8  10
ENDBRANCH   4   5
ENDBRANCH   3   4
TORSDOF 6
ENDMDL
MODEL       60
REMARK 921   NORMALIZED FREE ENERGY PREDICTED BY IDOCK:   -4.68 KCAL/MOL
REMARK 922        TOTAL FREE ENERGY PREDICTED BY IDOCK:   -7.53 KCAL/MOL
REMARK 923 INTER-LIGAND FREE ENERGY PREDICTED BY IDOCK:   -6.81 KCAL/MOL
REMARK 924 INTRA-LIGAND FREE ENERGY PREDICTED BY IDOCK:   -0.72 KCAL/MOL
REMARK 927      BINDING AFFINITY PREDICTED BY RF-SCORE:    0.00 PKD
ROOT
HETATM    1 NA   UNL     1     -11.525  12.353  70.687  1.00  0.00    -0.432 Na 
HETATM    2  C   UNL     2     -13.349   9.569  72.341  1.00  0.00    -0.469 C  
HETATM    3  C   UNL     2     -12.244   8.618  71.902  1.00  0.00    -0.419 C  
ENDROOT
BRANCH   3   4
HETATM    4  C   UNL     2     -11.097   9.380  71.241  1.00  0.00    -0.446 C  
BRANCH   4   5
HETATM    5  C   UNL     2     -11.285   9.607  69.737  1.00  0.00    -0.208 C  
HETATM    6  C   UNL     2     -10.164   9.065  68.817  1.00  0.00    -0.226 C  
HETATM    7  C   UNL     2      -9.853   7.566  69.033  1.00  0.00    -0.170 C  
HETATM    8  C   UNL     2     -10.482   9.329  67.325  1.00  0.00    -0.334 C  
HETATM    9  C   UNL     2     -10.970   6.604  68.651  1.00  0.00    -0.317 C  
BRANCH   8  10
HETATM   10  C   UNL     2     -10.689  10.796  66.949  1.00  0.00    -0.309 C  
BRANCH  10  11
HETATM   11  C   UNL     2     -10.151  11.247  65.573  1.00  0.00    -0.257 C  
BRANCH  11  12
HETATM   12  C   UNL     2      -9.290  10.133  64.930  1.00  0.00    -0.310 C  
HETATM   13  C   UNL     2      -8.832  11.258  62.667  1.00  0.00    -0.259 C  
HETATM   14  C   UNL     2      -9.368  10.021  63.390  1.00  0.00    -0.300 C  
HETATM   15  C   UNL     2      -8.566   8.796  62.925  1.00  0.00    -0.112 C  
ENDBRANCH  11  12
BRANCH  11  16
HETATM   16  O   UNL     2     -11.251  11.517  64.708  1.00  0.00    -0.274 OA 
HETATM   17  O   UNL     2     -10.506  13.813  64.336  1.00  0.00    -0.422 OA 
HETATM   18  O   UNL     2     -12.547  12.983  63.260  1.00  0.00    -0.696 OA 
HETATM   19  S   UNL     2     -11.747  13.058  64.479  1.00  0.00    -0.394 S  
HETATM   20  O   UNL     2     -12.495  13.387  65.683  1.00  0.00    -0.456 OA 
ENDBRANCH  11  16
ENDBRANCH  10  11
ENDBRANCH   8  10
ENDBRANCH   4   5
ENDBRANCH   3   4
TORSDOF 6
ENDMDL
MODEL       61
REMARK 921   NORMALIZED FREE ENERGY PREDICTED BY IDOCK:   -4.68 KCAL/MOL
REMARK 922        TOTAL FREE ENERGY PREDICTED BY IDOCK:   -7.53 KCAL/MOL
REMARK 923 INTER-LIGAND FREE ENERGY PREDICTED BY IDOCK:   -6.81 KCAL/MOL
REMARK 924 INTRA-LIGAND FREE ENERGY PREDICTED BY IDOCK:   -0.71 KCAL/MOL
REMARK 927      BINDING AFFINITY PREDICTED BY RF-SCORE:    0.00 PKD
ROOT
HETATM    1 NA   UNL     1     -13.436  12.140  71.468  1.00  0.00    -0.357 Na 
HETATM    2  C   UNL     2     -14.398   8.572  71.866  1.00  0.00    -0.536 C  
HETATM    3  C   UNL     2     -12.927   8.192  71.783  1.00  0.00    -0.364 C  
ENDROOT
BRANCH   3   4
HETATM    4  C   UNL     2     -12.041   9.436  71.745  1.00  0.00    -0.454 C  
BRANCH   4   5
HETATM    5  C   UNL     2     -12.060  10.173  70.401  1.00  0.00    -0.332 C  
HETATM    6  C   UNL     2     -10.681  10.452  69.755  1.00  0.00    -0.325 C  
HETATM    7  C   UNL     2      -9.804   9.190  69.590  1.00  0.00    -0.188 C  
HETATM    8  C   UNL     2     -10.833  11.171  68.392  1.00  0.00    -0.248 C  
HETATM    9  C   UNL     2     -10.329   8.151  68.606  1.00  0.00    -0.224 C  
BRANCH   8  10
HETATM   10  C   UNL     2     -11.577  12.507  68.435  1.00  0.00    -0.368 C  
BRANCH  10  11
HETATM   11  C   UNL     2     -11.180  13.563  67.380  1.00  0.00    -0.295 C  
BRANCH  11  12
HETATM   12  C   UNL     2     -12.000  13.373  66.081  1.00  0.00    -0.460 C  
HETATM   13  C   UNL     2     -10.383  11.823  64.827  1.00  0.00    -0.333 C  
HETATM   14  C   UNL     2     -11.182  13.128  64.793  1.00  0.00    -0.347 C  
HETATM   15  C   UNL     2     -12.129  13.091  63.584  1.00  0.00    -0.604 C  
ENDBRANCH  11  12
BRANCH  11  16
HETATM   16  O   UNL     2     -11.454  14.862  67.897  1.00  0.00    -0.318 OA 
HETATM   17  O   UNL     2      -9.338  15.738  67.049  1.00  0.00    -0.210 OA 
HETATM   18  O   UNL     2     -10.878  17.196  68.281  1.00  0.00    -0.369 OA 
HETATM   19  S   UNL     2     -10.222  15.894  68.199  1.00  0.00    -0.237 S  
HETATM   20  O   UNL     2      -9.644  15.420  69.448  1.00  0.00    -0.246 OA 
ENDBRANCH  11  16
ENDBRANCH  10  11
ENDBRANCH   8  10
ENDBRANCH   4   5
ENDBRANCH   3   4
TORSDOF 6
ENDMDL
MODEL       62
REMARK 921   NORMALIZED FREE ENERGY PREDICTED BY IDOCK:   -4.65 KCAL/MOL
REMARK 922        TOTAL FREE ENERGY PREDICTED BY IDOCK:   -7.49 KCAL/MOL
REMARK 923 INTER-LIGAND FREE ENERGY PREDICTED BY IDOCK:   -6.71 KCAL/MOL
REMARK 924 INTRA-LIGAND FREE ENERGY PREDICTED BY IDOCK:   -0.77 KCAL/MOL
REMARK 927      BINDING AFFINITY PREDICTED BY RF-SCORE:    0.00 PKD
ROOT
HETATM    1 NA   UNL     1     -10.095   9.179  62.481  1.00  0.00    -0.514 Na 
HETATM    2  C   UNL     2      -9.510   8.150  66.004  1.00  0.00    -0.158 C  
HETATM    3  C   UNL     2      -9.426   9.619  66.393  1.00  0.00    -0.244 C  
ENDROOT
BRANCH   3   4
HETATM    4  C   UNL     2      -9.761  10.520  65.206  1.00  0.00    -0.328 C  
BRANCH   4   5
HETATM    5  C   UNL     2     -10.054  11.973  65.590  1.00  0.00    -0.272 C  
HETATM    6  C   UNL     2     -10.359  12.942  64.421  1.00  0.00    -0.393 C  
HETATM    7  C   UNL     2     -11.497  12.460  63.493  1.00  0.00    -0.561 C  
HETATM    8  C   UNL     2     -10.666  14.369  64.937  1.00  0.00    -0.444 C  
HETATM    9  C   UNL     2     -12.880  12.402  64.130  1.00  0.00    -0.364 C  
BRANCH   8  10
HETATM   10  C   UNL     2      -9.560  15.018  65.769  1.00  0.00    -0.327 C  
BRANCH  10  11
HETATM   11  C   UNL     2     -10.004  15.918  66.944  1.00  0.00    -0.249 C  
BRANCH  11  12
HETATM   12  C   UNL     2     -10.417  17.320  66.434  1.00  0.00    -0.263 C  
HETATM   13  C   UNL     2      -8.684  18.720  67.711  1.00  0.00    -0.309 C  
HETATM   14  C   UNL     2     -10.167  18.495  67.406  1.00  0.00    -0.401 C  
HETATM   15  C   UNL     2     -10.745  19.786  66.808  1.00  0.00    -0.526 C  
ENDBRANCH  11  12
BRANCH  11  16
HETATM   16  O   UNL     2     -11.132  15.325  67.584  1.00  0.00    -0.307 OA 
HETATM   17  O   UNL     2     -10.124  15.591  69.793  1.00  0.00    -0.270 OA 
HETATM   18  O   UNL     2     -12.336  14.559  69.555  1.00  0.00    -0.291 OA 
HETATM   19  S   UNL     2     -10.964  14.648  69.063  1.00  0.00    -0.267 S  
HETATM   20  O   UNL     2     -10.320  13.367  68.809  1.00  0.00    -0.227 OA 
ENDBRANCH  11  16
ENDBRANCH  10  11
ENDBRANCH   8  10
ENDBRANCH   4   5
ENDBRANCH   3   4
TORSDOF 6
ENDMDL
MODEL       63
REMARK 921   NORMALIZED FREE ENERGY PREDICTED BY IDOCK:   -4.64 KCAL/MOL
REMARK 922        TOTAL FREE ENERGY PREDICTED BY IDOCK:   -7.48 KCAL/MOL
REMARK 923 INTER-LIGAND FREE ENERGY PREDICTED BY IDOCK:   -6.53 KCAL/MOL
REMARK 924 INTRA-LIGAND FREE ENERGY PREDICTED BY IDOCK:   -0.95 KCAL/MOL
REMARK 927      BINDING AFFINITY PREDICTED BY RF-SCORE:    0.00 PKD
ROOT
HETATM    1 NA   UNL     1     -12.098  15.991  63.349  1.00  0.00    -0.901 Na 
HETATM    2  C   UNL     2     -10.412  17.810  66.116  1.00  0.00    -0.301 C  
HETATM    3  C   UNL     2      -9.740  16.508  66.529  1.00  0.00    -0.290 C  
ENDROOT
BRANCH   3   4
HETATM    4  C   UNL     2     -10.043  15.395  65.528  1.00  0.00    -0.405 C  
BRANCH   4   5
HETATM    5  C   UNL     2     -10.155  14.003  66.159  1.00  0.00    -0.319 C  
HETATM    6  C   UNL     2     -11.574  13.562  66.597  1.00  0.00    -0.396 C  
HETATM    7  C   UNL     2     -12.630  13.657  65.472  1.00  0.00    -0.541 C  
HETATM    8  C   UNL     2     -11.561  12.132  67.189  1.00  0.00    -0.405 C  
HETATM    9  C   UNL     2     -12.427  12.704  64.301  1.00  0.00    -0.494 C  
BRANCH   8  10
HETATM   10  C   UNL     2     -10.646  11.931  68.398  1.00  0.00    -0.239 C  
BRANCH  10  11
HETATM   11  C   UNL     2     -10.027  10.528  68.581  1.00  0.00    -0.181 C  
BRANCH  11  12
HETATM   12  C   UNL     2      -8.691  10.414  67.809  1.00  0.00    -0.122 C  
HETATM   13  C   UNL     2      -9.540   9.123  65.758  1.00  0.00    -0.323 C  
HETATM   14  C   UNL     2      -8.533   9.167  66.909  1.00  0.00    -0.124 C  
HETATM   15  C   UNL     2      -7.114   9.136  66.320  1.00  0.00    -0.087 C  
ENDBRANCH  11  12
BRANCH  11  16
HETATM   16  O   UNL     2      -9.764  10.312  69.965  1.00  0.00    -0.160 OA 
HETATM   17  O   UNL     2     -11.216   8.349  70.023  1.00  0.00    -0.206 OA 
HETATM   18  O   UNL     2     -10.052   9.091  72.051  1.00  0.00    -0.327 OA 
HETATM   19  S   UNL     2     -10.830   9.470  70.875  1.00  0.00    -0.358 S  
HETATM   20  O   UNL     2     -11.913  10.407  71.134  1.00  0.00    -0.352 OA 
ENDBRANCH  11  16
ENDBRANCH  10  11
ENDBRANCH   8  10
ENDBRANCH   4   5
ENDBRANCH   3   4
TORSDOF 6
ENDMDL
MODEL       64
REMARK 921   NORMALIZED FREE ENERGY PREDICTED BY IDOCK:   -4.63 KCAL/MOL
REMARK 922        TOTAL FREE ENERGY PREDICTED BY IDOCK:   -7.46 KCAL/MOL
REMARK 923 INTER-LIGAND FREE ENERGY PREDICTED BY IDOCK:   -6.62 KCAL/MOL
REMARK 924 INTRA-LIGAND FREE ENERGY PREDICTED BY IDOCK:   -0.85 KCAL/MOL
REMARK 927      BINDING AFFINITY PREDICTED BY RF-SCORE:    0.00 PKD
ROOT
HETATM    1 NA   UNL     1      -8.931   7.913  71.491  1.00  0.00    -0.118 Na 
HETATM    2  C   UNL     2     -12.636   7.611  71.461  1.00  0.00    -0.369 C  
HETATM    3  C   UNL     2     -12.732   9.119  71.274  1.00  0.00    -0.340 C  
ENDROOT
BRANCH   3   4
HETATM    4  C   UNL     2     -11.348   9.736  71.080  1.00  0.00    -0.460 C  
BRANCH   4   5
HETATM    5  C   UNL     2     -11.231  10.627  69.839  1.00  0.00    -0.378 C  
HETATM    6  C   UNL     2      -9.932  10.480  69.010  1.00  0.00    -0.223 C  
HETATM    7  C   UNL     2      -9.630   9.027  68.578  1.00  0.00    -0.161 C  
HETATM    8  C   UNL     2      -9.947  11.407  67.770  1.00  0.00    -0.192 C  
HETATM    9  C   UNL     2     -10.619   8.418  67.592  1.00  0.00    -0.265 C  
BRANCH   8  10
HETATM   10  C   UNL     2     -10.112  12.898  68.068  1.00  0.00    -0.235 C  
BRANCH  10  11
HETATM   11  C   UNL     2     -11.413  13.570  67.575  1.00  0.00    -0.329 C  
BRANCH  11  12
HETATM   12  C   UNL     2     -12.156  14.251  68.750  1.00  0.00    -0.300 C  
HETATM   13  C   UNL     2     -10.389  16.014  69.353  1.00  0.00    -0.272 C  
HETATM   14  C   UNL     2     -11.262  14.861  69.854  1.00  0.00    -0.307 C  
HETATM   15  C   UNL     2     -12.145  15.378  71.000  1.00  0.00    -0.417 C  
ENDBRANCH  11  12
BRANCH  11  16
HETATM   16  O   UNL     2     -11.085  14.569  66.614  1.00  0.00    -0.318 OA 
HETATM   17  O   UNL     2     -12.954  13.923  65.180  1.00  0.00    -0.744 OA 
HETATM   18  O   UNL     2     -11.456  15.749  64.517  1.00  0.00    -0.417 OA 
HETATM   19  S   UNL     2     -11.580  14.401  65.065  1.00  0.00    -0.392 S  
HETATM   20  O   UNL     2     -10.667  13.422  64.492  1.00  0.00    -0.380 OA 
ENDBRANCH  11  16
ENDBRANCH  10  11
ENDBRANCH   8  10
ENDBRANCH   4   5
ENDBRANCH   3   4
TORSDOF 6
ENDMDL
MODEL       65
REMARK 921   NORMALIZED FREE ENERGY PREDICTED BY IDOCK:   -4.61 KCAL/MOL
REMARK 922        TOTAL FREE ENERGY PREDICTED BY IDOCK:   -7.44 KCAL/MOL
REMARK 923 INTER-LIGAND FREE ENERGY PREDICTED BY IDOCK:   -6.62 KCAL/MOL
REMARK 924 INTRA-LIGAND FREE ENERGY PREDICTED BY IDOCK:   -0.82 KCAL/MOL
REMARK 927      BINDING AFFINITY PREDICTED BY RF-SCORE:    0.00 PKD
ROOT
HETATM    1 NA   UNL     1     -11.734   7.582  67.276  1.00  0.00    -0.517 Na 
HETATM    2  C   UNL     2      -9.822   9.400  69.894  1.00  0.00    -0.235 C  
HETATM    3  C   UNL     2     -10.276  10.715  69.278  1.00  0.00    -0.235 C  
ENDROOT
BRANCH   3   4
HETATM    4  C   UNL     2     -11.278  10.474  68.150  1.00  0.00    -0.357 C  
BRANCH   4   5
HETATM    5  C   UNL     2     -11.522  11.697  67.260  1.00  0.00    -0.350 C  
HETATM    6  C   UNL     2     -10.260  12.397  66.699  1.00  0.00    -0.241 C  
HETATM    7  C   UNL     2      -9.304  11.446  65.943  1.00  0.00    -0.247 C  
HETATM    8  C   UNL     2     -10.636  13.596  65.794  1.00  0.00    -0.285 C  
HETATM    9  C   UNL     2      -9.854  10.857  64.649  1.00  0.00    -0.350 C  
BRANCH   8  10
HETATM   10  C   UNL     2     -11.481  14.681  66.462  1.00  0.00    -0.354 C  
BRANCH  10  11
HETATM   11  C   UNL     2     -10.727  15.738  67.299  1.00  0.00    -0.313 C  
BRANCH  11  12
HETATM   12  C   UNL     2     -10.564  17.054  66.501  1.00  0.00    -0.172 C  
HETATM   13  C   UNL     2      -9.142  18.359  68.196  1.00  0.00    -0.325 C  
HETATM   14  C   UNL     2     -10.413  18.342  67.342  1.00  0.00    -0.430 C  
HETATM   15  C   UNL     2     -10.393  19.563  66.410  1.00  0.00    -0.594 C  
ENDBRANCH  11  12
BRANCH  11  16
HETATM   16  O   UNL     2     -11.477  16.019  68.478  1.00  0.00    -0.370 OA 
HETATM   17  O   UNL     2      -9.581  15.473  69.917  1.00  0.00    -0.275 OA 
HETATM   18  O   UNL     2     -11.718  16.175  70.895  1.00  0.00    -0.398 OA 
HETATM   19  S   UNL     2     -11.035  15.350  69.903  1.00  0.00    -0.319 S  
HETATM   20  O   UNL     2     -11.505  13.974  69.823  1.00  0.00    -0.258 OA 
ENDBRANCH  11  16
ENDBRANCH  10  11
ENDBRANCH   8  10
ENDBRANCH   4   5
ENDBRANCH   3   4
TORSDOF 6
ENDMDL
MODEL       66
REMARK 921   NORMALIZED FREE ENERGY PREDICTED BY IDOCK:   -4.61 KCAL/MOL
REMARK 922        TOTAL FREE ENERGY PREDICTED BY IDOCK:   -7.43 KCAL/MOL
REMARK 923 INTER-LIGAND FREE ENERGY PREDICTED BY IDOCK:   -6.56 KCAL/MOL
REMARK 924 INTRA-LIGAND FREE ENERGY PREDICTED BY IDOCK:   -0.87 KCAL/MOL
REMARK 927      BINDING AFFINITY PREDICTED BY RF-SCORE:    0.00 PKD
ROOT
HETATM    1 NA   UNL     1     -11.121  12.149  70.631  1.00  0.00    -0.487 Na 
HETATM    2  C   UNL     2     -12.814  14.866  72.519  1.00  0.00    -0.457 C  
HETATM    3  C   UNL     2     -13.139  15.547  71.197  1.00  0.00    -0.573 C  
ENDROOT
BRANCH   3   4
HETATM    4  C   UNL     2     -12.728  14.672  70.014  1.00  0.00    -0.197 C  
BRANCH   4   5
HETATM    5  C   UNL     2     -11.583  15.253  69.178  1.00  0.00    -0.349 C  
HETATM    6  C   UNL     2     -10.719  14.233  68.397  1.00  0.00    -0.257 C  
HETATM    7  C   UNL     2     -11.539  13.290  67.487  1.00  0.00    -0.388 C  
HETATM    8  C   UNL     2      -9.619  14.942  67.570  1.00  0.00    -0.204 C  
HETATM    9  C   UNL     2     -12.243  13.961  66.314  1.00  0.00    -0.498 C  
BRANCH   8  10
HETATM   10  C   UNL     2      -8.653  15.813  68.373  1.00  0.00    -0.171 C  
BRANCH  10  11
HETATM   11  C   UNL     2      -8.277  17.183  67.767  1.00  0.00    -0.197 C  
BRANCH  11  12
HETATM   12  C   UNL     2      -9.438  17.738  66.906  1.00  0.00    -0.271 C  
HETATM   13  C   UNL     2      -8.280  19.848  66.012  1.00  0.00    -0.310 C  
HETATM   14  C   UNL     2      -9.491  19.275  66.751  1.00  0.00    -0.386 C  
HETATM   15  C   UNL     2     -10.764  19.668  65.985  1.00  0.00    -0.527 C  
ENDBRANCH  11  12
BRANCH  11  16
HETATM   16  O   UNL     2      -8.023  18.106  68.823  1.00  0.00    -0.300 OA 
HETATM   17  O   UNL     2      -5.822  18.661  67.923  1.00  0.00    -0.186 OA 
HETATM   18  O   UNL     2      -6.624  19.725  69.981  1.00  0.00    -0.320 OA 
HETATM   19  S   UNL     2      -6.483  18.493  69.213  1.00  0.00    -0.237 S  
HETATM   20  O   UNL     2      -5.998  17.349  69.973  1.00  0.00    -0.247 OA 
ENDBRANCH  11  16
ENDBRANCH  10  11
ENDBRANCH   8  10
ENDBRANCH   4   5
ENDBRANCH   3   4
TORSDOF 6
ENDMDL
MODEL       67
REMARK 921   NORMALIZED FREE ENERGY PREDICTED BY IDOCK:   -4.60 KCAL/MOL
REMARK 922        TOTAL FREE ENERGY PREDICTED BY IDOCK:   -7.42 KCAL/MOL
REMARK 923 INTER-LIGAND FREE ENERGY PREDICTED BY IDOCK:   -6.52 KCAL/MOL
REMARK 924 INTRA-LIGAND FREE ENERGY PREDICTED BY IDOCK:   -0.91 KCAL/MOL
REMARK 927      BINDING AFFINITY PREDICTED BY RF-SCORE:    0.00 PKD
ROOT
HETATM    1 NA   UNL     1     -11.223  18.628  64.949  1.00  0.00    -0.501 Na 
HETATM    2  C   UNL     2      -8.525  19.333  67.406  1.00  0.00    -0.318 C  
HETATM    3  C   UNL     2      -9.387  18.708  68.494  1.00  0.00    -0.379 C  
ENDROOT
BRANCH   3   4
HETATM    4  C   UNL     2     -10.656  18.096  67.903  1.00  0.00    -0.389 C  
BRANCH   4   5
HETATM    5  C   UNL     2     -10.606  16.572  67.760  1.00  0.00    -0.332 C  
HETATM    6  C   UNL     2     -10.176  15.780  69.020  1.00  0.00    -0.224 C  
HETATM    7  C   UNL     2     -11.012  16.110  70.277  1.00  0.00    -0.345 C  
HETATM    8  C   UNL     2     -10.193  14.254  68.759  1.00  0.00    -0.226 C  
HETATM    9  C   UNL     2     -12.478  15.696  70.216  1.00  0.00    -0.369 C  
BRANCH   8  10
HETATM   10  C   UNL     2      -9.301  13.775  67.614  1.00  0.00    -0.213 C  
BRANCH  10  11
HETATM   11  C   UNL     2      -9.918  12.764  66.623  1.00  0.00    -0.245 C  
BRANCH  11  12
HETATM   12  C   UNL     2     -10.188  11.408  67.320  1.00  0.00    -0.229 C  
HETATM   13  C   UNL     2      -8.253  10.060  66.303  1.00  0.00    -0.124 C  
HETATM   14  C   UNL     2      -9.763  10.146  66.536  1.00  0.00    -0.252 C  
HETATM   15  C   UNL     2     -10.214   8.892  67.300  1.00  0.00    -0.326 C  
ENDBRANCH  11  12
BRANCH  11  16
HETATM   16  O   UNL     2     -11.160  13.276  66.147  1.00  0.00    -0.282 OA 
HETATM   17  O   UNL     2     -10.538  12.860  63.822  1.00  0.00    -0.390 OA 
HETATM   18  O   UNL     2     -12.713  13.854  64.364  1.00  0.00    -0.656 OA 
HETATM   19  S   UNL     2     -11.275  13.837  64.616  1.00  0.00    -0.381 S  
HETATM   20  O   UNL     2     -10.646  15.150  64.657  1.00  0.00    -0.339 OA 
ENDBRANCH  11  16
ENDBRANCH  10  11
ENDBRANCH   8  10
ENDBRANCH   4   5
ENDBRANCH   3   4
TORSDOF 6
ENDMDL
MODEL       68
REMARK 921   NORMALIZED FREE ENERGY PREDICTED BY IDOCK:   -4.58 KCAL/MOL
REMARK 922        TOTAL FREE ENERGY PREDICTED BY IDOCK:   -7.40 KCAL/MOL
REMARK 923 INTER-LIGAND FREE ENERGY PREDICTED BY IDOCK:   -6.32 KCAL/MOL
REMARK 924 INTRA-LIGAND FREE ENERGY PREDICTED BY IDOCK:   -1.07 KCAL/MOL
REMARK 927      BINDING AFFINITY PREDICTED BY RF-SCORE:    0.00 PKD
ROOT
HETATM    1 NA   UNL     1     -13.738  12.500  71.686  1.00  0.00    -0.376 Na 
HETATM    2  C   UNL     2     -12.351  15.701  72.969  1.00  0.00    -0.570 C  
HETATM    3  C   UNL     2     -11.788  15.983  71.583  1.00  0.00    -0.582 C  
ENDROOT
BRANCH   3   4
HETATM    4  C   UNL     2     -12.244  14.925  70.581  1.00  0.00    -0.379 C  
BRANCH   4   5
HETATM    5  C   UNL     2     -11.925  15.269  69.122  1.00  0.00    -0.308 C  
HETATM    6  C   UNL     2     -10.713  14.537  68.495  1.00  0.00    -0.253 C  
HETATM    7  C   UNL     2     -10.787  12.998  68.612  1.00  0.00    -0.287 C  
HETATM    8  C   UNL     2     -10.513  14.946  67.015  1.00  0.00    -0.272 C  
HETATM    9  C   UNL     2     -11.909  12.334  67.822  1.00  0.00    -0.341 C  
BRANCH   8  10
HETATM   10  C   UNL     2     -10.299  16.440  66.771  1.00  0.00    -0.293 C  
BRANCH  10  11
HETATM   11  C   UNL     2      -8.869  16.985  66.982  1.00  0.00    -0.224 C  
BRANCH  11  12
HETATM   12  C   UNL     2      -7.828  15.843  66.892  1.00  0.00    -0.282 C  
HETATM   13  C   UNL     2      -7.415  15.499  69.403  1.00  0.00    -0.219 C  
HETATM   14  C   UNL     2      -6.790  15.782  68.035  1.00  0.00    -0.141 C  
HETATM   15  C   UNL     2      -5.759  14.683  67.732  1.00  0.00    -0.079 C  
ENDBRANCH  11  12
BRANCH  11  16
HETATM   16  O   UNL     2      -8.578  17.937  65.962  1.00  0.00    -0.494 OA 
HETATM   17  O   UNL     2      -7.538  19.461  67.563  1.00  0.00    -0.243 OA 
HETATM   18  O   UNL     2      -7.674  20.060  65.189  1.00  0.00    -0.234 OA 
HETATM   19  S   UNL     2      -8.356  19.508  66.355  1.00  0.00    -0.354 S  
HETATM   20  O   UNL     2      -9.699  20.024  66.580  1.00  0.00    -0.392 OA 
ENDBRANCH  11  16
ENDBRANCH  10  11
ENDBRANCH   8  10
ENDBRANCH   4   5
ENDBRANCH   3   4
TORSDOF 6
ENDMDL
MODEL       69
REMARK 921   NORMALIZED FREE ENERGY PREDICTED BY IDOCK:   -4.57 KCAL/MOL
REMARK 922        TOTAL FREE ENERGY PREDICTED BY IDOCK:   -7.37 KCAL/MOL
REMARK 923 INTER-LIGAND FREE ENERGY PREDICTED BY IDOCK:   -6.32 KCAL/MOL
REMARK 924 INTRA-LIGAND FREE ENERGY PREDICTED BY IDOCK:   -1.05 KCAL/MOL
REMARK 927      BINDING AFFINITY PREDICTED BY RF-SCORE:    0.00 PKD
ROOT
HETATM    1 NA   UNL     1      -8.729  12.232  65.546  1.00  0.00    -0.379 Na 
HETATM    2  C   UNL     2     -11.686  12.963  63.417  1.00  0.00    -0.526 C  
HETATM    3  C   UNL     2     -12.317  13.699  64.591  1.00  0.00    -0.413 C  
ENDROOT
BRANCH   3   4
HETATM    4  C   UNL     2     -11.344  13.794  65.765  1.00  0.00    -0.309 C  
BRANCH   4   5
HETATM    5  C   UNL     2     -11.868  13.166  67.060  1.00  0.00    -0.435 C  
HETATM    6  C   UNL     2     -10.959  13.308  68.306  1.00  0.00    -0.280 C  
HETATM    7  C   UNL     2     -10.555  14.767  68.618  1.00  0.00    -0.255 C  
HETATM    8  C   UNL     2     -11.609  12.661  69.554  1.00  0.00    -0.348 C  
HETATM    9  C   UNL     2     -11.695  15.686  69.040  1.00  0.00    -0.408 C  
BRANCH   8  10
HETATM   10  C   UNL     2     -11.945  11.176  69.422  1.00  0.00    -0.420 C  
BRANCH  10  11
HETATM   11  C   UNL     2     -10.867  10.171  69.887  1.00  0.00    -0.299 C  
BRANCH  11  12
HETATM   12  C   UNL     2     -11.296   9.479  71.203  1.00  0.00    -0.440 C  
HETATM   13  C   UNL     2      -8.987   8.668  71.982  1.00  0.00    -0.286 C  
HETATM   14  C   UNL     2     -10.430   8.280  71.651  1.00  0.00    -0.303 C  
HETATM   15  C   UNL     2     -11.059   7.629  72.893  1.00  0.00    -0.448 C  
ENDBRANCH  11  12
BRANCH  11  16
HETATM   16  O   UNL     2     -10.704   9.168  68.887  1.00  0.00    -0.212 OA 
HETATM   17  O   UNL     2      -8.305   9.600  68.728  1.00  0.00    -0.106 OA 
HETATM   18  O   UNL     2      -9.353   7.885  67.321  1.00  0.00    -0.140 OA 
HETATM   19  S   UNL     2      -9.427   9.237  67.868  1.00  0.00    -0.138 S  
HETATM   20  O   UNL     2      -9.782  10.269  66.904  1.00  0.00    -0.174 OA 
ENDBRANCH  11  16
ENDBRANCH  10  11
ENDBRANCH   8  10
ENDBRANCH   4   5
ENDBRANCH   3   4
TORSDOF 6
ENDMDL
MODEL       70
REMARK 921   NORMALIZED FREE ENERGY PREDICTED BY IDOCK:   -4.56 KCAL/MOL
REMARK 922        TOTAL FREE ENERGY PREDICTED BY IDOCK:   -7.37 KCAL/MOL
REMARK 923 INTER-LIGAND FREE ENERGY PREDICTED BY IDOCK:   -6.27 KCAL/MOL
REMARK 924 INTRA-LIGAND FREE ENERGY PREDICTED BY IDOCK:   -1.10 KCAL/MOL
REMARK 927      BINDING AFFINITY PREDICTED BY RF-SCORE:    0.00 PKD
ROOT
HETATM    1 NA   UNL     1     -13.235   9.231  70.264  1.00  0.00    -0.508 Na 
HETATM    2  C   UNL     2     -10.937   6.411  69.502  1.00  0.00    -0.421 C  
HETATM    3  C   UNL     2     -10.258   7.281  68.454  1.00  0.00    -0.203 C  
ENDROOT
BRANCH   3   4
HETATM    4  C   UNL     2     -10.811   8.705  68.482  1.00  0.00     0.003 C  
BRANCH   4   5
HETATM    5  C   UNL     2     -10.170   9.643  67.454  1.00  0.00    -0.283 C  
HETATM    6  C   UNL     2      -9.424  10.875  68.022  1.00  0.00    -0.167 C  
HETATM    7  C   UNL     2      -8.348  10.521  69.074  1.00  0.00    -0.154 C  
HETATM    8  C   UNL     2      -8.797  11.725  66.891  1.00  0.00    -0.191 C  
HETATM    9  C   UNL     2      -7.154   9.733  68.550  1.00  0.00    -0.068 C  
BRANCH   8  10
HETATM   10  C   UNL     2      -9.779  12.250  65.844  1.00  0.00    -0.247 C  
BRANCH  10  11
HETATM   11  C   UNL     2     -10.771  13.343  66.301  1.00  0.00    -0.287 C  
BRANCH  11  12
HETATM   12  C   UNL     2     -10.207  14.122  67.513  1.00  0.00    -0.241 C  
HETATM   13  C   UNL     2     -11.774  13.201  69.327  1.00  0.00    -0.376 C  
HETATM   14  C   UNL     2     -11.216  14.448  68.638  1.00  0.00    -0.280 C  
HETATM   15  C   UNL     2     -10.535  15.329  69.697  1.00  0.00    -0.279 C  
ENDBRANCH  11  12
BRANCH  11  16
HETATM   16  O   UNL     2     -10.974  14.264  65.232  1.00  0.00    -0.310 OA 
HETATM   17  O   UNL     2     -13.402  14.080  65.423  1.00  0.00    -0.721 OA 
HETATM   18  O   UNL     2     -12.399  15.539  63.726  1.00  0.00    -0.606 OA 
HETATM   19  S   UNL     2     -12.379  14.242  64.395  1.00  0.00    -0.317 S  
HETATM   20  O   UNL     2     -12.258  13.096  63.505  1.00  0.00    -0.615 OA 
ENDBRANCH  11  16
ENDBRANCH  10  11
ENDBRANCH   8  10
ENDBRANCH   4   5
ENDBRANCH   3   4
TORSDOF 6
ENDMDL
MODEL       71
REMARK 921   NORMALIZED FREE ENERGY PREDICTED BY IDOCK:   -4.56 KCAL/MOL
REMARK 922        TOTAL FREE ENERGY PREDICTED BY IDOCK:   -7.36 KCAL/MOL
REMARK 923 INTER-LIGAND FREE ENERGY PREDICTED BY IDOCK:   -6.35 KCAL/MOL
REMARK 924 INTRA-LIGAND FREE ENERGY PREDICTED BY IDOCK:   -1.02 KCAL/MOL
REMARK 927      BINDING AFFINITY PREDICTED BY RF-SCORE:    0.00 PKD
ROOT
HETATM    1 NA   UNL     1      -8.634  12.101  62.860  1.00  0.00    -0.482 Na 
HETATM    2  C   UNL     2     -12.167  13.153  63.334  1.00  0.00    -0.521 C  
HETATM    3  C   UNL     2     -12.244  12.254  64.559  1.00  0.00    -0.469 C  
ENDROOT
BRANCH   3   4
HETATM    4  C   UNL     2     -10.878  11.650  64.882  1.00  0.00    -0.359 C  
BRANCH   4   5
HETATM    5  C   UNL     2     -10.707  11.245  66.350  1.00  0.00    -0.320 C  
HETATM    6  C   UNL     2      -9.878  12.209  67.234  1.00  0.00    -0.202 C  
HETATM    7  C   UNL     2     -10.380  13.671  67.202  1.00  0.00    -0.250 C  
HETATM    8  C   UNL     2      -9.803  11.708  68.697  1.00  0.00    -0.173 C  
HETATM    9  C   UNL     2     -11.757  13.904  67.812  1.00  0.00    -0.401 C  
BRANCH   8  10
HETATM   10  C   UNL     2      -9.202  10.315  68.883  1.00  0.00    -0.176 C  
BRANCH  10  11
HETATM   11  C   UNL     2     -10.015   9.309  69.728  1.00  0.00    -0.199 C  
BRANCH  11  12
HETATM   12  C   UNL     2     -11.125  10.037  70.525  1.00  0.00    -0.400 C  
HETATM   13  C   UNL     2     -11.421   8.328  72.419  1.00  0.00    -0.463 C  
HETATM   14  C   UNL     2     -12.102   9.130  71.307  1.00  0.00    -0.392 C  
HETATM   15  C   UNL     2     -13.211   9.990  71.932  1.00  0.00    -0.557 C  
ENDBRANCH  11  12
BRANCH  11  16
HETATM   16  O   UNL     2     -10.635   8.364  68.859  1.00  0.00    -0.212 OA 
HETATM   17  O   UNL     2      -9.585   6.487  70.016  1.00  0.00    -0.159 OA 
HETATM   18  O   UNL     2     -11.061   6.093  68.097  1.00  0.00    -0.332 OA 
HETATM   19  S   UNL     2      -9.973   6.882  68.665  1.00  0.00    -0.154 S  
HETATM   20  O   UNL     2      -8.843   7.098  67.773  1.00  0.00    -0.125 OA 
ENDBRANCH  11  16
ENDBRANCH  10  11
ENDBRANCH   8  10
ENDBRANCH   4   5
ENDBRANCH   3   4
TORSDOF 6
ENDMDL
MODEL       72
REMARK 921   NORMALIZED FREE ENERGY PREDICTED BY IDOCK:   -4.56 KCAL/MOL
REMARK 922        TOTAL FREE ENERGY PREDICTED BY IDOCK:   -7.36 KCAL/MOL
REMARK 923 INTER-LIGAND FREE ENERGY PREDICTED BY IDOCK:   -6.44 KCAL/MOL
REMARK 924 INTRA-LIGAND FREE ENERGY PREDICTED BY IDOCK:   -0.92 KCAL/MOL
REMARK 927      BINDING AFFINITY PREDICTED BY RF-SCORE:    0.00 PKD
ROOT
HETATM    1 NA   UNL     1      -7.526  11.148  64.674  1.00  0.00    -0.335 Na 
HETATM    2  C   UNL     2      -6.794   9.944  68.113  1.00  0.00    -0.064 C  
HETATM    3  C   UNL     2      -7.830  10.921  68.649  1.00  0.00    -0.126 C  
ENDROOT
BRANCH   3   4
HETATM    4  C   UNL     2      -8.568  11.618  67.507  1.00  0.00    -0.149 C  
BRANCH   4   5
HETATM    5  C   UNL     2      -9.535  12.714  67.966  1.00  0.00    -0.209 C  
HETATM    6  C   UNL     2     -11.044  12.415  67.788  1.00  0.00    -0.292 C  
HETATM    7  C   UNL     2     -11.495  11.085  68.434  1.00  0.00    -0.378 C  
HETATM    8  C   UNL     2     -11.915  13.581  68.315  1.00  0.00    -0.377 C  
HETATM    9  C   UNL     2     -11.414  11.035  69.955  1.00  0.00    -0.400 C  
BRANCH   8  10
HETATM   10  C   UNL     2     -11.656  14.939  67.663  1.00  0.00    -0.357 C  
BRANCH  10  11
HETATM   11  C   UNL     2     -11.110  16.060  68.575  1.00  0.00    -0.347 C  
BRANCH  11  12
HETATM   12  C   UNL     2     -10.860  15.528  70.007  1.00  0.00    -0.330 C  
HETATM   13  C   UNL     2     -13.299  15.400  70.801  1.00  0.00    -0.385 C  
HETATM   14  C   UNL     2     -11.895  15.946  71.075  1.00  0.00    -0.468 C  
HETATM   15  C   UNL     2     -11.437  15.449  72.455  1.00  0.00    -0.475 C  
ENDBRANCH  11  12
BRANCH  11  16
HETATM   16  O   UNL     2      -9.870  16.526  68.048  1.00  0.00    -0.233 OA 
HETATM   17  O   UNL     2     -10.724  18.803  67.824  1.00  0.00    -0.407 OA 
HETATM   18  O   UNL     2      -8.426  18.269  67.153  1.00  0.00    -0.242 OA 
HETATM   19  S   UNL     2      -9.833  17.879  67.131  1.00  0.00    -0.323 S  
HETATM   20  O   UNL     2     -10.329  17.454  65.830  1.00  0.00    -0.543 OA 
ENDBRANCH  11  16
ENDBRANCH  10  11
ENDBRANCH   8  10
ENDBRANCH   4   5
ENDBRANCH   3   4
TORSDOF 6
ENDMDL
MODEL       73
REMARK 921   NORMALIZED FREE ENERGY PREDICTED BY IDOCK:   -4.55 KCAL/MOL
REMARK 922        TOTAL FREE ENERGY PREDICTED BY IDOCK:   -7.35 KCAL/MOL
REMARK 923 INTER-LIGAND FREE ENERGY PREDICTED BY IDOCK:   -6.64 KCAL/MOL
REMARK 924 INTRA-LIGAND FREE ENERGY PREDICTED BY IDOCK:   -0.71 KCAL/MOL
REMARK 927      BINDING AFFINITY PREDICTED BY RF-SCORE:    0.00 PKD
ROOT
HETATM    1 NA   UNL     1     -10.914  17.827  69.768  1.00  0.00    -0.444 Na 
HETATM    2  C   UNL     2      -8.755  18.044  66.751  1.00  0.00    -0.269 C  
HETATM    3  C   UNL     2      -9.476  16.833  66.178  1.00  0.00    -0.295 C  
ENDROOT
BRANCH   3   4
HETATM    4  C   UNL     2     -10.645  16.418  67.071  1.00  0.00    -0.260 C  
BRANCH   4   5
HETATM    5  C   UNL     2     -10.621  14.943  67.485  1.00  0.00    -0.266 C  
HETATM    6  C   UNL     2     -11.915  14.136  67.218  1.00  0.00    -0.449 C  
HETATM    7  C   UNL     2     -12.402  14.208  65.753  1.00  0.00    -0.481 C  
HETATM    8  C   UNL     2     -11.756  12.658  67.649  1.00  0.00    -0.420 C  
HETATM    9  C   UNL     2     -11.488  13.552  64.725  1.00  0.00    -0.365 C  
BRANCH   8  10
HETATM   10  C   UNL     2     -11.397  12.439  69.119  1.00  0.00    -0.327 C  
BRANCH  10  11
HETATM   11  C   UNL     2     -11.242  10.977  69.592  1.00  0.00    -0.278 C  
BRANCH  11  12
HETATM   12  C   UNL     2     -12.317  10.627  70.649  1.00  0.00    -0.462 C  
HETATM   13  C   UNL     2     -10.974   8.916  72.013  1.00  0.00    -0.412 C  
HETATM   14  C   UNL     2     -12.257   9.195  71.228  1.00  0.00    -0.395 C  
HETATM   15  C   UNL     2     -13.459   8.968  72.158  1.00  0.00    -0.514 C  
ENDBRANCH  11  12
BRANCH  11  16
HETATM   16  O   UNL     2     -11.413  10.106  68.476  1.00  0.00    -0.170 OA 
HETATM   17  O   UNL     2      -9.456   8.785  69.100  1.00  0.00    -0.155 OA 
HETATM   18  O   UNL     2     -10.755   8.208  67.102  1.00  0.00    -0.316 OA 
HETATM   19  S   UNL     2     -10.137   9.262  67.901  1.00  0.00    -0.213 S  
HETATM   20  O   UNL     2      -9.365  10.235  67.140  1.00  0.00    -0.151 OA 
ENDBRANCH  11  16
ENDBRANCH  10  11
ENDBRANCH   8  10
ENDBRANCH   4   5
ENDBRANCH   3   4
TORSDOF 6
ENDMDL
MODEL       74
REMARK 921   NORMALIZED FREE ENERGY PREDICTED BY IDOCK:   -4.55 KCAL/MOL
REMARK 922        TOTAL FREE ENERGY PREDICTED BY IDOCK:   -7.35 KCAL/MOL
REMARK 923 INTER-LIGAND FREE ENERGY PREDICTED BY IDOCK:   -6.75 KCAL/MOL
REMARK 924 INTRA-LIGAND FREE ENERGY PREDICTED BY IDOCK:   -0.59 KCAL/MOL
REMARK 927      BINDING AFFINITY PREDICTED BY RF-SCORE:    0.00 PKD
ROOT
HETATM    1 NA   UNL     1     -10.908   7.440  68.020  1.00  0.00    -0.194 Na 
HETATM    2  C   UNL     2     -11.663   9.345  71.121  1.00  0.00    -0.418 C  
HETATM    3  C   UNL     2     -11.563  10.636  70.322  1.00  0.00    -0.424 C  
ENDROOT
BRANCH   3   4
HETATM    4  C   UNL     2     -11.379  10.346  68.833  1.00  0.00    -0.278 C  
BRANCH   4   5
HETATM    5  C   UNL     2     -11.233  11.601  67.967  1.00  0.00    -0.327 C  
HETATM    6  C   UNL     2     -10.047  12.536  68.311  1.00  0.00    -0.228 C  
HETATM    7  C   UNL     2      -8.678  11.820  68.340  1.00  0.00    -0.155 C  
HETATM    8  C   UNL     2      -9.989  13.749  67.350  1.00  0.00    -0.237 C  
HETATM    9  C   UNL     2      -8.189  11.288  66.998  1.00  0.00    -0.151 C  
BRANCH   8  10
HETATM   10  C   UNL     2     -11.243  14.622  67.320  1.00  0.00    -0.344 C  
BRANCH  10  11
HETATM   11  C   UNL     2     -11.100  16.069  67.841  1.00  0.00    -0.307 C  
BRANCH  11  12
HETATM   12  C   UNL     2     -10.891  16.081  69.375  1.00  0.00    -0.300 C  
HETATM   13  C   UNL     2     -12.557  14.231  70.005  1.00  0.00    -0.277 C  
HETATM   14  C   UNL     2     -12.115  15.679  70.228  1.00  0.00    -0.413 C  
HETATM   15  C   UNL     2     -11.785  15.866  71.717  1.00  0.00    -0.575 C  
ENDBRANCH  11  12
BRANCH  11  16
HETATM   16  O   UNL     2      -9.964  16.674  67.230  1.00  0.00    -0.258 OA 
HETATM   17  O   UNL     2     -11.021  18.876  67.247  1.00  0.00    -0.436 OA 
HETATM   18  O   UNL     2      -8.768  18.590  66.321  1.00  0.00    -0.392 OA 
HETATM   19  S   UNL     2     -10.133  18.078  66.409  1.00  0.00    -0.382 S  
HETATM   20  O   UNL     2     -10.724  17.690  65.136  1.00  0.00    -0.658 OA 
ENDBRANCH  11  16
ENDBRANCH  10  11
ENDBRANCH   8  10
ENDBRANCH   4   5
ENDBRANCH   3   4
TORSDOF 6
ENDMDL
MODEL       75
REMARK 921   NORMALIZED FREE ENERGY PREDICTED BY IDOCK:   -4.54 KCAL/MOL
REMARK 922        TOTAL FREE ENERGY PREDICTED BY IDOCK:   -7.34 KCAL/MOL
REMARK 923 INTER-LIGAND FREE ENERGY PREDICTED BY IDOCK:   -6.67 KCAL/MOL
REMARK 924 INTRA-LIGAND FREE ENERGY PREDICTED BY IDOCK:   -0.67 KCAL/MOL
REMARK 927      BINDING AFFINITY PREDICTED BY RF-SCORE:    0.00 PKD
ROOT
HETATM    1 NA   UNL     1     -10.577   7.208  70.705  1.00  0.00    -0.206 Na 
HETATM    2  C   UNL     2     -13.920   8.364  71.846  1.00  0.00    -0.483 C  
HETATM    3  C   UNL     2     -13.400   9.794  71.843  1.00  0.00    -0.530 C  
ENDROOT
BRANCH   3   4
HETATM    4  C   UNL     2     -11.985   9.860  71.271  1.00  0.00    -0.489 C  
BRANCH   4   5
HETATM    5  C   UNL     2     -11.871  10.680  69.982  1.00  0.00    -0.403 C  
HETATM    6  C   UNL     2     -10.440  10.904  69.436  1.00  0.00    -0.205 C  
HETATM    7  C   UNL     2      -9.638   9.598  69.237  1.00  0.00    -0.190 C  
HETATM    8  C   UNL     2     -10.460  11.718  68.120  1.00  0.00    -0.221 C  
HETATM    9  C   UNL     2     -10.168   8.663  68.157  1.00  0.00    -0.250 C  
BRANCH   8  10
HETATM   10  C   UNL     2     -11.116  13.096  68.210  1.00  0.00    -0.295 C  
BRANCH  10  11
HETATM   11  C   UNL     2     -10.914  14.047  67.011  1.00  0.00    -0.297 C  
BRANCH  11  12
HETATM   12  C   UNL     2     -11.870  13.677  65.851  1.00  0.00    -0.406 C  
HETATM   13  C   UNL     2     -10.317  12.087  64.564  1.00  0.00    -0.334 C  
HETATM   14  C   UNL     2     -11.198  13.337  64.501  1.00  0.00    -0.387 C  
HETATM   15  C   UNL     2     -12.278  13.122  63.431  1.00  0.00    -0.521 C  
ENDBRANCH  11  12
BRANCH  11  16
HETATM   16  O   UNL     2     -11.204  15.381  67.420  1.00  0.00    -0.328 OA 
HETATM   17  O   UNL     2      -9.838  16.319  65.626  1.00  0.00    -0.450 OA 
HETATM   18  O   UNL     2     -10.994  17.797  67.205  1.00  0.00    -0.187 OA 
HETATM   19  S   UNL     2     -10.186  16.596  67.015  1.00  0.00    -0.292 S  
HETATM   20  O   UNL     2      -9.067  16.459  67.936  1.00  0.00    -0.198 OA 
ENDBRANCH  11  16
ENDBRANCH  10  11
ENDBRANCH   8  10
ENDBRANCH   4   5
ENDBRANCH   3   4
TORSDOF 6
ENDMDL
MODEL       76
REMARK 921   NORMALIZED FREE ENERGY PREDICTED BY IDOCK:   -4.54 KCAL/MOL
REMARK 922        TOTAL FREE ENERGY PREDICTED BY IDOCK:   -7.34 KCAL/MOL
REMARK 923 INTER-LIGAND FREE ENERGY PREDICTED BY IDOCK:   -6.75 KCAL/MOL
REMARK 924 INTRA-LIGAND FREE ENERGY PREDICTED BY IDOCK:   -0.59 KCAL/MOL
REMARK 927      BINDING AFFINITY PREDICTED BY RF-SCORE:    0.00 PKD
ROOT
HETATM    1 NA   UNL     1      -7.328  11.381  65.094  1.00  0.00    -0.347 Na 
HETATM    2  C   UNL     2      -8.938   9.284  67.707  1.00  0.00    -0.131 C  
HETATM    3  C   UNL     2     -10.266   9.445  66.982  1.00  0.00    -0.322 C  
ENDROOT
BRANCH   3   4
HETATM    4  C   UNL     2     -10.081  10.184  65.658  1.00  0.00    -0.324 C  
BRANCH   4   5
HETATM    5  C   UNL     2     -10.416  11.678  65.726  1.00  0.00    -0.308 C  
HETATM    6  C   UNL     2     -10.301  12.467  64.399  1.00  0.00    -0.370 C  
HETATM    7  C   UNL     2     -11.115  11.853  63.237  1.00  0.00    -0.390 C  
HETATM    8  C   UNL     2     -10.692  13.952  64.590  1.00  0.00    -0.422 C  
HETATM    9  C   UNL     2     -12.629  11.885  63.410  1.00  0.00    -0.555 C  
BRANCH   8  10
HETATM   10  C   UNL     2      -9.871  14.718  65.629  1.00  0.00    -0.361 C  
BRANCH  10  11
HETATM   11  C   UNL     2     -10.654  15.419  66.761  1.00  0.00    -0.309 C  
BRANCH  11  12
HETATM   12  C   UNL     2     -11.389  14.381  67.643  1.00  0.00    -0.348 C  
HETATM   13  C   UNL     2     -11.911  15.887  69.656  1.00  0.00    -0.272 C  
HETATM   14  C   UNL     2     -11.270  14.585  69.170  1.00  0.00    -0.294 C  
HETATM   15  C   UNL     2     -11.938  13.408  69.898  1.00  0.00    -0.408 C  
ENDBRANCH  11  12
BRANCH  11  16
HETATM   16  O   UNL     2      -9.739  16.138  67.584  1.00  0.00    -0.229 OA 
HETATM   17  O   UNL     2     -10.830  18.265  67.085  1.00  0.00    -0.351 OA 
HETATM   18  O   UNL     2      -8.878  18.191  68.568  1.00  0.00    -0.301 OA 
HETATM   19  S   UNL     2      -9.493  17.733  67.325  1.00  0.00    -0.260 S  
HETATM   20  O   UNL     2      -8.625  17.786  66.157  1.00  0.00    -0.446 OA 
ENDBRANCH  11  16
ENDBRANCH  10  11
ENDBRANCH   8  10
ENDBRANCH   4   5
ENDBRANCH   3   4
TORSDOF 6
ENDMDL
MODEL       77
REMARK 921   NORMALIZED FREE ENERGY PREDICTED BY IDOCK:   -4.54 KCAL/MOL
REMARK 922        TOTAL FREE ENERGY PREDICTED BY IDOCK:   -7.33 KCAL/MOL
REMARK 923 INTER-LIGAND FREE ENERGY PREDICTED BY IDOCK:   -6.95 KCAL/MOL
REMARK 924 INTRA-LIGAND FREE ENERGY PREDICTED BY IDOCK:   -0.38 KCAL/MOL
REMARK 927      BINDING AFFINITY PREDICTED BY RF-SCORE:    0.00 PKD
ROOT
HETATM    1 NA   UNL     1      -9.718   8.447  74.172  1.00  0.00    -0.284 Na 
HETATM    2  C   UNL     2     -10.693   6.221  71.359  1.00  0.00    -0.297 C  
HETATM    3  C   UNL     2     -10.981   7.455  70.516  1.00  0.00    -0.270 C  
ENDROOT
BRANCH   3   4
HETATM    4  C   UNL     2     -10.574   8.729  71.253  1.00  0.00    -0.332 C  
BRANCH   4   5
HETATM    5  C   UNL     2     -10.591   9.987  70.378  1.00  0.00    -0.343 C  
HETATM    6  C   UNL     2     -11.953  10.360  69.742  1.00  0.00    -0.242 C  
HETATM    7  C   UNL     2     -13.106  10.479  70.765  1.00  0.00    -0.335 C  
HETATM    8  C   UNL     2     -11.849  11.661  68.910  1.00  0.00    -0.392 C  
HETATM    9  C   UNL     2     -12.980  11.624  71.763  1.00  0.00    -0.483 C  
BRANCH   8  10
HETATM   10  C   UNL     2     -10.826  11.633  67.774  1.00  0.00    -0.264 C  
BRANCH  10  11
HETATM   11  C   UNL     2     -10.834  12.828  66.795  1.00  0.00    -0.264 C  
BRANCH  11  12
HETATM   12  C   UNL     2      -9.555  13.683  66.966  1.00  0.00    -0.251 C  
HETATM   13  C   UNL     2     -10.658  15.882  67.703  1.00  0.00    -0.307 C  
HETATM   14  C   UNL     2      -9.715  15.199  66.710  1.00  0.00    -0.255 C  
HETATM   15  C   UNL     2      -8.340  15.880  66.792  1.00  0.00    -0.306 C  
ENDBRANCH  11  12
BRANCH  11  16
HETATM   16  O   UNL     2     -10.867  12.335  65.459  1.00  0.00    -0.266 OA 
HETATM   17  O   UNL     2     -11.743  14.451  64.610  1.00  0.00    -0.393 OA 
HETATM   18  O   UNL     2     -11.331  12.578  63.082  1.00  0.00    -0.401 OA 
HETATM   19  S   UNL     2     -11.871  13.018  64.364  1.00  0.00    -0.414 S  
HETATM   20  O   UNL     2     -13.186  12.485  64.690  1.00  0.00    -0.848 OA 
ENDBRANCH  11  16
ENDBRANCH  10  11
ENDBRANCH   8  10
ENDBRANCH   4   5
ENDBRANCH   3   4
TORSDOF 6
ENDMDL
MODEL       78
REMARK 921   NORMALIZED FREE ENERGY PREDICTED BY IDOCK:   -4.53 KCAL/MOL
REMARK 922        TOTAL FREE ENERGY PREDICTED BY IDOCK:   -7.32 KCAL/MOL
REMARK 923 INTER-LIGAND FREE ENERGY PREDICTED BY IDOCK:   -6.69 KCAL/MOL
REMARK 924 INTRA-LIGAND FREE ENERGY PREDICTED BY IDOCK:   -0.63 KCAL/MOL
REMARK 927      BINDING AFFINITY PREDICTED BY RF-SCORE:    0.00 PKD
ROOT
HETATM    1 NA   UNL     1     -12.079   6.551  67.496  1.00  0.00    -0.643 Na 
HETATM    2  C   UNL     2      -8.365   6.582  67.644  1.00  0.00    -0.121 C  
HETATM    3  C   UNL     2      -8.363   7.779  66.704  1.00  0.00    -0.126 C  
ENDROOT
BRANCH   3   4
HETATM    4  C   UNL     2      -9.785   8.267  66.435  1.00  0.00    -0.300 C  
BRANCH   4   5
HETATM    5  C   UNL     2      -9.990   9.763  66.697  1.00  0.00    -0.292 C  
HETATM    6  C   UNL     2     -10.971  10.130  67.837  1.00  0.00    -0.335 C  
HETATM    7  C   UNL     2     -10.636   9.456  69.187  1.00  0.00    -0.234 C  
HETATM    8  C   UNL     2     -11.070  11.664  68.023  1.00  0.00    -0.299 C  
HETATM    9  C   UNL     2      -9.331   9.900  69.835  1.00  0.00    -0.250 C  
BRANCH   8  10
HETATM   10  C   UNL     2     -11.518  12.446  66.789  1.00  0.00    -0.423 C  
BRANCH  10  11
HETATM   11  C   UNL     2     -10.451  13.311  66.082  1.00  0.00    -0.293 C  
BRANCH  11  12
HETATM   12  C   UNL     2      -9.850  12.556  64.871  1.00  0.00    -0.095 C  
HETATM   13  C   UNL     2     -12.022  12.120  63.572  1.00  0.00    -0.619 C  
HETATM   14  C   UNL     2     -10.768  11.509  64.202  1.00  0.00    -0.428 C  
HETATM   15  C   UNL     2      -9.985  10.764  63.110  1.00  0.00    -0.341 C  
ENDBRANCH  11  12
BRANCH  11  16
HETATM   16  O   UNL     2     -11.061  14.507  65.606  1.00  0.00    -0.309 OA 
HETATM   17  O   UNL     2      -8.989  15.771  65.873  1.00  0.00    -0.321 OA 
HETATM   18  O   UNL     2     -11.012  16.872  65.031  1.00  0.00    -0.593 OA 
HETATM   19  S   UNL     2     -10.429  15.960  66.011  1.00  0.00    -0.349 S  
HETATM   20  O   UNL     2     -10.861  16.178  67.384  1.00  0.00    -0.322 OA 
ENDBRANCH  11  16
ENDBRANCH  10  11
ENDBRANCH   8  10
ENDBRANCH   4   5
ENDBRANCH   3   4
TORSDOF 6
ENDMDL
MODEL       79
REMARK 921   NORMALIZED FREE ENERGY PREDICTED BY IDOCK:   -4.51 KCAL/MOL
REMARK 922        TOTAL FREE ENERGY PREDICTED BY IDOCK:   -7.30 KCAL/MOL
REMARK 923 INTER-LIGAND FREE ENERGY PREDICTED BY IDOCK:   -6.65 KCAL/MOL
REMARK 924 INTRA-LIGAND FREE ENERGY PREDICTED BY IDOCK:   -0.65 KCAL/MOL
REMARK 927      BINDING AFFINITY PREDICTED BY RF-SCORE:    0.00 PKD
ROOT
HETATM    1 NA   UNL     1     -11.858   9.515  67.821  1.00  0.00    -0.545 Na 
HETATM    2  C   UNL     2     -12.807  10.748  71.197  1.00  0.00    -0.513 C  
HETATM    3  C   UNL     2     -12.304  12.130  70.806  1.00  0.00    -0.391 C  
ENDROOT
BRANCH   3   4
HETATM    4  C   UNL     2     -11.898  12.169  69.333  1.00  0.00    -0.370 C  
BRANCH   4   5
HETATM    5  C   UNL     2     -11.983  13.561  68.699  1.00  0.00    -0.378 C  
HETATM    6  C   UNL     2     -10.966  13.864  67.572  1.00  0.00    -0.288 C  
HETATM    7  C   UNL     2     -10.974  12.823  66.430  1.00  0.00    -0.305 C  
HETATM    8  C   UNL     2     -11.172  15.285  66.994  1.00  0.00    -0.275 C  
HETATM    9  C   UNL     2     -12.250  12.773  65.599  1.00  0.00    -0.503 C  
BRANCH   8  10
HETATM   10  C   UNL     2     -11.061  16.427  68.005  1.00  0.00    -0.292 C  
BRANCH  10  11
HETATM   11  C   UNL     2      -9.641  16.947  68.320  1.00  0.00    -0.258 C  
BRANCH  11  12
HETATM   12  C   UNL     2      -8.874  15.939  69.210  1.00  0.00    -0.249 C  
HETATM   13  C   UNL     2      -6.562  17.055  69.151  1.00  0.00    -0.230 C  
HETATM   14  C   UNL     2      -7.367  15.777  68.906  1.00  0.00    -0.162 C  
HETATM   15  C   UNL     2      -6.786  14.656  69.780  1.00  0.00    -0.165 C  
ENDBRANCH  11  12
BRANCH  11  16
HETATM   16  O   UNL     2      -8.922  17.105  67.100  1.00  0.00    -0.219 OA 
HETATM   17  O   UNL     2      -8.582  19.488  67.510  1.00  0.00    -0.292 OA 
HETATM   18  O   UNL     2      -7.705  18.443  65.472  1.00  0.00    -0.484 OA 
HETATM   19  S   UNL     2      -8.827  18.577  66.396  1.00  0.00    -0.210 S  
HETATM   20  O   UNL     2     -10.123  18.765  65.762  1.00  0.00    -0.519 OA 
ENDBRANCH  11  16
ENDBRANCH  10  11
ENDBRANCH   8  10
ENDBRANCH   4   5
ENDBRANCH   3   4
TORSDOF 6
ENDMDL
MODEL       80
REMARK 921   NORMALIZED FREE ENERGY PREDICTED BY IDOCK:   -4.51 KCAL/MOL
REMARK 922        TOTAL FREE ENERGY PREDICTED BY IDOCK:   -7.30 KCAL/MOL
REMARK 923 INTER-LIGAND FREE ENERGY PREDICTED BY IDOCK:   -6.56 KCAL/MOL
REMARK 924 INTRA-LIGAND FREE ENERGY PREDICTED BY IDOCK:   -0.74 KCAL/MOL
REMARK 927      BINDING AFFINITY PREDICTED BY RF-SCORE:    0.00 PKD
ROOT
HETATM    1 NA   UNL     1      -9.756   5.644  64.768  1.00  0.00    -0.367 Na 
HETATM    2  C   UNL     2     -10.409   5.911  68.417  1.00  0.00    -0.261 C  
HETATM    3  C   UNL     2     -10.341   7.426  68.293  1.00  0.00    -0.231 C  
ENDROOT
BRANCH   3   4
HETATM    4  C   UNL     2     -10.207   7.851  66.832  1.00  0.00    -0.380 C  
BRANCH   4   5
HETATM    5  C   UNL     2     -10.391   9.354  66.600  1.00  0.00    -0.284 C  
HETATM    6  C   UNL     2      -9.109  10.158  66.271  1.00  0.00    -0.180 C  
HETATM    7  C   UNL     2      -8.308   9.590  65.077  1.00  0.00    -0.148 C  
HETATM    8  C   UNL     2      -9.427  11.653  66.030  1.00  0.00    -0.246 C  
HETATM    9  C   UNL     2      -9.003   9.673  63.723  1.00  0.00    -0.251 C  
BRANCH   8  10
HETATM   10  C   UNL     2     -10.111  12.374  67.192  1.00  0.00    -0.221 C  
BRANCH  10  11
HETATM   11  C   UNL     2     -11.030  13.562  66.835  1.00  0.00    -0.288 C  
BRANCH  11  12
HETATM   12  C   UNL     2     -10.459  14.885  67.401  1.00  0.00    -0.255 C  
HETATM   13  C   UNL     2     -11.788  14.972  69.596  1.00  0.00    -0.358 C  
HETATM   14  C   UNL     2     -11.409  15.701  68.305  1.00  0.00    -0.357 C  
HETATM   15  C   UNL     2     -10.744  17.036  68.675  1.00  0.00    -0.333 C  
ENDBRANCH  11  12
BRANCH  11  16
HETATM   16  O   UNL     2     -11.109  13.680  65.417  1.00  0.00    -0.292 OA 
HETATM   17  O   UNL     2     -13.513  14.103  65.502  1.00  0.00    -0.643 OA 
HETATM   18  O   UNL     2     -12.341  14.040  63.349  1.00  0.00    -0.748 OA 
HETATM   19  S   UNL     2     -12.535  13.425  64.658  1.00  0.00    -0.296 S  
HETATM   20  O   UNL     2     -12.686  11.977  64.637  1.00  0.00    -0.419 OA 
ENDBRANCH  11  16
ENDBRANCH  10  11
ENDBRANCH   8  10
ENDBRANCH   4   5
ENDBRANCH   3   4
TORSDOF 6
ENDMDL
MODEL       81
REMARK 921   NORMALIZED FREE ENERGY PREDICTED BY IDOCK:   -4.51 KCAL/MOL
REMARK 922        TOTAL FREE ENERGY PREDICTED BY IDOCK:   -7.30 KCAL/MOL
REMARK 923 INTER-LIGAND FREE ENERGY PREDICTED BY IDOCK:   -6.37 KCAL/MOL
REMARK 924 INTRA-LIGAND FREE ENERGY PREDICTED BY IDOCK:   -0.92 KCAL/MOL
REMARK 927      BINDING AFFINITY PREDICTED BY RF-SCORE:    0.00 PKD
ROOT
HETATM    1 NA   UNL     1      -8.632  11.613  64.075  1.00  0.00    -0.378 Na 
HETATM    2  C   UNL     2     -12.078  12.812  63.366  1.00  0.00    -0.619 C  
HETATM    3  C   UNL     2     -12.438  12.562  64.824  1.00  0.00    -0.532 C  
ENDROOT
BRANCH   3   4
HETATM    4  C   UNL     2     -11.207  12.151  65.629  1.00  0.00    -0.381 C  
BRANCH   4   5
HETATM    5  C   UNL     2     -10.146  13.249  65.750  1.00  0.00    -0.293 C  
HETATM    6  C   UNL     2      -9.559  13.482  67.164  1.00  0.00    -0.241 C  
HETATM    7  C   UNL     2      -8.991  12.202  67.820  1.00  0.00    -0.179 C  
HETATM    8  C   UNL     2      -8.479  14.591  67.150  1.00  0.00    -0.234 C  
HETATM    9  C   UNL     2      -7.764  11.607  67.141  1.00  0.00    -0.159 C  
BRANCH   8  10
HETATM   10  C   UNL     2      -8.947  15.954  66.639  1.00  0.00    -0.301 C  
BRANCH  10  11
HETATM   11  C   UNL     2      -9.376  16.991  67.701  1.00  0.00    -0.241 C  
BRANCH  11  12
HETATM   12  C   UNL     2      -9.593  16.309  69.074  1.00  0.00    -0.257 C  
HETATM   13  C   UNL     2     -11.944  15.362  68.666  1.00  0.00    -0.240 C  
HETATM   14  C   UNL     2     -11.056  16.225  69.564  1.00  0.00    -0.330 C  
HETATM   15  C   UNL     2     -11.087  15.646  70.987  1.00  0.00    -0.365 C  
ENDBRANCH  11  12
BRANCH  11  16
HETATM   16  O   UNL     2      -8.346  17.965  67.843  1.00  0.00    -0.237 OA 
HETATM   17  O   UNL     2      -9.956  19.800  67.770  1.00  0.00    -0.361 OA 
HETATM   18  O   UNL     2      -7.559  20.262  68.010  1.00  0.00    -0.280 OA 
HETATM   19  S   UNL     2      -8.598  19.497  67.329  1.00  0.00    -0.310 S  
HETATM   20  O   UNL     2      -8.457  19.426  65.881  1.00  0.00    -0.433 OA 
ENDBRANCH  11  16
ENDBRANCH  10  11
ENDBRANCH   8  10
ENDBRANCH   4   5
ENDBRANCH   3   4
TORSDOF 6
ENDMDL
MODEL       82
REMARK 921   NORMALIZED FREE ENERGY PREDICTED BY IDOCK:   -4.51 KCAL/MOL
REMARK 922        TOTAL FREE ENERGY PREDICTED BY IDOCK:   -7.30 KCAL/MOL
REMARK 923 INTER-LIGAND FREE ENERGY PREDICTED BY IDOCK:   -6.52 KCAL/MOL
REMARK 924 INTRA-LIGAND FREE ENERGY PREDICTED BY IDOCK:   -0.78 KCAL/MOL
REMARK 927      BINDING AFFINITY PREDICTED BY RF-SCORE:    0.00 PKD
ROOT
HETATM    1 NA   UNL     1     -11.637   9.090  67.694  1.00  0.00    -0.516 Na 
HETATM    2  C   UNL     2     -12.353  10.383  71.104  1.00  0.00    -0.505 C  
HETATM    3  C   UNL     2     -12.284  11.800  70.554  1.00  0.00    -0.438 C  
ENDROOT
BRANCH   3   4
HETATM    4  C   UNL     2     -12.126  11.791  69.035  1.00  0.00    -0.276 C  
BRANCH   4   5
HETATM    5  C   UNL     2     -11.911  13.178  68.422  1.00  0.00    -0.386 C  
HETATM    6  C   UNL     2     -10.786  13.293  67.364  1.00  0.00    -0.266 C  
HETATM    7  C   UNL     2     -10.916  12.279  66.205  1.00  0.00    -0.328 C  
HETATM    8  C   UNL     2     -10.687  14.731  66.800  1.00  0.00    -0.309 C  
HETATM    9  C   UNL     2     -12.125  12.474  65.298  1.00  0.00    -0.500 C  
BRANCH   8  10
HETATM   10  C   UNL     2     -10.429  15.826  67.836  1.00  0.00    -0.270 C  
BRANCH  10  11
HETATM   11  C   UNL     2      -9.127  16.642  67.683  1.00  0.00    -0.207 C  
BRANCH  11  12
HETATM   12  C   UNL     2      -9.367  18.128  68.043  1.00  0.00    -0.289 C  
HETATM   13  C   UNL     2     -10.577  18.854  65.897  1.00  0.00    -0.438 C  
HETATM   14  C   UNL     2      -9.411  19.115  66.854  1.00  0.00    -0.368 C  
HETATM   15  C   UNL     2      -9.525  20.552  67.385  1.00  0.00    -0.551 C  
ENDBRANCH  11  12
BRANCH  11  16
HETATM   16  O   UNL     2      -8.143  16.120  68.572  1.00  0.00    -0.163 OA 
HETATM   17  O   UNL     2      -6.392  16.311  66.879  1.00  0.00    -0.277 OA 
HETATM   18  O   UNL     2      -5.873  15.423  69.106  1.00  0.00    -0.101 OA 
HETATM   19  S   UNL     2      -6.790  15.427  67.970  1.00  0.00    -0.156 S  
HETATM   20  O   UNL     2      -7.219  14.108  67.526  1.00  0.00    -0.172 OA 
ENDBRANCH  11  16
ENDBRANCH  10  11
ENDBRANCH   8  10
ENDBRANCH   4   5
ENDBRANCH   3   4
TORSDOF 6
ENDMDL
MODEL       83
REMARK 921   NORMALIZED FREE ENERGY PREDICTED BY IDOCK:   -4.50 KCAL/MOL
REMARK 922        TOTAL FREE ENERGY PREDICTED BY IDOCK:   -7.29 KCAL/MOL
REMARK 923 INTER-LIGAND FREE ENERGY PREDICTED BY IDOCK:   -6.16 KCAL/MOL
REMARK 924 INTRA-LIGAND FREE ENERGY PREDICTED BY IDOCK:   -1.12 KCAL/MOL
REMARK 927      BINDING AFFINITY PREDICTED BY RF-SCORE:    0.00 PKD
ROOT
HETATM    1 NA   UNL     1     -11.053  10.705  63.364  1.00  0.00    -0.533 Na 
HETATM    2  C   UNL     2     -12.260  14.168  63.970  1.00  0.00    -0.369 C  
HETATM    3  C   UNL     2     -12.515  13.798  65.424  1.00  0.00    -0.532 C  
ENDROOT
BRANCH   3   4
HETATM    4  C   UNL     2     -12.009  12.388  65.727  1.00  0.00    -0.437 C  
BRANCH   4   5
HETATM    5  C   UNL     2     -11.606  12.172  67.189  1.00  0.00    -0.405 C  
HETATM    6  C   UNL     2     -10.258  11.448  67.428  1.00  0.00    -0.221 C  
HETATM    7  C   UNL     2      -9.062  12.103  66.701  1.00  0.00    -0.206 C  
HETATM    8  C   UNL     2      -9.950  11.316  68.940  1.00  0.00    -0.169 C  
HETATM    9  C   UNL     2      -8.682  13.496  67.189  1.00  0.00    -0.222 C  
BRANCH   8  10
HETATM   10  C   UNL     2     -11.002  10.570  69.761  1.00  0.00    -0.350 C  
BRANCH  10  11
HETATM   11  C   UNL     2     -10.754   9.067  70.015  1.00  0.00    -0.229 C  
BRANCH  11  12
HETATM   12  C   UNL     2      -9.465   8.596  69.297  1.00  0.00    -0.158 C  
HETATM   13  C   UNL     2     -10.505   7.905  67.053  1.00  0.00    -0.419 C  
HETATM   14  C   UNL     2      -9.646   7.478  68.246  1.00  0.00    -0.157 C  
HETATM   15  C   UNL     2      -8.269   7.037  67.725  1.00  0.00    -0.114 C  
ENDBRANCH  11  12
BRANCH  11  16
HETATM   16  O   UNL     2     -10.590   8.852  71.414  1.00  0.00    -0.250 OA 
HETATM   17  O   UNL     2     -11.719   6.689  71.300  1.00  0.00    -0.303 OA 
HETATM   18  O   UNL     2     -10.879   7.537  73.442  1.00  0.00    -0.394 OA 
HETATM   19  S   UNL     2     -11.592   7.828  72.202  1.00  0.00    -0.338 S  
HETATM   20  O   UNL     2     -12.828   8.581  72.370  1.00  0.00    -0.359 OA 
ENDBRANCH  11  16
ENDBRANCH  10  11
ENDBRANCH   8  10
ENDBRANCH   4   5
ENDBRANCH   3   4
TORSDOF 6
ENDMDL
MODEL       84
REMARK 921   NORMALIZED FREE ENERGY PREDICTED BY IDOCK:   -4.49 KCAL/MOL
REMARK 922        TOTAL FREE ENERGY PREDICTED BY IDOCK:   -7.27 KCAL/MOL
REMARK 923 INTER-LIGAND FREE ENERGY PREDICTED BY IDOCK:   -6.67 KCAL/MOL
REMARK 924 INTRA-LIGAND FREE ENERGY PREDICTED BY IDOCK:   -0.60 KCAL/MOL
REMARK 927      BINDING AFFINITY PREDICTED BY RF-SCORE:    0.00 PKD
ROOT
HETATM    1 NA   UNL     1      -5.758  15.665  67.568  1.00  0.00    -0.097 Na 
HETATM    2  C   UNL     2      -5.738  18.532  69.933  1.00  0.00    -0.249 C  
HETATM    3  C   UNL     2      -6.448  19.373  68.881  1.00  0.00    -0.312 C  
ENDROOT
BRANCH   3   4
HETATM    4  C   UNL     2      -6.826  18.526  67.667  1.00  0.00    -0.206 C  
BRANCH   4   5
HETATM    5  C   UNL     2      -8.162  17.791  67.812  1.00  0.00    -0.227 C  
HETATM    6  C   UNL     2      -9.340  18.618  68.383  1.00  0.00    -0.369 C  
HETATM    7  C   UNL     2      -9.605  19.934  67.618  1.00  0.00    -0.493 C  
HETATM    8  C   UNL     2     -10.638  17.776  68.452  1.00  0.00    -0.297 C  
HETATM    9  C   UNL     2     -10.094  19.771  66.184  1.00  0.00    -0.600 C  
BRANCH   8  10
HETATM   10  C   UNL     2     -10.549  16.501  69.291  1.00  0.00    -0.327 C  
BRANCH  10  11
HETATM   11  C   UNL     2     -11.738  15.519  69.200  1.00  0.00    -0.365 C  
BRANCH  11  12
HETATM   12  C   UNL     2     -11.581  14.582  67.977  1.00  0.00    -0.364 C  
HETATM   13  C   UNL     2      -9.157  13.834  68.373  1.00  0.00    -0.175 C  
HETATM   14  C   UNL     2     -10.154  14.460  67.396  1.00  0.00    -0.243 C  
HETATM   15  C   UNL     2     -10.193  13.605  66.120  1.00  0.00    -0.306 C  
ENDBRANCH  11  12
BRANCH  11  16
HETATM   16  O   UNL     2     -11.770  14.717  70.377  1.00  0.00    -0.272 OA 
HETATM   17  O   UNL     2     -13.954  15.600  71.021  1.00  0.00    -0.534 OA 
HETATM   18  O   UNL     2     -12.823  13.941  72.429  1.00  0.00    -0.335 OA 
HETATM   19  S   UNL     2     -12.707  15.163  71.640  1.00  0.00    -0.393 S  
HETATM   20  O   UNL     2     -11.966  16.239  72.284  1.00  0.00    -0.511 OA 
ENDBRANCH  11  16
ENDBRANCH  10  11
ENDBRANCH   8  10
ENDBRANCH   4   5
ENDBRANCH   3   4
TORSDOF 6
ENDMDL
MODEL       85
REMARK 921   NORMALIZED FREE ENERGY PREDICTED BY IDOCK:   -4.48 KCAL/MOL
REMARK 922        TOTAL FREE ENERGY PREDICTED BY IDOCK:   -7.26 KCAL/MOL
REMARK 923 INTER-LIGAND FREE ENERGY PREDICTED BY IDOCK:   -6.41 KCAL/MOL
REMARK 924 INTRA-LIGAND FREE ENERGY PREDICTED BY IDOCK:   -0.85 KCAL/MOL
REMARK 927      BINDING AFFINITY PREDICTED BY RF-SCORE:    0.00 PKD
ROOT
HETATM    1 NA   UNL     1     -11.657   8.023  67.901  1.00  0.00    -0.444 Na 
HETATM    2  C   UNL     2     -11.976   9.754  71.174  1.00  0.00    -0.463 C  
HETATM    3  C   UNL     2     -11.657  11.071  70.480  1.00  0.00    -0.344 C  
ENDROOT
BRANCH   3   4
HETATM    4  C   UNL     2     -11.564  10.884  68.967  1.00  0.00    -0.387 C  
BRANCH   4   5
HETATM    5  C   UNL     2     -10.820  12.011  68.244  1.00  0.00    -0.263 C  
HETATM    6  C   UNL     2      -9.273  11.968  68.318  1.00  0.00    -0.192 C  
HETATM    7  C   UNL     2      -8.665  10.626  67.852  1.00  0.00    -0.127 C  
HETATM    8  C   UNL     2      -8.639  13.138  67.527  1.00  0.00    -0.196 C  
HETATM    9  C   UNL     2      -8.849  10.302  66.374  1.00  0.00    -0.158 C  
BRANCH   8  10
HETATM   10  C   UNL     2      -9.061  14.538  67.975  1.00  0.00    -0.185 C  
BRANCH  10  11
HETATM   11  C   UNL     2      -9.910  15.364  66.984  1.00  0.00    -0.232 C  
BRANCH  11  12
HETATM   12  C   UNL     2     -11.275  14.680  66.730  1.00  0.00    -0.344 C  
HETATM   13  C   UNL     2     -10.646  13.330  64.637  1.00  0.00    -0.421 C  
HETATM   14  C   UNL     2     -11.604  14.351  65.256  1.00  0.00    -0.353 C  
HETATM   15  C   UNL     2     -13.035  13.800  65.161  1.00  0.00    -0.279 C  
ENDBRANCH  11  12
BRANCH  11  16
HETATM   16  O   UNL     2     -10.153  16.653  67.540  1.00  0.00    -0.260 OA 
HETATM   17  O   UNL     2     -10.607  17.610  65.339  1.00  0.00    -0.657 OA 
HETATM   18  O   UNL     2     -10.713  19.014  67.348  1.00  0.00    -0.461 OA 
HETATM   19  S   UNL     2      -9.989  17.986  66.607  1.00  0.00    -0.381 S  
HETATM   20  O   UNL     2      -8.551  18.196  66.515  1.00  0.00    -0.261 OA 
ENDBRANCH  11  16
ENDBRANCH  10  11
ENDBRANCH   8  10
ENDBRANCH   4   5
ENDBRANCH   3   4
TORSDOF 6
ENDMDL
MODEL       86
REMARK 921   NORMALIZED FREE ENERGY PREDICTED BY IDOCK:   -4.48 KCAL/MOL
REMARK 922        TOTAL FREE ENERGY PREDICTED BY IDOCK:   -7.25 KCAL/MOL
REMARK 923 INTER-LIGAND FREE ENERGY PREDICTED BY IDOCK:   -6.29 KCAL/MOL
REMARK 924 INTRA-LIGAND FREE ENERGY PREDICTED BY IDOCK:   -0.96 KCAL/MOL
REMARK 927      BINDING AFFINITY PREDICTED BY RF-SCORE:    0.00 PKD
ROOT
HETATM    1 NA   UNL     1      -8.376  11.722  64.924  1.00  0.00    -0.374 Na 
HETATM    2  C   UNL     2     -11.727  11.682  63.318  1.00  0.00    -0.233 C  
HETATM    3  C   UNL     2     -12.037  13.013  63.988  1.00  0.00    -0.519 C  
ENDROOT
BRANCH   3   4
HETATM    4  C   UNL     2     -10.810  13.556  64.719  1.00  0.00    -0.392 C  
BRANCH   4   5
HETATM    5  C   UNL     2     -11.141  14.342  65.991  1.00  0.00    -0.324 C  
HETATM    6  C   UNL     2     -10.204  14.112  67.202  1.00  0.00    -0.258 C  
HETATM    7  C   UNL     2      -8.708  14.337  66.883  1.00  0.00    -0.202 C  
HETATM    8  C   UNL     2     -10.622  14.982  68.412  1.00  0.00    -0.239 C  
HETATM    9  C   UNL     2      -8.320  15.771  66.542  1.00  0.00    -0.313 C  
BRANCH   8  10
HETATM   10  C   UNL     2     -12.050  14.763  68.914  1.00  0.00    -0.240 C  
BRANCH  10  11
HETATM   11  C   UNL     2     -12.223  13.876  70.166  1.00  0.00    -0.358 C  
BRANCH  11  12
HETATM   12  C   UNL     2     -11.171  12.740  70.182  1.00  0.00     0.378 C  
HETATM   13  C   UNL     2     -12.101  11.327  68.250  1.00  0.00    -0.058 C  
HETATM   14  C   UNL     2     -11.667  11.352  69.718  1.00  0.00    -0.418 C  
HETATM   15  C   UNL     2     -10.549  10.317  69.915  1.00  0.00    -0.324 C  
ENDBRANCH  11  12
BRANCH  11  16
HETATM   16  O   UNL     2     -12.037  14.674  71.332  1.00  0.00    -0.330 OA 
HETATM   17  O   UNL     2     -13.572  13.287  72.630  1.00  0.00    -0.626 OA 
HETATM   18  O   UNL     2     -12.478  15.225  73.662  1.00  0.00    -0.478 OA 
HETATM   19  S   UNL     2     -13.180  14.687  72.501  1.00  0.00    -0.465 S  
HETATM   20  O   UNL     2     -14.235  15.542  71.973  1.00  0.00    -0.518 OA 
ENDBRANCH  11  16
ENDBRANCH  10  11
ENDBRANCH   8  10
ENDBRANCH   4   5
ENDBRANCH   3   4
TORSDOF 6
ENDMDL
MODEL       87
REMARK 921   NORMALIZED FREE ENERGY PREDICTED BY IDOCK:   -4.48 KCAL/MOL
REMARK 922        TOTAL FREE ENERGY PREDICTED BY IDOCK:   -7.25 KCAL/MOL
REMARK 923 INTER-LIGAND FREE ENERGY PREDICTED BY IDOCK:   -6.17 KCAL/MOL
REMARK 924 INTRA-LIGAND FREE ENERGY PREDICTED BY IDOCK:   -1.08 KCAL/MOL
REMARK 927      BINDING AFFINITY PREDICTED BY RF-SCORE:    0.00 PKD
ROOT
HETATM    1 NA   UNL     1     -10.000   7.733  70.606  1.00  0.00    -0.177 Na 
HETATM    2  C   UNL     2     -10.361   7.905  66.910  1.00  0.00    -0.400 C  
HETATM    3  C   UNL     2      -9.838   9.334  66.951  1.00  0.00    -0.276 C  
ENDROOT
BRANCH   3   4
HETATM    4  C   UNL     2      -9.387   9.712  68.361  1.00  0.00    -0.136 C  
BRANCH   4   5
HETATM    5  C   UNL     2      -9.496  11.209  68.670  1.00  0.00    -0.196 C  
HETATM    6  C   UNL     2     -10.861  11.874  68.366  1.00  0.00    -0.263 C  
HETATM    7  C   UNL     2     -12.061  11.165  69.035  1.00  0.00    -0.315 C  
HETATM    8  C   UNL     2     -10.854  13.374  68.747  1.00  0.00    -0.275 C  
HETATM    9  C   UNL     2     -12.092  11.227  70.557  1.00  0.00    -0.481 C  
BRANCH   8  10
HETATM   10  C   UNL     2      -9.788  14.222  68.052  1.00  0.00    -0.224 C  
BRANCH  10  11
HETATM   11  C   UNL     2     -10.270  15.178  66.939  1.00  0.00    -0.259 C  
BRANCH  11  12
HETATM   12  C   UNL     2     -11.478  14.573  66.183  1.00  0.00    -0.357 C  
HETATM   13  C   UNL     2     -10.232  12.759  64.859  1.00  0.00    -0.294 C  
HETATM   14  C   UNL     2     -11.172  13.965  64.795  1.00  0.00    -0.369 C  
HETATM   15  C   UNL     2     -12.484  13.529  64.126  1.00  0.00    -0.301 C  
ENDBRANCH  11  12
BRANCH  11  16
HETATM   16  O   UNL     2     -10.683  16.408  67.529  1.00  0.00    -0.325 OA 
HETATM   17  O   UNL     2     -10.238  17.642  65.469  1.00  0.00    -0.600 OA 
HETATM   18  O   UNL     2     -11.081  18.808  67.454  1.00  0.00    -0.332 OA 
HETATM   19  S   UNL     2     -10.148  17.825  66.913  1.00  0.00    -0.357 S  
HETATM   20  O   UNL     2      -8.781  17.945  67.402  1.00  0.00    -0.233 OA 
ENDBRANCH  11  16
ENDBRANCH  10  11
ENDBRANCH   8  10
ENDBRANCH   4   5
ENDBRANCH   3   4
TORSDOF 6
ENDMDL
MODEL       88
REMARK 921   NORMALIZED FREE ENERGY PREDICTED BY IDOCK:   -4.45 KCAL/MOL
REMARK 922        TOTAL FREE ENERGY PREDICTED BY IDOCK:   -7.21 KCAL/MOL
REMARK 923 INTER-LIGAND FREE ENERGY PREDICTED BY IDOCK:   -6.87 KCAL/MOL
REMARK 924 INTRA-LIGAND FREE ENERGY PREDICTED BY IDOCK:   -0.34 KCAL/MOL
REMARK 927      BINDING AFFINITY PREDICTED BY RF-SCORE:    0.00 PKD
ROOT
HETATM    1 NA   UNL     1      -7.668  17.208  65.422  1.00  0.00    -0.258 Na 
HETATM    2  C   UNL     2     -10.321  19.686  66.221  1.00  0.00    -0.619 C  
HETATM    3  C   UNL     2     -10.511  19.009  67.571  1.00  0.00    -0.537 C  
ENDROOT
BRANCH   3   4
HETATM    4  C   UNL     2      -9.466  17.917  67.788  1.00  0.00    -0.263 C  
BRANCH   4   5
HETATM    5  C   UNL     2      -9.968  16.728  68.614  1.00  0.00    -0.276 C  
HETATM    6  C   UNL     2     -10.478  15.504  67.814  1.00  0.00    -0.273 C  
HETATM    7  C   UNL     2      -9.459  14.966  66.784  1.00  0.00    -0.269 C  
HETATM    8  C   UNL     2     -10.928  14.363  68.758  1.00  0.00    -0.264 C  
HETATM    9  C   UNL     2      -8.189  14.363  67.373  1.00  0.00    -0.215 C  
BRANCH   8  10
HETATM   10  C   UNL     2     -12.032  14.729  69.750  1.00  0.00    -0.368 C  
BRANCH  10  11
HETATM   11  C   UNL     2     -12.572  13.594  70.647  1.00  0.00    -0.296 C  
BRANCH  11  12
HETATM   12  C   UNL     2     -12.094  12.215  70.131  1.00  0.00    -0.368 C  
HETATM   13  C   UNL     2     -13.221  10.730  71.897  1.00  0.00    -0.524 C  
HETATM   14  C   UNL     2     -11.913  11.116  71.203  1.00  0.00    -0.172 C  
HETATM   15  C   UNL     2     -11.314   9.859  70.553  1.00  0.00    -0.399 C  
ENDBRANCH  11  12
BRANCH  11  16
HETATM   16  O   UNL     2     -12.078  13.771  71.972  1.00  0.00     0.068 OA 
HETATM   17  O   UNL     2     -13.955  15.215  72.569  1.00  0.00    -0.483 OA 
HETATM   18  O   UNL     2     -12.207  14.712  74.213  1.00  0.00    -0.473 OA 
HETATM   19  S   UNL     2     -12.527  15.083  72.838  1.00  0.00    -0.403 S  
HETATM   20  O   UNL     2     -11.727  16.172  72.296  1.00  0.00    -0.480 OA 
ENDBRANCH  11  16
ENDBRANCH  10  11
ENDBRANCH   8  10
ENDBRANCH   4   5
ENDBRANCH   3   4
TORSDOF 6
ENDMDL
MODEL       89
REMARK 921   NORMALIZED FREE ENERGY PREDICTED BY IDOCK:   -4.43 KCAL/MOL
REMARK 922        TOTAL FREE ENERGY PREDICTED BY IDOCK:   -7.19 KCAL/MOL
REMARK 923 INTER-LIGAND FREE ENERGY PREDICTED BY IDOCK:   -6.31 KCAL/MOL
REMARK 924 INTRA-LIGAND FREE ENERGY PREDICTED BY IDOCK:   -0.88 KCAL/MOL
REMARK 927      BINDING AFFINITY PREDICTED BY RF-SCORE:    0.00 PKD
ROOT
HETATM    1 NA   UNL     1     -12.200  16.201  63.256  1.00  0.00    -0.896 Na 
HETATM    2  C   UNL     2     -10.532  18.076  65.998  1.00  0.00    -0.317 C  
HETATM    3  C   UNL     2      -9.887  16.778  66.460  1.00  0.00    -0.303 C  
ENDROOT
BRANCH   3   4
HETATM    4  C   UNL     2     -10.190  15.639  65.487  1.00  0.00    -0.414 C  
BRANCH   4   5
HETATM    5  C   UNL     2     -10.307  14.264  66.153  1.00  0.00    -0.305 C  
HETATM    6  C   UNL     2     -11.716  13.624  66.160  1.00  0.00    -0.391 C  
HETATM    7  C   UNL     2     -12.363  13.527  64.760  1.00  0.00    -0.435 C  
HETATM    8  C   UNL     2     -11.698  12.229  66.832  1.00  0.00    -0.404 C  
HETATM    9  C   UNL     2     -11.672  12.584  63.783  1.00  0.00    -0.564 C  
BRANCH   8  10
HETATM   10  C   UNL     2     -11.196  12.203  68.276  1.00  0.00    -0.319 C  
BRANCH  10  11
HETATM   11  C   UNL     2      -9.994  11.282  68.582  1.00  0.00    -0.204 C  
BRANCH  11  12
HETATM   12  C   UNL     2     -10.425   9.796  68.560  1.00  0.00    -0.239 C  
HETATM   13  C   UNL     2     -11.442   9.655  70.913  1.00  0.00    -0.427 C  
HETATM   14  C   UNL     2     -10.429   9.072  69.926  1.00  0.00    -0.226 C  
HETATM   15  C   UNL     2     -10.750   7.584  69.716  1.00  0.00    -0.249 C  
ENDBRANCH  11  12
BRANCH  11  16
HETATM   16  O   UNL     2      -8.995  11.473  67.583  1.00  0.00    -0.153 OA 
HETATM   17  O   UNL     2      -7.197  11.066  69.185  1.00  0.00    -0.101 OA 
HETATM   18  O   UNL     2      -6.679  11.579  66.844  1.00  0.00    -0.129 OA 
HETATM   19  S   UNL     2      -7.479  11.900  68.021  1.00  0.00    -0.117 S  
HETATM   20  O   UNL     2      -7.571  13.320  68.329  1.00  0.00    -0.119 OA 
ENDBRANCH  11  16
ENDBRANCH  10  11
ENDBRANCH   8  10
ENDBRANCH   4   5
ENDBRANCH   3   4
TORSDOF 6
ENDMDL
MODEL       90
REMARK 921   NORMALIZED FREE ENERGY PREDICTED BY IDOCK:   -4.43 KCAL/MOL
REMARK 922        TOTAL FREE ENERGY PREDICTED BY IDOCK:   -7.19 KCAL/MOL
REMARK 923 INTER-LIGAND FREE ENERGY PREDICTED BY IDOCK:   -6.10 KCAL/MOL
REMARK 924 INTRA-LIGAND FREE ENERGY PREDICTED BY IDOCK:   -1.09 KCAL/MOL
REMARK 927      BINDING AFFINITY PREDICTED BY RF-SCORE:    0.00 PKD
ROOT
HETATM    1 NA   UNL     1      -6.774   7.867  67.956  1.00  0.00    -0.050 Na 
HETATM    2  C   UNL     2     -10.475   7.549  67.824  1.00  0.00    -0.288 C  
HETATM    3  C   UNL     2     -10.505   8.633  66.757  1.00  0.00    -0.298 C  
ENDROOT
BRANCH   3   4
HETATM    4  C   UNL     2      -9.090   9.029  66.338  1.00  0.00    -0.213 C  
BRANCH   4   5
HETATM    5  C   UNL     2      -8.799  10.528  66.466  1.00  0.00    -0.155 C  
HETATM    6  C   UNL     2      -9.215  11.195  67.800  1.00  0.00    -0.153 C  
HETATM    7  C   UNL     2      -8.641  10.494  69.052  1.00  0.00    -0.160 C  
HETATM    8  C   UNL     2      -8.842  12.697  67.819  1.00  0.00    -0.179 C  
HETATM    9  C   UNL     2      -7.127  10.563  69.206  1.00  0.00    -0.097 C  
BRANCH   8  10
HETATM   10  C   UNL     2      -9.452  13.539  66.697  1.00  0.00    -0.271 C  
BRANCH  10  11
HETATM   11  C   UNL     2     -10.915  13.999  66.885  1.00  0.00    -0.298 C  
BRANCH  11  12
HETATM   12  C   UNL     2     -11.051  14.890  68.143  1.00  0.00    -0.290 C  
HETATM   13  C   UNL     2     -11.804  13.090  69.812  1.00  0.00    -0.381 C  
HETATM   14  C   UNL     2     -12.112  14.447  69.175  1.00  0.00    -0.316 C  
HETATM   15  C   UNL     2     -12.213  15.499  70.290  1.00  0.00    -0.432 C  
ENDBRANCH  11  12
BRANCH  11  16
HETATM   16  O   UNL     2     -11.311  14.764  65.749  1.00  0.00    -0.340 OA 
HETATM   17  O   UNL     2     -13.102  13.193  65.211  1.00  0.00    -0.678 OA 
HETATM   18  O   UNL     2     -12.722  15.168  63.808  1.00  0.00    -0.722 OA 
HETATM   19  S   UNL     2     -12.132  14.046  64.531  1.00  0.00    -0.455 S  
HETATM   20  O   UNL     2     -11.120  13.305  63.792  1.00  0.00    -0.320 OA 
ENDBRANCH  11  16
ENDBRANCH  10  11
ENDBRANCH   8  10
ENDBRANCH   4   5
ENDBRANCH   3   4
TORSDOF 6
ENDMDL
MODEL       91
REMARK 921   NORMALIZED FREE ENERGY PREDICTED BY IDOCK:   -4.43 KCAL/MOL
REMARK 922        TOTAL FREE ENERGY PREDICTED BY IDOCK:   -7.18 KCAL/MOL
REMARK 923 INTER-LIGAND FREE ENERGY PREDICTED BY IDOCK:   -6.18 KCAL/MOL
REMARK 924 INTRA-LIGAND FREE ENERGY PREDICTED BY IDOCK:   -1.00 KCAL/MOL
REMARK 927      BINDING AFFINITY PREDICTED BY RF-SCORE:    0.00 PKD
ROOT
HETATM    1 NA   UNL     1     -13.442  14.539  65.283  1.00  0.00    -0.600 Na 
HETATM    2  C   UNL     2      -9.857  13.871  66.003  1.00  0.00    -0.306 C  
HETATM    3  C   UNL     2     -10.088  14.320  67.439  1.00  0.00    -0.247 C  
ENDROOT
BRANCH   3   4
HETATM    4  C   UNL     2     -11.569  14.595  67.695  1.00  0.00    -0.383 C  
BRANCH   4   5
HETATM    5  C   UNL     2     -12.254  13.547  68.578  1.00  0.00    -0.160 C  
HETATM    6  C   UNL     2     -11.765  13.463  70.045  1.00  0.00    -0.297 C  
HETATM    7  C   UNL     2     -11.808  14.814  70.794  1.00  0.00    -0.370 C  
HETATM    8  C   UNL     2     -12.551  12.392  70.840  1.00  0.00    -0.337 C  
HETATM    9  C   UNL     2     -13.200  15.386  71.034  1.00  0.00    -0.560 C  
BRANCH   8  10
HETATM   10  C   UNL     2     -12.486  10.974  70.272  1.00  0.00    -0.365 C  
BRANCH  10  11
HETATM   11  C   UNL     2     -11.080  10.373  70.052  1.00  0.00    -0.314 C  
BRANCH  11  12
HETATM   12  C   UNL     2     -10.642   9.541  71.281  1.00  0.00    -0.358 C  
HETATM   13  C   UNL     2      -8.165   9.233  70.676  1.00  0.00    -0.224 C  
HETATM   14  C   UNL     2      -9.482   8.547  71.048  1.00  0.00    -0.234 C  
HETATM   15  C   UNL     2      -9.258   7.713  72.319  1.00  0.00    -0.189 C  
ENDBRANCH  11  12
BRANCH  11  16
HETATM   16  O   UNL     2     -11.115   9.510  68.918  1.00  0.00    -0.142 OA 
HETATM   17  O   UNL     2      -9.328  10.754  67.811  1.00  0.00    -0.149 OA 
HETATM   18  O   UNL     2     -10.347   8.810  66.717  1.00  0.00    -0.279 OA 
HETATM   19  S   UNL     2     -10.555  10.040  67.476  1.00  0.00    -0.285 S  
HETATM   20  O   UNL     2     -11.612  10.903  66.966  1.00  0.00    -0.383 OA 
ENDBRANCH  11  16
ENDBRANCH  10  11
ENDBRANCH   8  10
ENDBRANCH   4   5
ENDBRANCH   3   4
TORSDOF 6
ENDMDL
MODEL       92
REMARK 921   NORMALIZED FREE ENERGY PREDICTED BY IDOCK:   -4.43 KCAL/MOL
REMARK 922        TOTAL FREE ENERGY PREDICTED BY IDOCK:   -7.18 KCAL/MOL
REMARK 923 INTER-LIGAND FREE ENERGY PREDICTED BY IDOCK:   -6.16 KCAL/MOL
REMARK 924 INTRA-LIGAND FREE ENERGY PREDICTED BY IDOCK:   -1.03 KCAL/MOL
REMARK 927      BINDING AFFINITY PREDICTED BY RF-SCORE:    0.00 PKD
ROOT
HETATM    1 NA   UNL     1     -14.058  14.271  65.418  1.00  0.00    -0.796 Na 
HETATM    2  C   UNL     2     -10.787  15.952  64.879  1.00  0.00    -0.420 C  
HETATM    3  C   UNL     2     -10.516  15.847  66.373  1.00  0.00    -0.311 C  
ENDROOT
BRANCH   3   4
HETATM    4  C   UNL     2     -11.610  15.042  67.073  1.00  0.00    -0.248 C  
BRANCH   4   5
HETATM    5  C   UNL     2     -11.111  13.746  67.722  1.00  0.00    -0.288 C  
HETATM    6  C   UNL     2     -11.811  12.441  67.270  1.00  0.00    -0.357 C  
HETATM    7  C   UNL     2     -11.812  12.233  65.738  1.00  0.00    -0.417 C  
HETATM    8  C   UNL     2     -11.202  11.203  67.971  1.00  0.00    -0.359 C  
HETATM    9  C   UNL     2     -10.443  12.007  65.108  1.00  0.00    -0.328 C  
BRANCH   8  10
HETATM   10  C   UNL     2     -11.253  11.223  69.498  1.00  0.00    -0.337 C  
BRANCH  10  11
HETATM   11  C   UNL     2     -10.740   9.964  70.232  1.00  0.00    -0.310 C  
BRANCH  11  12
HETATM   12  C   UNL     2     -11.920   9.045  70.632  1.00  0.00    -0.138 C  
HETATM   13  C   UNL     2     -10.933   8.072  72.795  1.00  0.00    -0.449 C  
HETATM   14  C   UNL     2     -11.547   7.771  71.425  1.00  0.00    -0.305 C  
HETATM   15  C   UNL     2     -12.802   6.909  71.629  1.00  0.00    -0.383 C  
ENDBRANCH  11  12
BRANCH  11  16
HETATM   16  O   UNL     2      -9.881   9.235  69.360  1.00  0.00    -0.165 OA 
HETATM   17  O   UNL     2      -8.131   9.100  71.060  1.00  0.00    -0.179 OA 
HETATM   18  O   UNL     2      -7.790   8.098  68.848  1.00  0.00    -0.108 OA 
HETATM   19  S   UNL     2      -8.265   9.246  69.614  1.00  0.00    -0.140 S  
HETATM   20  O   UNL     2      -7.824  10.540  69.114  1.00  0.00    -0.117 OA 
ENDBRANCH  11  16
ENDBRANCH  10  11
ENDBRANCH   8  10
ENDBRANCH   4   5
ENDBRANCH   3   4
TORSDOF 6
ENDMDL
MODEL       93
REMARK 921   NORMALIZED FREE ENERGY PREDICTED BY IDOCK:   -4.39 KCAL/MOL
REMARK 922        TOTAL FREE ENERGY PREDICTED BY IDOCK:   -7.14 KCAL/MOL
REMARK 923 INTER-LIGAND FREE ENERGY PREDICTED BY IDOCK:   -6.21 KCAL/MOL
REMARK 924 INTRA-LIGAND FREE ENERGY PREDICTED BY IDOCK:   -0.93 KCAL/MOL
REMARK 927      BINDING AFFINITY PREDICTED BY RF-SCORE:    0.00 PKD
ROOT
HETATM    1 NA   UNL     1     -12.202   6.673  67.301  1.00  0.00    -0.664 Na 
HETATM    2  C   UNL     2      -8.488   6.829  67.310  1.00  0.00    -0.120 C  
HETATM    3  C   UNL     2      -8.570   8.215  66.686  1.00  0.00    -0.140 C  
ENDROOT
BRANCH   3   4
HETATM    4  C   UNL     2     -10.019   8.691  66.598  1.00  0.00    -0.357 C  
BRANCH   4   5
HETATM    5  C   UNL     2     -10.263  10.066  67.229  1.00  0.00    -0.275 C  
HETATM    6  C   UNL     2     -11.080  10.080  68.544  1.00  0.00    -0.219 C  
HETATM    7  C   UNL     2     -10.511   9.151  69.641  1.00  0.00    -0.230 C  
HETATM    8  C   UNL     2     -11.232  11.518  69.097  1.00  0.00    -0.337 C  
HETATM    9  C   UNL     2      -9.148   9.550  70.195  1.00  0.00    -0.276 C  
BRANCH   8  10
HETATM   10  C   UNL     2     -11.902  12.516  68.153  1.00  0.00    -0.371 C  
BRANCH  10  11
HETATM   11  C   UNL     2     -10.973  13.454  67.352  1.00  0.00    -0.272 C  
BRANCH  11  12
HETATM   12  C   UNL     2      -9.632  13.663  68.098  1.00  0.00    -0.221 C  
HETATM   13  C   UNL     2     -10.379  15.503  69.726  1.00  0.00    -0.316 C  
HETATM   14  C   UNL     2      -9.377  15.085  68.648  1.00  0.00    -0.202 C  
HETATM   15  C   UNL     2      -7.961  15.159  69.239  1.00  0.00    -0.213 C  
ENDBRANCH  11  12
BRANCH  11  16
HETATM   16  O   UNL     2     -10.693  12.864  66.086  1.00  0.00    -0.268 OA 
HETATM   17  O   UNL     2     -11.029  14.987  64.926  1.00  0.00    -0.388 OA 
HETATM   18  O   UNL     2     -10.443  12.966  63.667  1.00  0.00    -0.324 OA 
HETATM   19  S   UNL     2     -11.260  13.561  64.720  1.00  0.00    -0.370 S  
HETATM   20  O   UNL     2     -12.669  13.197  64.680  1.00  0.00    -0.653 OA 
ENDBRANCH  11  16
ENDBRANCH  10  11
ENDBRANCH   8  10
ENDBRANCH   4   5
ENDBRANCH   3   4
TORSDOF 6
ENDMDL
MODEL       94
REMARK 921   NORMALIZED FREE ENERGY PREDICTED BY IDOCK:   -4.39 KCAL/MOL
REMARK 922        TOTAL FREE ENERGY PREDICTED BY IDOCK:   -7.13 KCAL/MOL
REMARK 923 INTER-LIGAND FREE ENERGY PREDICTED BY IDOCK:   -6.27 KCAL/MOL
REMARK 924 INTRA-LIGAND FREE ENERGY PREDICTED BY IDOCK:   -0.86 KCAL/MOL
REMARK 927      BINDING AFFINITY PREDICTED BY RF-SCORE:    0.00 PKD
ROOT
HETATM    1 NA   UNL     1     -13.110  10.422  68.959  1.00  0.00    -0.517 Na 
HETATM    2  C   UNL     2      -9.499  10.309  68.089  1.00  0.00    -0.155 C  
HETATM    3  C   UNL     2      -9.740  11.397  67.052  1.00  0.00    -0.210 C  
ENDROOT
BRANCH   3   4
HETATM    4  C   UNL     2     -11.176  11.914  67.125  1.00  0.00    -0.377 C  
BRANCH   4   5
HETATM    5  C   UNL     2     -11.339  13.367  66.667  1.00  0.00    -0.350 C  
HETATM    6  C   UNL     2     -10.445  13.817  65.486  1.00  0.00    -0.327 C  
HETATM    7  C   UNL     2     -10.559  12.912  64.238  1.00  0.00    -0.430 C  
HETATM    8  C   UNL     2     -10.723  15.290  65.098  1.00  0.00    -0.455 C  
HETATM    9  C   UNL     2     -11.913  12.929  63.539  1.00  0.00    -0.629 C  
BRANCH   8  10
HETATM   10  C   UNL     2     -10.521  16.312  66.217  1.00  0.00    -0.314 C  
BRANCH  10  11
HETATM   11  C   UNL     2      -9.069  16.569  66.676  1.00  0.00    -0.255 C  
BRANCH  11  12
HETATM   12  C   UNL     2      -8.343  15.233  66.969  1.00  0.00    -0.267 C  
HETATM   13  C   UNL     2      -9.354  14.745  69.279  1.00  0.00    -0.050 C  
HETATM   14  C   UNL     2      -8.074  14.922  68.459  1.00  0.00    -0.147 C  
HETATM   15  C   UNL     2      -7.239  13.637  68.571  1.00  0.00    -0.109 C  
ENDBRANCH  11  12
BRANCH  11  16
HETATM   16  O   UNL     2      -8.364  17.241  65.636  1.00  0.00    -0.475 OA 
HETATM   17  O   UNL     2      -6.932  18.400  67.240  1.00  0.00    -0.196 OA 
HETATM   18  O   UNL     2      -6.661  18.785  64.834  1.00  0.00    -0.508 OA 
HETATM   19  S   UNL     2      -7.582  18.641  65.957  1.00  0.00    -0.149 S  
HETATM   20  O   UNL     2      -8.636  19.645  66.016  1.00  0.00    -0.351 OA 
ENDBRANCH  11  16
ENDBRANCH  10  11
ENDBRANCH   8  10
ENDBRANCH   4   5
ENDBRANCH   3   4
TORSDOF 6
ENDMDL
MODEL       95
REMARK 921   NORMALIZED FREE ENERGY PREDICTED BY IDOCK:   -4.37 KCAL/MOL
REMARK 922        TOTAL FREE ENERGY PREDICTED BY IDOCK:   -7.11 KCAL/MOL
REMARK 923 INTER-LIGAND FREE ENERGY PREDICTED BY IDOCK:   -6.13 KCAL/MOL
REMARK 924 INTRA-LIGAND FREE ENERGY PREDICTED BY IDOCK:   -0.99 KCAL/MOL
REMARK 927      BINDING AFFINITY PREDICTED BY RF-SCORE:    0.00 PKD
ROOT
HETATM    1 NA   UNL     1      -8.478  16.568  65.496  1.00  0.00    -0.290 Na 
HETATM    2  C   UNL     2     -10.714  16.252  68.448  1.00  0.00    -0.311 C  
HETATM    3  C   UNL     2     -11.600  15.311  67.645  1.00  0.00    -0.249 C  
ENDROOT
BRANCH   3   4
HETATM    4  C   UNL     2     -10.975  14.996  66.287  1.00  0.00    -0.338 C  
BRANCH   4   5
HETATM    5  C   UNL     2     -10.299  13.623  66.215  1.00  0.00    -0.293 C  
HETATM    6  C   UNL     2     -11.241  12.403  66.068  1.00  0.00    -0.374 C  
HETATM    7  C   UNL     2     -12.219  12.512  64.876  1.00  0.00    -0.534 C  
HETATM    8  C   UNL     2     -10.441  11.081  65.976  1.00  0.00    -0.304 C  
HETATM    9  C   UNL     2     -11.574  12.490  63.495  1.00  0.00    -0.584 C  
BRANCH   8  10
HETATM   10  C   UNL     2      -9.523  10.787  67.162  1.00  0.00    -0.180 C  
BRANCH  10  11
HETATM   11  C   UNL     2     -10.057   9.815  68.237  1.00  0.00    -0.163 C  
BRANCH  11  12
HETATM   12  C   UNL     2     -10.943  10.565  69.261  1.00  0.00    -0.291 C  
HETATM   13  C   UNL     2     -10.246   9.291  71.379  1.00  0.00    -0.371 C  
HETATM   14  C   UNL     2     -11.404   9.744  70.487  1.00  0.00    -0.382 C  
HETATM   15  C   UNL     2     -12.373  10.585  71.332  1.00  0.00    -0.477 C  
ENDBRANCH  11  12
BRANCH  11  16
HETATM   16  O   UNL     2     -10.853   8.815  67.606  1.00  0.00    -0.190 OA 
HETATM   17  O   UNL     2      -9.555   7.017  68.630  1.00  0.00    -0.139 OA 
HETATM   18  O   UNL     2     -11.427   6.497  67.133  1.00  0.00    -0.221 OA 
HETATM   19  S   UNL     2     -10.243   7.315  67.378  1.00  0.00    -0.265 S  
HETATM   20  O   UNL     2      -9.348   7.451  66.238  1.00  0.00    -0.169 OA 
ENDBRANCH  11  16
ENDBRANCH  10  11
ENDBRANCH   8  10
ENDBRANCH   4   5
ENDBRANCH   3   4
TORSDOF 6
ENDMDL
MODEL       96
REMARK 921   NORMALIZED FREE ENERGY PREDICTED BY IDOCK:   -4.36 KCAL/MOL
REMARK 922        TOTAL FREE ENERGY PREDICTED BY IDOCK:   -7.10 KCAL/MOL
REMARK 923 INTER-LIGAND FREE ENERGY PREDICTED BY IDOCK:   -6.06 KCAL/MOL
REMARK 924 INTRA-LIGAND FREE ENERGY PREDICTED BY IDOCK:   -1.04 KCAL/MOL
REMARK 927      BINDING AFFINITY PREDICTED BY RF-SCORE:    0.00 PKD
ROOT
HETATM    1 NA   UNL     1     -14.348  16.212  69.889  1.00  0.00    -0.587 Na 
HETATM    2  C   UNL     2     -12.580  15.801  73.133  1.00  0.00    -0.607 C  
HETATM    3  C   UNL     2     -11.300  15.496  72.368  1.00  0.00    -0.349 C  
ENDROOT
BRANCH   3   4
HETATM    4  C   UNL     2     -11.502  15.687  70.866  1.00  0.00    -0.425 C  
BRANCH   4   5
HETATM    5  C   UNL     2     -10.299  15.262  70.017  1.00  0.00    -0.240 C  
HETATM    6  C   UNL     2     -10.418  15.503  68.492  1.00  0.00    -0.238 C  
HETATM    7  C   UNL     2     -10.770  16.960  68.117  1.00  0.00    -0.375 C  
HETATM    8  C   UNL     2      -9.133  15.062  67.750  1.00  0.00    -0.180 C  
HETATM    9  C   UNL     2      -9.703  17.997  68.445  1.00  0.00    -0.348 C  
BRANCH   8  10
HETATM   10  C   UNL     2      -8.739  13.596  67.935  1.00  0.00    -0.184 C  
BRANCH  10  11
HETATM   11  C   UNL     2      -9.699  12.535  67.353  1.00  0.00    -0.194 C  
BRANCH  11  12
HETATM   12  C   UNL     2      -9.599  12.496  65.809  1.00  0.00    -0.137 C  
HETATM   13  C   UNL     2     -11.740  13.802  65.252  1.00  0.00    -0.349 C  
HETATM   14  C   UNL     2     -10.942  12.512  65.043  1.00  0.00    -0.329 C  
HETATM   15  C   UNL     2     -10.677  12.338  63.540  1.00  0.00    -0.497 C  
ENDBRANCH  11  12
BRANCH  11  16
HETATM   16  O   UNL     2      -9.335  11.253  67.857  1.00  0.00    -0.153 OA 
HETATM   17  O   UNL     2     -11.661  10.507  67.873  1.00  0.00    -0.453 OA 
HETATM   18  O   UNL     2      -9.873   9.006  68.623  1.00  0.00    -0.157 OA 
HETATM   19  S   UNL     2     -10.440  10.350  68.656  1.00  0.00    -0.210 S  
HETATM   20  O   UNL     2     -10.515  10.950  69.981  1.00  0.00    -0.049 OA 
ENDBRANCH  11  16
ENDBRANCH  10  11
ENDBRANCH   8  10
ENDBRANCH   4   5
ENDBRANCH   3   4
TORSDOF 6
ENDMDL
MODEL       97
REMARK 921   NORMALIZED FREE ENERGY PREDICTED BY IDOCK:   -4.36 KCAL/MOL
REMARK 922        TOTAL FREE ENERGY PREDICTED BY IDOCK:   -7.09 KCAL/MOL
REMARK 923 INTER-LIGAND FREE ENERGY PREDICTED BY IDOCK:   -6.10 KCAL/MOL
REMARK 924 INTRA-LIGAND FREE ENERGY PREDICTED BY IDOCK:   -0.99 KCAL/MOL
REMARK 927      BINDING AFFINITY PREDICTED BY RF-SCORE:    0.00 PKD
ROOT
HETATM    1 NA   UNL     1     -11.061  17.673  70.047  1.00  0.00    -0.458 Na 
HETATM    2  C   UNL     2      -9.203  17.943  66.839  1.00  0.00    -0.267 C  
HETATM    3  C   UNL     2      -9.753  16.582  66.435  1.00  0.00    -0.305 C  
ENDROOT
BRANCH   3   4
HETATM    4  C   UNL     2     -10.764  16.073  67.461  1.00  0.00    -0.314 C  
BRANCH   4   5
HETATM    5  C   UNL     2     -10.774  14.550  67.624  1.00  0.00    -0.254 C  
HETATM    6  C   UNL     2     -12.032  13.814  67.102  1.00  0.00    -0.442 C  
HETATM    7  C   UNL     2     -12.373  14.134  65.629  1.00  0.00    -0.473 C  
HETATM    8  C   UNL     2     -11.909  12.283  67.295  1.00  0.00    -0.330 C  
HETATM    9  C   UNL     2     -11.360  13.646  64.600  1.00  0.00    -0.380 C  
BRANCH   8  10
HETATM   10  C   UNL     2     -11.695  11.819  68.736  1.00  0.00    -0.389 C  
BRANCH  10  11
HETATM   11  C   UNL     2     -10.890  10.517  68.940  1.00  0.00    -0.235 C  
BRANCH  11  12
HETATM   12  C   UNL     2      -9.521  10.603  68.222  1.00  0.00    -0.161 C  
HETATM   13  C   UNL     2     -10.012   9.013  66.265  1.00  0.00    -0.352 C  
HETATM   14  C   UNL     2      -9.086   9.343  67.439  1.00  0.00    -0.141 C  
HETATM   15  C   UNL     2      -7.662   9.541  66.899  1.00  0.00    -0.098 C  
ENDBRANCH  11  12
BRANCH  11  16
HETATM   16  O   UNL     2     -10.653  10.329  70.332  1.00  0.00    -0.278 OA 
HETATM   17  O   UNL     2     -11.052   7.925  70.162  1.00  0.00    -0.255 OA 
HETATM   18  O   UNL     2     -10.496   8.939  72.324  1.00  0.00    -0.313 OA 
HETATM   19  S   UNL     2     -11.278   9.024  71.095  1.00  0.00    -0.335 S  
HETATM   20  O   UNL     2     -12.684   9.349  71.285  1.00  0.00    -0.318 OA 
ENDBRANCH  11  16
ENDBRANCH  10  11
ENDBRANCH   8  10
ENDBRANCH   4   5
ENDBRANCH   3   4
TORSDOF 6
ENDMDL
MODEL       98
REMARK 921   NORMALIZED FREE ENERGY PREDICTED BY IDOCK:   -4.34 KCAL/MOL
REMARK 922        TOTAL FREE ENERGY PREDICTED BY IDOCK:   -7.07 KCAL/MOL
REMARK 923 INTER-LIGAND FREE ENERGY PREDICTED BY IDOCK:   -6.26 KCAL/MOL
REMARK 924 INTRA-LIGAND FREE ENERGY PREDICTED BY IDOCK:   -0.81 KCAL/MOL
REMARK 927      BINDING AFFINITY PREDICTED BY RF-SCORE:    0.00 PKD
ROOT
HETATM    1 NA   UNL     1     -10.551  17.860  69.412  1.00  0.00    -0.333 Na 
HETATM    2  C   UNL     2      -8.590  16.719  66.468  1.00  0.00    -0.312 C  
HETATM    3  C   UNL     2      -9.106  15.307  66.703  1.00  0.00    -0.312 C  
ENDROOT
BRANCH   3   4
HETATM    4  C   UNL     2     -10.145  15.283  67.824  1.00  0.00    -0.230 C  
BRANCH   4   5
HETATM    5  C   UNL     2     -10.443  13.882  68.367  1.00  0.00    -0.250 C  
HETATM    6  C   UNL     2     -11.829  13.290  68.010  1.00  0.00    -0.392 C  
HETATM    7  C   UNL     2     -12.132  13.284  66.494  1.00  0.00    -0.435 C  
HETATM    8  C   UNL     2     -11.999  11.864  68.589  1.00  0.00    -0.291 C  
HETATM    9  C   UNL     2     -11.251  12.367  65.655  1.00  0.00    -0.360 C  
BRANCH   8  10
HETATM   10  C   UNL     2     -11.850  11.750  70.106  1.00  0.00    -0.408 C  
BRANCH  10  11
HETATM   11  C   UNL     2     -11.417  10.377  70.665  1.00  0.00    -0.349 C  
BRANCH  11  12
HETATM   12  C   UNL     2     -12.649   9.561  71.126  1.00  0.00    -0.383 C  
HETATM   13  C   UNL     2     -11.450   7.890  72.664  1.00  0.00    -0.454 C  
HETATM   14  C   UNL     2     -12.388   8.077  71.469  1.00  0.00    -0.335 C  
HETATM   15  C   UNL     2     -13.722   7.381  71.780  1.00  0.00    -0.417 C  
ENDBRANCH  11  12
BRANCH  11  16
HETATM   16  O   UNL     2     -10.753   9.644  69.638  1.00  0.00    -0.220 OA 
HETATM   17  O   UNL     2      -8.716   9.455  70.973  1.00  0.00    -0.261 OA 
HETATM   18  O   UNL     2      -8.822   8.477  68.726  1.00  0.00    -0.138 OA 
HETATM   19  S   UNL     2      -9.120   9.622  69.580  1.00  0.00    -0.225 S  
HETATM   20  O   UNL     2      -8.755  10.915  69.019  1.00  0.00    -0.159 OA 
ENDBRANCH  11  16
ENDBRANCH  10  11
ENDBRANCH   8  10
ENDBRANCH   4   5
ENDBRANCH   3   4
TORSDOF 6
ENDMDL
MODEL       99
REMARK 921   NORMALIZED FREE ENERGY PREDICTED BY IDOCK:   -4.32 KCAL/MOL
REMARK 922        TOTAL FREE ENERGY PREDICTED BY IDOCK:   -7.05 KCAL/MOL
REMARK 923 INTER-LIGAND FREE ENERGY PREDICTED BY IDOCK:   -6.45 KCAL/MOL
REMARK 924 INTRA-LIGAND FREE ENERGY PREDICTED BY IDOCK:   -0.60 KCAL/MOL
REMARK 927      BINDING AFFINITY PREDICTED BY RF-SCORE:    0.00 PKD
ROOT
HETATM    1 NA   UNL     1     -12.680   6.480  69.441  1.00  0.00    -0.570 Na 
HETATM    2  C   UNL     2     -13.860   9.278  71.585  1.00  0.00    -0.366 C  
HETATM    3  C   UNL     2     -12.419   9.746  71.724  1.00  0.00    -0.485 C  
ENDROOT
BRANCH   3   4
HETATM    4  C   UNL     2     -11.487   8.921  70.838  1.00  0.00    -0.339 C  
BRANCH   4   5
HETATM    5  C   UNL     2     -10.920   9.692  69.642  1.00  0.00    -0.253 C  
HETATM    6  C   UNL     2      -9.413  10.043  69.705  1.00  0.00    -0.239 C  
HETATM    7  C   UNL     2      -8.500   8.822  69.956  1.00  0.00    -0.133 C  
HETATM    8  C   UNL     2      -8.955  10.793  68.430  1.00  0.00    -0.153 C  
HETATM    9  C   UNL     2      -8.464   7.790  68.835  1.00  0.00    -0.129 C  
BRANCH   8  10
HETATM   10  C   UNL     2      -9.697  12.096  68.134  1.00  0.00    -0.208 C  
BRANCH  10  11
HETATM   11  C   UNL     2      -9.849  12.492  66.648  1.00  0.00    -0.241 C  
BRANCH  11  12
HETATM   12  C   UNL     2      -9.174  11.444  65.731  1.00  0.00    -0.223 C  
HETATM   13  C   UNL     2     -10.231  12.147  63.499  1.00  0.00    -0.453 C  
HETATM   14  C   UNL     2      -9.985  11.007  64.490  1.00  0.00    -0.366 C  
HETATM   15  C   UNL     2      -9.240   9.878  63.762  1.00  0.00    -0.289 C  
ENDBRANCH  11  12
BRANCH  11  16
HETATM   16  O   UNL     2     -11.235  12.547  66.320  1.00  0.00    -0.286 OA 
HETATM   17  O   UNL     2     -11.054  14.867  65.579  1.00  0.00    -0.329 OA 
HETATM   18  O   UNL     2     -13.212  13.705  65.500  1.00  0.00    -0.608 OA 
HETATM   19  S   UNL     2     -12.000  13.990  66.262  1.00  0.00    -0.451 S  
HETATM   20  O   UNL     2     -12.223  14.344  67.656  1.00  0.00    -0.328 OA 
ENDBRANCH  11  16
ENDBRANCH  10  11
ENDBRANCH   8  10
ENDBRANCH   4   5
ENDBRANCH   3   4
TORSDOF 6
ENDMDL
MODEL      100
REMARK 921   NORMALIZED FREE ENERGY PREDICTED BY IDOCK:   -4.32 KCAL/MOL
REMARK 922        TOTAL FREE ENERGY PREDICTED BY IDOCK:   -7.05 KCAL/MOL
REMARK 923 INTER-LIGAND FREE ENERGY PREDICTED BY IDOCK:   -5.56 KCAL/MOL
REMARK 924 INTRA-LIGAND FREE ENERGY PREDICTED BY IDOCK:   -1.49 KCAL/MOL
REMARK 927      BINDING AFFINITY PREDICTED BY RF-SCORE:    0.00 PKD
ROOT
HETATM    1 NA   UNL     1      -9.946  11.470  69.777  1.00  0.00    -0.398 Na 
HETATM    2  C   UNL     2     -13.149  11.008  71.605  1.00  0.00    -0.543 C  
HETATM    3  C   UNL     2     -12.704   9.601  71.978  1.00  0.00    -0.470 C  
ENDROOT
BRANCH   3   4
HETATM    4  C   UNL     2     -11.267   9.344  71.527  1.00  0.00    -0.457 C  
BRANCH   4   5
HETATM    5  C   UNL     2     -11.157   8.548  70.222  1.00  0.00    -0.222 C  
HETATM    6  C   UNL     2      -9.722   8.233  69.732  1.00  0.00    -0.180 C  
HETATM    7  C   UNL     2      -8.843   7.529  70.791  1.00  0.00    -0.148 C  
HETATM    8  C   UNL     2      -9.742   7.402  68.426  1.00  0.00    -0.158 C  
HETATM    9  C   UNL     2      -9.284   6.123  71.178  1.00  0.00    -0.161 C  
BRANCH   8  10
HETATM   10  C   UNL     2     -10.477   8.047  67.251  1.00  0.00    -0.384 C  
BRANCH  10  11
HETATM   11  C   UNL     2      -9.915   9.386  66.724  1.00  0.00    -0.239 C  
BRANCH  11  12
HETATM   12  C   UNL     2      -8.965   9.148  65.525  1.00  0.00    -0.252 C  
HETATM   13  C   UNL     2      -6.742   9.724  66.674  1.00  0.00    -0.079 C  
HETATM   14  C   UNL     2      -7.680  10.006  65.498  1.00  0.00    -0.135 C  
HETATM   15  C   UNL     2      -6.918   9.745  64.190  1.00  0.00    -0.123 C  
ENDBRANCH  11  12
BRANCH  11  16
HETATM   16  O   UNL     2     -10.996  10.204  66.283  1.00  0.00     0.046 OA 
HETATM   17  O   UNL     2      -9.986  12.207  67.250  1.00  0.00    -0.201 OA 
HETATM   18  O   UNL     2     -12.139  12.343  66.084  1.00  0.00    -0.611 OA 
HETATM   19  S   UNL     2     -11.306  11.620  67.039  1.00  0.00    -0.261 S  
HETATM   20  O   UNL     2     -11.979  11.238  68.273  1.00  0.00    -0.582 OA 
ENDBRANCH  11  16
ENDBRANCH  10  11
ENDBRANCH   8  10
ENDBRANCH   4   5
ENDBRANCH   3   4
TORSDOF 6
ENDMDL
MODEL      101
REMARK 921   NORMALIZED FREE ENERGY PREDICTED BY IDOCK:   -4.32 KCAL/MOL
REMARK 922        TOTAL FREE ENERGY PREDICTED BY IDOCK:   -7.04 KCAL/MOL
REMARK 923 INTER-LIGAND FREE ENERGY PREDICTED BY IDOCK:   -6.36 KCAL/MOL
REMARK 924 INTRA-LIGAND FREE ENERGY PREDICTED BY IDOCK:   -0.68 KCAL/MOL
REMARK 927      BINDING AFFINITY PREDICTED BY RF-SCORE:    0.00 PKD
ROOT
HETATM    1 NA   UNL     1     -12.145  16.082  63.404  1.00  0.00    -0.901 Na 
HETATM    2  C   UNL     2     -10.325  17.480  66.328  1.00  0.00    -0.335 C  
HETATM    3  C   UNL     2     -10.588  16.184  67.080  1.00  0.00    -0.292 C  
ENDROOT
BRANCH   3   4
HETATM    4  C   UNL     2     -11.252  15.149  66.173  1.00  0.00    -0.271 C  
BRANCH   4   5
HETATM    5  C   UNL     2     -10.896  13.699  66.516  1.00  0.00    -0.283 C  
HETATM    6  C   UNL     2     -12.016  12.651  66.305  1.00  0.00    -0.439 C  
HETATM    7  C   UNL     2     -12.622  12.665  64.883  1.00  0.00    -0.525 C  
HETATM    8  C   UNL     2     -11.526  11.225  66.657  1.00  0.00    -0.029 C  
HETATM    9  C   UNL     2     -11.677  12.242  63.765  1.00  0.00    -0.566 C  
BRANCH   8  10
HETATM   10  C   UNL     2     -11.016  11.041  68.086  1.00  0.00    -0.301 C  
BRANCH  10  11
HETATM   11  C   UNL     2     -10.690   9.599  68.533  1.00  0.00    -0.200 C  
BRANCH  11  12
HETATM   12  C   UNL     2      -9.760   8.906  67.507  1.00  0.00    -0.216 C  
HETATM   13  C   UNL     2     -10.562   6.488  67.834  1.00  0.00    -0.313 C  
HETATM   14  C   UNL     2      -9.368   7.446  67.828  1.00  0.00    -0.144 C  
HETATM   15  C   UNL     2      -8.348   6.950  66.791  1.00  0.00    -0.116 C  
ENDBRANCH  11  12
BRANCH  11  16
HETATM   16  O   UNL     2     -10.017   9.641  69.788  1.00  0.00    -0.198 OA 
HETATM   17  O   UNL     2     -11.515   7.965  70.743  1.00  0.00    -0.277 OA 
HETATM   18  O   UNL     2      -9.717   8.936  72.099  1.00  0.00    -0.306 OA 
HETATM   19  S   UNL     2     -10.798   9.170  71.145  1.00  0.00    -0.341 S  
HETATM   20  O   UNL     2     -11.671  10.288  71.473  1.00  0.00    -0.311 OA 
ENDBRANCH  11  16
ENDBRANCH  10  11
ENDBRANCH   8  10
ENDBRANCH   4   5
ENDBRANCH   3   4
TORSDOF 6
ENDMDL
MODEL      102
REMARK 921   NORMALIZED FREE ENERGY PREDICTED BY IDOCK:   -4.32 KCAL/MOL
REMARK 922        TOTAL FREE ENERGY PREDICTED BY IDOCK:   -7.04 KCAL/MOL
REMARK 923 INTER-LIGAND FREE ENERGY PREDICTED BY IDOCK:   -6.27 KCAL/MOL
REMARK 924 INTRA-LIGAND FREE ENERGY PREDICTED BY IDOCK:   -0.77 KCAL/MOL
REMARK 927      BINDING AFFINITY PREDICTED BY RF-SCORE:    0.00 PKD
ROOT
HETATM    1 NA   UNL     1      -8.536  12.185  62.780  1.00  0.00    -0.473 Na 
HETATM    2  C   UNL     2      -8.791   9.435  65.268  1.00  0.00    -0.227 C  
HETATM    3  C   UNL     2      -9.946  10.174  65.928  1.00  0.00    -0.334 C  
ENDROOT
BRANCH   3   4
HETATM    4  C   UNL     2     -10.339  11.410  65.121  1.00  0.00    -0.344 C  
BRANCH   4   5
HETATM    5  C   UNL     2     -10.121  12.733  65.862  1.00  0.00    -0.286 C  
HETATM    6  C   UNL     2     -10.330  14.025  65.034  1.00  0.00    -0.432 C  
HETATM    7  C   UNL     2     -11.704  14.098  64.331  1.00  0.00    -0.409 C  
HETATM    8  C   UNL     2     -10.110  15.290  65.898  1.00  0.00    -0.359 C  
HETATM    9  C   UNL     2     -12.909  14.205  65.258  1.00  0.00    -0.370 C  
BRANCH   8  10
HETATM   10  C   UNL     2      -8.734  15.406  66.553  1.00  0.00    -0.335 C  
BRANCH  10  11
HETATM   11  C   UNL     2      -8.259  16.825  66.936  1.00  0.00    -0.210 C  
BRANCH  11  12
HETATM   12  C   UNL     2      -7.138  17.303  65.981  1.00  0.00    -0.200 C  
HETATM   13  C   UNL     2      -5.535  18.286  67.730  1.00  0.00    -0.155 C  
HETATM   14  C   UNL     2      -6.331  18.536  66.447  1.00  0.00    -0.223 C  
HETATM   15  C   UNL     2      -5.354  18.958  65.339  1.00  0.00    -0.207 C  
ENDBRANCH  11  12
BRANCH  11  16
HETATM   16  O   UNL     2      -9.355  17.729  66.826  1.00  0.00    -0.264 OA 
HETATM   17  O   UNL     2      -8.767  18.830  68.925  1.00  0.00    -0.295 OA 
HETATM   18  O   UNL     2     -10.718  19.575  67.639  1.00  0.00    -0.457 OA 
HETATM   19  S   UNL     2      -9.954  18.448  68.167  1.00  0.00    -0.384 S  
HETATM   20  O   UNL     2     -10.752  17.416  68.812  1.00  0.00    -0.309 OA 
ENDBRANCH  11  16
ENDBRANCH  10  11
ENDBRANCH   8  10
ENDBRANCH   4   5
ENDBRANCH   3   4
TORSDOF 6
ENDMDL
MODEL      103
REMARK 921   NORMALIZED FREE ENERGY PREDICTED BY IDOCK:   -4.31 KCAL/MOL
REMARK 922        TOTAL FREE ENERGY PREDICTED BY IDOCK:   -7.03 KCAL/MOL
REMARK 923 INTER-LIGAND FREE ENERGY PREDICTED BY IDOCK:   -6.19 KCAL/MOL
REMARK 924 INTRA-LIGAND FREE ENERGY PREDICTED BY IDOCK:   -0.84 KCAL/MOL
REMARK 927      BINDING AFFINITY PREDICTED BY RF-SCORE:    0.00 PKD
ROOT
HETATM    1 NA   UNL     1     -11.258  18.770  65.168  1.00  0.00    -0.458 Na 
HETATM    2  C   UNL     2      -8.334  18.920  67.458  1.00  0.00    -0.294 C  
HETATM    3  C   UNL     2      -9.152  18.185  68.510  1.00  0.00    -0.318 C  
ENDROOT
BRANCH   3   4
HETATM    4  C   UNL     2     -10.504  17.750  67.947  1.00  0.00    -0.401 C  
BRANCH   4   5
HETATM    5  C   UNL     2     -10.650  16.235  67.776  1.00  0.00    -0.314 C  
HETATM    6  C   UNL     2     -10.267  15.367  69.000  1.00  0.00    -0.233 C  
HETATM    7  C   UNL     2     -11.001  15.768  70.300  1.00  0.00    -0.368 C  
HETATM    8  C   UNL     2     -10.485  13.862  68.713  1.00  0.00    -0.229 C  
HETATM    9  C   UNL     2     -12.507  15.539  70.299  1.00  0.00    -0.403 C  
BRANCH   8  10
HETATM   10  C   UNL     2      -9.710  13.303  67.519  1.00  0.00    -0.224 C  
BRANCH  10  11
HETATM   11  C   UNL     2     -10.183  11.947  66.951  1.00  0.00    -0.208 C  
BRANCH  11  12
HETATM   12  C   UNL     2     -10.463  12.057  65.433  1.00  0.00    -0.313 C  
HETATM   13  C   UNL     2     -12.564  13.529  65.535  1.00  0.00    -0.531 C  
HETATM   14  C   UNL     2     -11.945  12.225  65.028  1.00  0.00    -0.413 C  
HETATM   15  C   UNL     2     -12.065  12.188  63.497  1.00  0.00    -0.649 C  
ENDBRANCH  11  12
BRANCH  11  16
HETATM   16  O   UNL     2      -9.157  10.977  67.147  1.00  0.00    -0.145 OA 
HETATM   17  O   UNL     2     -10.779   9.152  67.220  1.00  0.00    -0.262 OA 
HETATM   18  O   UNL     2      -8.384   8.693  67.483  1.00  0.00    -0.118 OA 
HETATM   19  S   UNL     2      -9.517   9.541  67.841  1.00  0.00    -0.132 S  
HETATM   20  O   UNL     2      -9.633   9.839  69.262  1.00  0.00    -0.175 OA 
ENDBRANCH  11  16
ENDBRANCH  10  11
ENDBRANCH   8  10
ENDBRANCH   4   5
ENDBRANCH   3   4
TORSDOF 6
ENDMDL
MODEL      104
REMARK 921   NORMALIZED FREE ENERGY PREDICTED BY IDOCK:   -4.31 KCAL/MOL
REMARK 922        TOTAL FREE ENERGY PREDICTED BY IDOCK:   -7.03 KCAL/MOL
REMARK 923 INTER-LIGAND FREE ENERGY PREDICTED BY IDOCK:   -6.37 KCAL/MOL
REMARK 924 INTRA-LIGAND FREE ENERGY PREDICTED BY IDOCK:   -0.66 KCAL/MOL
REMARK 927      BINDING AFFINITY PREDICTED BY RF-SCORE:    0.00 PKD
ROOT
HETATM    1 NA   UNL     1     -11.422   6.899  66.445  1.00  0.00    -0.408 Na 
HETATM    2  C   UNL     2      -9.487   4.773  68.801  1.00  0.00    -0.209 C  
HETATM    3  C   UNL     2     -10.198   5.456  69.961  1.00  0.00    -0.349 C  
ENDROOT
BRANCH   3   4
HETATM    4  C   UNL     2     -11.284   6.404  69.456  1.00  0.00    -0.477 C  
BRANCH   4   5
HETATM    5  C   UNL     2     -10.868   7.878  69.443  1.00  0.00    -0.114 C  
HETATM    6  C   UNL     2     -11.437   8.761  70.582  1.00  0.00    -0.263 C  
HETATM    7  C   UNL     2     -11.163   8.204  71.997  1.00  0.00    -0.372 C  
HETATM    8  C   UNL     2     -10.922  10.217  70.477  1.00  0.00    -0.380 C  
HETATM    9  C   UNL     2      -9.698   8.178  72.417  1.00  0.00    -0.338 C  
BRANCH   8  10
HETATM   10  C   UNL     2     -11.242  10.933  69.165  1.00  0.00    -0.318 C  
BRANCH  10  11
HETATM   11  C   UNL     2     -11.849  12.349  69.270  1.00  0.00    -0.304 C  
BRANCH  11  12
HETATM   12  C   UNL     2     -12.478  12.572  70.667  1.00  0.00    -0.323 C  
HETATM   13  C   UNL     2     -13.004  15.077  70.457  1.00  0.00    -0.344 C  
HETATM   14  C   UNL     2     -12.305  13.985  71.269  1.00  0.00    -0.436 C  
HETATM   15  C   UNL     2     -12.865  14.004  72.700  1.00  0.00    -0.403 C  
ENDBRANCH  11  12
BRANCH  11  16
HETATM   16  O   UNL     2     -10.816  13.313  69.085  1.00  0.00    -0.206 OA 
HETATM   17  O   UNL     2     -12.056  14.423  67.297  1.00  0.00    -0.406 OA 
HETATM   18  O   UNL     2      -9.850  15.253  67.977  1.00  0.00    -0.214 OA 
HETATM   19  S   UNL     2     -10.680  14.095  67.656  1.00  0.00    -0.260 S  
HETATM   20  O   UNL     2     -10.059  13.126  66.765  1.00  0.00    -0.243 OA 
ENDBRANCH  11  16
ENDBRANCH  10  11
ENDBRANCH   8  10
ENDBRANCH   4   5
ENDBRANCH   3   4
TORSDOF 6
ENDMDL
MODEL      105
REMARK 921   NORMALIZED FREE ENERGY PREDICTED BY IDOCK:   -4.30 KCAL/MOL
REMARK 922        TOTAL FREE ENERGY PREDICTED BY IDOCK:   -7.02 KCAL/MOL
REMARK 923 INTER-LIGAND FREE ENERGY PREDICTED BY IDOCK:   -5.99 KCAL/MOL
REMARK 924 INTRA-LIGAND FREE ENERGY PREDICTED BY IDOCK:   -1.02 KCAL/MOL
REMARK 927      BINDING AFFINITY PREDICTED BY RF-SCORE:    0.00 PKD
ROOT
HETATM    1 NA   UNL     1     -11.345   5.423  70.044  1.00  0.00    -0.305 Na 
HETATM    2  C   UNL     2      -9.767   4.412  66.834  1.00  0.00    -0.233 C  
HETATM    3  C   UNL     2     -10.098   5.786  66.268  1.00  0.00    -0.129 C  
ENDROOT
BRANCH   3   4
HETATM    4  C   UNL     2     -10.689   6.694  67.345  1.00  0.00    -0.409 C  
BRANCH   4   5
HETATM    5  C   UNL     2     -10.447   8.187  67.103  1.00  0.00    -0.396 C  
HETATM    6  C   UNL     2     -10.293   9.070  68.366  1.00  0.00    -0.242 C  
HETATM    7  C   UNL     2      -9.211   8.568  69.348  1.00  0.00    -0.153 C  
HETATM    8  C   UNL     2     -10.023  10.547  67.992  1.00  0.00    -0.177 C  
HETATM    9  C   UNL     2      -7.779   8.630  68.832  1.00  0.00    -0.100 C  
BRANCH   8  10
HETATM   10  C   UNL     2     -11.091  11.209  67.120  1.00  0.00    -0.352 C  
BRANCH  10  11
HETATM   11  C   UNL     2     -10.635  11.759  65.751  1.00  0.00    -0.268 C  
BRANCH  11  12
HETATM   12  C   UNL     2     -10.277  10.601  64.787  1.00  0.00    -0.401 C  
HETATM   13  C   UNL     2      -7.821  10.281  65.465  1.00  0.00    -0.152 C  
HETATM   14  C   UNL     2      -8.805  10.539  64.321  1.00  0.00    -0.209 C  
HETATM   15  C   UNL     2      -8.645   9.423  63.277  1.00  0.00    -0.218 C  
ENDBRANCH  11  12
BRANCH  11  16
HETATM   16  O   UNL     2     -11.699  12.509  65.172  1.00  0.00    -0.344 OA 
HETATM   17  O   UNL     2     -10.264  14.459  64.853  1.00  0.00    -0.417 OA 
HETATM   18  O   UNL     2     -12.619  14.530  64.174  1.00  0.00    -0.730 OA 
HETATM   19  S   UNL     2     -11.647  14.143  65.193  1.00  0.00    -0.362 S  
HETATM   20  O   UNL     2     -12.011  14.506  66.555  1.00  0.00    -0.397 OA 
ENDBRANCH  11  16
ENDBRANCH  10  11
ENDBRANCH   8  10
ENDBRANCH   4   5
ENDBRANCH   3   4
TORSDOF 6
ENDMDL
MODEL      106
REMARK 921   NORMALIZED FREE ENERGY PREDICTED BY IDOCK:   -4.27 KCAL/MOL
REMARK 922        TOTAL FREE ENERGY PREDICTED BY IDOCK:   -6.98 KCAL/MOL
REMARK 923 INTER-LIGAND FREE ENERGY PREDICTED BY IDOCK:   -5.93 KCAL/MOL
REMARK 924 INTRA-LIGAND FREE ENERGY PREDICTED BY IDOCK:   -1.05 KCAL/MOL
REMARK 927      BINDING AFFINITY PREDICTED BY RF-SCORE:    0.00 PKD
ROOT
HETATM    1 NA   UNL     1      -7.368  11.637  65.886  1.00  0.00    -0.296 Na 
HETATM    2  C   UNL     2      -9.171   8.895  67.630  1.00  0.00    -0.151 C  
HETATM    3  C   UNL     2     -10.448   9.313  66.916  1.00  0.00    -0.284 C  
ENDROOT
BRANCH   3   4
HETATM    4  C   UNL     2     -10.168  10.416  65.896  1.00  0.00    -0.302 C  
BRANCH   4   5
HETATM    5  C   UNL     2     -10.888  11.736  66.193  1.00  0.00    -0.336 C  
HETATM    6  C   UNL     2     -10.610  12.903  65.213  1.00  0.00    -0.316 C  
HETATM    7  C   UNL     2     -10.868  12.546  63.731  1.00  0.00    -0.489 C  
HETATM    8  C   UNL     2     -11.415  14.167  65.600  1.00  0.00    -0.325 C  
HETATM    9  C   UNL     2     -12.321  12.264  63.369  1.00  0.00    -0.624 C  
BRANCH   8  10
HETATM   10  C   UNL     2     -11.156  14.704  67.008  1.00  0.00    -0.333 C  
BRANCH  10  11
HETATM   11  C   UNL     2      -9.986  15.698  67.173  1.00  0.00    -0.240 C  
BRANCH  11  12
HETATM   12  C   UNL     2     -10.516  17.124  67.460  1.00  0.00    -0.348 C  
HETATM   13  C   UNL     2      -8.371  18.442  66.952  1.00  0.00    -0.261 C  
HETATM   14  C   UNL     2      -9.473  18.144  67.971  1.00  0.00    -0.290 C  
HETATM   15  C   UNL     2     -10.179  19.462  68.330  1.00  0.00    -0.535 C  
ENDBRANCH  11  12
BRANCH  11  16
HETATM   16  O   UNL     2      -9.180  15.291  68.276  1.00  0.00    -0.183 OA 
HETATM   17  O   UNL     2      -7.143  15.390  66.933  1.00  0.00    -0.191 OA 
HETATM   18  O   UNL     2      -7.042  14.721  69.290  1.00  0.00    -0.132 OA 
HETATM   19  S   UNL     2      -7.726  14.593  68.007  1.00  0.00    -0.148 S  
HETATM   20  O   UNL     2      -8.041  13.227  67.615  1.00  0.00    -0.148 OA 
ENDBRANCH  11  16
ENDBRANCH  10  11
ENDBRANCH   8  10
ENDBRANCH   4   5
ENDBRANCH   3   4
TORSDOF 6
ENDMDL
MODEL      107
REMARK 921   NORMALIZED FREE ENERGY PREDICTED BY IDOCK:   -4.25 KCAL/MOL
REMARK 922        TOTAL FREE ENERGY PREDICTED BY IDOCK:   -6.95 KCAL/MOL
REMARK 923 INTER-LIGAND FREE ENERGY PREDICTED BY IDOCK:   -6.04 KCAL/MOL
REMARK 924 INTRA-LIGAND FREE ENERGY PREDICTED BY IDOCK:   -0.91 KCAL/MOL
REMARK 927      BINDING AFFINITY PREDICTED BY RF-SCORE:    0.00 PKD
ROOT
HETATM    1 NA   UNL     1      -8.835   8.968  72.614  1.00  0.00    -0.213 Na 
HETATM    2  C   UNL     2      -5.810   9.887  70.660  1.00  0.00    -0.081 C  
HETATM    3  C   UNL     2      -6.513   9.412  69.396  1.00  0.00    -0.044 C  
ENDROOT
BRANCH   3   4
HETATM    4  C   UNL     2      -7.963   9.029  69.687  1.00  0.00    -0.093 C  
BRANCH   4   5
HETATM    5  C   UNL     2      -8.990  10.042  69.174  1.00  0.00    -0.172 C  
HETATM    6  C   UNL     2     -10.401   9.487  68.859  1.00  0.00    -0.225 C  
HETATM    7  C   UNL     2     -11.044   8.717  70.035  1.00  0.00    -0.169 C  
HETATM    8  C   UNL     2     -11.354  10.609  68.379  1.00  0.00    -0.348 C  
HETATM    9  C   UNL     2     -11.380   9.556  71.262  1.00  0.00    -0.446 C  
BRANCH   8  10
HETATM   10  C   UNL     2     -10.895  11.372  67.137  1.00  0.00    -0.316 C  
BRANCH  10  11
HETATM   11  C   UNL     2     -11.456  12.798  66.943  1.00  0.00    -0.340 C  
BRANCH  11  12
HETATM   12  C   UNL     2     -10.672  13.817  67.806  1.00  0.00    -0.254 C  
HETATM   13  C   UNL     2     -12.297  13.973  69.789  1.00  0.00    -0.344 C  
HETATM   14  C   UNL     2     -11.525  14.736  68.710  1.00  0.00    -0.324 C  
HETATM   15  C   UNL     2     -10.614  15.767  69.396  1.00  0.00    -0.255 C  
ENDBRANCH  11  12
BRANCH  11  16
HETATM   16  O   UNL     2     -11.319  13.172  65.575  1.00  0.00    -0.294 OA 
HETATM   17  O   UNL     2     -13.600  14.041  65.495  1.00  0.00    -0.596 OA 
HETATM   18  O   UNL     2     -12.173  14.119  63.502  1.00  0.00    -0.614 OA 
HETATM   19  S   UNL     2     -12.649  13.338  64.640  1.00  0.00    -0.242 S  
HETATM   20  O   UNL     2     -13.048  11.974  64.322  1.00  0.00    -0.671 OA 
ENDBRANCH  11  16
ENDBRANCH  10  11
ENDBRANCH   8  10
ENDBRANCH   4   5
ENDBRANCH   3   4
TORSDOF 6
ENDMDL
MODEL      108
REMARK 921   NORMALIZED FREE ENERGY PREDICTED BY IDOCK:   -4.25 KCAL/MOL
REMARK 922        TOTAL FREE ENERGY PREDICTED BY IDOCK:   -6.95 KCAL/MOL
REMARK 923 INTER-LIGAND FREE ENERGY PREDICTED BY IDOCK:   -5.96 KCAL/MOL
REMARK 924 INTRA-LIGAND FREE ENERGY PREDICTED BY IDOCK:   -0.99 KCAL/MOL
REMARK 927      BINDING AFFINITY PREDICTED BY RF-SCORE:    0.00 PKD
ROOT
HETATM    1 NA   UNL     1      -8.699  14.726  70.747  1.00  0.00    -0.341 Na 
HETATM    2  C   UNL     2      -7.089  15.089  67.417  1.00  0.00    -0.206 C  
HETATM    3  C   UNL     2      -8.451  14.896  66.765  1.00  0.00    -0.215 C  
ENDROOT
BRANCH   3   4
HETATM    4  C   UNL     2      -9.557  14.832  67.817  1.00  0.00    -0.209 C  
BRANCH   4   5
HETATM    5  C   UNL     2     -10.026  13.410  68.142  1.00  0.00    -0.237 C  
HETATM    6  C   UNL     2     -11.557  13.178  68.147  1.00  0.00    -0.375 C  
HETATM    7  C   UNL     2     -12.258  13.621  66.843  1.00  0.00    -0.398 C  
HETATM    8  C   UNL     2     -11.902  11.701  68.458  1.00  0.00    -0.357 C  
HETATM    9  C   UNL     2     -11.895  12.819  65.599  1.00  0.00    -0.472 C  
BRANCH   8  10
HETATM   10  C   UNL     2     -11.372  11.170  69.790  1.00  0.00    -0.354 C  
BRANCH  10  11
HETATM   11  C   UNL     2     -11.022   9.667  69.854  1.00  0.00    -0.252 C  
BRANCH  11  12
HETATM   12  C   UNL     2      -9.731   9.371  69.053  1.00  0.00    -0.166 C  
HETATM   13  C   UNL     2     -10.707   7.718  67.347  1.00  0.00    -0.300 C  
HETATM   14  C   UNL     2      -9.638   7.967  68.414  1.00  0.00    -0.157 C  
HETATM   15  C   UNL     2      -8.254   7.788  67.771  1.00  0.00    -0.126 C  
ENDBRANCH  11  12
BRANCH  11  16
HETATM   16  O   UNL     2     -10.800   9.299  71.213  1.00  0.00    -0.292 OA 
HETATM   17  O   UNL     2     -12.154   7.280  70.976  1.00  0.00    -0.321 OA 
HETATM   18  O   UNL     2     -11.104   7.823  73.124  1.00  0.00    -0.409 OA 
HETATM   19  S   UNL     2     -11.855   8.306  71.970  1.00  0.00    -0.374 S  
HETATM   20  O   UNL     2     -12.993   9.156  72.292  1.00  0.00    -0.396 OA 
ENDBRANCH  11  16
ENDBRANCH  10  11
ENDBRANCH   8  10
ENDBRANCH   4   5
ENDBRANCH   3   4
TORSDOF 6
ENDMDL
MODEL      109
REMARK 921   NORMALIZED FREE ENERGY PREDICTED BY IDOCK:   -4.24 KCAL/MOL
REMARK 922        TOTAL FREE ENERGY PREDICTED BY IDOCK:   -6.93 KCAL/MOL
REMARK 923 INTER-LIGAND FREE ENERGY PREDICTED BY IDOCK:   -6.28 KCAL/MOL
REMARK 924 INTRA-LIGAND FREE ENERGY PREDICTED BY IDOCK:   -0.65 KCAL/MOL
REMARK 927      BINDING AFFINITY PREDICTED BY RF-SCORE:    0.00 PKD
ROOT
HETATM    1 NA   UNL     1     -11.843   6.136  65.975  1.00  0.00    -0.602 Na 
HETATM    2  C   UNL     2      -8.156   6.388  66.371  1.00  0.00    -0.112 C  
HETATM    3  C   UNL     2      -8.323   7.850  66.759  1.00  0.00    -0.120 C  
ENDROOT
BRANCH   3   4
HETATM    4  C   UNL     2      -9.801   8.220  66.879  1.00  0.00    -0.316 C  
BRANCH   4   5
HETATM    5  C   UNL     2     -10.054   9.558  67.579  1.00  0.00    -0.257 C  
HETATM    6  C   UNL     2     -11.019   9.526  68.790  1.00  0.00    -0.116 C  
HETATM    7  C   UNL     2     -10.627   8.493  69.871  1.00  0.00    -0.228 C  
HETATM    8  C   UNL     2     -11.169  10.928  69.429  1.00  0.00    -0.335 C  
HETATM    9  C   UNL     2      -9.323   8.777  70.606  1.00  0.00    -0.234 C  
BRANCH   8  10
HETATM   10  C   UNL     2     -11.676  12.025  68.492  1.00  0.00    -0.387 C  
BRANCH  10  11
HETATM   11  C   UNL     2     -11.208  13.467  68.785  1.00  0.00    -0.274 C  
BRANCH  11  12
HETATM   12  C   UNL     2     -10.622  14.122  67.511  1.00  0.00    -0.257 C  
HETATM   13  C   UNL     2     -12.649  13.834  65.961  1.00  0.00    -0.458 C  
HETATM   14  C   UNL     2     -11.153  13.580  66.165  1.00  0.00    -0.299 C  
HETATM   15  C   UNL     2     -10.384  14.236  65.008  1.00  0.00    -0.448 C  
ENDBRANCH  11  12
BRANCH  11  16
HETATM   16  O   UNL     2     -12.326  14.242  69.212  1.00  0.00    -0.293 OA 
HETATM   17  O   UNL     2     -11.097  15.112  71.134  1.00  0.00    -0.311 OA 
HETATM   18  O   UNL     2     -13.421  15.786  70.740  1.00  0.00    -0.520 OA 
HETATM   19  S   UNL     2     -12.449  14.698  70.777  1.00  0.00    -0.366 S  
HETATM   20  O   UNL     2     -12.897  13.501  71.474  1.00  0.00    -0.353 OA 
ENDBRANCH  11  16
ENDBRANCH  10  11
ENDBRANCH   8  10
ENDBRANCH   4   5
ENDBRANCH   3   4
TORSDOF 6
ENDMDL
MODEL      110
REMARK 921   NORMALIZED FREE ENERGY PREDICTED BY IDOCK:   -4.24 KCAL/MOL
REMARK 922        TOTAL FREE ENERGY PREDICTED BY IDOCK:   -6.93 KCAL/MOL
REMARK 923 INTER-LIGAND FREE ENERGY PREDICTED BY IDOCK:   -6.96 KCAL/MOL
REMARK 924 INTRA-LIGAND FREE ENERGY PREDICTED BY IDOCK:    0.04 KCAL/MOL
REMARK 927      BINDING AFFINITY PREDICTED BY RF-SCORE:    0.00 PKD
ROOT
HETATM    1 NA   UNL     1     -10.175  15.059  72.223  1.00  0.00    -0.392 Na 
HETATM    2  C   UNL     2     -13.559  13.522  72.246  1.00  0.00    -0.690 C  
HETATM    3  C   UNL     2     -14.053  14.656  71.360  1.00  0.00    -0.469 C  
ENDROOT
BRANCH   3   4
HETATM    4  C   UNL     2     -12.897  15.558  70.930  1.00  0.00    -0.535 C  
BRANCH   4   5
HETATM    5  C   UNL     2     -11.743  14.812  70.252  1.00  0.00    -0.351 C  
HETATM    6  C   UNL     2     -11.579  15.042  68.730  1.00  0.00    -0.357 C  
HETATM    7  C   UNL     2     -11.476  16.533  68.333  1.00  0.00    -0.104 C  
HETATM    8  C   UNL     2     -10.365  14.261  68.170  1.00  0.00    -0.233 C  
HETATM    9  C   UNL     2     -10.229  17.257  68.825  1.00  0.00    -0.353 C  
BRANCH   8  10
HETATM   10  C   UNL     2     -10.403  12.748  68.384  1.00  0.00    -0.248 C  
BRANCH  10  11
HETATM   11  C   UNL     2     -11.418  11.947  67.539  1.00  0.00    -0.326 C  
BRANCH  11  12
HETATM   12  C   UNL     2     -11.136  12.129  66.028  1.00  0.00    -0.354 C  
HETATM   13  C   UNL     2     -12.882  13.944  65.525  1.00  0.00    -0.471 C  
HETATM   14  C   UNL     2     -12.341  12.559  65.161  1.00  0.00    -0.496 C  
HETATM   15  C   UNL     2     -11.930  12.568  63.681  1.00  0.00    -0.621 C  
ENDBRANCH  11  12
BRANCH  11  16
HETATM   16  O   UNL     2     -11.296  10.563  67.854  1.00  0.00    -0.330 OA 
HETATM   17  O   UNL     2     -11.889  10.955  70.191  1.00  0.00    -0.290 OA 
HETATM   18  O   UNL     2     -11.379   8.688  69.404  1.00  0.00     0.105 OA 
HETATM   19  S   UNL     2     -11.012  10.101  69.396  1.00  0.00    -0.250 S  
HETATM   20  O   UNL     2      -9.595  10.366  69.604  1.00  0.00    -0.200 OA 
ENDBRANCH  11  16
ENDBRANCH  10  11
ENDBRANCH   8  10
ENDBRANCH   4   5
ENDBRANCH   3   4
TORSDOF 6
ENDMDL
MODEL      111
REMARK 921   NORMALIZED FREE ENERGY PREDICTED BY IDOCK:   -4.21 KCAL/MOL
REMARK 922        TOTAL FREE ENERGY PREDICTED BY IDOCK:   -6.90 KCAL/MOL
REMARK 923 INTER-LIGAND FREE ENERGY PREDICTED BY IDOCK:   -6.33 KCAL/MOL
REMARK 924 INTRA-LIGAND FREE ENERGY PREDICTED BY IDOCK:   -0.57 KCAL/MOL
REMARK 927      BINDING AFFINITY PREDICTED BY RF-SCORE:    0.00 PKD
ROOT
HETATM    1 NA   UNL     1     -12.451   9.950  69.201  1.00  0.00    -0.489 Na 
HETATM    2  C   UNL     2      -8.910  10.131  68.087  1.00  0.00    -0.126 C  
HETATM    3  C   UNL     2      -9.388  10.629  66.731  1.00  0.00    -0.179 C  
ENDROOT
BRANCH   3   4
HETATM    4  C   UNL     2     -10.897  10.865  66.735  1.00  0.00    -0.283 C  
BRANCH   4   5
HETATM    5  C   UNL     2     -11.302  12.312  66.435  1.00  0.00    -0.405 C  
HETATM    6  C   UNL     2     -10.701  12.940  65.154  1.00  0.00    -0.326 C  
HETATM    7  C   UNL     2     -10.948  12.105  63.877  1.00  0.00    -0.463 C  
HETATM    8  C   UNL     2     -11.207  14.388  64.945  1.00  0.00    -0.392 C  
HETATM    9  C   UNL     2     -12.403  11.998  63.437  1.00  0.00    -0.635 C  
BRANCH   8  10
HETATM   10  C   UNL     2     -10.911  15.357  66.090  1.00  0.00    -0.313 C  
BRANCH  10  11
HETATM   11  C   UNL     2      -9.455  15.855  66.227  1.00  0.00    -0.318 C  
BRANCH  11  12
HETATM   12  C   UNL     2      -9.371  17.379  65.973  1.00  0.00    -0.101 C  
HETATM   13  C   UNL     2     -10.533  18.191  68.114  1.00  0.00    -0.365 C  
HETATM   14  C   UNL     2     -10.507  18.231  66.584  1.00  0.00    -0.382 C  
HETATM   15  C   UNL     2     -10.350  19.692  66.135  1.00  0.00    -0.627 C  
ENDBRANCH  11  12
BRANCH  11  16
HETATM   16  O   UNL     2      -8.998  15.597  67.552  1.00  0.00    -0.187 OA 
HETATM   17  O   UNL     2      -6.660  15.647  66.845  1.00  0.00    -0.258 OA 
HETATM   18  O   UNL     2      -7.237  15.226  69.191  1.00  0.00    -0.139 OA 
HETATM   19  S   UNL     2      -7.520  14.939  67.788  1.00  0.00    -0.181 S  
HETATM   20  O   UNL     2      -7.692  13.527  67.475  1.00  0.00    -0.160 OA 
ENDBRANCH  11  16
ENDBRANCH  10  11
ENDBRANCH   8  10
ENDBRANCH   4   5
ENDBRANCH   3   4
TORSDOF 6
ENDMDL
MODEL      112
REMARK 921   NORMALIZED FREE ENERGY PREDICTED BY IDOCK:   -4.21 KCAL/MOL
REMARK 922        TOTAL FREE ENERGY PREDICTED BY IDOCK:   -6.89 KCAL/MOL
REMARK 923 INTER-LIGAND FREE ENERGY PREDICTED BY IDOCK:   -5.79 KCAL/MOL
REMARK 924 INTRA-LIGAND FREE ENERGY PREDICTED BY IDOCK:   -1.10 KCAL/MOL
REMARK 927      BINDING AFFINITY PREDICTED BY RF-SCORE:    0.00 PKD
ROOT
HETATM    1 NA   UNL     1     -12.187  16.985  71.395  1.00  0.00    -0.572 Na 
HETATM    2  C   UNL     2      -9.461  16.180  69.000  1.00  0.00    -0.246 C  
HETATM    3  C   UNL     2     -10.365  15.136  68.361  1.00  0.00    -0.229 C  
ENDROOT
BRANCH   3   4
HETATM    4  C   UNL     2     -11.768  15.183  68.965  1.00  0.00    -0.358 C  
BRANCH   4   5
HETATM    5  C   UNL     2     -12.380  13.803  69.225  1.00  0.00    -0.185 C  
HETATM    6  C   UNL     2     -12.051  13.153  70.591  1.00  0.00    -0.346 C  
HETATM    7  C   UNL     2     -12.382  14.053  71.804  1.00  0.00    -0.268 C  
HETATM    8  C   UNL     2     -12.750  11.780  70.746  1.00  0.00    -0.256 C  
HETATM    9  C   UNL     2     -13.862  14.341  72.021  1.00  0.00    -0.564 C  
BRANCH   8  10
HETATM   10  C   UNL     2     -12.407  10.746  69.673  1.00  0.00    -0.262 C  
BRANCH  10  11
HETATM   11  C   UNL     2     -11.051  10.019  69.810  1.00  0.00    -0.274 C  
BRANCH  11  12
HETATM   12  C   UNL     2      -9.898  10.909  69.288  1.00  0.00    -0.113 C  
HETATM   13  C   UNL     2     -10.593  11.032  66.819  1.00  0.00    -0.317 C  
HETATM   14  C   UNL     2      -9.484  10.687  67.815  1.00  0.00    -0.165 C  
HETATM   15  C   UNL     2      -8.252  11.547  67.494  1.00  0.00    -0.140 C  
ENDBRANCH  11  12
BRANCH  11  16
HETATM   16  O   UNL     2     -10.811   9.737  71.186  1.00  0.00    -0.334 OA 
HETATM   17  O   UNL     2     -10.672   7.337  70.758  1.00  0.00    -0.225 OA 
HETATM   18  O   UNL     2     -10.400   8.208  73.035  1.00  0.00    -0.321 OA 
HETATM   19  S   UNL     2     -11.153   8.255  71.785  1.00  0.00    -0.301 S  
HETATM   20  O   UNL     2     -12.601   8.248  71.943  1.00  0.00    -0.315 OA 
ENDBRANCH  11  16
ENDBRANCH  10  11
ENDBRANCH   8  10
ENDBRANCH   4   5
ENDBRANCH   3   4
TORSDOF 6
ENDMDL
MODEL      113
REMARK 921   NORMALIZED FREE ENERGY PREDICTED BY IDOCK:   -4.21 KCAL/MOL
REMARK 922        TOTAL FREE ENERGY PREDICTED BY IDOCK:   -6.89 KCAL/MOL
REMARK 923 INTER-LIGAND FREE ENERGY PREDICTED BY IDOCK:   -6.06 KCAL/MOL
REMARK 924 INTRA-LIGAND FREE ENERGY PREDICTED BY IDOCK:   -0.83 KCAL/MOL
REMARK 927      BINDING AFFINITY PREDICTED BY RF-SCORE:    0.00 PKD
ROOT
HETATM    1 NA   UNL     1      -8.429   7.369  70.255  1.00  0.00    -0.116 Na 
HETATM    2  C   UNL     2     -10.525   5.750  67.648  1.00  0.00    -0.299 C  
HETATM    3  C   UNL     2     -10.909   7.130  67.135  1.00  0.00    -0.403 C  
ENDROOT
BRANCH   3   4
HETATM    4  C   UNL     2     -10.129   8.222  67.865  1.00  0.00    -0.252 C  
BRANCH   4   5
HETATM    5  C   UNL     2     -10.787   9.604  67.805  1.00  0.00    -0.278 C  
HETATM    6  C   UNL     2      -9.878  10.777  67.364  1.00  0.00    -0.204 C  
HETATM    7  C   UNL     2      -9.161  10.536  66.015  1.00  0.00    -0.205 C  
HETATM    8  C   UNL     2     -10.663  12.111  67.314  1.00  0.00    -0.264 C  
HETATM    9  C   UNL     2     -10.071  10.460  64.795  1.00  0.00    -0.387 C  
BRANCH   8  10
HETATM   10  C   UNL     2     -11.320  12.534  68.628  1.00  0.00    -0.329 C  
BRANCH  10  11
HETATM   11  C   UNL     2     -11.242  14.031  68.998  1.00  0.00    -0.276 C  
BRANCH  11  12
HETATM   12  C   UNL     2     -10.889  14.885  67.756  1.00  0.00    -0.286 C  
HETATM   13  C   UNL     2      -9.324  16.579  68.884  1.00  0.00    -0.256 C  
HETATM   14  C   UNL     2     -10.573  16.374  68.025  1.00  0.00    -0.314 C  
HETATM   15  C   UNL     2     -10.373  17.104  66.688  1.00  0.00    -0.310 C  
ENDBRANCH  11  12
BRANCH  11  16
HETATM   16  O   UNL     2     -12.512  14.457  69.487  1.00  0.00    -0.273 OA 
HETATM   17  O   UNL     2     -11.492  15.600  71.389  1.00  0.00    -0.358 OA 
HETATM   18  O   UNL     2     -13.927  15.608  71.098  1.00  0.00    -0.564 OA 
HETATM   19  S   UNL     2     -12.691  14.832  71.068  1.00  0.00    -0.373 S  
HETATM   20  O   UNL     2     -12.759  13.545  71.746  1.00  0.00    -0.312 OA 
ENDBRANCH  11  16
ENDBRANCH  10  11
ENDBRANCH   8  10
ENDBRANCH   4   5
ENDBRANCH   3   4
TORSDOF 6
ENDMDL
MODEL      114
REMARK 921   NORMALIZED FREE ENERGY PREDICTED BY IDOCK:   -4.20 KCAL/MOL
REMARK 922        TOTAL FREE ENERGY PREDICTED BY IDOCK:   -6.88 KCAL/MOL
REMARK 923 INTER-LIGAND FREE ENERGY PREDICTED BY IDOCK:   -6.49 KCAL/MOL
REMARK 924 INTRA-LIGAND FREE ENERGY PREDICTED BY IDOCK:   -0.39 KCAL/MOL
REMARK 927      BINDING AFFINITY PREDICTED BY RF-SCORE:    0.00 PKD
ROOT
HETATM    1 NA   UNL     1     -11.564  16.878  70.298  1.00  0.00    -0.415 Na 
HETATM    2  C   UNL     2     -14.123  15.331  72.506  1.00  0.00    -0.567 C  
HETATM    3  C   UNL     2     -13.655  13.958  72.044  1.00  0.00    -0.566 C  
ENDROOT
BRANCH   3   4
HETATM    4  C   UNL     2     -12.423  14.072  71.148  1.00  0.00    -0.447 C  
BRANCH   4   5
HETATM    5  C   UNL     2     -12.530  13.287  69.837  1.00  0.00    -0.117 C  
HETATM    6  C   UNL     2     -11.655  12.015  69.727  1.00  0.00    -0.348 C  
HETATM    7  C   UNL     2     -11.854  11.019  70.891  1.00  0.00    -0.301 C  
HETATM    8  C   UNL     2     -11.874  11.296  68.373  1.00  0.00    -0.331 C  
HETATM    9  C   UNL     2     -13.228  10.364  70.965  1.00  0.00    -0.361 C  
BRANCH   8  10
HETATM   10  C   UNL     2     -11.586  12.138  67.130  1.00  0.00    -0.405 C  
BRANCH  10  11
HETATM   11  C   UNL     2     -10.504  11.609  66.162  1.00  0.00    -0.247 C  
BRANCH  11  12
HETATM   12  C   UNL     2      -9.937  10.257  66.661  1.00  0.00    -0.270 C  
HETATM   13  C   UNL     2      -8.240  11.157  68.366  1.00  0.00    -0.144 C  
HETATM   14  C   UNL     2      -8.467  10.274  67.136  1.00  0.00    -0.125 C  
HETATM   15  C   UNL     2      -8.021   8.843  67.473  1.00  0.00    -0.101 C  
ENDBRANCH  11  12
BRANCH  11  16
HETATM   16  O   UNL     2     -11.088  11.402  64.879  1.00  0.00    -0.257 OA 
HETATM   17  O   UNL     2     -11.236  13.804  64.465  1.00  0.00    -0.362 OA 
HETATM   18  O   UNL     2     -12.034  12.206  62.785  1.00  0.00     0.126 OA 
HETATM   19  S   UNL     2     -11.988  12.583  64.195  1.00  0.00    -0.469 S  
HETATM   20  O   UNL     2     -13.267  12.519  64.888  1.00  0.00    -0.787 OA 
ENDBRANCH  11  16
ENDBRANCH  10  11
ENDBRANCH   8  10
ENDBRANCH   4   5
ENDBRANCH   3   4
TORSDOF 6
ENDMDL
MODEL      115
REMARK 921   NORMALIZED FREE ENERGY PREDICTED BY IDOCK:   -4.20 KCAL/MOL
REMARK 922        TOTAL FREE ENERGY PREDICTED BY IDOCK:   -6.87 KCAL/MOL
REMARK 923 INTER-LIGAND FREE ENERGY PREDICTED BY IDOCK:   -5.93 KCAL/MOL
REMARK 924 INTRA-LIGAND FREE ENERGY PREDICTED BY IDOCK:   -0.94 KCAL/MOL
REMARK 927      BINDING AFFINITY PREDICTED BY RF-SCORE:    0.00 PKD
ROOT
HETATM    1 NA   UNL     1     -13.087   6.769  69.858  1.00  0.00    -0.637 Na 
HETATM    2  C   UNL     2      -9.787   5.136  70.368  1.00  0.00    -0.288 C  
HETATM    3  C   UNL     2      -9.291   5.798  69.090  1.00  0.00    -0.146 C  
ENDROOT
BRANCH   3   4
HETATM    4  C   UNL     2     -10.336   6.761  68.531  1.00  0.00    -0.210 C  
BRANCH   4   5
HETATM    5  C   UNL     2      -9.846   8.208  68.406  1.00  0.00    -0.186 C  
HETATM    6  C   UNL     2     -10.772   9.298  68.999  1.00  0.00    -0.189 C  
HETATM    7  C   UNL     2     -11.153   9.054  70.477  1.00  0.00    -0.297 C  
HETATM    8  C   UNL     2     -10.156  10.709  68.839  1.00  0.00    -0.215 C  
HETATM    9  C   UNL     2     -10.003   9.141  71.473  1.00  0.00    -0.358 C  
BRANCH   8  10
HETATM   10  C   UNL     2      -9.846  11.130  67.402  1.00  0.00    -0.195 C  
BRANCH  10  11
HETATM   11  C   UNL     2     -10.494  12.439  66.901  1.00  0.00    -0.224 C  
BRANCH  11  12
HETATM   12  C   UNL     2     -11.678  12.136  65.952  1.00  0.00    -0.393 C  
HETATM   13  C   UNL     2     -10.342  11.325  63.914  1.00  0.00    -0.439 C  
HETATM   14  C   UNL     2     -11.396  12.301  64.441  1.00  0.00    -0.396 C  
HETATM   15  C   UNL     2     -12.696  12.092  63.651  1.00  0.00    -0.550 C  
ENDBRANCH  11  12
BRANCH  11  16
HETATM   16  O   UNL     2     -10.993  13.169  68.019  1.00  0.00    -0.233 OA 
HETATM   17  O   UNL     2     -10.467  15.308  66.964  1.00  0.00    -0.279 OA 
HETATM   18  O   UNL     2     -11.481  15.243  69.196  1.00  0.00    -0.277 OA 
HETATM   19  S   UNL     2     -10.476  14.697  68.289  1.00  0.00    -0.241 S  
HETATM   20  O   UNL     2      -9.150  14.539  68.868  1.00  0.00    -0.180 OA 
ENDBRANCH  11  16
ENDBRANCH  10  11
ENDBRANCH   8  10
ENDBRANCH   4   5
ENDBRANCH   3   4
TORSDOF 6
ENDMDL
MODEL      116
REMARK 921   NORMALIZED FREE ENERGY PREDICTED BY IDOCK:   -4.18 KCAL/MOL
REMARK 922        TOTAL FREE ENERGY PREDICTED BY IDOCK:   -6.86 KCAL/MOL
REMARK 923 INTER-LIGAND FREE ENERGY PREDICTED BY IDOCK:   -6.07 KCAL/MOL
REMARK 924 INTRA-LIGAND FREE ENERGY PREDICTED BY IDOCK:   -0.79 KCAL/MOL
REMARK 927      BINDING AFFINITY PREDICTED BY RF-SCORE:    0.00 PKD
ROOT
HETATM    1 NA   UNL     1      -8.008  12.106  67.404  1.00  0.00    -0.112 Na 
HETATM    2  C   UNL     2     -10.964  11.017  69.376  1.00  0.00    -0.301 C  
HETATM    3  C   UNL     2     -11.859  11.437  68.219  1.00  0.00    -0.320 C  
ENDROOT
BRANCH   3   4
HETATM    4  C   UNL     2     -11.027  11.867  67.012  1.00  0.00    -0.326 C  
BRANCH   4   5
HETATM    5  C   UNL     2     -10.703  13.364  66.979  1.00  0.00    -0.271 C  
HETATM    6  C   UNL     2     -10.128  13.911  65.650  1.00  0.00    -0.332 C  
HETATM    7  C   UNL     2     -10.999  13.590  64.415  1.00  0.00    -0.399 C  
HETATM    8  C   UNL     2      -9.871  15.436  65.733  1.00  0.00    -0.399 C  
HETATM    9  C   UNL     2     -12.366  14.263  64.385  1.00  0.00    -0.417 C  
BRANCH   8  10
HETATM   10  C   UNL     2      -8.916  15.880  66.842  1.00  0.00    -0.257 C  
BRANCH  10  11
HETATM   11  C   UNL     2      -8.365  17.320  66.754  1.00  0.00    -0.245 C  
BRANCH  11  12
HETATM   12  C   UNL     2      -7.026  17.347  65.976  1.00  0.00    -0.246 C  
HETATM   13  C   UNL     2      -6.116  19.583  66.851  1.00  0.00    -0.178 C  
HETATM   14  C   UNL     2      -6.477  18.747  65.621  1.00  0.00    -0.307 C  
HETATM   15  C   UNL     2      -5.224  18.599  64.745  1.00  0.00    -0.214 C  
ENDBRANCH  11  12
BRANCH  11  16
HETATM   16  O   UNL     2      -9.303  18.137  66.058  1.00  0.00    -0.507 OA 
HETATM   17  O   UNL     2      -9.274  19.822  67.825  1.00  0.00    -0.321 OA 
HETATM   18  O   UNL     2     -10.691  20.125  65.847  1.00  0.00    -0.360 OA 
HETATM   19  S   UNL     2     -10.210  19.217  66.884  1.00  0.00    -0.437 S  
HETATM   20  O   UNL     2     -11.245  18.416  67.523  1.00  0.00    -0.119 OA 
ENDBRANCH  11  16
ENDBRANCH  10  11
ENDBRANCH   8  10
ENDBRANCH   4   5
ENDBRANCH   3   4
TORSDOF 6
ENDMDL
MODEL      117
REMARK 921   NORMALIZED FREE ENERGY PREDICTED BY IDOCK:   -4.17 KCAL/MOL
REMARK 922        TOTAL FREE ENERGY PREDICTED BY IDOCK:   -6.84 KCAL/MOL
REMARK 923 INTER-LIGAND FREE ENERGY PREDICTED BY IDOCK:   -6.02 KCAL/MOL
REMARK 924 INTRA-LIGAND FREE ENERGY PREDICTED BY IDOCK:   -0.83 KCAL/MOL
REMARK 927      BINDING AFFINITY PREDICTED BY RF-SCORE:    0.00 PKD
ROOT
HETATM    1 NA   UNL     1      -5.909  17.625  65.147  1.00  0.00    -0.141 Na 
HETATM    2  C   UNL     2      -5.967  16.165  68.565  1.00  0.00    -0.108 C  
HETATM    3  C   UNL     2      -6.673  17.418  69.061  1.00  0.00    -0.243 C  
ENDROOT
BRANCH   3   4
HETATM    4  C   UNL     2      -7.020  18.348  67.900  1.00  0.00    -0.218 C  
BRANCH   4   5
HETATM    5  C   UNL     2      -8.012  17.748  66.897  1.00  0.00    -0.251 C  
HETATM    6  C   UNL     2      -9.381  17.306  67.469  1.00  0.00    -0.236 C  
HETATM    7  C   UNL     2     -10.116  18.417  68.254  1.00  0.00    -0.410 C  
HETATM    8  C   UNL     2     -10.302  16.748  66.357  1.00  0.00    -0.309 C  
HETATM    9  C   UNL     2     -10.571  19.613  67.425  1.00  0.00    -0.589 C  
BRANCH   8  10
HETATM   10  C   UNL     2      -9.744  15.554  65.582  1.00  0.00    -0.355 C  
BRANCH  10  11
HETATM   11  C   UNL     2     -10.420  14.186  65.821  1.00  0.00    -0.311 C  
BRANCH  11  12
HETATM   12  C   UNL     2      -9.833  13.113  64.872  1.00  0.00    -0.044 C  
HETATM   13  C   UNL     2     -11.935  12.644  63.473  1.00  0.00    -0.630 C  
HETATM   14  C   UNL     2     -10.829  12.053  64.351  1.00  0.00    -0.378 C  
HETATM   15  C   UNL     2     -10.071  10.994  63.535  1.00  0.00    -0.428 C  
ENDBRANCH  11  12
BRANCH  11  16
HETATM   16  O   UNL     2     -10.179  13.776  67.164  1.00  0.00    -0.241 OA 
HETATM   17  O   UNL     2     -12.333  12.632  67.291  1.00  0.00    -0.352 OA 
HETATM   18  O   UNL     2     -10.821  12.646  69.222  1.00  0.00    -0.132 OA 
HETATM   19  S   UNL     2     -11.437  13.410  68.141  1.00  0.00    -0.326 S  
HETATM   20  O   UNL     2     -11.983  14.700  68.537  1.00  0.00    -0.315 OA 
ENDBRANCH  11  16
ENDBRANCH  10  11
ENDBRANCH   8  10
ENDBRANCH   4   5
ENDBRANCH   3   4
TORSDOF 6
ENDMDL
MODEL      118
REMARK 921   NORMALIZED FREE ENERGY PREDICTED BY IDOCK:   -4.17 KCAL/MOL
REMARK 922        TOTAL FREE ENERGY PREDICTED BY IDOCK:   -6.84 KCAL/MOL
REMARK 923 INTER-LIGAND FREE ENERGY PREDICTED BY IDOCK:   -5.89 KCAL/MOL
REMARK 924 INTRA-LIGAND FREE ENERGY PREDICTED BY IDOCK:   -0.96 KCAL/MOL
REMARK 927      BINDING AFFINITY PREDICTED BY RF-SCORE:    0.00 PKD
ROOT
HETATM    1 NA   UNL     1      -7.658  11.034  64.556  1.00  0.00    -0.303 Na 
HETATM    2  C   UNL     2      -7.299  10.174  68.154  1.00  0.00    -0.082 C  
HETATM    3  C   UNL     2      -7.388  11.655  68.491  1.00  0.00    -0.102 C  
ENDROOT
BRANCH   3   4
HETATM    4  C   UNL     2      -7.698  12.483  67.245  1.00  0.00    -0.146 C  
BRANCH   4   5
HETATM    5  C   UNL     2      -9.012  13.265  67.327  1.00  0.00    -0.217 C  
HETATM    6  C   UNL     2     -10.083  12.919  66.264  1.00  0.00    -0.281 C  
HETATM    7  C   UNL     2     -10.432  11.414  66.200  1.00  0.00    -0.303 C  
HETATM    8  C   UNL     2     -11.372  13.752  66.470  1.00  0.00    -0.336 C  
HETATM    9  C   UNL     2     -11.122  10.849  67.436  1.00  0.00    -0.373 C  
BRANCH   8  10
HETATM   10  C   UNL     2     -11.186  15.269  66.428  1.00  0.00    -0.224 C  
BRANCH  10  11
HETATM   11  C   UNL     2     -10.870  15.972  67.766  1.00  0.00    -0.324 C  
BRANCH  11  12
HETATM   12  C   UNL     2     -10.646  17.488  67.548  1.00  0.00    -0.333 C  
HETATM   13  C   UNL     2      -8.250  17.659  68.456  1.00  0.00    -0.292 C  
HETATM   14  C   UNL     2      -9.686  18.181  68.541  1.00  0.00    -0.372 C  
HETATM   15  C   UNL     2      -9.674  19.694  68.272  1.00  0.00    -0.500 C  
ENDBRANCH  11  12
BRANCH  11  16
HETATM   16  O   UNL     2     -11.975  15.807  68.651  1.00  0.00    -0.344 OA 
HETATM   17  O   UNL     2     -10.499  15.535  70.578  1.00  0.00    -0.302 OA 
HETATM   18  O   UNL     2     -12.933  15.424  70.856  1.00  0.00    -0.437 OA 
HETATM   19  S   UNL     2     -11.768  15.024  70.072  1.00  0.00    -0.330 S  
HETATM   20  O   UNL     2     -11.728  13.614  69.712  1.00  0.00    -0.286 OA 
ENDBRANCH  11  16
ENDBRANCH  10  11
ENDBRANCH   8  10
ENDBRANCH   4   5
ENDBRANCH   3   4
TORSDOF 6
ENDMDL
MODEL      119
REMARK 921   NORMALIZED FREE ENERGY PREDICTED BY IDOCK:   -4.16 KCAL/MOL
REMARK 922        TOTAL FREE ENERGY PREDICTED BY IDOCK:   -6.83 KCAL/MOL
REMARK 923 INTER-LIGAND FREE ENERGY PREDICTED BY IDOCK:   -6.37 KCAL/MOL
REMARK 924 INTRA-LIGAND FREE ENERGY PREDICTED BY IDOCK:   -0.46 KCAL/MOL
REMARK 927      BINDING AFFINITY PREDICTED BY RF-SCORE:    0.00 PKD
ROOT
HETATM    1 NA   UNL     1     -14.096   8.351  73.123  1.00  0.00    -0.571 Na 
HETATM    2  C   UNL     2     -11.042   6.360  72.401  1.00  0.00    -0.303 C  
HETATM    3  C   UNL     2     -10.433   7.583  71.732  1.00  0.00    -0.222 C  
ENDROOT
BRANCH   3   4
HETATM    4  C   UNL     2     -11.333   8.806  71.902  1.00  0.00    -0.431 C  
BRANCH   4   5
HETATM    5  C   UNL     2     -11.107   9.898  70.852  1.00  0.00    -0.418 C  
HETATM    6  C   UNL     2     -12.378  10.505  70.210  1.00  0.00    -0.377 C  
HETATM    7  C   UNL     2     -13.398  11.044  71.239  1.00  0.00    -0.087 C  
HETATM    8  C   UNL     2     -12.020  11.614  69.191  1.00  0.00    -0.378 C  
HETATM    9  C   UNL     2     -12.935  12.247  72.052  1.00  0.00    -0.375 C  
BRANCH   8  10
HETATM   10  C   UNL     2     -11.113  11.179  68.040  1.00  0.00    -0.334 C  
BRANCH  10  11
HETATM   11  C   UNL     2     -10.557  12.294  67.127  1.00  0.00    -0.225 C  
BRANCH  11  12
HETATM   12  C   UNL     2      -9.077  12.594  67.469  1.00  0.00    -0.192 C  
HETATM   13  C   UNL     2      -8.026  10.436  66.557  1.00  0.00    -0.123 C  
HETATM   14  C   UNL     2      -8.187  11.365  67.762  1.00  0.00    -0.125 C  
HETATM   15  C   UNL     2      -6.794  11.836  68.208  1.00  0.00    -0.068 C  
ENDBRANCH  11  12
BRANCH  11  16
HETATM   16  O   UNL     2     -10.624  11.861  65.771  1.00  0.00    -0.250 OA 
HETATM   17  O   UNL     2     -10.945  14.146  64.970  1.00  0.00    -0.342 OA 
HETATM   18  O   UNL     2     -10.882  12.275  63.386  1.00  0.00    -0.449 OA 
HETATM   19  S   UNL     2     -11.381  12.789  64.658  1.00  0.00    -0.341 S  
HETATM   20  O   UNL     2     -12.800  12.563  64.895  1.00  0.00    -0.758 OA 
ENDBRANCH  11  16
ENDBRANCH  10  11
ENDBRANCH   8  10
ENDBRANCH   4   5
ENDBRANCH   3   4
TORSDOF 6
ENDMDL
MODEL      120
REMARK 921   NORMALIZED FREE ENERGY PREDICTED BY IDOCK:   -4.15 KCAL/MOL
REMARK 922        TOTAL FREE ENERGY PREDICTED BY IDOCK:   -6.81 KCAL/MOL
REMARK 923 INTER-LIGAND FREE ENERGY PREDICTED BY IDOCK:   -5.93 KCAL/MOL
REMARK 924 INTRA-LIGAND FREE ENERGY PREDICTED BY IDOCK:   -0.88 KCAL/MOL
REMARK 927      BINDING AFFINITY PREDICTED BY RF-SCORE:    0.00 PKD
ROOT
HETATM    1 NA   UNL     1     -11.128  16.199  66.373  1.00  0.00    -0.315 Na 
HETATM    2  C   UNL     2     -12.076  13.591  63.900  1.00  0.00    -0.493 C  
HETATM    3  C   UNL     2     -12.495  12.688  65.051  1.00  0.00    -0.556 C  
ENDROOT
BRANCH   3   4
HETATM    4  C   UNL     2     -12.410  13.426  66.386  1.00  0.00    -0.381 C  
BRANCH   4   5
HETATM    5  C   UNL     2     -11.800  12.596  67.520  1.00  0.00    -0.396 C  
HETATM    6  C   UNL     2     -10.318  12.182  67.345  1.00  0.00    -0.220 C  
HETATM    7  C   UNL     2      -9.369  13.370  67.065  1.00  0.00    -0.243 C  
HETATM    8  C   UNL     2      -9.810  11.376  68.565  1.00  0.00    -0.200 C  
HETATM    9  C   UNL     2      -9.212  14.365  68.208  1.00  0.00    -0.201 C  
BRANCH   8  10
HETATM   10  C   UNL     2     -10.589  10.098  68.876  1.00  0.00    -0.237 C  
BRANCH  10  11
HETATM   11  C   UNL     2     -10.328   9.436  70.247  1.00  0.00    -0.245 C  
BRANCH  11  12
HETATM   12  C   UNL     2     -11.633   8.835  70.822  1.00  0.00    -0.288 C  
HETATM   13  C   UNL     2     -13.030  10.987  70.936  1.00  0.00    -0.314 C  
HETATM   14  C   UNL     2     -12.484   9.780  71.702  1.00  0.00    -0.500 C  
HETATM   15  C   UNL     2     -13.667   9.000  72.296  1.00  0.00    -0.550 C  
ENDBRANCH  11  12
BRANCH  11  16
HETATM   16  O   UNL     2      -9.385   8.380  70.082  1.00  0.00    -0.160 OA 
HETATM   17  O   UNL     2      -8.260   8.944  72.176  1.00  0.00    -0.373 OA 
HETATM   18  O   UNL     2      -7.457   7.079  70.800  1.00  0.00    -0.079 OA 
HETATM   19  S   UNL     2      -7.937   8.457  70.839  1.00  0.00    -0.119 S  
HETATM   20  O   UNL     2      -7.159   9.399  70.047  1.00  0.00    -0.062 OA 
ENDBRANCH  11  16
ENDBRANCH  10  11
ENDBRANCH   8  10
ENDBRANCH   4   5
ENDBRANCH   3   4
TORSDOF 6
ENDMDL
MODEL      121
REMARK 921   NORMALIZED FREE ENERGY PREDICTED BY IDOCK:   -4.15 KCAL/MOL
REMARK 922        TOTAL FREE ENERGY PREDICTED BY IDOCK:   -6.81 KCAL/MOL
REMARK 923 INTER-LIGAND FREE ENERGY PREDICTED BY IDOCK:   -6.09 KCAL/MOL
REMARK 924 INTRA-LIGAND FREE ENERGY PREDICTED BY IDOCK:   -0.73 KCAL/MOL
REMARK 927      BINDING AFFINITY PREDICTED BY RF-SCORE:    0.00 PKD
ROOT
HETATM    1 NA   UNL     1      -8.585  12.165  62.870  1.00  0.00    -0.482 Na 
HETATM    2  C   UNL     2      -9.082   9.535  65.448  1.00  0.00    -0.273 C  
HETATM    3  C   UNL     2     -10.272  10.318  65.982  1.00  0.00    -0.298 C  
ENDROOT
BRANCH   3   4
HETATM    4  C   UNL     2     -10.579  11.522  65.093  1.00  0.00    -0.350 C  
BRANCH   4   5
HETATM    5  C   UNL     2     -10.127  12.863  65.681  1.00  0.00    -0.282 C  
HETATM    6  C   UNL     2     -11.245  13.780  66.234  1.00  0.00    -0.310 C  
HETATM    7  C   UNL     2     -12.158  13.092  67.274  1.00  0.00    -0.304 C  
HETATM    8  C   UNL     2     -10.661  15.086  66.825  1.00  0.00    -0.301 C  
HETATM    9  C   UNL     2     -11.483  12.710  68.586  1.00  0.00    -0.347 C  
BRANCH   8  10
HETATM   10  C   UNL     2      -9.836  15.934  65.857  1.00  0.00    -0.383 C  
BRANCH  10  11
HETATM   11  C   UNL     2      -8.425  16.356  66.323  1.00  0.00    -0.337 C  
BRANCH  11  12
HETATM   12  C   UNL     2      -8.308  17.899  66.382  1.00  0.00    -0.273 C  
HETATM   13  C   UNL     2      -9.869  18.329  68.374  1.00  0.00    -0.386 C  
HETATM   14  C   UNL     2      -9.548  18.653  66.914  1.00  0.00    -0.324 C  
HETATM   15  C   UNL     2      -9.320  20.167  66.786  1.00  0.00    -0.513 C  
ENDBRANCH  11  12
BRANCH  11  16
HETATM   16  O   UNL     2      -8.194  15.841  67.632  1.00  0.00    -0.143 OA 
HETATM   17  O   UNL     2      -5.816  15.518  67.175  1.00  0.00    -0.320 OA 
HETATM   18  O   UNL     2      -6.752  14.916  69.361  1.00  0.00    -0.128 OA 
HETATM   19  S   UNL     2      -6.902  14.877  67.909  1.00  0.00    -0.171 S  
HETATM   20  O   UNL     2      -7.288  13.581  67.368  1.00  0.00    -0.165 OA 
ENDBRANCH  11  16
ENDBRANCH  10  11
ENDBRANCH   8  10
ENDBRANCH   4   5
ENDBRANCH   3   4
TORSDOF 6
ENDMDL
MODEL      122
REMARK 921   NORMALIZED FREE ENERGY PREDICTED BY IDOCK:   -4.14 KCAL/MOL
REMARK 922        TOTAL FREE ENERGY PREDICTED BY IDOCK:   -6.80 KCAL/MOL
REMARK 923 INTER-LIGAND FREE ENERGY PREDICTED BY IDOCK:   -6.02 KCAL/MOL
REMARK 924 INTRA-LIGAND FREE ENERGY PREDICTED BY IDOCK:   -0.78 KCAL/MOL
REMARK 927      BINDING AFFINITY PREDICTED BY RF-SCORE:    0.00 PKD
ROOT
HETATM    1 NA   UNL     1     -13.946   8.042  73.035  1.00  0.00    -0.533 Na 
HETATM    2  C   UNL     2     -11.020   5.828  72.441  1.00  0.00    -0.308 C  
HETATM    3  C   UNL     2     -10.198   7.055  72.073  1.00  0.00    -0.209 C  
ENDROOT
BRANCH   3   4
HETATM    4  C   UNL     2     -10.994   8.338  72.309  1.00  0.00    -0.418 C  
BRANCH   4   5
HETATM    5  C   UNL     2     -10.702   9.448  71.294  1.00  0.00    -0.421 C  
HETATM    6  C   UNL     2     -11.872   9.850  70.362  1.00  0.00    -0.310 C  
HETATM    7  C   UNL     2     -13.166  10.228  71.117  1.00  0.00    -0.429 C  
HETATM    8  C   UNL     2     -11.463  10.997  69.407  1.00  0.00    -0.364 C  
HETATM    9  C   UNL     2     -13.085  11.491  71.965  1.00  0.00    -0.430 C  
BRANCH   8  10
HETATM   10  C   UNL     2     -10.264  10.703  68.505  1.00  0.00    -0.191 C  
BRANCH  10  11
HETATM   11  C   UNL     2     -10.092  11.596  67.256  1.00  0.00    -0.199 C  
BRANCH  11  12
HETATM   12  C   UNL     2      -9.627  13.016  67.659  1.00  0.00    -0.206 C  
HETATM   13  C   UNL     2     -11.892  14.217  67.525  1.00  0.00    -0.429 C  
HETATM   14  C   UNL     2     -10.435  14.189  67.059  1.00  0.00    -0.271 C  
HETATM   15  C   UNL     2      -9.771  15.520  67.447  1.00  0.00    -0.218 C  
ENDBRANCH  11  12
BRANCH  11  16
HETATM   16  O   UNL     2      -9.100  11.024  66.408  1.00  0.00    -0.167 OA 
HETATM   17  O   UNL     2     -10.645  10.940  64.517  1.00  0.00    -0.343 OA 
HETATM   18  O   UNL     2      -8.344  10.126  64.275  1.00  0.00    -0.158 OA 
HETATM   19  S   UNL     2      -9.553  10.163  65.093  1.00  0.00    -0.312 S  
HETATM   20  O   UNL     2      -9.971   8.873  65.625  1.00  0.00    -0.108 OA 
ENDBRANCH  11  16
ENDBRANCH  10  11
ENDBRANCH   8  10
ENDBRANCH   4   5
ENDBRANCH   3   4
TORSDOF 6
ENDMDL
MODEL      123
REMARK 921   NORMALIZED FREE ENERGY PREDICTED BY IDOCK:   -4.14 KCAL/MOL
REMARK 922        TOTAL FREE ENERGY PREDICTED BY IDOCK:   -6.79 KCAL/MOL
REMARK 923 INTER-LIGAND FREE ENERGY PREDICTED BY IDOCK:   -6.21 KCAL/MOL
REMARK 924 INTRA-LIGAND FREE ENERGY PREDICTED BY IDOCK:   -0.58 KCAL/MOL
REMARK 927      BINDING AFFINITY PREDICTED BY RF-SCORE:    0.00 PKD
ROOT
HETATM    1 NA   UNL     1     -11.156   6.605  66.421  1.00  0.00    -0.335 Na 
HETATM    2  C   UNL     2      -9.432   8.663  68.992  1.00  0.00    -0.153 C  
HETATM    3  C   UNL     2      -8.883   9.546  67.880  1.00  0.00    -0.119 C  
ENDROOT
BRANCH   3   4
HETATM    4  C   UNL     2      -9.466   9.148  66.526  1.00  0.00    -0.266 C  
BRANCH   4   5
HETATM    5  C   UNL     2     -10.496  10.140  65.975  1.00  0.00    -0.165 C  
HETATM    6  C   UNL     2      -9.929  11.382  65.245  1.00  0.00    -0.303 C  
HETATM    7  C   UNL     2      -8.946  11.038  64.103  1.00  0.00    -0.045 C  
HETATM    8  C   UNL     2     -11.064  12.289  64.711  1.00  0.00    -0.356 C  
HETATM    9  C   UNL     2      -9.557  10.312  62.910  1.00  0.00    -0.290 C  
BRANCH   8  10
HETATM   10  C   UNL     2     -12.041  12.807  65.766  1.00  0.00    -0.505 C  
BRANCH  10  11
HETATM   11  C   UNL     2     -11.875  14.276  66.213  1.00  0.00    -0.406 C  
BRANCH  11  12
HETATM   12  C   UNL     2     -12.035  14.403  67.748  1.00  0.00    -0.368 C  
HETATM   13  C   UNL     2     -10.068  12.917  68.465  1.00  0.00    -0.193 C  
HETATM   14  C   UNL     2     -11.570  13.187  68.580  1.00  0.00    -0.356 C  
HETATM   15  C   UNL     2     -11.914  13.417  70.060  1.00  0.00    -0.407 C  
ENDBRANCH  11  12
BRANCH  11  16
HETATM   16  O   UNL     2     -10.568  14.724  65.862  1.00  0.00    -0.289 OA 
HETATM   17  O   UNL     2     -10.980  16.937  66.810  1.00  0.00    -0.072 OA 
HETATM   18  O   UNL     2      -8.822  16.417  65.769  1.00  0.00    -0.446 OA 
HETATM   19  S   UNL     2     -10.276  16.324  65.689  1.00  0.00    -0.303 S  
HETATM   20  O   UNL     2     -10.840  16.661  64.389  1.00  0.00    -0.833 OA 
ENDBRANCH  11  16
ENDBRANCH  10  11
ENDBRANCH   8  10
ENDBRANCH   4   5
ENDBRANCH   3   4
TORSDOF 6
ENDMDL
MODEL      124
REMARK 921   NORMALIZED FREE ENERGY PREDICTED BY IDOCK:   -4.12 KCAL/MOL
REMARK 922        TOTAL FREE ENERGY PREDICTED BY IDOCK:   -6.77 KCAL/MOL
REMARK 923 INTER-LIGAND FREE ENERGY PREDICTED BY IDOCK:   -6.27 KCAL/MOL
REMARK 924 INTRA-LIGAND FREE ENERGY PREDICTED BY IDOCK:   -0.50 KCAL/MOL
REMARK 927      BINDING AFFINITY PREDICTED BY RF-SCORE:    0.00 PKD
ROOT
HETATM    1 NA   UNL     1      -8.426  11.682  64.681  1.00  0.00    -0.373 Na 
HETATM    2  C   UNL     2      -8.112  10.810  68.280  1.00  0.00    -0.121 C  
HETATM    3  C   UNL     2      -9.539  11.294  68.496  1.00  0.00    -0.199 C  
ENDROOT
BRANCH   3   4
HETATM    4  C   UNL     2     -10.199  11.662  67.168  1.00  0.00    -0.240 C  
BRANCH   4   5
HETATM    5  C   UNL     2     -10.341  13.170  66.940  1.00  0.00    -0.247 C  
HETATM    6  C   UNL     2     -10.296  13.648  65.468  1.00  0.00    -0.319 C  
HETATM    7  C   UNL     2     -11.313  12.933  64.550  1.00  0.00    -0.382 C  
HETATM    8  C   UNL     2     -10.480  15.182  65.367  1.00  0.00    -0.416 C  
HETATM    9  C   UNL     2     -12.779  13.215  64.852  1.00  0.00    -0.421 C  
BRANCH   8  10
HETATM   10  C   UNL     2      -9.453  16.017  66.133  1.00  0.00    -0.371 C  
BRANCH  10  11
HETATM   11  C   UNL     2      -9.974  17.285  66.845  1.00  0.00    -0.294 C  
BRANCH  11  12
HETATM   12  C   UNL     2     -10.902  16.908  68.025  1.00  0.00    -0.338 C  
HETATM   13  C   UNL     2      -9.178  15.712  69.505  1.00  0.00    -0.259 C  
HETATM   14  C   UNL     2     -10.530  15.620  68.794  1.00  0.00    -0.225 C  
HETATM   15  C   UNL     2     -11.614  15.318  69.841  1.00  0.00    -0.335 C  
ENDBRANCH  11  12
BRANCH  11  16
HETATM   16  O   UNL     2      -8.866  18.016  67.363  1.00  0.00    -0.242 OA 
HETATM   17  O   UNL     2      -9.444  19.990  66.046  1.00  0.00    -0.396 OA 
HETATM   18  O   UNL     2      -7.481  20.012  67.517  1.00  0.00    -0.266 OA 
HETATM   19  S   UNL     2      -8.261  19.281  66.523  1.00  0.00    -0.321 S  
HETATM   20  O   UNL     2      -7.477  18.672  65.457  1.00  0.00    -0.505 OA 
ENDBRANCH  11  16
ENDBRANCH  10  11
ENDBRANCH   8  10
ENDBRANCH   4   5
ENDBRANCH   3   4
TORSDOF 6
ENDMDL
MODEL      125
REMARK 921   NORMALIZED FREE ENERGY PREDICTED BY IDOCK:   -4.11 KCAL/MOL
REMARK 922        TOTAL FREE ENERGY PREDICTED BY IDOCK:   -6.76 KCAL/MOL
REMARK 923 INTER-LIGAND FREE ENERGY PREDICTED BY IDOCK:   -5.79 KCAL/MOL
REMARK 924 INTRA-LIGAND FREE ENERGY PREDICTED BY IDOCK:   -0.96 KCAL/MOL
REMARK 927      BINDING AFFINITY PREDICTED BY RF-SCORE:    0.00 PKD
ROOT
HETATM    1 NA   UNL     1     -11.148  17.529  70.468  1.00  0.00    -0.533 Na 
HETATM    2  C   UNL     2      -9.863  16.761  67.066  1.00  0.00    -0.262 C  
HETATM    3  C   UNL     2     -10.743  15.519  67.041  1.00  0.00    -0.321 C  
ENDROOT
BRANCH   3   4
HETATM    4  C   UNL     2     -11.643  15.461  68.274  1.00  0.00    -0.361 C  
BRANCH   4   5
HETATM    5  C   UNL     2     -12.150  14.055  68.611  1.00  0.00    -0.332 C  
HETATM    6  C   UNL     2     -11.728  13.486  69.988  1.00  0.00    -0.311 C  
HETATM    7  C   UNL     2     -12.077  14.411  71.176  1.00  0.00    -0.410 C  
HETATM    8  C   UNL     2     -12.325  12.077  70.222  1.00  0.00    -0.275 C  
HETATM    9  C   UNL     2     -13.565  14.608  71.438  1.00  0.00    -0.474 C  
BRANCH   8  10
HETATM   10  C   UNL     2     -11.950  11.025  69.178  1.00  0.00    -0.394 C  
BRANCH  10  11
HETATM   11  C   UNL     2     -10.535  10.413  69.279  1.00  0.00    -0.234 C  
BRANCH  11  12
HETATM   12  C   UNL     2     -10.616   8.882  69.496  1.00  0.00    -0.233 C  
HETATM   13  C   UNL     2     -11.299   8.879  71.971  1.00  0.00    -0.427 C  
HETATM   14  C   UNL     2     -10.299   8.383  70.924  1.00  0.00    -0.234 C  
HETATM   15  C   UNL     2     -10.295   6.846  70.940  1.00  0.00    -0.218 C  
ENDBRANCH  11  12
BRANCH  11  16
HETATM   16  O   UNL     2      -9.835  10.655  68.061  1.00  0.00    -0.156 OA 
HETATM   17  O   UNL     2      -7.695  10.821  69.227  1.00  0.00    -0.137 OA 
HETATM   18  O   UNL     2      -7.807  11.103  66.793  1.00  0.00    -0.140 OA 
HETATM   19  S   UNL     2      -8.391  11.421  68.093  1.00  0.00    -0.156 S  
HETATM   20  O   UNL     2      -8.723  12.825  68.288  1.00  0.00    -0.183 OA 
ENDBRANCH  11  16
ENDBRANCH  10  11
ENDBRANCH   8  10
ENDBRANCH   4   5
ENDBRANCH   3   4
TORSDOF 6
ENDMDL
MODEL      126
REMARK 921   NORMALIZED FREE ENERGY PREDICTED BY IDOCK:   -4.11 KCAL/MOL
REMARK 922        TOTAL FREE ENERGY PREDICTED BY IDOCK:   -6.75 KCAL/MOL
REMARK 923 INTER-LIGAND FREE ENERGY PREDICTED BY IDOCK:   -5.96 KCAL/MOL
REMARK 924 INTRA-LIGAND FREE ENERGY PREDICTED BY IDOCK:   -0.79 KCAL/MOL
REMARK 927      BINDING AFFINITY PREDICTED BY RF-SCORE:    0.00 PKD
ROOT
HETATM    1 NA   UNL     1     -14.367   7.950  72.996  1.00  0.00    -0.554 Na 
HETATM    2  C   UNL     2     -11.603   5.483  72.697  1.00  0.00    -0.293 C  
HETATM    3  C   UNL     2     -10.650   6.627  72.381  1.00  0.00    -0.242 C  
ENDROOT
BRANCH   3   4
HETATM    4  C   UNL     2     -11.349   7.978  72.525  1.00  0.00    -0.469 C  
BRANCH   4   5
HETATM    5  C   UNL     2     -10.789   9.070  71.608  1.00  0.00    -0.437 C  
HETATM    6  C   UNL     2     -11.738   9.584  70.497  1.00  0.00    -0.285 C  
HETATM    7  C   UNL     2     -13.109  10.065  71.023  1.00  0.00    -0.435 C  
HETATM    8  C   UNL     2     -11.071  10.702  69.660  1.00  0.00    -0.342 C  
HETATM    9  C   UNL     2     -13.073  11.306  71.907  1.00  0.00    -0.510 C  
BRANCH   8  10
HETATM   10  C   UNL     2      -9.760  10.315  68.975  1.00  0.00    -0.213 C  
BRANCH  10  11
HETATM   11  C   UNL     2      -9.511  10.894  67.565  1.00  0.00    -0.155 C  
BRANCH  11  12
HETATM   12  C   UNL     2     -10.718  11.744  67.100  1.00  0.00    -0.283 C  
HETATM   13  C   UNL     2     -10.511  11.359  64.570  1.00  0.00    -0.381 C  
HETATM   14  C   UNL     2     -10.595  12.387  65.700  1.00  0.00    -0.297 C  
HETATM   15  C   UNL     2     -11.808  13.296  65.446  1.00  0.00    -0.392 C  
ENDBRANCH  11  12
BRANCH  11  16
HETATM   16  O   UNL     2      -8.361  11.735  67.603  1.00  0.00    -0.133 OA 
HETATM   17  O   UNL     2      -7.219  10.396  65.910  1.00  0.00    -0.124 OA 
HETATM   18  O   UNL     2      -6.120  12.359  66.886  1.00  0.00    -0.244 OA 
HETATM   19  S   UNL     2      -6.911  11.155  67.118  1.00  0.00    -0.121 S  
HETATM   20  O   UNL     2      -6.457  10.328  68.227  1.00  0.00    -0.056 OA 
ENDBRANCH  11  16
ENDBRANCH  10  11
ENDBRANCH   8  10
ENDBRANCH   4   5
ENDBRANCH   3   4
TORSDOF 6
ENDMDL
MODEL      127
REMARK 921   NORMALIZED FREE ENERGY PREDICTED BY IDOCK:   -4.09 KCAL/MOL
REMARK 922        TOTAL FREE ENERGY PREDICTED BY IDOCK:   -6.73 KCAL/MOL
REMARK 923 INTER-LIGAND FREE ENERGY PREDICTED BY IDOCK:   -5.79 KCAL/MOL
REMARK 924 INTRA-LIGAND FREE ENERGY PREDICTED BY IDOCK:   -0.94 KCAL/MOL
REMARK 927      BINDING AFFINITY PREDICTED BY RF-SCORE:    0.00 PKD
ROOT
HETATM    1 NA   UNL     1      -8.305   4.113  67.347  1.00  0.00    -0.093 Na 
HETATM    2  C   UNL     2     -10.368   5.606  70.054  1.00  0.00    -0.345 C  
HETATM    3  C   UNL     2     -11.012   6.523  69.023  1.00  0.00    -0.378 C  
ENDROOT
BRANCH   3   4
HETATM    4  C   UNL     2     -10.547   6.171  67.611  1.00  0.00    -0.340 C  
BRANCH   4   5
HETATM    5  C   UNL     2     -10.328   7.387  66.705  1.00  0.00    -0.321 C  
HETATM    6  C   UNL     2      -9.418   8.506  67.269  1.00  0.00    -0.199 C  
HETATM    7  C   UNL     2      -8.030   8.005  67.732  1.00  0.00    -0.127 C  
HETATM    8  C   UNL     2      -9.251   9.662  66.253  1.00  0.00    -0.213 C  
HETATM    9  C   UNL     2      -7.121   7.484  66.626  1.00  0.00    -0.078 C  
BRANCH   8  10
HETATM   10  C   UNL     2     -10.549  10.335  65.806  1.00  0.00    -0.064 C  
BRANCH  10  11
HETATM   11  C   UNL     2     -10.646  11.864  65.998  1.00  0.00    -0.265 C  
BRANCH  11  12
HETATM   12  C   UNL     2      -9.287  12.445  66.458  1.00  0.00    -0.233 C  
HETATM   13  C   UNL     2     -10.081  13.653  68.580  1.00  0.00    -0.219 C  
HETATM   14  C   UNL     2      -9.349  13.776  67.241  1.00  0.00    -0.239 C  
HETATM   15  C   UNL     2      -7.923  14.281  67.508  1.00  0.00    -0.203 C  
ENDBRANCH  11  12
BRANCH  11  16
HETATM   16  O   UNL     2     -10.994  12.468  64.755  1.00  0.00    -0.284 OA 
HETATM   17  O   UNL     2     -12.797  13.752  65.787  1.00  0.00    -0.482 OA 
HETATM   18  O   UNL     2     -12.351  13.952  63.384  1.00  0.00    -0.760 OA 
HETATM   19  S   UNL     2     -12.499  13.065  64.534  1.00  0.00    -0.333 S  
HETATM   20  O   UNL     2     -13.329  11.892  64.300  1.00  0.00    -0.610 OA 
ENDBRANCH  11  16
ENDBRANCH  10  11
ENDBRANCH   8  10
ENDBRANCH   4   5
ENDBRANCH   3   4
TORSDOF 6
ENDMDL
MODEL      128
REMARK 921   NORMALIZED FREE ENERGY PREDICTED BY IDOCK:   -4.07 KCAL/MOL
REMARK 922        TOTAL FREE ENERGY PREDICTED BY IDOCK:   -6.71 KCAL/MOL
REMARK 923 INTER-LIGAND FREE ENERGY PREDICTED BY IDOCK:   -5.68 KCAL/MOL
REMARK 924 INTRA-LIGAND FREE ENERGY PREDICTED BY IDOCK:   -1.03 KCAL/MOL
REMARK 927      BINDING AFFINITY PREDICTED BY RF-SCORE:    0.00 PKD
ROOT
HETATM    1 NA   UNL     1     -12.747   6.377  69.579  1.00  0.00    -0.505 Na 
HETATM    2  C   UNL     2     -13.964   8.982  71.934  1.00  0.00    -0.445 C  
HETATM    3  C   UNL     2     -12.697   8.796  72.755  1.00  0.00    -0.141 C  
ENDROOT
BRANCH   3   4
HETATM    4  C   UNL     2     -11.731   7.837  72.062  1.00  0.00    -0.349 C  
BRANCH   4   5
HETATM    5  C   UNL     2     -10.977   8.458  70.881  1.00  0.00    -0.279 C  
HETATM    6  C   UNL     2      -9.657   9.191  71.220  1.00  0.00    -0.331 C  
HETATM    7  C   UNL     2      -8.654   8.329  72.020  1.00  0.00    -0.238 C  
HETATM    8  C   UNL     2      -8.977   9.746  69.945  1.00  0.00    -0.254 C  
HETATM    9  C   UNL     2      -8.082   7.129  71.276  1.00  0.00    -0.107 C  
BRANCH   8  10
HETATM   10  C   UNL     2      -9.821  10.719  69.122  1.00  0.00    -0.194 C  
BRANCH  10  11
HETATM   11  C   UNL     2     -10.103  10.333  67.654  1.00  0.00    -0.191 C  
BRANCH  11  12
HETATM   12  C   UNL     2     -10.378   8.814  67.531  1.00  0.00    -0.334 C  
HETATM   13  C   UNL     2      -7.965   8.013  67.170  1.00  0.00    -0.113 C  
HETATM   14  C   UNL     2      -9.400   8.019  66.638  1.00  0.00    -0.249 C  
HETATM   15  C   UNL     2      -9.883   6.565  66.517  1.00  0.00    -0.169 C  
ENDBRANCH  11  12
BRANCH  11  16
HETATM   16  O   UNL     2     -11.258  11.034  67.201  1.00  0.00    -0.309 OA 
HETATM   17  O   UNL     2     -10.060  11.932  65.272  1.00  0.00    -0.246 OA 
HETATM   18  O   UNL     2     -12.417  12.500  65.641  1.00  0.00    -0.648 OA 
HETATM   19  S   UNL     2     -11.089  12.335  66.225  1.00  0.00    -0.317 S  
HETATM   20  O   UNL     2     -10.673  13.410  67.114  1.00  0.00    -0.261 OA 
ENDBRANCH  11  16
ENDBRANCH  10  11
ENDBRANCH   8  10
ENDBRANCH   4   5
ENDBRANCH   3   4
TORSDOF 6
ENDMDL
MODEL      129
REMARK 921   NORMALIZED FREE ENERGY PREDICTED BY IDOCK:   -4.05 KCAL/MOL
REMARK 922        TOTAL FREE ENERGY PREDICTED BY IDOCK:   -6.67 KCAL/MOL
REMARK 923 INTER-LIGAND FREE ENERGY PREDICTED BY IDOCK:   -5.67 KCAL/MOL
REMARK 924 INTRA-LIGAND FREE ENERGY PREDICTED BY IDOCK:   -1.00 KCAL/MOL
REMARK 927      BINDING AFFINITY PREDICTED BY RF-SCORE:    0.00 PKD
ROOT
HETATM    1 NA   UNL     1     -10.755  14.088  68.773  1.00  0.00    -0.208 Na 
HETATM    2  C   UNL     2      -9.638  17.016  66.775  1.00  0.00    -0.274 C  
HETATM    3  C   UNL     2     -10.363  16.437  65.568  1.00  0.00    -0.336 C  
ENDROOT
BRANCH   3   4
HETATM    4  C   UNL     2     -11.157  15.190  65.953  1.00  0.00    -0.319 C  
BRANCH   4   5
HETATM    5  C   UNL     2     -10.385  13.879  65.773  1.00  0.00    -0.326 C  
HETATM    6  C   UNL     2     -11.187  12.574  66.003  1.00  0.00    -0.354 C  
HETATM    7  C   UNL     2     -12.479  12.481  65.159  1.00  0.00    -0.451 C  
HETATM    8  C   UNL     2     -10.308  11.323  65.762  1.00  0.00    -0.310 C  
HETATM    9  C   UNL     2     -12.272  12.379  63.653  1.00  0.00    -0.653 C  
BRANCH   8  10
HETATM   10  C   UNL     2      -9.054  11.226  66.631  1.00  0.00    -0.187 C  
BRANCH  10  11
HETATM   11  C   UNL     2      -9.258  10.846  68.114  1.00  0.00    -0.158 C  
BRANCH  11  12
HETATM   12  C   UNL     2      -7.911  10.879  68.877  1.00  0.00    -0.146 C  
HETATM   13  C   UNL     2      -7.482   8.351  69.012  1.00  0.00    -0.093 C  
HETATM   14  C   UNL     2      -7.618   9.664  69.786  1.00  0.00    -0.123 C  
HETATM   15  C   UNL     2      -6.316   9.910  70.566  1.00  0.00    -0.109 C  
ENDBRANCH  11  12
BRANCH  11  16
HETATM   16  O   UNL     2     -10.138  11.790  68.720  1.00  0.00    -0.206 OA 
HETATM   17  O   UNL     2     -10.879  10.159  70.380  1.00  0.00    -0.292 OA 
HETATM   18  O   UNL     2     -11.796  12.433  70.381  1.00  0.00    -0.299 OA 
HETATM   19  S   UNL     2     -11.416  11.265  69.594  1.00  0.00    -0.320 S  
HETATM   20  O   UNL     2     -12.396  10.852  68.599  1.00  0.00    -0.501 OA 
ENDBRANCH  11  16
ENDBRANCH  10  11
ENDBRANCH   8  10
ENDBRANCH   4   5
ENDBRANCH   3   4
TORSDOF 6
ENDMDL
MODEL      130
REMARK 921   NORMALIZED FREE ENERGY PREDICTED BY IDOCK:   -4.04 KCAL/MOL
REMARK 922        TOTAL FREE ENERGY PREDICTED BY IDOCK:   -6.67 KCAL/MOL
REMARK 923 INTER-LIGAND FREE ENERGY PREDICTED BY IDOCK:   -5.81 KCAL/MOL
REMARK 924 INTRA-LIGAND FREE ENERGY PREDICTED BY IDOCK:   -0.86 KCAL/MOL
REMARK 927      BINDING AFFINITY PREDICTED BY RF-SCORE:    0.00 PKD
ROOT
HETATM    1 NA   UNL     1     -12.223   4.280  65.414  1.00  0.00    -0.530 Na 
HETATM    2  C   UNL     2      -9.035   2.808  66.630  1.00  0.00    -0.165 C  
HETATM    3  C   UNL     2      -8.328   4.109  66.277  1.00  0.00    -0.105 C  
ENDROOT
BRANCH   3   4
HETATM    4  C   UNL     2      -9.329   5.169  65.822  1.00  0.00    -0.163 C  
BRANCH   4   5
HETATM    5  C   UNL     2     -10.183   5.748  66.954  1.00  0.00    -0.265 C  
HETATM    6  C   UNL     2      -9.492   6.785  67.873  1.00  0.00    -0.118 C  
HETATM    7  C   UNL     2      -8.858   7.969  67.107  1.00  0.00    -0.138 C  
HETATM    8  C   UNL     2     -10.463   7.315  68.955  1.00  0.00    -0.219 C  
HETATM    9  C   UNL     2      -9.842   8.890  66.395  1.00  0.00    -0.353 C  
BRANCH   8  10
HETATM   10  C   UNL     2     -11.068   6.251  69.872  1.00  0.00    -0.469 C  
BRANCH  10  11
HETATM   11  C   UNL     2     -11.287   6.644  71.349  1.00  0.00    -0.289 C  
BRANCH  11  12
HETATM   12  C   UNL     2     -12.673   7.308  71.539  1.00  0.00    -0.422 C  
HETATM   13  C   UNL     2     -11.969   9.759  71.241  1.00  0.00    -0.471 C  
HETATM   14  C   UNL     2     -12.664   8.732  72.138  1.00  0.00    -0.461 C  
HETATM   15  C   UNL     2     -14.109   9.194  72.382  1.00  0.00    -0.434 C  
ENDBRANCH  11  12
BRANCH  11  16
HETATM   16  O   UNL     2     -11.241   5.469  72.155  1.00  0.00    -0.243 OA 
HETATM   17  O   UNL     2     -10.490   6.733  74.105  1.00  0.00    -0.365 OA 
HETATM   18  O   UNL     2     -10.814   4.307  74.251  1.00  0.00    -0.238 OA 
HETATM   19  S   UNL     2     -10.286   5.430  73.482  1.00  0.00    -0.246 S  
HETATM   20  O   UNL     2      -8.940   5.236  72.960  1.00  0.00    -0.120 OA 
ENDBRANCH  11  16
ENDBRANCH  10  11
ENDBRANCH   8  10
ENDBRANCH   4   5
ENDBRANCH   3   4
TORSDOF 6
ENDMDL
MODEL      131
REMARK 921   NORMALIZED FREE ENERGY PREDICTED BY IDOCK:   -4.04 KCAL/MOL
REMARK 922        TOTAL FREE ENERGY PREDICTED BY IDOCK:   -6.66 KCAL/MOL
REMARK 923 INTER-LIGAND FREE ENERGY PREDICTED BY IDOCK:   -5.86 KCAL/MOL
REMARK 924 INTRA-LIGAND FREE ENERGY PREDICTED BY IDOCK:   -0.80 KCAL/MOL
REMARK 927      BINDING AFFINITY PREDICTED BY RF-SCORE:    0.00 PKD
ROOT
HETATM    1 NA   UNL     1     -12.028   9.020  69.563  1.00  0.00    -0.450 Na 
HETATM    2  C   UNL     2      -8.504   8.729  68.419  1.00  0.00    -0.130 C  
HETATM    3  C   UNL     2      -9.003   8.648  66.983  1.00  0.00    -0.152 C  
ENDROOT
BRANCH   3   4
HETATM    4  C   UNL     2     -10.512   8.873  66.915  1.00  0.00    -0.304 C  
BRANCH   4   5
HETATM    5  C   UNL     2     -10.946  10.302  67.258  1.00  0.00    -0.277 C  
HETATM    6  C   UNL     2     -10.128  11.442  66.603  1.00  0.00    -0.247 C  
HETATM    7  C   UNL     2     -10.032  11.335  65.064  1.00  0.00    -0.323 C  
HETATM    8  C   UNL     2     -10.679  12.832  67.002  1.00  0.00    -0.272 C  
HETATM    9  C   UNL     2     -11.346  11.513  64.313  1.00  0.00    -0.320 C  
BRANCH   8  10
HETATM   10  C   UNL     2     -10.709  13.119  68.504  1.00  0.00    -0.277 C  
BRANCH  10  11
HETATM   11  C   UNL     2     -10.747  14.603  68.932  1.00  0.00    -0.248 C  
BRANCH  11  12
HETATM   12  C   UNL     2     -10.416  15.527  67.734  1.00  0.00    -0.273 C  
HETATM   13  C   UNL     2      -7.877  15.151  67.647  1.00  0.00    -0.178 C  
HETATM   14  C   UNL     2      -9.012  16.173  67.745  1.00  0.00    -0.192 C  
HETATM   15  C   UNL     2      -8.891  17.154  66.568  1.00  0.00    -0.293 C  
ENDBRANCH  11  12
BRANCH  11  16
HETATM   16  O   UNL     2     -12.057  14.921  69.394  1.00  0.00    -0.298 OA 
HETATM   17  O   UNL     2     -11.253  15.311  71.667  1.00  0.00    -0.395 OA 
HETATM   18  O   UNL     2     -13.633  15.564  71.133  1.00  0.00    -0.510 OA 
HETATM   19  S   UNL     2     -12.420  14.767  70.980  1.00  0.00    -0.361 S  
HETATM   20  O   UNL     2     -12.599  13.335  71.178  1.00  0.00    -0.360 OA 
ENDBRANCH  11  16
ENDBRANCH  10  11
ENDBRANCH   8  10
ENDBRANCH   4   5
ENDBRANCH   3   4
TORSDOF 6
ENDMDL
MODEL      132
REMARK 921   NORMALIZED FREE ENERGY PREDICTED BY IDOCK:   -4.04 KCAL/MOL
REMARK 922        TOTAL FREE ENERGY PREDICTED BY IDOCK:   -6.66 KCAL/MOL
REMARK 923 INTER-LIGAND FREE ENERGY PREDICTED BY IDOCK:   -5.60 KCAL/MOL
REMARK 924 INTRA-LIGAND FREE ENERGY PREDICTED BY IDOCK:   -1.06 KCAL/MOL
REMARK 927      BINDING AFFINITY PREDICTED BY RF-SCORE:    0.00 PKD
ROOT
HETATM    1 NA   UNL     1     -14.230   9.745  70.155  1.00  0.00    -0.660 Na 
HETATM    2  C   UNL     2     -13.437  12.866  72.012  1.00  0.00    -0.568 C  
HETATM    3  C   UNL     2     -12.398  13.202  70.952  1.00  0.00    -0.393 C  
ENDROOT
BRANCH   3   4
HETATM    4  C   UNL     2     -12.442  12.197  69.803  1.00  0.00     0.052 C  
BRANCH   4   5
HETATM    5  C   UNL     2     -11.110  11.483  69.548  1.00  0.00    -0.256 C  
HETATM    6  C   UNL     2     -11.058  10.553  68.311  1.00  0.00    -0.340 C  
HETATM    7  C   UNL     2     -11.484  11.242  66.996  1.00  0.00    -0.177 C  
HETATM    8  C   UNL     2      -9.657   9.916  68.145  1.00  0.00    -0.153 C  
HETATM    9  C   UNL     2     -10.558  12.350  66.507  1.00  0.00    -0.261 C  
BRANCH   8  10
HETATM   10  C   UNL     2      -9.165   9.092  69.335  1.00  0.00    -0.156 C  
BRANCH  10  11
HETATM   11  C   UNL     2      -9.995   7.846  69.715  1.00  0.00    -0.186 C  
BRANCH  11  12
HETATM   12  C   UNL     2      -9.342   6.561  69.150  1.00  0.00    -0.133 C  
HETATM   13  C   UNL     2     -10.893   6.194  67.137  1.00  0.00    -0.442 C  
HETATM   14  C   UNL     2     -10.289   5.591  68.407  1.00  0.00    -0.243 C  
HETATM   15  C   UNL     2      -9.520   4.316  68.027  1.00  0.00    -0.212 C  
ENDBRANCH  11  12
BRANCH  11  16
HETATM   16  O   UNL     2     -10.046   7.735  71.135  1.00  0.00    -0.187 OA 
HETATM   17  O   UNL     2     -12.341   6.903  71.072  1.00  0.00    -0.381 OA 
HETATM   18  O   UNL     2     -11.186   7.195  73.216  1.00  0.00    -0.257 OA 
HETATM   19  S   UNL     2     -11.490   7.751  71.901  1.00  0.00    -0.292 S  
HETATM   20  O   UNL     2     -11.888   9.151  71.905  1.00  0.00    -0.354 OA 
ENDBRANCH  11  16
ENDBRANCH  10  11
ENDBRANCH   8  10
ENDBRANCH   4   5
ENDBRANCH   3   4
TORSDOF 6
ENDMDL
MODEL      133
REMARK 921   NORMALIZED FREE ENERGY PREDICTED BY IDOCK:   -4.04 KCAL/MOL
REMARK 922        TOTAL FREE ENERGY PREDICTED BY IDOCK:   -6.66 KCAL/MOL
REMARK 923 INTER-LIGAND FREE ENERGY PREDICTED BY IDOCK:   -6.57 KCAL/MOL
REMARK 924 INTRA-LIGAND FREE ENERGY PREDICTED BY IDOCK:   -0.09 KCAL/MOL
REMARK 927      BINDING AFFINITY PREDICTED BY RF-SCORE:    0.00 PKD
ROOT
HETATM    1 NA   UNL     1     -10.498  14.537  72.454  1.00  0.00    -0.236 Na 
HETATM    2  C   UNL     2     -14.136  13.778  72.473  1.00  0.00    -0.495 C  
HETATM    3  C   UNL     2     -14.356  14.933  71.507  1.00  0.00    -0.631 C  
ENDROOT
BRANCH   3   4
HETATM    4  C   UNL     2     -13.025  15.532  71.056  1.00  0.00    -0.550 C  
BRANCH   4   5
HETATM    5  C   UNL     2     -12.132  14.555  70.285  1.00  0.00    -0.386 C  
HETATM    6  C   UNL     2     -11.907  14.871  68.785  1.00  0.00    -0.328 C  
HETATM    7  C   UNL     2     -11.382  16.301  68.522  1.00  0.00    -0.330 C  
HETATM    8  C   UNL     2     -10.967  13.833  68.126  1.00  0.00    -0.265 C  
HETATM    9  C   UNL     2      -9.980  16.590  69.046  1.00  0.00    -0.275 C  
BRANCH   8  10
HETATM   10  C   UNL     2     -11.436  12.380  68.203  1.00  0.00    -0.370 C  
BRANCH  10  11
HETATM   11  C   UNL     2     -10.386  11.288  67.904  1.00  0.00    -0.182 C  
BRANCH  11  12
HETATM   12  C   UNL     2     -10.489  10.134  68.931  1.00  0.00    -0.230 C  
HETATM   13  C   UNL     2     -12.578  10.929  70.196  1.00  0.00    -0.304 C  
HETATM   14  C   UNL     2     -11.113  10.497  70.298  1.00  0.00    -0.359 C  
HETATM   15  C   UNL     2     -11.023   9.287  71.240  1.00  0.00    -0.421 C  
ENDBRANCH  11  12
BRANCH  11  16
HETATM   16  O   UNL     2     -10.627  10.753  66.605  1.00  0.00    -0.245 OA 
HETATM   17  O   UNL     2      -8.278  10.989  65.980  1.00  0.00    -0.164 OA 
HETATM   18  O   UNL     2      -9.900  10.078  64.383  1.00  0.00    -0.296 OA 
HETATM   19  S   UNL     2      -9.603  11.102  65.380  1.00  0.00    -0.237 S  
HETATM   20  O   UNL     2      -9.951  12.459  64.985  1.00  0.00    -0.265 OA 
ENDBRANCH  11  16
ENDBRANCH  10  11
ENDBRANCH   8  10
ENDBRANCH   4   5
ENDBRANCH   3   4
TORSDOF 6
ENDMDL
MODEL      134
REMARK 921   NORMALIZED FREE ENERGY PREDICTED BY IDOCK:   -4.04 KCAL/MOL
REMARK 922        TOTAL FREE ENERGY PREDICTED BY IDOCK:   -6.66 KCAL/MOL
REMARK 923 INTER-LIGAND FREE ENERGY PREDICTED BY IDOCK:   -5.70 KCAL/MOL
REMARK 924 INTRA-LIGAND FREE ENERGY PREDICTED BY IDOCK:   -0.95 KCAL/MOL
REMARK 927      BINDING AFFINITY PREDICTED BY RF-SCORE:    0.00 PKD
ROOT
HETATM    1 NA   UNL     1     -13.494  16.240  69.484  1.00  0.00    -0.596 Na 
HETATM    2  C   UNL     2     -13.755  13.622  72.109  1.00  0.00    -0.649 C  
HETATM    3  C   UNL     2     -12.770  12.771  71.322  1.00  0.00    -0.364 C  
ENDROOT
BRANCH   3   4
HETATM    4  C   UNL     2     -12.222  13.537  70.119  1.00  0.00    -0.400 C  
BRANCH   4   5
HETATM    5  C   UNL     2     -11.367  12.686  69.175  1.00  0.00    -0.339 C  
HETATM    6  C   UNL     2     -11.885  12.542  67.724  1.00  0.00    -0.375 C  
HETATM    7  C   UNL     2     -12.160  13.893  67.024  1.00  0.00    -0.451 C  
HETATM    8  C   UNL     2     -10.922  11.688  66.863  1.00  0.00    -0.342 C  
HETATM    9  C   UNL     2     -10.932  14.755  66.760  1.00  0.00    -0.327 C  
BRANCH   8  10
HETATM   10  C   UNL     2     -10.662  10.273  67.380  1.00  0.00    -0.339 C  
BRANCH  10  11
HETATM   11  C   UNL     2      -9.231   9.958  67.868  1.00  0.00    -0.130 C  
BRANCH  11  12
HETATM   12  C   UNL     2      -8.222  10.988  67.306  1.00  0.00    -0.125 C  
HETATM   13  C   UNL     2      -6.063   9.641  67.650  1.00  0.00    -0.052 C  
HETATM   14  C   UNL     2      -6.805  10.953  67.920  1.00  0.00    -0.068 C  
HETATM   15  C   UNL     2      -5.971  12.112  67.353  1.00  0.00    -0.139 C  
ENDBRANCH  11  12
BRANCH  11  16
HETATM   16  O   UNL     2      -9.198  10.030  69.291  1.00  0.00    -0.178 OA 
HETATM   17  O   UNL     2      -8.387   7.733  69.473  1.00  0.00    -0.126 OA 
HETATM   18  O   UNL     2      -8.784   9.071  71.489  1.00  0.00    -0.304 OA 
HETATM   19  S   UNL     2      -9.270   8.657  70.177  1.00  0.00    -0.166 S  
HETATM   20  O   UNL     2     -10.673   8.269  70.138  1.00  0.00    -0.234 OA 
ENDBRANCH  11  16
ENDBRANCH  10  11
ENDBRANCH   8  10
ENDBRANCH   4   5
ENDBRANCH   3   4
TORSDOF 6
ENDMDL
MODEL      135
REMARK 921   NORMALIZED FREE ENERGY PREDICTED BY IDOCK:   -4.03 KCAL/MOL
REMARK 922        TOTAL FREE ENERGY PREDICTED BY IDOCK:   -6.65 KCAL/MOL
REMARK 923 INTER-LIGAND FREE ENERGY PREDICTED BY IDOCK:   -5.78 KCAL/MOL
REMARK 924 INTRA-LIGAND FREE ENERGY PREDICTED BY IDOCK:   -0.87 KCAL/MOL
REMARK 927      BINDING AFFINITY PREDICTED BY RF-SCORE:    0.00 PKD
ROOT
HETATM    1 NA   UNL     1     -11.963  16.087  63.348  1.00  0.00    -0.907 Na 
HETATM    2  C   UNL     2     -10.285  17.277  66.443  1.00  0.00    -0.333 C  
HETATM    3  C   UNL     2      -9.519  15.963  66.503  1.00  0.00    -0.299 C  
ENDROOT
BRANCH   3   4
HETATM    4  C   UNL     2      -9.792  15.113  65.264  1.00  0.00    -0.249 C  
BRANCH   4   5
HETATM    5  C   UNL     2      -9.964  13.620  65.558  1.00  0.00    -0.244 C  
HETATM    6  C   UNL     2     -11.384  13.162  65.973  1.00  0.00    -0.337 C  
HETATM    7  C   UNL     2     -12.488  13.577  64.975  1.00  0.00    -0.462 C  
HETATM    8  C   UNL     2     -11.436  11.634  66.213  1.00  0.00    -0.217 C  
HETATM    9  C   UNL     2     -12.411  12.920  63.602  1.00  0.00    -0.438 C  
BRANCH   8  10
HETATM   10  C   UNL     2     -10.474  11.104  67.277  1.00  0.00    -0.263 C  
BRANCH  10  11
HETATM   11  C   UNL     2      -9.771   9.762  66.978  1.00  0.00    -0.183 C  
BRANCH  11  12
HETATM   12  C   UNL     2     -10.658   8.570  67.413  1.00  0.00    -0.304 C  
HETATM   13  C   UNL     2      -9.825   8.331  69.830  1.00  0.00    -0.186 C  
HETATM   14  C   UNL     2     -10.058   7.635  68.487  1.00  0.00    -0.205 C  
HETATM   15  C   UNL     2     -10.999   6.441  68.711  1.00  0.00    -0.404 C  
ENDBRANCH  11  12
BRANCH  11  16
HETATM   16  O   UNL     2      -9.540   9.659  65.576  1.00  0.00    -0.249 OA 
HETATM   17  O   UNL     2      -7.626   8.179  65.914  1.00  0.00    -0.078 OA 
HETATM   18  O   UNL     2      -8.305   8.830  63.649  1.00  0.00    -0.177 OA 
HETATM   19  S   UNL     2      -8.055   9.253  65.024  1.00  0.00    -0.135 S  
HETATM   20  O   UNL     2      -7.268  10.470  65.156  1.00  0.00    -0.113 OA 
ENDBRANCH  11  16
ENDBRANCH  10  11
ENDBRANCH   8  10
ENDBRANCH   4   5
ENDBRANCH   3   4
TORSDOF 6
ENDMDL
MODEL      136
REMARK 921   NORMALIZED FREE ENERGY PREDICTED BY IDOCK:   -4.02 KCAL/MOL
REMARK 922        TOTAL FREE ENERGY PREDICTED BY IDOCK:   -6.63 KCAL/MOL
REMARK 923 INTER-LIGAND FREE ENERGY PREDICTED BY IDOCK:   -5.62 KCAL/MOL
REMARK 924 INTRA-LIGAND FREE ENERGY PREDICTED BY IDOCK:   -1.01 KCAL/MOL
REMARK 927      BINDING AFFINITY PREDICTED BY RF-SCORE:    0.00 PKD
ROOT
HETATM    1 NA   UNL     1     -13.269   8.432  73.135  1.00  0.00    -0.564 Na 
HETATM    2  C   UNL     2     -10.939   6.092  71.428  1.00  0.00    -0.334 C  
HETATM    3  C   UNL     2     -10.163   7.290  70.900  1.00  0.00    -0.203 C  
ENDROOT
BRANCH   3   4
HETATM    4  C   UNL     2     -10.702   8.593  71.487  1.00  0.00    -0.352 C  
BRANCH   4   5
HETATM    5  C   UNL     2     -10.786   9.743  70.477  1.00  0.00    -0.381 C  
HETATM    6  C   UNL     2     -12.203  10.109  69.972  1.00  0.00    -0.120 C  
HETATM    7  C   UNL     2     -13.212  10.401  71.106  1.00  0.00    -0.399 C  
HETATM    8  C   UNL     2     -12.159  11.300  68.984  1.00  0.00    -0.325 C  
HETATM    9  C   UNL     2     -12.921  11.644  71.938  1.00  0.00    -0.442 C  
BRANCH   8  10
HETATM   10  C   UNL     2     -11.290  11.091  67.744  1.00  0.00    -0.365 C  
BRANCH  10  11
HETATM   11  C   UNL     2     -10.152  12.109  67.507  1.00  0.00    -0.196 C  
BRANCH  11  12
HETATM   12  C   UNL     2      -8.902  11.406  66.924  1.00  0.00    -0.173 C  
HETATM   13  C   UNL     2      -7.575  11.111  69.103  1.00  0.00    -0.098 C  
HETATM   14  C   UNL     2      -7.574  11.657  67.673  1.00  0.00    -0.128 C  
HETATM   15  C   UNL     2      -6.419  11.002  66.900  1.00  0.00    -0.108 C  
ENDBRANCH  11  12
BRANCH  11  16
HETATM   16  O   UNL     2     -10.591  13.089  66.570  1.00  0.00    -0.277 OA 
HETATM   17  O   UNL     2      -9.661  14.908  67.909  1.00  0.00    -0.204 OA 
HETATM   18  O   UNL     2     -10.823  15.388  65.804  1.00  0.00    -0.329 OA 
HETATM   19  S   UNL     2     -10.812  14.635  67.054  1.00  0.00    -0.311 S  
HETATM   20  O   UNL     2     -12.080  14.619  67.770  1.00  0.00    -0.314 OA 
ENDBRANCH  11  16
ENDBRANCH  10  11
ENDBRANCH   8  10
ENDBRANCH   4   5
ENDBRANCH   3   4
TORSDOF 6
ENDMDL
MODEL      137
REMARK 921   NORMALIZED FREE ENERGY PREDICTED BY IDOCK:   -4.02 KCAL/MOL
REMARK 922        TOTAL FREE ENERGY PREDICTED BY IDOCK:   -6.63 KCAL/MOL
REMARK 923 INTER-LIGAND FREE ENERGY PREDICTED BY IDOCK:   -6.04 KCAL/MOL
REMARK 924 INTRA-LIGAND FREE ENERGY PREDICTED BY IDOCK:   -0.59 KCAL/MOL
REMARK 927      BINDING AFFINITY PREDICTED BY RF-SCORE:    0.00 PKD
ROOT
HETATM    1 NA   UNL     1      -5.958  10.317  69.325  1.00  0.00    -0.038 Na 
HETATM    2  C   UNL     2      -7.213   7.019  70.495  1.00  0.00    -0.068 C  
HETATM    3  C   UNL     2      -8.534   7.680  70.862  1.00  0.00    -0.124 C  
ENDROOT
BRANCH   3   4
HETATM    4  C   UNL     2      -8.560   9.140  70.411  1.00  0.00    -0.236 C  
BRANCH   4   5
HETATM    5  C   UNL     2      -9.970   9.713  70.234  1.00  0.00    -0.326 C  
HETATM    6  C   UNL     2     -10.184  10.639  69.012  1.00  0.00    -0.231 C  
HETATM    7  C   UNL     2      -9.760  10.005  67.668  1.00  0.00    -0.185 C  
HETATM    8  C   UNL     2     -11.651  11.127  68.926  1.00  0.00    -0.385 C  
HETATM    9  C   UNL     2     -10.590   8.809  67.217  1.00  0.00    -0.303 C  
BRANCH   8  10
HETATM   10  C   UNL     2     -12.161  11.889  70.150  1.00  0.00    -0.382 C  
BRANCH  10  11
HETATM   11  C   UNL     2     -11.814  13.391  70.234  1.00  0.00    -0.245 C  
BRANCH  11  12
HETATM   12  C   UNL     2     -11.180  13.882  68.909  1.00  0.00    -0.304 C  
HETATM   13  C   UNL     2     -11.149  16.401  69.406  1.00  0.00    -0.300 C  
HETATM   14  C   UNL     2     -11.593  15.297  68.444  1.00  0.00    -0.365 C  
HETATM   15  C   UNL     2     -10.986  15.579  67.061  1.00  0.00    -0.283 C  
ENDBRANCH  11  12
BRANCH  11  16
HETATM   16  O   UNL     2     -13.009  14.134  70.460  1.00  0.00    -0.304 OA 
HETATM   17  O   UNL     2     -12.132  15.077  72.535  1.00  0.00    -0.351 OA 
HETATM   18  O   UNL     2     -14.384  15.665  71.760  1.00  0.00    -0.448 OA 
HETATM   19  S   UNL     2     -13.397  14.611  71.975  1.00  0.00    -0.405 S  
HETATM   20  O   UNL     2     -13.913  13.410  72.617  1.00  0.00    -0.755 OA 
ENDBRANCH  11  16
ENDBRANCH  10  11
ENDBRANCH   8  10
ENDBRANCH   4   5
ENDBRANCH   3   4
TORSDOF 6
ENDMDL
MODEL      138
REMARK 921   NORMALIZED FREE ENERGY PREDICTED BY IDOCK:   -4.01 KCAL/MOL
REMARK 922        TOTAL FREE ENERGY PREDICTED BY IDOCK:   -6.62 KCAL/MOL
REMARK 923 INTER-LIGAND FREE ENERGY PREDICTED BY IDOCK:   -5.69 KCAL/MOL
REMARK 924 INTRA-LIGAND FREE ENERGY PREDICTED BY IDOCK:   -0.93 KCAL/MOL
REMARK 927      BINDING AFFINITY PREDICTED BY RF-SCORE:    0.00 PKD
ROOT
HETATM    1 NA   UNL     1      -7.531  11.107  63.615  1.00  0.00    -0.346 Na 
HETATM    2  C   UNL     2      -8.252   8.666  66.323  1.00  0.00    -0.116 C  
HETATM    3  C   UNL     2      -9.727   9.024  66.219  1.00  0.00    -0.345 C  
ENDROOT
BRANCH   3   4
HETATM    4  C   UNL     2      -9.979   9.977  65.051  1.00  0.00    -0.320 C  
BRANCH   4   5
HETATM    5  C   UNL     2     -10.205  11.432  65.472  1.00  0.00    -0.312 C  
HETATM    6  C   UNL     2     -10.284  12.472  64.328  1.00  0.00    -0.359 C  
HETATM    7  C   UNL     2     -11.328  12.126  63.243  1.00  0.00    -0.410 C  
HETATM    8  C   UNL     2     -10.544  13.896  64.877  1.00  0.00    -0.436 C  
HETATM    9  C   UNL     2     -12.782  12.156  63.700  1.00  0.00    -0.549 C  
BRANCH   8  10
HETATM   10  C   UNL     2      -9.506  14.415  65.872  1.00  0.00    -0.189 C  
BRANCH  10  11
HETATM   11  C   UNL     2      -9.957  14.558  67.343  1.00  0.00    -0.227 C  
BRANCH  11  12
HETATM   12  C   UNL     2      -9.350  13.430  68.213  1.00  0.00    -0.205 C  
HETATM   13  C   UNL     2      -6.864  13.898  67.771  1.00  0.00    -0.184 C  
HETATM   14  C   UNL     2      -7.993  12.864  67.738  1.00  0.00    -0.162 C  
HETATM   15  C   UNL     2      -7.594  11.676  68.626  1.00  0.00    -0.133 C  
ENDBRANCH  11  12
BRANCH  11  16
HETATM   16  O   UNL     2      -9.500  15.809  67.850  1.00  0.00    -0.210 OA 
HETATM   17  O   UNL     2     -11.753  16.442  68.551  1.00  0.00    -0.239 OA 
HETATM   18  O   UNL     2      -9.866  17.965  68.919  1.00  0.00    -0.338 OA 
HETATM   19  S   UNL     2     -10.547  17.055  68.003  1.00  0.00    -0.371 S  
HETATM   20  O   UNL     2     -10.714  17.563  66.648  1.00  0.00    -0.237 OA 
ENDBRANCH  11  16
ENDBRANCH  10  11
ENDBRANCH   8  10
ENDBRANCH   4   5
ENDBRANCH   3   4
TORSDOF 6
ENDMDL
MODEL      139
REMARK 921   NORMALIZED FREE ENERGY PREDICTED BY IDOCK:   -4.01 KCAL/MOL
REMARK 922        TOTAL FREE ENERGY PREDICTED BY IDOCK:   -6.62 KCAL/MOL
REMARK 923 INTER-LIGAND FREE ENERGY PREDICTED BY IDOCK:   -5.93 KCAL/MOL
REMARK 924 INTRA-LIGAND FREE ENERGY PREDICTED BY IDOCK:   -0.69 KCAL/MOL
REMARK 927      BINDING AFFINITY PREDICTED BY RF-SCORE:    0.00 PKD
ROOT
HETATM    1 NA   UNL     1     -13.765  12.442  71.656  1.00  0.00    -0.377 Na 
HETATM    2  C   UNL     2     -12.775  15.267  73.858  1.00  0.00    -0.662 C  
HETATM    3  C   UNL     2     -12.051  15.900  72.678  1.00  0.00    -0.615 C  
ENDROOT
BRANCH   3   4
HETATM    4  C   UNL     2     -12.299  15.109  71.395  1.00  0.00    -0.411 C  
BRANCH   4   5
HETATM    5  C   UNL     2     -11.798  15.806  70.126  1.00  0.00    -0.369 C  
HETATM    6  C   UNL     2     -10.695  15.068  69.329  1.00  0.00    -0.250 C  
HETATM    7  C   UNL     2     -11.064  13.614  68.955  1.00  0.00    -0.295 C  
HETATM    8  C   UNL     2     -10.295  15.855  68.058  1.00  0.00    -0.262 C  
HETATM    9  C   UNL     2     -12.218  13.464  67.972  1.00  0.00    -0.136 C  
BRANCH   8  10
HETATM   10  C   UNL     2      -9.786  17.276  68.300  1.00  0.00    -0.304 C  
BRANCH  10  11
HETATM   11  C   UNL     2      -8.291  17.541  68.017  1.00  0.00    -0.241 C  
BRANCH  11  12
HETATM   12  C   UNL     2      -7.960  19.044  68.188  1.00  0.00    -0.334 C  
HETATM   13  C   UNL     2      -7.201  19.547  65.787  1.00  0.00    -0.314 C  
HETATM   14  C   UNL     2      -6.844  19.600  67.274  1.00  0.00    -0.226 C  
HETATM   15  C   UNL     2      -6.549  21.059  67.656  1.00  0.00    -0.416 C  
ENDBRANCH  11  12
BRANCH  11  16
HETATM   16  O   UNL     2      -7.503  16.802  68.946  1.00  0.00    -0.220 OA 
HETATM   17  O   UNL     2      -5.861  16.234  67.230  1.00  0.00    -0.170 OA 
HETATM   18  O   UNL     2      -5.579  15.431  69.530  1.00  0.00    -0.099 OA 
HETATM   19  S   UNL     2      -6.487  15.640  68.407  1.00  0.00    -0.120 S  
HETATM   20  O   UNL     2      -7.351  14.509  68.100  1.00  0.00    -0.106 OA 
ENDBRANCH  11  16
ENDBRANCH  10  11
ENDBRANCH   8  10
ENDBRANCH   4   5
ENDBRANCH   3   4
TORSDOF 6
ENDMDL
MODEL      140
REMARK 921   NORMALIZED FREE ENERGY PREDICTED BY IDOCK:   -3.99 KCAL/MOL
REMARK 922        TOTAL FREE ENERGY PREDICTED BY IDOCK:   -6.60 KCAL/MOL
REMARK 923 INTER-LIGAND FREE ENERGY PREDICTED BY IDOCK:   -5.64 KCAL/MOL
REMARK 924 INTRA-LIGAND FREE ENERGY PREDICTED BY IDOCK:   -0.96 KCAL/MOL
REMARK 927      BINDING AFFINITY PREDICTED BY RF-SCORE:    0.00 PKD
ROOT
HETATM    1 NA   UNL     1      -6.598   5.871  70.471  1.00  0.00    -0.033 Na 
HETATM    2  C   UNL     2      -9.944   4.256  70.562  1.00  0.00    -0.219 C  
HETATM    3  C   UNL     2     -10.583   5.637  70.551  1.00  0.00    -0.354 C  
ENDROOT
BRANCH   3   4
HETATM    4  C   UNL     2      -9.528   6.727  70.370  1.00  0.00    -0.168 C  
BRANCH   4   5
HETATM    5  C   UNL     2      -9.992   7.906  69.508  1.00  0.00    -0.189 C  
HETATM    6  C   UNL     2      -9.400   7.984  68.079  1.00  0.00    -0.146 C  
HETATM    7  C   UNL     2      -9.593   6.692  67.254  1.00  0.00    -0.157 C  
HETATM    8  C   UNL     2      -9.966   9.197  67.301  1.00  0.00    -0.270 C  
HETATM    9  C   UNL     2     -11.035   6.348  66.903  1.00  0.00    -0.413 C  
BRANCH   8  10
HETATM   10  C   UNL     2      -9.730  10.561  67.950  1.00  0.00    -0.171 C  
BRANCH  10  11
HETATM   11  C   UNL     2     -10.748  11.676  67.625  1.00  0.00    -0.207 C  
BRANCH  11  12
HETATM   12  C   UNL     2     -10.935  12.617  68.840  1.00  0.00    -0.273 C  
HETATM   13  C   UNL     2     -12.153  10.985  70.405  1.00  0.00    -0.463 C  
HETATM   14  C   UNL     2     -12.181  12.351  69.715  1.00  0.00    -0.198 C  
HETATM   15  C   UNL     2     -12.292  13.442  70.792  1.00  0.00    -0.433 C  
ENDBRANCH  11  12
BRANCH  11  16
HETATM   16  O   UNL     2     -10.258  12.450  66.532  1.00  0.00    -0.222 OA 
HETATM   17  O   UNL     2     -12.456  12.494  65.469  1.00  0.00    -0.646 OA 
HETATM   18  O   UNL     2     -10.545  13.610  64.412  1.00  0.00    -0.423 OA 
HETATM   19  S   UNL     2     -11.046  12.424  65.100  1.00  0.00    -0.319 S  
HETATM   20  O   UNL     2     -10.664  11.157  64.493  1.00  0.00    -0.336 OA 
ENDBRANCH  11  16
ENDBRANCH  10  11
ENDBRANCH   8  10
ENDBRANCH   4   5
ENDBRANCH   3   4
TORSDOF 6
ENDMDL
MODEL      141
REMARK 921   NORMALIZED FREE ENERGY PREDICTED BY IDOCK:   -3.99 KCAL/MOL
REMARK 922        TOTAL FREE ENERGY PREDICTED BY IDOCK:   -6.59 KCAL/MOL
REMARK 923 INTER-LIGAND FREE ENERGY PREDICTED BY IDOCK:   -5.85 KCAL/MOL
REMARK 924 INTRA-LIGAND FREE ENERGY PREDICTED BY IDOCK:   -0.75 KCAL/MOL
REMARK 927      BINDING AFFINITY PREDICTED BY RF-SCORE:    0.00 PKD
ROOT
HETATM    1 NA   UNL     1     -13.496  12.692  71.087  1.00  0.00    -0.305 Na 
HETATM    2  C   UNL     2     -11.554  15.847  71.395  1.00  0.00    -0.529 C  
HETATM    3  C   UNL     2     -11.361  15.846  69.885  1.00  0.00    -0.348 C  
ENDROOT
BRANCH   3   4
HETATM    4  C   UNL     2     -12.156  14.716  69.232  1.00  0.00    -0.307 C  
BRANCH   4   5
HETATM    5  C   UNL     2     -11.490  13.341  69.342  1.00  0.00    -0.323 C  
HETATM    6  C   UNL     2     -11.901  12.294  68.277  1.00  0.00    -0.367 C  
HETATM    7  C   UNL     2     -11.732  12.786  66.822  1.00  0.00    -0.459 C  
HETATM    8  C   UNL     2     -11.140  10.960  68.476  1.00  0.00    -0.311 C  
HETATM    9  C   UNL     2     -10.295  13.035  66.378  1.00  0.00    -0.287 C  
BRANCH   8  10
HETATM   10  C   UNL     2     -11.326  10.296  69.840  1.00  0.00    -0.354 C  
BRANCH  10  11
HETATM   11  C   UNL     2     -10.750   8.873  70.010  1.00  0.00    -0.228 C  
BRANCH  11  12
HETATM   12  C   UNL     2      -9.354   8.765  69.351  1.00  0.00    -0.157 C  
HETATM   13  C   UNL     2      -9.391   6.263  68.776  1.00  0.00    -0.124 C  
HETATM   14  C   UNL     2      -8.646   7.398  69.483  1.00  0.00    -0.134 C  
HETATM   15  C   UNL     2      -7.230   7.495  68.895  1.00  0.00    -0.082 C  
ENDBRANCH  11  12
BRANCH  11  16
HETATM   16  O   UNL     2     -10.612   8.589  71.400  1.00  0.00    -0.215 OA 
HETATM   17  O   UNL     2     -11.895   6.522  71.192  1.00  0.00    -0.333 OA 
HETATM   18  O   UNL     2     -11.008   7.217  73.370  1.00  0.00    -0.332 OA 
HETATM   19  S   UNL     2     -11.691   7.611  72.142  1.00  0.00    -0.320 S  
HETATM   20  O   UNL     2     -12.869   8.444  72.337  1.00  0.00    -0.335 OA 
ENDBRANCH  11  16
ENDBRANCH  10  11
ENDBRANCH   8  10
ENDBRANCH   4   5
ENDBRANCH   3   4
TORSDOF 6
ENDMDL
MODEL      142
REMARK 921   NORMALIZED FREE ENERGY PREDICTED BY IDOCK:   -3.97 KCAL/MOL
REMARK 922        TOTAL FREE ENERGY PREDICTED BY IDOCK:   -6.57 KCAL/MOL
REMARK 923 INTER-LIGAND FREE ENERGY PREDICTED BY IDOCK:   -5.55 KCAL/MOL
REMARK 924 INTRA-LIGAND FREE ENERGY PREDICTED BY IDOCK:   -1.02 KCAL/MOL
REMARK 927      BINDING AFFINITY PREDICTED BY RF-SCORE:    0.00 PKD
ROOT
HETATM    1 NA   UNL     1      -8.577   9.125  72.705  1.00  0.00    -0.153 Na 
HETATM    2  C   UNL     2      -6.297  10.841  70.323  1.00  0.00    -0.142 C  
HETATM    3  C   UNL     2      -6.634   9.786  69.280  1.00  0.00    -0.052 C  
ENDROOT
BRANCH   3   4
HETATM    4  C   UNL     2      -7.729   8.847  69.783  1.00  0.00    -0.078 C  
BRANCH   4   5
HETATM    5  C   UNL     2      -9.117   9.491  69.856  1.00  0.00    -0.237 C  
HETATM    6  C   UNL     2      -9.719   9.976  68.514  1.00  0.00    -0.164 C  
HETATM    7  C   UNL     2      -9.761   8.884  67.421  1.00  0.00    -0.227 C  
HETATM    8  C   UNL     2     -11.131  10.578  68.714  1.00  0.00    -0.315 C  
HETATM    9  C   UNL     2     -10.697   7.714  67.700  1.00  0.00    -0.246 C  
BRANCH   8  10
HETATM   10  C   UNL     2     -11.209  11.759  69.682  1.00  0.00    -0.225 C  
BRANCH  10  11
HETATM   11  C   UNL     2     -11.530  13.142  69.074  1.00  0.00    -0.296 C  
BRANCH  11  12
HETATM   12  C   UNL     2     -11.969  13.001  67.596  1.00  0.00    -0.353 C  
HETATM   13  C   UNL     2     -10.623  14.951  66.607  1.00  0.00    -0.305 C  
HETATM   14  C   UNL     2     -12.002  14.309  66.772  1.00  0.00    -0.462 C  
HETATM   15  C   UNL     2     -12.578  14.021  65.377  1.00  0.00    -0.529 C  
ENDBRANCH  11  12
BRANCH  11  16
HETATM   16  O   UNL     2     -12.601  13.734  69.804  1.00  0.00    -0.233 OA 
HETATM   17  O   UNL     2     -11.484  15.906  69.846  1.00  0.00    -0.308 OA 
HETATM   18  O   UNL     2     -13.671  15.616  70.918  1.00  0.00    -0.549 OA 
HETATM   19  S   UNL     2     -12.332  15.077  70.697  1.00  0.00    -0.379 S  
HETATM   20  O   UNL     2     -11.662  14.594  71.895  1.00  0.00    -0.297 OA 
ENDBRANCH  11  16
ENDBRANCH  10  11
ENDBRANCH   8  10
ENDBRANCH   4   5
ENDBRANCH   3   4
TORSDOF 6
ENDMDL
MODEL      143
REMARK 921   NORMALIZED FREE ENERGY PREDICTED BY IDOCK:   -3.97 KCAL/MOL
REMARK 922        TOTAL FREE ENERGY PREDICTED BY IDOCK:   -6.57 KCAL/MOL
REMARK 923 INTER-LIGAND FREE ENERGY PREDICTED BY IDOCK:   -6.02 KCAL/MOL
REMARK 924 INTRA-LIGAND FREE ENERGY PREDICTED BY IDOCK:   -0.55 KCAL/MOL
REMARK 927      BINDING AFFINITY PREDICTED BY RF-SCORE:    0.00 PKD
ROOT
HETATM    1 NA   UNL     1     -12.183  15.796  63.294  1.00  0.00    -0.877 Na 
HETATM    2  C   UNL     2     -10.446  17.725  65.954  1.00  0.00    -0.251 C  
HETATM    3  C   UNL     2      -9.651  16.476  66.306  1.00  0.00    -0.333 C  
ENDROOT
BRANCH   3   4
HETATM    4  C   UNL     2      -9.940  15.346  65.319  1.00  0.00    -0.305 C  
BRANCH   4   5
HETATM    5  C   UNL     2     -10.226  13.996  65.983  1.00  0.00    -0.313 C  
HETATM    6  C   UNL     2     -11.389  13.169  65.382  1.00  0.00    -0.323 C  
HETATM    7  C   UNL     2     -11.261  12.930  63.860  1.00  0.00    -0.471 C  
HETATM    8  C   UNL     2     -11.559  11.817  66.117  1.00  0.00    -0.215 C  
HETATM    9  C   UNL     2     -10.091  12.053  63.431  1.00  0.00    -0.437 C  
BRANCH   8  10
HETATM   10  C   UNL     2     -11.822  11.917  67.619  1.00  0.00    -0.265 C  
BRANCH  10  11
HETATM   11  C   UNL     2     -10.786  12.694  68.461  1.00  0.00    -0.248 C  
BRANCH  11  12
HETATM   12  C   UNL     2     -11.447  13.293  69.726  1.00  0.00    -0.228 C  
HETATM   13  C   UNL     2     -11.905  15.659  68.838  1.00  0.00    -0.368 C  
HETATM   14  C   UNL     2     -11.256  14.812  69.935  1.00  0.00    -0.293 C  
HETATM   15  C   UNL     2     -11.855  15.223  71.289  1.00  0.00    -0.416 C  
ENDBRANCH  11  12
BRANCH  11  16
HETATM   16  O   UNL     2      -9.757  11.800  68.875  1.00  0.00    -0.117 OA 
HETATM   17  O   UNL     2      -8.017  13.446  68.396  1.00  0.00    -0.138 OA 
HETATM   18  O   UNL     2      -7.422  11.229  69.260  1.00  0.00    -0.109 OA 
HETATM   19  S   UNL     2      -8.231  12.004  68.324  1.00  0.00    -0.157 S  
HETATM   20  O   UNL     2      -8.259  11.485  66.964  1.00  0.00    -0.153 OA 
ENDBRANCH  11  16
ENDBRANCH  10  11
ENDBRANCH   8  10
ENDBRANCH   4   5
ENDBRANCH   3   4
TORSDOF 6
ENDMDL
MODEL      144
REMARK 921   NORMALIZED FREE ENERGY PREDICTED BY IDOCK:   -3.97 KCAL/MOL
REMARK 922        TOTAL FREE ENERGY PREDICTED BY IDOCK:   -6.56 KCAL/MOL
REMARK 923 INTER-LIGAND FREE ENERGY PREDICTED BY IDOCK:   -5.76 KCAL/MOL
REMARK 924 INTRA-LIGAND FREE ENERGY PREDICTED BY IDOCK:   -0.81 KCAL/MOL
REMARK 927      BINDING AFFINITY PREDICTED BY RF-SCORE:    0.00 PKD
ROOT
HETATM    1 NA   UNL     1      -9.154  12.140  66.036  1.00  0.00    -0.203 Na 
HETATM    2  C   UNL     2     -12.102  13.142  64.008  1.00  0.00    -0.511 C  
HETATM    3  C   UNL     2     -12.630  13.920  65.205  1.00  0.00    -0.466 C  
ENDROOT
BRANCH   3   4
HETATM    4  C   UNL     2     -11.616  13.921  66.347  1.00  0.00    -0.382 C  
BRANCH   4   5
HETATM    5  C   UNL     2     -11.860  12.833  67.398  1.00  0.00    -0.404 C  
HETATM    6  C   UNL     2     -11.083  12.980  68.730  1.00  0.00    -0.311 C  
HETATM    7  C   UNL     2     -11.278  14.352  69.415  1.00  0.00    -0.317 C  
HETATM    8  C   UNL     2     -11.436  11.841  69.717  1.00  0.00    -0.320 C  
HETATM    9  C   UNL     2     -12.687  14.636  69.921  1.00  0.00    -0.126 C  
BRANCH   8  10
HETATM   10  C   UNL     2     -11.168  10.425  69.206  1.00  0.00    -0.304 C  
BRANCH  10  11
HETATM   11  C   UNL     2     -10.989   9.320  70.271  1.00  0.00    -0.247 C  
BRANCH  11  12
HETATM   12  C   UNL     2      -9.505   9.202  70.693  1.00  0.00    -0.316 C  
HETATM   13  C   UNL     2      -9.504   6.736  71.411  1.00  0.00    -0.160 C  
HETATM   14  C   UNL     2      -9.198   8.181  71.812  1.00  0.00    -0.232 C  
HETATM   15  C   UNL     2      -7.715   8.278  72.202  1.00  0.00    -0.162 C  
ENDBRANCH  11  12
BRANCH  11  16
HETATM   16  O   UNL     2     -11.756   9.656  71.424  1.00  0.00    -0.352 OA 
HETATM   17  O   UNL     2     -13.041   7.583  71.277  1.00  0.00    -0.328 OA 
HETATM   18  O   UNL     2     -13.497   9.201  73.063  1.00  0.00    -0.270 OA 
HETATM   19  S   UNL     2     -13.230   8.983  71.644  1.00  0.00    -0.376 S  
HETATM   20  O   UNL     2     -14.106   9.711  70.738  1.00  0.00     0.029 OA 
ENDBRANCH  11  16
ENDBRANCH  10  11
ENDBRANCH   8  10
ENDBRANCH   4   5
ENDBRANCH   3   4
TORSDOF 6
ENDMDL
MODEL      145
REMARK 921   NORMALIZED FREE ENERGY PREDICTED BY IDOCK:   -3.96 KCAL/MOL
REMARK 922        TOTAL FREE ENERGY PREDICTED BY IDOCK:   -6.56 KCAL/MOL
REMARK 923 INTER-LIGAND FREE ENERGY PREDICTED BY IDOCK:   -5.48 KCAL/MOL
REMARK 924 INTRA-LIGAND FREE ENERGY PREDICTED BY IDOCK:   -1.07 KCAL/MOL
REMARK 927      BINDING AFFINITY PREDICTED BY RF-SCORE:    0.00 PKD
ROOT
HETATM    1 NA   UNL     1     -10.207  13.929  69.439  1.00  0.00    -0.265 Na 
HETATM    2  C   UNL     2      -9.421  16.823  67.243  1.00  0.00    -0.231 C  
HETATM    3  C   UNL     2     -10.205  16.154  66.123  1.00  0.00    -0.351 C  
ENDROOT
BRANCH   3   4
HETATM    4  C   UNL     2     -10.894  14.884  66.620  1.00  0.00    -0.319 C  
BRANCH   4   5
HETATM    5  C   UNL     2     -10.198  13.589  66.192  1.00  0.00    -0.303 C  
HETATM    6  C   UNL     2     -11.107  12.346  66.022  1.00  0.00    -0.344 C  
HETATM    7  C   UNL     2     -12.304  12.576  65.072  1.00  0.00    -0.522 C  
HETATM    8  C   UNL     2     -10.294  11.113  65.560  1.00  0.00    -0.326 C  
HETATM    9  C   UNL     2     -11.943  12.816  63.611  1.00  0.00    -0.616 C  
BRANCH   8  10
HETATM   10  C   UNL     2      -9.149  10.697  66.484  1.00  0.00    -0.179 C  
BRANCH  10  11
HETATM   11  C   UNL     2      -9.257  11.123  67.965  1.00  0.00    -0.159 C  
BRANCH  11  12
HETATM   12  C   UNL     2     -10.063  10.080  68.778  1.00  0.00    -0.197 C  
HETATM   13  C   UNL     2     -12.018  11.581  69.498  1.00  0.00    -0.402 C  
HETATM   14  C   UNL     2     -10.902  10.637  69.950  1.00  0.00    -0.301 C  
HETATM   15  C   UNL     2     -11.531   9.471  70.728  1.00  0.00    -0.378 C  
ENDBRANCH  11  12
BRANCH  11  16
HETATM   16  O   UNL     2      -7.947  11.208  68.521  1.00  0.00    -0.127 OA 
HETATM   17  O   UNL     2      -8.089  13.640  68.699  1.00  0.00    -0.139 OA 
HETATM   18  O   UNL     2      -6.063  12.460  69.420  1.00  0.00    -0.090 OA 
HETATM   19  S   UNL     2      -7.104  12.604  68.406  1.00  0.00    -0.109 S  
HETATM   20  O   UNL     2      -6.621  12.629  67.033  1.00  0.00    -0.125 OA 
ENDBRANCH  11  16
ENDBRANCH  10  11
ENDBRANCH   8  10
ENDBRANCH   4   5
ENDBRANCH   3   4
TORSDOF 6
ENDMDL
MODEL      146
REMARK 921   NORMALIZED FREE ENERGY PREDICTED BY IDOCK:   -3.96 KCAL/MOL
REMARK 922        TOTAL FREE ENERGY PREDICTED BY IDOCK:   -6.55 KCAL/MOL
REMARK 923 INTER-LIGAND FREE ENERGY PREDICTED BY IDOCK:   -5.71 KCAL/MOL
REMARK 924 INTRA-LIGAND FREE ENERGY PREDICTED BY IDOCK:   -0.84 KCAL/MOL
REMARK 927      BINDING AFFINITY PREDICTED BY RF-SCORE:    0.00 PKD
ROOT
HETATM    1 NA   UNL     1     -12.494   9.814  69.440  1.00  0.00    -0.478 Na 
HETATM    2  C   UNL     2     -10.605   7.530  67.198  1.00  0.00    -0.415 C  
HETATM    3  C   UNL     2      -9.370   8.398  67.395  1.00  0.00    -0.178 C  
ENDROOT
BRANCH   3   4
HETATM    4  C   UNL     2      -9.629   9.491  68.431  1.00  0.00    -0.152 C  
BRANCH   4   5
HETATM    5  C   UNL     2      -9.440  10.914  67.896  1.00  0.00    -0.166 C  
HETATM    6  C   UNL     2      -8.173  11.664  68.377  1.00  0.00    -0.155 C  
HETATM    7  C   UNL     2      -6.859  10.888  68.131  1.00  0.00    -0.067 C  
HETATM    8  C   UNL     2      -8.080  13.075  67.747  1.00  0.00    -0.168 C  
HETATM    9  C   UNL     2      -6.483  10.686  66.669  1.00  0.00    -0.100 C  
BRANCH   8  10
HETATM   10  C   UNL     2      -9.268  13.996  68.023  1.00  0.00    -0.201 C  
BRANCH  10  11
HETATM   11  C   UNL     2      -9.877  14.736  66.811  1.00  0.00    -0.255 C  
BRANCH  11  12
HETATM   12  C   UNL     2     -11.220  14.090  66.393  1.00  0.00    -0.321 C  
HETATM   13  C   UNL     2     -10.316  12.380  64.703  1.00  0.00    -0.332 C  
HETATM   14  C   UNL     2     -11.286  13.538  64.951  1.00  0.00    -0.347 C  
HETATM   15  C   UNL     2     -12.714  13.053  64.654  1.00  0.00    -0.367 C  
ENDBRANCH  11  12
BRANCH  11  16
HETATM   16  O   UNL     2     -10.126  16.092  67.170  1.00  0.00    -0.257 OA 
HETATM   17  O   UNL     2     -10.611  16.705  64.856  1.00  0.00    -0.694 OA 
HETATM   18  O   UNL     2     -10.710  18.393  66.632  1.00  0.00    -0.348 OA 
HETATM   19  S   UNL     2      -9.984  17.271  66.046  1.00  0.00    -0.183 S  
HETATM   20  O   UNL     2      -8.549  17.476  65.908  1.00  0.00    -0.528 OA 
ENDBRANCH  11  16
ENDBRANCH  10  11
ENDBRANCH   8  10
ENDBRANCH   4   5
ENDBRANCH   3   4
TORSDOF 6
ENDMDL
MODEL      147
REMARK 921   NORMALIZED FREE ENERGY PREDICTED BY IDOCK:   -3.95 KCAL/MOL
REMARK 922        TOTAL FREE ENERGY PREDICTED BY IDOCK:   -6.55 KCAL/MOL
REMARK 923 INTER-LIGAND FREE ENERGY PREDICTED BY IDOCK:   -5.84 KCAL/MOL
REMARK 924 INTRA-LIGAND FREE ENERGY PREDICTED BY IDOCK:   -0.71 KCAL/MOL
REMARK 927      BINDING AFFINITY PREDICTED BY RF-SCORE:    0.00 PKD
ROOT
HETATM    1 NA   UNL     1     -12.561  11.499  63.748  1.00  0.00    -0.383 Na 
HETATM    2  C   UNL     2     -11.559  14.926  64.780  1.00  0.00    -0.410 C  
HETATM    3  C   UNL     2     -11.457  14.437  66.217  1.00  0.00    -0.361 C  
ENDROOT
BRANCH   3   4
HETATM    4  C   UNL     2     -11.667  12.926  66.297  1.00  0.00    -0.457 C  
BRANCH   4   5
HETATM    5  C   UNL     2     -10.634  12.197  67.163  1.00  0.00    -0.254 C  
HETATM    6  C   UNL     2     -10.517  10.668  66.949  1.00  0.00    -0.304 C  
HETATM    7  C   UNL     2     -10.272  10.263  65.477  1.00  0.00    -0.308 C  
HETATM    8  C   UNL     2      -9.423  10.054  67.855  1.00  0.00    -0.159 C  
HETATM    9  C   UNL     2      -8.932  10.694  64.894  1.00  0.00    -0.218 C  
BRANCH   8  10
HETATM   10  C   UNL     2      -9.615  10.275  69.356  1.00  0.00    -0.237 C  
BRANCH  10  11
HETATM   11  C   UNL     2     -10.700   9.425  70.054  1.00  0.00    -0.239 C  
BRANCH  11  12
HETATM   12  C   UNL     2     -10.080   8.151  70.678  1.00  0.00    -0.209 C  
HETATM   13  C   UNL     2     -12.249   6.864  71.162  1.00  0.00    -0.428 C  
HETATM   14  C   UNL     2     -10.944   7.424  71.733  1.00  0.00    -0.264 C  
HETATM   15  C   UNL     2     -10.140   6.266  72.344  1.00  0.00    -0.195 C  
ENDBRANCH  11  12
BRANCH  11  16
HETATM   16  O   UNL     2     -11.291  10.192  71.100  1.00  0.00    -0.346 OA 
HETATM   17  O   UNL     2     -13.411  10.355  69.898  1.00  0.00     0.060 OA 
HETATM   18  O   UNL     2     -13.146  11.416  72.093  1.00  0.00    -0.462 OA 
HETATM   19  S   UNL     2     -12.569  11.160  70.777  1.00  0.00    -0.332 S  
HETATM   20  O   UNL     2     -11.991  12.326  70.124  1.00  0.00    -0.334 OA 
ENDBRANCH  11  16
ENDBRANCH  10  11
ENDBRANCH   8  10
ENDBRANCH   4   5
ENDBRANCH   3   4
TORSDOF 6
ENDMDL
MODEL      148
REMARK 921   NORMALIZED FREE ENERGY PREDICTED BY IDOCK:   -3.95 KCAL/MOL
REMARK 922        TOTAL FREE ENERGY PREDICTED BY IDOCK:   -6.54 KCAL/MOL
REMARK 923 INTER-LIGAND FREE ENERGY PREDICTED BY IDOCK:   -5.37 KCAL/MOL
REMARK 924 INTRA-LIGAND FREE ENERGY PREDICTED BY IDOCK:   -1.17 KCAL/MOL
REMARK 927      BINDING AFFINITY PREDICTED BY RF-SCORE:    0.00 PKD
ROOT
HETATM    1 NA   UNL     1      -8.244   8.994  71.923  1.00  0.00    -0.132 Na 
HETATM    2  C   UNL     2      -6.121  10.679  69.381  1.00  0.00    -0.047 C  
HETATM    3  C   UNL     2      -6.621   9.686  68.342  1.00  0.00    -0.053 C  
ENDROOT
BRANCH   3   4
HETATM    4  C   UNL     2      -7.712   8.788  68.923  1.00  0.00    -0.095 C  
BRANCH   4   5
HETATM    5  C   UNL     2      -9.121   9.381  68.832  1.00  0.00    -0.140 C  
HETATM    6  C   UNL     2      -9.704   9.549  67.407  1.00  0.00    -0.201 C  
HETATM    7  C   UNL     2      -9.683   8.250  66.569  1.00  0.00    -0.323 C  
HETATM    8  C   UNL     2     -11.139  10.127  67.449  1.00  0.00    -0.219 C  
HETATM    9  C   UNL     2     -10.587   7.132  67.073  1.00  0.00    -0.413 C  
BRANCH   8  10
HETATM   10  C   UNL     2     -11.280  11.482  68.143  1.00  0.00    -0.335 C  
BRANCH  10  11
HETATM   11  C   UNL     2     -11.178  12.739  67.251  1.00  0.00    -0.295 C  
BRANCH  11  12
HETATM   12  C   UNL     2     -12.001  12.557  65.953  1.00  0.00    -0.472 C  
HETATM   13  C   UNL     2     -10.097  11.831  64.389  1.00  0.00    -0.319 C  
HETATM   14  C   UNL     2     -11.244  12.815  64.630  1.00  0.00    -0.356 C  
HETATM   15  C   UNL     2     -12.226  12.721  63.452  1.00  0.00    -0.594 C  
ENDBRANCH  11  12
BRANCH  11  16
HETATM   16  O   UNL     2     -11.704  13.857  67.961  1.00  0.00    -0.313 OA 
HETATM   17  O   UNL     2     -10.200  15.401  66.813  1.00  0.00    -0.260 OA 
HETATM   18  O   UNL     2     -11.783  16.231  68.492  1.00  0.00    -0.302 OA 
HETATM   19  S   UNL     2     -10.804  15.212  68.128  1.00  0.00    -0.276 S  
HETATM   20  O   UNL     2      -9.841  14.887  69.171  1.00  0.00    -0.220 OA 
ENDBRANCH  11  16
ENDBRANCH  10  11
ENDBRANCH   8  10
ENDBRANCH   4   5
ENDBRANCH   3   4
TORSDOF 6
ENDMDL
MODEL      149
REMARK 921   NORMALIZED FREE ENERGY PREDICTED BY IDOCK:   -3.94 KCAL/MOL
REMARK 922        TOTAL FREE ENERGY PREDICTED BY IDOCK:   -6.52 KCAL/MOL
REMARK 923 INTER-LIGAND FREE ENERGY PREDICTED BY IDOCK:   -5.67 KCAL/MOL
REMARK 924 INTRA-LIGAND FREE ENERGY PREDICTED BY IDOCK:   -0.86 KCAL/MOL
REMARK 927      BINDING AFFINITY PREDICTED BY RF-SCORE:    0.00 PKD
ROOT
HETATM    1 NA   UNL     1      -8.299   8.857  72.463  1.00  0.00    -0.153 Na 
HETATM    2  C   UNL     2      -6.218  10.873  70.135  1.00  0.00    -0.142 C  
HETATM    3  C   UNL     2      -6.949  10.231  68.965  1.00  0.00    -0.064 C  
ENDROOT
BRANCH   3   4
HETATM    4  C   UNL     2      -8.093   9.344  69.454  1.00  0.00    -0.105 C  
BRANCH   4   5
HETATM    5  C   UNL     2      -9.487   9.879  69.111  1.00  0.00    -0.201 C  
HETATM    6  C   UNL     2      -9.845   9.943  67.605  1.00  0.00    -0.198 C  
HETATM    7  C   UNL     2      -9.658   8.600  66.864  1.00  0.00    -0.254 C  
HETATM    8  C   UNL     2     -11.284  10.470  67.390  1.00  0.00    -0.249 C  
HETATM    9  C   UNL     2     -10.599   7.480  67.291  1.00  0.00    -0.394 C  
BRANCH   8  10
HETATM   10  C   UNL     2     -11.568  11.856  67.968  1.00  0.00    -0.401 C  
BRANCH  10  11
HETATM   11  C   UNL     2     -11.151  13.071  67.111  1.00  0.00    -0.273 C  
BRANCH  11  12
HETATM   12  C   UNL     2      -9.844  13.700  67.651  1.00  0.00    -0.228 C  
HETATM   13  C   UNL     2      -9.698  15.712  66.063  1.00  0.00    -0.378 C  
HETATM   14  C   UNL     2      -8.991  14.476  66.624  1.00  0.00    -0.247 C  
HETATM   15  C   UNL     2      -7.676  14.922  67.282  1.00  0.00    -0.227 C  
ENDBRANCH  11  12
BRANCH  11  16
HETATM   16  O   UNL     2     -10.919  12.639  65.773  1.00  0.00    -0.270 OA 
HETATM   17  O   UNL     2     -12.293  14.441  64.863  1.00  0.00    -0.423 OA 
HETATM   18  O   UNL     2     -11.219  12.825  63.364  1.00  0.00    -0.439 OA 
HETATM   19  S   UNL     2     -11.977  13.043  64.593  1.00  0.00    -0.420 S  
HETATM   20  O   UNL     2     -13.104  12.141  64.785  1.00  0.00    -0.602 OA 
ENDBRANCH  11  16
ENDBRANCH  10  11
ENDBRANCH   8  10
ENDBRANCH   4   5
ENDBRANCH   3   4
TORSDOF 6
ENDMDL
MODEL      150
REMARK 921   NORMALIZED FREE ENERGY PREDICTED BY IDOCK:   -3.92 KCAL/MOL
REMARK 922        TOTAL FREE ENERGY PREDICTED BY IDOCK:   -6.51 KCAL/MOL
REMARK 923 INTER-LIGAND FREE ENERGY PREDICTED BY IDOCK:   -5.65 KCAL/MOL
REMARK 924 INTRA-LIGAND FREE ENERGY PREDICTED BY IDOCK:   -0.86 KCAL/MOL
REMARK 927      BINDING AFFINITY PREDICTED BY RF-SCORE:    0.00 PKD
ROOT
HETATM    1 NA   UNL     1     -13.567   5.463  72.773  1.00  0.00    -0.540 Na 
HETATM    2  C   UNL     2     -13.859   9.147  72.379  1.00  0.00    -0.524 C  
HETATM    3  C   UNL     2     -12.386   9.198  71.998  1.00  0.00    -0.448 C  
ENDROOT
BRANCH   3   4
HETATM    4  C   UNL     2     -11.802   7.791  71.881  1.00  0.00    -0.338 C  
BRANCH   4   5
HETATM    5  C   UNL     2     -11.276   7.449  70.483  1.00  0.00    -0.296 C  
HETATM    6  C   UNL     2      -9.942   8.118  70.071  1.00  0.00    -0.192 C  
HETATM    7  C   UNL     2      -8.792   7.886  71.078  1.00  0.00    -0.149 C  
HETATM    8  C   UNL     2      -9.502   7.672  68.655  1.00  0.00    -0.151 C  
HETATM    9  C   UNL     2      -8.314   6.445  71.205  1.00  0.00    -0.123 C  
BRANCH   8  10
HETATM   10  C   UNL     2     -10.503   7.961  67.536  1.00  0.00    -0.332 C  
BRANCH  10  11
HETATM   11  C   UNL     2     -10.532   9.401  66.978  1.00  0.00    -0.231 C  
BRANCH  11  12
HETATM   12  C   UNL     2     -11.097  10.385  68.031  1.00  0.00    -0.359 C  
HETATM   13  C   UNL     2     -11.586  12.372  66.480  1.00  0.00    -0.447 C  
HETATM   14  C   UNL     2     -10.873  11.886  67.744  1.00  0.00    -0.254 C  
HETATM   15  C   UNL     2     -11.372  12.716  68.937  1.00  0.00    -0.345 C  
ENDBRANCH  11  12
BRANCH  11  16
HETATM   16  O   UNL     2      -9.203   9.803  66.658  1.00  0.00    -0.144 OA 
HETATM   17  O   UNL     2      -9.787  10.169  64.315  1.00  0.00    -0.315 OA 
HETATM   18  O   UNL     2      -7.496  10.560  65.097  1.00  0.00    -0.124 OA 
HETATM   19  S   UNL     2      -8.667   9.689  65.118  1.00  0.00    -0.180 S  
HETATM   20  O   UNL     2      -8.380   8.273  64.933  1.00  0.00    -0.159 OA 
ENDBRANCH  11  16
ENDBRANCH  10  11
ENDBRANCH   8  10
ENDBRANCH   4   5
ENDBRANCH   3   4
TORSDOF 6
ENDMDL
MODEL      151
REMARK 921   NORMALIZED FREE ENERGY PREDICTED BY IDOCK:   -3.92 KCAL/MOL
REMARK 922        TOTAL FREE ENERGY PREDICTED BY IDOCK:   -6.50 KCAL/MOL
REMARK 923 INTER-LIGAND FREE ENERGY PREDICTED BY IDOCK:   -5.60 KCAL/MOL
REMARK 924 INTRA-LIGAND FREE ENERGY PREDICTED BY IDOCK:   -0.90 KCAL/MOL
REMARK 927      BINDING AFFINITY PREDICTED BY RF-SCORE:    0.00 PKD
ROOT
HETATM    1 NA   UNL     1     -10.014  12.247  69.612  1.00  0.00    -0.399 Na 
HETATM    2  C   UNL     2     -12.995  11.057  71.486  1.00  0.00    -0.553 C  
HETATM    3  C   UNL     2     -12.368   9.671  71.553  1.00  0.00    -0.477 C  
ENDROOT
BRANCH   3   4
HETATM    4  C   UNL     2     -10.951   9.683  70.983  1.00  0.00    -0.431 C  
BRANCH   4   5
HETATM    5  C   UNL     2     -10.865   9.251  69.516  1.00  0.00    -0.211 C  
HETATM    6  C   UNL     2      -9.481   9.400  68.838  1.00  0.00    -0.154 C  
HETATM    7  C   UNL     2      -8.334   8.702  69.604  1.00  0.00    -0.123 C  
HETATM    8  C   UNL     2      -9.516   8.904  67.372  1.00  0.00    -0.181 C  
HETATM    9  C   UNL     2      -8.415   7.182  69.662  1.00  0.00    -0.134 C  
BRANCH   8  10
HETATM   10  C   UNL     2     -10.527   9.606  66.466  1.00  0.00    -0.213 C  
BRANCH  10  11
HETATM   11  C   UNL     2      -9.958  10.515  65.354  1.00  0.00    -0.289 C  
BRANCH  11  12
HETATM   12  C   UNL     2     -10.254  12.004  65.660  1.00  0.00    -0.284 C  
HETATM   13  C   UNL     2     -12.154  12.374  63.973  1.00  0.00    -0.563 C  
HETATM   14  C   UNL     2     -10.789  12.845  64.479  1.00  0.00    -0.385 C  
HETATM   15  C   UNL     2     -10.906  14.315  64.909  1.00  0.00    -0.429 C  
ENDBRANCH  11  12
BRANCH  11  16
HETATM   16  O   UNL     2      -8.545  10.344  65.291  1.00  0.00    -0.164 OA 
HETATM   17  O   UNL     2      -8.537  10.612  62.863  1.00  0.00    -0.178 OA 
HETATM   18  O   UNL     2      -6.443  10.203  64.072  1.00  0.00    -0.129 OA 
HETATM   19  S   UNL     2      -7.847   9.848  63.898  1.00  0.00    -0.152 S  
HETATM   20  O   UNL     2      -8.115   8.417  63.843  1.00  0.00    -0.154 OA 
ENDBRANCH  11  16
ENDBRANCH  10  11
ENDBRANCH   8  10
ENDBRANCH   4   5
ENDBRANCH   3   4
TORSDOF 6
ENDMDL
MODEL      152
REMARK 921   NORMALIZED FREE ENERGY PREDICTED BY IDOCK:   -3.92 KCAL/MOL
REMARK 922        TOTAL FREE ENERGY PREDICTED BY IDOCK:   -6.50 KCAL/MOL
REMARK 923 INTER-LIGAND FREE ENERGY PREDICTED BY IDOCK:   -5.46 KCAL/MOL
REMARK 924 INTRA-LIGAND FREE ENERGY PREDICTED BY IDOCK:   -1.04 KCAL/MOL
REMARK 927      BINDING AFFINITY PREDICTED BY RF-SCORE:    0.00 PKD
ROOT
HETATM    1 NA   UNL     1      -7.586  10.440  68.572  1.00  0.00    -0.077 Na 
HETATM    2  C   UNL     2     -10.912  12.092  68.424  1.00  0.00    -0.276 C  
HETATM    3  C   UNL     2     -11.383  11.001  67.473  1.00  0.00    -0.332 C  
ENDROOT
BRANCH   3   4
HETATM    4  C   UNL     2     -10.319   9.917  67.313  1.00  0.00    -0.303 C  
BRANCH   4   5
HETATM    5  C   UNL     2     -10.376   8.825  68.385  1.00  0.00    -0.242 C  
HETATM    6  C   UNL     2      -9.997   7.395  67.927  1.00  0.00    -0.201 C  
HETATM    7  C   UNL     2      -8.618   7.308  67.236  1.00  0.00    -0.121 C  
HETATM    8  C   UNL     2     -10.064   6.390  69.103  1.00  0.00    -0.194 C  
HETATM    9  C   UNL     2      -7.418   7.604  68.129  1.00  0.00    -0.108 C  
BRANCH   8  10
HETATM   10  C   UNL     2     -11.421   6.284  69.798  1.00  0.00    -0.449 C  
BRANCH  10  11
HETATM   11  C   UNL     2     -11.508   6.810  71.248  1.00  0.00    -0.302 C  
BRANCH  11  12
HETATM   12  C   UNL     2     -12.833   7.576  71.475  1.00  0.00    -0.397 C  
HETATM   13  C   UNL     2     -11.916   9.972  71.368  1.00  0.00    -0.470 C  
HETATM   14  C   UNL     2     -12.712   8.946  72.179  1.00  0.00    -0.470 C  
HETATM   15  C   UNL     2     -14.115   9.513  72.443  1.00  0.00    -0.177 C  
ENDBRANCH  11  12
BRANCH  11  16
HETATM   16  O   UNL     2     -11.471   5.704  72.147  1.00  0.00    -0.258 OA 
HETATM   17  O   UNL     2     -10.489   7.069  73.919  1.00  0.00    -0.375 OA 
HETATM   18  O   UNL     2     -10.953   4.691  74.299  1.00  0.00    -0.314 OA 
HETATM   19  S   UNL     2     -10.418   5.708  73.398  1.00  0.00    -0.261 S  
HETATM   20  O   UNL     2      -9.134   5.378  72.798  1.00  0.00    -0.131 OA 
ENDBRANCH  11  16
ENDBRANCH  10  11
ENDBRANCH   8  10
ENDBRANCH   4   5
ENDBRANCH   3   4
TORSDOF 6
ENDMDL
MODEL      153
REMARK 921   NORMALIZED FREE ENERGY PREDICTED BY IDOCK:   -3.92 KCAL/MOL
REMARK 922        TOTAL FREE ENERGY PREDICTED BY IDOCK:   -6.50 KCAL/MOL
REMARK 923 INTER-LIGAND FREE ENERGY PREDICTED BY IDOCK:   -5.29 KCAL/MOL
REMARK 924 INTRA-LIGAND FREE ENERGY PREDICTED BY IDOCK:   -1.21 KCAL/MOL
REMARK 927      BINDING AFFINITY PREDICTED BY RF-SCORE:    0.00 PKD
ROOT
HETATM    1 NA   UNL     1      -7.382   8.112  66.737  1.00  0.00    -0.069 Na 
HETATM    2  C   UNL     2      -5.802  11.144  68.195  1.00  0.00    -0.045 C  
HETATM    3  C   UNL     2      -6.890  11.168  69.259  1.00  0.00    -0.110 C  
ENDROOT
BRANCH   3   4
HETATM    4  C   UNL     2      -7.787   9.937  69.153  1.00  0.00    -0.105 C  
BRANCH   4   5
HETATM    5  C   UNL     2      -9.285  10.248  69.233  1.00  0.00    -0.215 C  
HETATM    6  C   UNL     2      -9.864  11.122  68.092  1.00  0.00    -0.188 C  
HETATM    7  C   UNL     2      -9.570  10.573  66.678  1.00  0.00    -0.210 C  
HETATM    8  C   UNL     2     -11.387  11.340  68.268  1.00  0.00    -0.359 C  
HETATM    9  C   UNL     2     -10.241   9.248  66.336  1.00  0.00    -0.298 C  
BRANCH   8  10
HETATM   10  C   UNL     2     -11.807  11.998  69.582  1.00  0.00    -0.401 C  
BRANCH  10  11
HETATM   11  C   UNL     2     -11.805  13.542  69.624  1.00  0.00    -0.336 C  
BRANCH  11  12
HETATM   12  C   UNL     2     -11.695  14.128  68.195  1.00  0.00    -0.390 C  
HETATM   13  C   UNL     2      -9.143  14.391  68.081  1.00  0.00    -0.194 C  
HETATM   14  C   UNL     2     -10.503  15.079  67.943  1.00  0.00    -0.247 C  
HETATM   15  C   UNL     2     -10.611  15.671  66.529  1.00  0.00    -0.307 C  
ENDBRANCH  11  12
BRANCH  11  16
HETATM   16  O   UNL     2     -13.028  13.994  70.200  1.00  0.00    -0.152 OA 
HETATM   17  O   UNL     2     -12.028  16.123  70.859  1.00  0.00    -0.375 OA 
HETATM   18  O   UNL     2     -14.379  15.647  71.369  1.00  0.00    -0.524 OA 
HETATM   19  S   UNL     2     -13.004  15.156  71.350  1.00  0.00    -0.444 S  
HETATM   20  O   UNL     2     -12.584  14.465  72.561  1.00  0.00    -0.322 OA 
ENDBRANCH  11  16
ENDBRANCH  10  11
ENDBRANCH   8  10
ENDBRANCH   4   5
ENDBRANCH   3   4
TORSDOF 6
ENDMDL
MODEL      154
REMARK 921   NORMALIZED FREE ENERGY PREDICTED BY IDOCK:   -3.91 KCAL/MOL
REMARK 922        TOTAL FREE ENERGY PREDICTED BY IDOCK:   -6.48 KCAL/MOL
REMARK 923 INTER-LIGAND FREE ENERGY PREDICTED BY IDOCK:   -5.63 KCAL/MOL
REMARK 924 INTRA-LIGAND FREE ENERGY PREDICTED BY IDOCK:   -0.86 KCAL/MOL
REMARK 927      BINDING AFFINITY PREDICTED BY RF-SCORE:    0.00 PKD
ROOT
HETATM    1 NA   UNL     1      -9.090  11.303  64.375  1.00  0.00    -0.192 Na 
HETATM    2  C   UNL     2      -7.894  10.578  67.818  1.00  0.00    -0.104 C  
HETATM    3  C   UNL     2      -9.027  11.434  68.365  1.00  0.00    -0.172 C  
ENDROOT
BRANCH   3   4
HETATM    4  C   UNL     2      -9.958  11.891  67.244  1.00  0.00    -0.200 C  
BRANCH   4   5
HETATM    5  C   UNL     2     -10.023  13.412  67.068  1.00  0.00    -0.246 C  
HETATM    6  C   UNL     2     -10.204  13.926  65.619  1.00  0.00    -0.344 C  
HETATM    7  C   UNL     2     -11.420  13.314  64.888  1.00  0.00    -0.342 C  
HETATM    8  C   UNL     2     -10.284  15.472  65.576  1.00  0.00    -0.415 C  
HETATM    9  C   UNL     2     -12.783  13.694  65.454  1.00  0.00    -0.500 C  
BRANCH   8  10
HETATM   10  C   UNL     2      -9.077  16.208  66.156  1.00  0.00    -0.382 C  
BRANCH  10  11
HETATM   11  C   UNL     2      -9.320  17.066  67.418  1.00  0.00    -0.239 C  
BRANCH  11  12
HETATM   12  C   UNL     2      -8.464  16.554  68.601  1.00  0.00    -0.243 C  
HETATM   13  C   UNL     2      -6.198  16.406  67.402  1.00  0.00    -0.200 C  
HETATM   14  C   UNL     2      -7.254  15.668  68.228  1.00  0.00    -0.118 C  
HETATM   15  C   UNL     2      -6.591  15.139  69.510  1.00  0.00    -0.163 C  
ENDBRANCH  11  12
BRANCH  11  16
HETATM   16  O   UNL     2      -8.944  18.413  67.144  1.00  0.00    -0.259 OA 
HETATM   17  O   UNL     2     -11.128  19.253  67.844  1.00  0.00    -0.238 OA 
HETATM   18  O   UNL     2      -9.400  20.802  67.051  1.00  0.00    -0.327 OA 
HETATM   19  S   UNL     2     -10.096  19.535  66.851  1.00  0.00    -0.440 S  
HETATM   20  O   UNL     2     -10.519  19.279  65.481  1.00  0.00    -0.502 OA 
ENDBRANCH  11  16
ENDBRANCH  10  11
ENDBRANCH   8  10
ENDBRANCH   4   5
ENDBRANCH   3   4
TORSDOF 6
ENDMDL
MODEL      155
REMARK 921   NORMALIZED FREE ENERGY PREDICTED BY IDOCK:   -3.90 KCAL/MOL
REMARK 922        TOTAL FREE ENERGY PREDICTED BY IDOCK:   -6.48 KCAL/MOL
REMARK 923 INTER-LIGAND FREE ENERGY PREDICTED BY IDOCK:   -5.50 KCAL/MOL
REMARK 924 INTRA-LIGAND FREE ENERGY PREDICTED BY IDOCK:   -0.98 KCAL/MOL
REMARK 927      BINDING AFFINITY PREDICTED BY RF-SCORE:    0.00 PKD
ROOT
HETATM    1 NA   UNL     1     -12.848   6.935  69.757  1.00  0.00    -0.618 Na 
HETATM    2  C   UNL     2     -13.365  10.491  70.707  1.00  0.00    -0.078 C  
HETATM    3  C   UNL     2     -12.989  10.138  72.138  1.00  0.00    -0.436 C  
ENDROOT
BRANCH   3   4
HETATM    4  C   UNL     2     -12.525   8.686  72.240  1.00  0.00    -0.460 C  
BRANCH   4   5
HETATM    5  C   UNL     2     -11.339   8.345  71.331  1.00  0.00    -0.317 C  
HETATM    6  C   UNL     2      -9.932   8.470  71.965  1.00  0.00    -0.383 C  
HETATM    7  C   UNL     2      -9.767   7.669  73.277  1.00  0.00    -0.346 C  
HETATM    8  C   UNL     2      -8.824   8.072  70.960  1.00  0.00    -0.153 C  
HETATM    9  C   UNL     2      -9.836   6.154  73.132  1.00  0.00    -0.171 C  
BRANCH   8  10
HETATM   10  C   UNL     2      -8.795   8.880  69.662  1.00  0.00    -0.142 C  
BRANCH  10  11
HETATM   11  C   UNL     2      -9.550   8.287  68.452  1.00  0.00    -0.144 C  
BRANCH  11  12
HETATM   12  C   UNL     2      -9.230   9.084  67.164  1.00  0.00    -0.164 C  
HETATM   13  C   UNL     2     -11.057  10.878  67.357  1.00  0.00    -0.373 C  
HETATM   14  C   UNL     2     -10.428   9.787  66.487  1.00  0.00    -0.212 C  
HETATM   15  C   UNL     2      -9.971  10.418  65.163  1.00  0.00    -0.390 C  
ENDBRANCH  11  12
BRANCH  11  16
HETATM   16  O   UNL     2      -9.133   6.938  68.258  1.00  0.00    -0.127 OA 
HETATM   17  O   UNL     2     -11.282   6.327  67.272  1.00  0.00    -0.332 OA 
HETATM   18  O   UNL     2      -9.512   4.649  67.523  1.00  0.00    -0.136 OA 
HETATM   19  S   UNL     2     -10.251   5.752  68.129  1.00  0.00    -0.205 S  
HETATM   20  O   UNL     2     -10.694   5.515  69.496  1.00  0.00    -0.310 OA 
ENDBRANCH  11  16
ENDBRANCH  10  11
ENDBRANCH   8  10
ENDBRANCH   4   5
ENDBRANCH   3   4
TORSDOF 6
ENDMDL
MODEL      156
REMARK 921   NORMALIZED FREE ENERGY PREDICTED BY IDOCK:   -3.89 KCAL/MOL
REMARK 922        TOTAL FREE ENERGY PREDICTED BY IDOCK:   -6.46 KCAL/MOL
REMARK 923 INTER-LIGAND FREE ENERGY PREDICTED BY IDOCK:   -6.13 KCAL/MOL
REMARK 924 INTRA-LIGAND FREE ENERGY PREDICTED BY IDOCK:   -0.33 KCAL/MOL
REMARK 927      BINDING AFFINITY PREDICTED BY RF-SCORE:    0.00 PKD
ROOT
HETATM    1 NA   UNL     1      -7.466  15.184  70.358  1.00  0.00    -0.178 Na 
HETATM    2  C   UNL     2     -11.065  15.093  71.281  1.00  0.00    -0.257 C  
HETATM    3  C   UNL     2     -11.332  16.177  70.246  1.00  0.00    -0.363 C  
ENDROOT
BRANCH   3   4
HETATM    4  C   UNL     2     -10.072  16.485  69.439  1.00  0.00    -0.230 C  
BRANCH   4   5
HETATM    5  C   UNL     2      -9.518  15.284  68.666  1.00  0.00    -0.204 C  
HETATM    6  C   UNL     2      -9.622  15.355  67.123  1.00  0.00    -0.218 C  
HETATM    7  C   UNL     2      -9.002  16.634  66.515  1.00  0.00    -0.310 C  
HETATM    8  C   UNL     2      -9.002  14.101  66.458  1.00  0.00    -0.140 C  
HETATM    9  C   UNL     2      -7.491  16.765  66.665  1.00  0.00    -0.308 C  
BRANCH   8  10
HETATM   10  C   UNL     2      -9.616  12.766  66.879  1.00  0.00    -0.235 C  
BRANCH  10  11
HETATM   11  C   UNL     2     -11.152  12.638  66.779  1.00  0.00    -0.277 C  
BRANCH  11  12
HETATM   12  C   UNL     2     -11.799  12.698  68.184  1.00  0.00    -0.366 C  
HETATM   13  C   UNL     2     -10.422  10.852  69.321  1.00  0.00    -0.230 C  
HETATM   14  C   UNL     2     -11.820  11.371  68.976  1.00  0.00    -0.415 C  
HETATM   15  C   UNL     2     -12.605  11.567  70.282  1.00  0.00    -0.193 C  
ENDBRANCH  11  12
BRANCH  11  16
HETATM   16  O   UNL     2     -11.659  13.723  66.007  1.00  0.00    -0.326 OA 
HETATM   17  O   UNL     2     -13.009  12.223  64.631  1.00  0.00    -0.741 OA 
HETATM   18  O   UNL     2     -13.030  14.640  64.216  1.00  0.00    -0.508 OA 
HETATM   19  S   UNL     2     -12.232  13.451  64.500  1.00  0.00    -0.388 S  
HETATM   20  O   UNL     2     -11.041  13.303  63.675  1.00  0.00    -0.249 OA 
ENDBRANCH  11  16
ENDBRANCH  10  11
ENDBRANCH   8  10
ENDBRANCH   4   5
ENDBRANCH   3   4
TORSDOF 6
ENDMDL
MODEL      157
REMARK 921   NORMALIZED FREE ENERGY PREDICTED BY IDOCK:   -3.86 KCAL/MOL
REMARK 922        TOTAL FREE ENERGY PREDICTED BY IDOCK:   -6.42 KCAL/MOL
REMARK 923 INTER-LIGAND FREE ENERGY PREDICTED BY IDOCK:   -5.28 KCAL/MOL
REMARK 924 INTRA-LIGAND FREE ENERGY PREDICTED BY IDOCK:   -1.14 KCAL/MOL
REMARK 927      BINDING AFFINITY PREDICTED BY RF-SCORE:    0.00 PKD
ROOT
HETATM    1 NA   UNL     1      -9.502  12.809  69.174  1.00  0.00    -0.351 Na 
HETATM    2  C   UNL     2      -8.787  16.012  67.430  1.00  0.00    -0.197 C  
HETATM    3  C   UNL     2      -9.687  15.562  66.288  1.00  0.00    -0.328 C  
ENDROOT
BRANCH   3   4
HETATM    4  C   UNL     2     -10.383  14.244  66.626  1.00  0.00    -0.279 C  
BRANCH   4   5
HETATM    5  C   UNL     2      -9.889  13.050  65.802  1.00  0.00    -0.217 C  
HETATM    6  C   UNL     2     -10.935  11.952  65.492  1.00  0.00    -0.347 C  
HETATM    7  C   UNL     2     -12.221  12.489  64.822  1.00  0.00    -0.532 C  
HETATM    8  C   UNL     2     -10.325  10.819  64.632  1.00  0.00    -0.394 C  
HETATM    9  C   UNL     2     -12.039  13.057  63.420  1.00  0.00    -0.591 C  
BRANCH   8  10
HETATM   10  C   UNL     2      -9.115  10.112  65.243  1.00  0.00    -0.234 C  
BRANCH  10  11
HETATM   11  C   UNL     2      -9.255   9.615  66.699  1.00  0.00    -0.151 C  
BRANCH  11  12
HETATM   12  C   UNL     2     -10.101   8.321  66.756  1.00  0.00    -0.373 C  
HETATM   13  C   UNL     2     -10.644   8.326  69.266  1.00  0.00    -0.191 C  
HETATM   14  C   UNL     2     -10.058   7.542  68.090  1.00  0.00    -0.215 C  
HETATM   15  C   UNL     2     -10.838   6.226  67.941  1.00  0.00    -0.417 C  
ENDBRANCH  11  12
BRANCH  11  16
HETATM   16  O   UNL     2      -7.960   9.326  67.219  1.00  0.00    -0.105 OA 
HETATM   17  O   UNL     2      -8.296  10.825  69.118  1.00  0.00    -0.150 OA 
HETATM   18  O   UNL     2      -6.188   9.598  68.865  1.00  0.00    -0.042 OA 
HETATM   19  S   UNL     2      -7.230  10.392  68.221  1.00  0.00    -0.085 S  
HETATM   20  O   UNL     2      -6.741  11.446  67.343  1.00  0.00    -0.078 OA 
ENDBRANCH  11  16
ENDBRANCH  10  11
ENDBRANCH   8  10
ENDBRANCH   4   5
ENDBRANCH   3   4
TORSDOF 6
ENDMDL
MODEL      158
REMARK 921   NORMALIZED FREE ENERGY PREDICTED BY IDOCK:   -3.86 KCAL/MOL
REMARK 922        TOTAL FREE ENERGY PREDICTED BY IDOCK:   -6.41 KCAL/MOL
REMARK 923 INTER-LIGAND FREE ENERGY PREDICTED BY IDOCK:   -5.95 KCAL/MOL
REMARK 924 INTRA-LIGAND FREE ENERGY PREDICTED BY IDOCK:   -0.46 KCAL/MOL
REMARK 927      BINDING AFFINITY PREDICTED BY RF-SCORE:    0.00 PKD
ROOT
HETATM    1 NA   UNL     1     -11.626   5.849  65.679  1.00  0.00    -0.586 Na 
HETATM    2  C   UNL     2     -10.844   6.658  69.222  1.00  0.00    -0.335 C  
HETATM    3  C   UNL     2     -10.285   7.998  68.766  1.00  0.00    -0.220 C  
ENDROOT
BRANCH   3   4
HETATM    4  C   UNL     2     -10.520   8.210  67.272  1.00  0.00    -0.379 C  
BRANCH   4   5
HETATM    5  C   UNL     2     -10.229   9.635  66.791  1.00  0.00    -0.308 C  
HETATM    6  C   UNL     2      -8.932  10.288  67.329  1.00  0.00    -0.140 C  
HETATM    7  C   UNL     2      -7.662   9.441  67.090  1.00  0.00    -0.091 C  
HETATM    8  C   UNL     2      -8.735  11.710  66.750  1.00  0.00    -0.189 C  
HETATM    9  C   UNL     2      -7.259   9.263  65.632  1.00  0.00    -0.090 C  
BRANCH   8  10
HETATM   10  C   UNL     2      -9.872  12.695  67.027  1.00  0.00    -0.225 C  
BRANCH  10  11
HETATM   11  C   UNL     2      -9.799  14.065  66.319  1.00  0.00    -0.305 C  
BRANCH  11  12
HETATM   12  C   UNL     2     -10.429  13.986  64.907  1.00  0.00    -0.453 C  
HETATM   13  C   UNL     2     -12.901  13.884  65.593  1.00  0.00    -0.467 C  
HETATM   14  C   UNL     2     -11.768  13.222  64.805  1.00  0.00    -0.390 C  
HETATM   15  C   UNL     2     -12.191  13.122  63.331  1.00  0.00    -0.521 C  
ENDBRANCH  11  12
BRANCH  11  16
HETATM   16  O   UNL     2     -10.529  15.023  67.081  1.00  0.00    -0.268 OA 
HETATM   17  O   UNL     2      -8.579  16.480  67.276  1.00  0.00    -0.177 OA 
HETATM   18  O   UNL     2     -10.709  17.115  68.312  1.00  0.00    -0.366 OA 
HETATM   19  S   UNL     2      -9.732  16.058  68.064  1.00  0.00    -0.218 S  
HETATM   20  O   UNL     2      -9.383  15.261  69.231  1.00  0.00    -0.223 OA 
ENDBRANCH  11  16
ENDBRANCH  10  11
ENDBRANCH   8  10
ENDBRANCH   4   5
ENDBRANCH   3   4
TORSDOF 6
ENDMDL
MODEL      159
REMARK 921   NORMALIZED FREE ENERGY PREDICTED BY IDOCK:   -3.84 KCAL/MOL
REMARK 922        TOTAL FREE ENERGY PREDICTED BY IDOCK:   -6.40 KCAL/MOL
REMARK 923 INTER-LIGAND FREE ENERGY PREDICTED BY IDOCK:   -5.62 KCAL/MOL
REMARK 924 INTRA-LIGAND FREE ENERGY PREDICTED BY IDOCK:   -0.78 KCAL/MOL
REMARK 927      BINDING AFFINITY PREDICTED BY RF-SCORE:    0.00 PKD
ROOT
HETATM    1 NA   UNL     1      -8.305   7.891  71.104  1.00  0.00    -0.094 Na 
HETATM    2  C   UNL     2     -11.817   6.718  71.421  1.00  0.00    -0.385 C  
HETATM    3  C   UNL     2     -12.172   8.040  72.088  1.00  0.00    -0.377 C  
ENDROOT
BRANCH   3   4
HETATM    4  C   UNL     2     -10.983   8.999  72.069  1.00  0.00    -0.355 C  
BRANCH   4   5
HETATM    5  C   UNL     2     -10.823   9.767  70.753  1.00  0.00    -0.403 C  
HETATM    6  C   UNL     2     -12.130  10.255  70.081  1.00  0.00    -0.279 C  
HETATM    7  C   UNL     2     -13.032  11.097  71.013  1.00  0.00    -0.338 C  
HETATM    8  C   UNL     2     -11.836  11.041  68.780  1.00  0.00    -0.352 C  
HETATM    9  C   UNL     2     -12.458  12.443  71.439  1.00  0.00    -0.205 C  
BRANCH   8  10
HETATM   10  C   UNL     2     -11.054  10.274  67.714  1.00  0.00    -0.335 C  
BRANCH  10  11
HETATM   11  C   UNL     2     -10.528  11.088  66.511  1.00  0.00    -0.257 C  
BRANCH  11  12
HETATM   12  C   UNL     2     -11.218  12.472  66.443  1.00  0.00    -0.353 C  
HETATM   13  C   UNL     2     -12.346  12.226  64.149  1.00  0.00    -0.546 C  
HETATM   14  C   UNL     2     -11.413  13.062  65.028  1.00  0.00    -0.345 C  
HETATM   15  C   UNL     2     -11.988  14.482  65.140  1.00  0.00    -0.369 C  
ENDBRANCH  11  12
BRANCH  11  16
HETATM   16  O   UNL     2      -9.126  11.295  66.667  1.00  0.00    -0.169 OA 
HETATM   17  O   UNL     2      -8.647  10.253  64.511  1.00  0.00    -0.171 OA 
HETATM   18  O   UNL     2      -6.822  11.112  65.906  1.00  0.00    -0.028 OA 
HETATM   19  S   UNL     2      -8.069  10.356  65.847  1.00  0.00    -0.153 S  
HETATM   20  O   UNL     2      -8.056   9.095  66.576  1.00  0.00    -0.106 OA 
ENDBRANCH  11  16
ENDBRANCH  10  11
ENDBRANCH   8  10
ENDBRANCH   4   5
ENDBRANCH   3   4
TORSDOF 6
ENDMDL
MODEL      160
REMARK 921   NORMALIZED FREE ENERGY PREDICTED BY IDOCK:   -3.83 KCAL/MOL
REMARK 922        TOTAL FREE ENERGY PREDICTED BY IDOCK:   -6.39 KCAL/MOL
REMARK 923 INTER-LIGAND FREE ENERGY PREDICTED BY IDOCK:   -6.17 KCAL/MOL
REMARK 924 INTRA-LIGAND FREE ENERGY PREDICTED BY IDOCK:   -0.21 KCAL/MOL
REMARK 927      BINDING AFFINITY PREDICTED BY RF-SCORE:    0.00 PKD
ROOT
HETATM    1 NA   UNL     1     -10.447  14.921  72.218  1.00  0.00    -0.516 Na 
HETATM    2  C   UNL     2     -14.129  14.722  72.688  1.00  0.00    -0.321 C  
HETATM    3  C   UNL     2     -14.313  15.327  71.304  1.00  0.00    -0.488 C  
ENDROOT
BRANCH   3   4
HETATM    4  C   UNL     2     -12.971  15.480  70.590  1.00  0.00    -0.425 C  
BRANCH   4   5
HETATM    5  C   UNL     2     -12.295  14.151  70.241  1.00  0.00    -0.421 C  
HETATM    6  C   UNL     2     -12.268  13.769  68.741  1.00  0.00    -0.221 C  
HETATM    7  C   UNL     2     -11.660  14.861  67.832  1.00  0.00    -0.364 C  
HETATM    8  C   UNL     2     -11.534  12.424  68.515  1.00  0.00    -0.350 C  
HETATM    9  C   UNL     2     -10.176  15.136  68.040  1.00  0.00    -0.230 C  
BRANCH   8  10
HETATM   10  C   UNL     2     -12.117  11.225  69.263  1.00  0.00    -0.372 C  
BRANCH  10  11
HETATM   11  C   UNL     2     -11.216  10.558  70.325  1.00  0.00    -0.313 C  
BRANCH  11  12
HETATM   12  C   UNL     2     -12.045  10.149  71.567  1.00  0.00    -0.442 C  
HETATM   13  C   UNL     2     -12.283   7.643  71.063  1.00  0.00    -0.261 C  
HETATM   14  C   UNL     2     -13.006   8.955  71.376  1.00  0.00    -0.323 C  
HETATM   15  C   UNL     2     -13.842   8.761  72.651  1.00  0.00    -0.352 C  
ENDBRANCH  11  12
BRANCH  11  16
HETATM   16  O   UNL     2     -10.634   9.382  69.769  1.00  0.00    -0.212 OA 
HETATM   17  O   UNL     2      -8.390  10.071  70.445  1.00  0.00    -0.131 OA 
HETATM   18  O   UNL     2      -8.730   7.958  69.247  1.00  0.00    -0.136 OA 
HETATM   19  S   UNL     2      -9.055   9.378  69.346  1.00  0.00    -0.171 S  
HETATM   20  O   UNL     2      -9.010  10.105  68.085  1.00  0.00    -0.121 OA 
ENDBRANCH  11  16
ENDBRANCH  10  11
ENDBRANCH   8  10
ENDBRANCH   4   5
ENDBRANCH   3   4
TORSDOF 6
ENDMDL
MODEL      161
REMARK 921   NORMALIZED FREE ENERGY PREDICTED BY IDOCK:   -3.81 KCAL/MOL
REMARK 922        TOTAL FREE ENERGY PREDICTED BY IDOCK:   -6.36 KCAL/MOL
REMARK 923 INTER-LIGAND FREE ENERGY PREDICTED BY IDOCK:   -5.46 KCAL/MOL
REMARK 924 INTRA-LIGAND FREE ENERGY PREDICTED BY IDOCK:   -0.90 KCAL/MOL
REMARK 927      BINDING AFFINITY PREDICTED BY RF-SCORE:    0.00 PKD
ROOT
HETATM    1 NA   UNL     1     -12.119  15.851  63.325  1.00  0.00    -0.905 Na 
HETATM    2  C   UNL     2     -12.495  12.155  63.213  1.00  0.00    -0.528 C  
HETATM    3  C   UNL     2     -12.502  12.134  64.735  1.00  0.00    -0.264 C  
ENDROOT
BRANCH   3   4
HETATM    4  C   UNL     2     -12.503  13.553  65.301  1.00  0.00    -0.525 C  
BRANCH   4   5
HETATM    5  C   UNL     2     -11.657  13.719  66.568  1.00  0.00    -0.386 C  
HETATM    6  C   UNL     2     -10.137  13.926  66.355  1.00  0.00    -0.298 C  
HETATM    7  C   UNL     2      -9.796  15.094  65.403  1.00  0.00    -0.309 C  
HETATM    8  C   UNL     2      -9.399  14.110  67.704  1.00  0.00    -0.209 C  
HETATM    9  C   UNL     2     -10.162  16.483  65.912  1.00  0.00    -0.368 C  
BRANCH   8  10
HETATM   10  C   UNL     2      -9.551  12.958  68.697  1.00  0.00    -0.025 C  
BRANCH  10  11
HETATM   11  C   UNL     2      -8.421  11.906  68.726  1.00  0.00     0.038 C  
BRANCH  11  12
HETATM   12  C   UNL     2      -8.941  10.559  69.286  1.00  0.00    -0.148 C  
HETATM   13  C   UNL     2     -10.513   9.922  67.358  1.00  0.00    -0.325 C  
HETATM   14  C   UNL     2     -10.372  10.158  68.864  1.00  0.00    -0.223 C  
HETATM   15  C   UNL     2     -10.783   8.874  69.601  1.00  0.00    -0.222 C  
ENDBRANCH  11  12
BRANCH  11  16
HETATM   16  O   UNL     2      -7.954  11.687  67.397  1.00  0.00    -0.132 OA 
HETATM   17  O   UNL     2      -5.805  10.849  68.200  1.00  0.00    -0.046 OA 
HETATM   18  O   UNL     2      -6.263  10.984  65.794  1.00  0.00    -0.104 OA 
HETATM   19  S   UNL     2      -6.348  11.636  67.098  1.00  0.00    -0.151 S  
HETATM   20  O   UNL     2      -5.927  13.030  67.113  1.00  0.00    -0.326 OA 
ENDBRANCH  11  16
ENDBRANCH  10  11
ENDBRANCH   8  10
ENDBRANCH   4   5
ENDBRANCH   3   4
TORSDOF 6
ENDMDL
MODEL      162
REMARK 921   NORMALIZED FREE ENERGY PREDICTED BY IDOCK:   -3.81 KCAL/MOL
REMARK 922        TOTAL FREE ENERGY PREDICTED BY IDOCK:   -6.35 KCAL/MOL
REMARK 923 INTER-LIGAND FREE ENERGY PREDICTED BY IDOCK:   -5.27 KCAL/MOL
REMARK 924 INTRA-LIGAND FREE ENERGY PREDICTED BY IDOCK:   -1.08 KCAL/MOL
REMARK 927      BINDING AFFINITY PREDICTED BY RF-SCORE:    0.00 PKD
ROOT
HETATM    1 NA   UNL     1      -8.023   7.704  72.373  1.00  0.00    -0.086 Na 
HETATM    2  C   UNL     2     -11.364   6.602  71.174  1.00  0.00    -0.355 C  
HETATM    3  C   UNL     2     -11.712   8.055  70.885  1.00  0.00    -0.265 C  
ENDROOT
BRANCH   3   4
HETATM    4  C   UNL     2     -10.504   8.963  71.111  1.00  0.00    -0.336 C  
BRANCH   4   5
HETATM    5  C   UNL     2     -10.295  10.008  70.010  1.00  0.00    -0.323 C  
HETATM    6  C   UNL     2      -9.131   9.740  69.024  1.00  0.00    -0.157 C  
HETATM    7  C   UNL     2      -9.193   8.350  68.351  1.00  0.00    -0.135 C  
HETATM    8  C   UNL     2      -9.041  10.846  67.945  1.00  0.00    -0.149 C  
HETATM    9  C   UNL     2     -10.368   8.132  67.406  1.00  0.00    -0.351 C  
BRANCH   8  10
HETATM   10  C   UNL     2      -8.849  12.267  68.477  1.00  0.00    -0.068 C  
BRANCH  10  11
HETATM   11  C   UNL     2      -9.601  13.397  67.740  1.00  0.00    -0.213 C  
BRANCH  11  12
HETATM   12  C   UNL     2     -10.744  12.818  66.871  1.00  0.00    -0.272 C  
HETATM   13  C   UNL     2     -10.545  14.409  64.865  1.00  0.00    -0.456 C  
HETATM   14  C   UNL     2     -11.462  13.822  65.941  1.00  0.00    -0.330 C  
HETATM   15  C   UNL     2     -12.644  13.125  65.250  1.00  0.00    -0.531 C  
ENDBRANCH  11  12
BRANCH  11  16
HETATM   16  O   UNL     2     -10.174  14.279  68.702  1.00  0.00    -0.238 OA 
HETATM   17  O   UNL     2      -9.302  16.245  67.543  1.00  0.00    -0.215 OA 
HETATM   18  O   UNL     2     -10.613  16.498  69.601  1.00  0.00    -0.316 OA 
HETATM   19  S   UNL     2      -9.552  15.778  68.903  1.00  0.00    -0.245 S  
HETATM   20  O   UNL     2      -8.339  15.571  69.681  1.00  0.00    -0.234 OA 
ENDBRANCH  11  16
ENDBRANCH  10  11
ENDBRANCH   8  10
ENDBRANCH   4   5
ENDBRANCH   3   4
TORSDOF 6
ENDMDL
MODEL      163
REMARK 921   NORMALIZED FREE ENERGY PREDICTED BY IDOCK:   -3.80 KCAL/MOL
REMARK 922        TOTAL FREE ENERGY PREDICTED BY IDOCK:   -6.34 KCAL/MOL
REMARK 923 INTER-LIGAND FREE ENERGY PREDICTED BY IDOCK:   -5.65 KCAL/MOL
REMARK 924 INTRA-LIGAND FREE ENERGY PREDICTED BY IDOCK:   -0.69 KCAL/MOL
REMARK 927      BINDING AFFINITY PREDICTED BY RF-SCORE:    0.00 PKD
ROOT
HETATM    1 NA   UNL     1      -6.394  18.400  64.709  1.00  0.00    -0.232 Na 
HETATM    2  C   UNL     2      -5.624  16.189  67.596  1.00  0.00    -0.167 C  
HETATM    3  C   UNL     2      -6.432  17.118  68.491  1.00  0.00    -0.164 C  
ENDROOT
BRANCH   3   4
HETATM    4  C   UNL     2      -7.121  18.206  67.670  1.00  0.00    -0.202 C  
BRANCH   4   5
HETATM    5  C   UNL     2      -8.289  17.699  66.819  1.00  0.00    -0.276 C  
HETATM    6  C   UNL     2      -9.332  16.814  67.545  1.00  0.00    -0.231 C  
HETATM    7  C   UNL     2      -9.922  17.464  68.817  1.00  0.00    -0.329 C  
HETATM    8  C   UNL     2     -10.474  16.390  66.589  1.00  0.00    -0.274 C  
HETATM    9  C   UNL     2     -10.775  18.704  68.583  1.00  0.00     0.249 C  
BRANCH   8  10
HETATM   10  C   UNL     2     -10.036  15.620  65.344  1.00  0.00    -0.311 C  
BRANCH  10  11
HETATM   11  C   UNL     2     -10.109  14.079  65.412  1.00  0.00    -0.319 C  
BRANCH  11  12
HETATM   12  C   UNL     2      -9.447  13.556  66.710  1.00  0.00    -0.272 C  
HETATM   13  C   UNL     2      -8.788  11.213  65.891  1.00  0.00    -0.193 C  
HETATM   14  C   UNL     2      -9.534  12.032  66.948  1.00  0.00    -0.206 C  
HETATM   15  C   UNL     2      -8.950  11.695  68.329  1.00  0.00    -0.185 C  
ENDBRANCH  11  12
BRANCH  11  16
HETATM   16  O   UNL     2     -11.476  13.677  65.414  1.00  0.00    -0.305 OA 
HETATM   17  O   UNL     2     -11.040  11.881  63.818  1.00  0.00    -0.365 OA 
HETATM   18  O   UNL     2     -13.308  12.256  64.671  1.00  0.00    -0.717 OA 
HETATM   19  S   UNL     2     -12.083  12.849  64.142  1.00  0.00    -0.452 S  
HETATM   20  O   UNL     2     -12.286  13.856  63.111  1.00  0.00    -0.696 OA 
ENDBRANCH  11  16
ENDBRANCH  10  11
ENDBRANCH   8  10
ENDBRANCH   4   5
ENDBRANCH   3   4
TORSDOF 6
ENDMDL
MODEL      164
REMARK 921   NORMALIZED FREE ENERGY PREDICTED BY IDOCK:   -3.79 KCAL/MOL
REMARK 922        TOTAL FREE ENERGY PREDICTED BY IDOCK:   -6.33 KCAL/MOL
REMARK 923 INTER-LIGAND FREE ENERGY PREDICTED BY IDOCK:   -5.69 KCAL/MOL
REMARK 924 INTRA-LIGAND FREE ENERGY PREDICTED BY IDOCK:   -0.64 KCAL/MOL
REMARK 927      BINDING AFFINITY PREDICTED BY RF-SCORE:    0.00 PKD
ROOT
HETATM    1 NA   UNL     1     -12.962  14.729  67.999  1.00  0.00    -0.554 Na 
HETATM    2  C   UNL     2     -10.290  16.681  66.305  1.00  0.00    -0.323 C  
HETATM    3  C   UNL     2      -9.399  15.448  66.346  1.00  0.00    -0.331 C  
ENDROOT
BRANCH   3   4
HETATM    4  C   UNL     2     -10.162  14.237  66.880  1.00  0.00    -0.266 C  
BRANCH   4   5
HETATM    5  C   UNL     2      -9.902  12.944  66.101  1.00  0.00    -0.270 C  
HETATM    6  C   UNL     2     -11.138  12.056  65.815  1.00  0.00    -0.371 C  
HETATM    7  C   UNL     2     -12.293  12.806  65.113  1.00  0.00    -0.555 C  
HETATM    8  C   UNL     2     -10.752  10.799  64.999  1.00  0.00    -0.160 C  
HETATM    9  C   UNL     2     -11.999  13.281  63.695  1.00  0.00    -0.547 C  
BRANCH   8  10
HETATM   10  C   UNL     2      -9.703   9.894  65.646  1.00  0.00    -0.346 C  
BRANCH  10  11
HETATM   11  C   UNL     2     -10.134   9.114  66.908  1.00  0.00    -0.258 C  
BRANCH  11  12
HETATM   12  C   UNL     2      -9.916   7.594  66.712  1.00  0.00    -0.317 C  
HETATM   13  C   UNL     2      -7.353   7.588  66.554  1.00  0.00    -0.084 C  
HETATM   14  C   UNL     2      -8.673   7.188  65.889  1.00  0.00    -0.146 C  
HETATM   15  C   UNL     2      -8.673   5.666  65.678  1.00  0.00    -0.151 C  
ENDBRANCH  11  12
BRANCH  11  16
HETATM   16  O   UNL     2      -9.340   9.541  68.012  1.00  0.00    -0.133 OA 
HETATM   17  O   UNL     2     -10.979   8.708  69.620  1.00  0.00    -0.198 OA 
HETATM   18  O   UNL     2      -8.924   9.798  70.397  1.00  0.00    -0.223 OA 
HETATM   19  S   UNL     2     -10.045   9.818  69.461  1.00  0.00    -0.233 S  
HETATM   20  O   UNL     2     -10.695  11.112  69.312  1.00  0.00    -0.217 OA 
ENDBRANCH  11  16
ENDBRANCH  10  11
ENDBRANCH   8  10
ENDBRANCH   4   5
ENDBRANCH   3   4
TORSDOF 6
ENDMDL
MODEL      165
REMARK 921   NORMALIZED FREE ENERGY PREDICTED BY IDOCK:   -3.79 KCAL/MOL
REMARK 922        TOTAL FREE ENERGY PREDICTED BY IDOCK:   -6.32 KCAL/MOL
REMARK 923 INTER-LIGAND FREE ENERGY PREDICTED BY IDOCK:   -5.51 KCAL/MOL
REMARK 924 INTRA-LIGAND FREE ENERGY PREDICTED BY IDOCK:   -0.81 KCAL/MOL
REMARK 927      BINDING AFFINITY PREDICTED BY RF-SCORE:    0.00 PKD
ROOT
HETATM    1 NA   UNL     1      -6.814  19.604  67.186  1.00  0.00    -0.195 Na 
HETATM    2  C   UNL     2     -10.398  19.863  66.236  1.00  0.00    -0.608 C  
HETATM    3  C   UNL     2     -10.742  18.907  67.370  1.00  0.00    -0.519 C  
ENDROOT
BRANCH   3   4
HETATM    4  C   UNL     2      -9.507  18.590  68.211  1.00  0.00    -0.360 C  
BRANCH   4   5
HETATM    5  C   UNL     2      -9.313  17.097  68.494  1.00  0.00    -0.274 C  
HETATM    6  C   UNL     2      -9.040  16.196  67.264  1.00  0.00    -0.215 C  
HETATM    7  C   UNL     2      -7.852  16.671  66.397  1.00  0.00    -0.347 C  
HETATM    8  C   UNL     2      -8.832  14.720  67.682  1.00  0.00    -0.182 C  
HETATM    9  C   UNL     2      -6.483  16.597  67.063  1.00  0.00    -0.231 C  
BRANCH   8  10
HETATM   10  C   UNL     2      -9.996  14.084  68.442  1.00  0.00    -0.236 C  
BRANCH  10  11
HETATM   11  C   UNL     2     -10.419  12.662  68.012  1.00  0.00    -0.224 C  
BRANCH  11  12
HETATM   12  C   UNL     2     -11.696  12.712  67.139  1.00  0.00    -0.438 C  
HETATM   13  C   UNL     2     -10.634  13.532  64.949  1.00  0.00    -0.409 C  
HETATM   14  C   UNL     2     -11.707  13.772  66.014  1.00  0.00    -0.383 C  
HETATM   15  C   UNL     2     -13.083  13.781  65.331  1.00  0.00    -0.217 C  
ENDBRANCH  11  12
BRANCH  11  16
HETATM   16  O   UNL     2      -9.373  12.078  67.240  1.00  0.00    -0.174 OA 
HETATM   17  O   UNL     2      -9.534   9.970  68.462  1.00  0.00    -0.142 OA 
HETATM   18  O   UNL     2      -7.886  10.239  66.666  1.00  0.00    -0.111 OA 
HETATM   19  S   UNL     2      -8.521  10.820  67.844  1.00  0.00    -0.124 S  
HETATM   20  O   UNL     2      -7.603  11.423  68.800  1.00  0.00    -0.122 OA 
ENDBRANCH  11  16
ENDBRANCH  10  11
ENDBRANCH   8  10
ENDBRANCH   4   5
ENDBRANCH   3   4
TORSDOF 6
ENDMDL
MODEL      166
REMARK 921   NORMALIZED FREE ENERGY PREDICTED BY IDOCK:   -3.78 KCAL/MOL
REMARK 922        TOTAL FREE ENERGY PREDICTED BY IDOCK:   -6.31 KCAL/MOL
REMARK 923 INTER-LIGAND FREE ENERGY PREDICTED BY IDOCK:   -5.44 KCAL/MOL
REMARK 924 INTRA-LIGAND FREE ENERGY PREDICTED BY IDOCK:   -0.88 KCAL/MOL
REMARK 927      BINDING AFFINITY PREDICTED BY RF-SCORE:    0.00 PKD
ROOT
HETATM    1 NA   UNL     1      -8.773  13.143  69.309  1.00  0.00    -0.344 Na 
HETATM    2  C   UNL     2     -11.631  12.469  67.030  1.00  0.00    -0.437 C  
HETATM    3  C   UNL     2     -11.228  11.002  66.999  1.00  0.00    -0.255 C  
ENDROOT
BRANCH   3   4
HETATM    4  C   UNL     2     -10.081  10.728  67.971  1.00  0.00    -0.198 C  
BRANCH   4   5
HETATM    5  C   UNL     2     -10.126   9.337  68.612  1.00  0.00    -0.207 C  
HETATM    6  C   UNL     2     -10.439   8.155  67.661  1.00  0.00    -0.300 C  
HETATM    7  C   UNL     2      -9.504   8.081  66.433  1.00  0.00    -0.268 C  
HETATM    8  C   UNL     2     -10.426   6.805  68.418  1.00  0.00    -0.238 C  
HETATM    9  C   UNL     2      -8.044   7.768  66.739  1.00  0.00    -0.115 C  
BRANCH   8  10
HETATM   10  C   UNL     2     -11.405   6.700  69.588  1.00  0.00    -0.387 C  
BRANCH  10  11
HETATM   11  C   UNL     2     -10.828   6.237  70.944  1.00  0.00    -0.272 C  
BRANCH  11  12
HETATM   12  C   UNL     2     -10.246   4.807  70.831  1.00  0.00    -0.247 C  
HETATM   13  C   UNL     2     -10.786   3.983  73.202  1.00  0.00    -0.274 C  
HETATM   14  C   UNL     2      -9.704   4.191  72.141  1.00  0.00    -0.225 C  
HETATM   15  C   UNL     2      -9.048   2.835  71.837  1.00  0.00    -0.148 C  
ENDBRANCH  11  12
BRANCH  11  16
HETATM   16  O   UNL     2      -9.776   7.119  71.328  1.00  0.00    -0.170 OA 
HETATM   17  O   UNL     2     -10.704   7.383  73.572  1.00  0.00    -0.385 OA 
HETATM   18  O   UNL     2      -8.649   8.559  72.933  1.00  0.00    -0.345 OA 
HETATM   19  S   UNL     2     -10.005   8.169  72.560  1.00  0.00    -0.313 S  
HETATM   20  O   UNL     2     -10.813   9.236  71.987  1.00  0.00    -0.309 OA 
ENDBRANCH  11  16
ENDBRANCH  10  11
ENDBRANCH   8  10
ENDBRANCH   4   5
ENDBRANCH   3   4
TORSDOF 6
ENDMDL
MODEL      167
REMARK 921   NORMALIZED FREE ENERGY PREDICTED BY IDOCK:   -3.78 KCAL/MOL
REMARK 922        TOTAL FREE ENERGY PREDICTED BY IDOCK:   -6.31 KCAL/MOL
REMARK 923 INTER-LIGAND FREE ENERGY PREDICTED BY IDOCK:   -5.54 KCAL/MOL
REMARK 924 INTRA-LIGAND FREE ENERGY PREDICTED BY IDOCK:   -0.77 KCAL/MOL
REMARK 927      BINDING AFFINITY PREDICTED BY RF-SCORE:    0.00 PKD
ROOT
HETATM    1 NA   UNL     1     -13.423   9.618  70.115  1.00  0.00    -0.546 Na 
HETATM    2  C   UNL     2      -9.792   9.095  70.712  1.00  0.00    -0.334 C  
HETATM    3  C   UNL     2      -9.502   9.758  69.374  1.00  0.00    -0.212 C  
ENDROOT
BRANCH   3   4
HETATM    4  C   UNL     2     -10.780  10.313  68.748  1.00  0.00    -0.247 C  
BRANCH   4   5
HETATM    5  C   UNL     2     -10.892  11.839  68.808  1.00  0.00    -0.268 C  
HETATM    6  C   UNL     2     -10.061  12.628  67.767  1.00  0.00    -0.220 C  
HETATM    7  C   UNL     2     -10.318  12.192  66.306  1.00  0.00    -0.250 C  
HETATM    8  C   UNL     2     -10.280  14.154  67.910  1.00  0.00    -0.235 C  
HETATM    9  C   UNL     2     -11.716  12.482  65.773  1.00  0.00    -0.478 C  
BRANCH   8  10
HETATM   10  C   UNL     2      -9.938  14.740  69.280  1.00  0.00    -0.146 C  
BRANCH  10  11
HETATM   11  C   UNL     2     -10.697  16.016  69.704  1.00  0.00    -0.316 C  
BRANCH  11  12
HETATM   12  C   UNL     2     -11.230  15.881  71.151  1.00  0.00    -0.360 C  
HETATM   13  C   UNL     2     -13.548  14.913  70.619  1.00  0.00    -0.091 C  
HETATM   14  C   UNL     2     -12.759  16.018  71.325  1.00  0.00    -0.154 C  
HETATM   15  C   UNL     2     -13.109  15.990  72.821  1.00  0.00    -0.515 C  
ENDBRANCH  11  12
BRANCH  11  16
HETATM   16  O   UNL     2      -9.805  17.126  69.658  1.00  0.00     0.035 OA 
HETATM   17  O   UNL     2     -10.956  18.081  67.728  1.00  0.00    -0.317 OA 
HETATM   18  O   UNL     2      -9.005  19.212  68.691  1.00  0.00    -0.354 OA 
HETATM   19  S   UNL     2      -9.604  17.952  68.261  1.00  0.00    -0.326 S  
HETATM   20  O   UNL     2      -8.737  17.105  67.455  1.00  0.00    -0.201 OA 
ENDBRANCH  11  16
ENDBRANCH  10  11
ENDBRANCH   8  10
ENDBRANCH   4   5
ENDBRANCH   3   4
TORSDOF 6
ENDMDL
MODEL      168
REMARK 921   NORMALIZED FREE ENERGY PREDICTED BY IDOCK:   -3.76 KCAL/MOL
REMARK 922        TOTAL FREE ENERGY PREDICTED BY IDOCK:   -6.28 KCAL/MOL
REMARK 923 INTER-LIGAND FREE ENERGY PREDICTED BY IDOCK:   -5.18 KCAL/MOL
REMARK 924 INTRA-LIGAND FREE ENERGY PREDICTED BY IDOCK:   -1.10 KCAL/MOL
REMARK 927      BINDING AFFINITY PREDICTED BY RF-SCORE:    0.00 PKD
ROOT
HETATM    1 NA   UNL     1     -11.321  12.404  70.989  1.00  0.00    -0.439 Na 
HETATM    2  C   UNL     2     -13.638   9.537  71.464  1.00  0.00    -0.397 C  
HETATM    3  C   UNL     2     -12.435   8.606  71.521  1.00  0.00    -0.364 C  
ENDROOT
BRANCH   3   4
HETATM    4  C   UNL     2     -11.129   9.398  71.500  1.00  0.00    -0.446 C  
BRANCH   4   5
HETATM    5  C   UNL     2     -10.534   9.583  70.101  1.00  0.00    -0.299 C  
HETATM    6  C   UNL     2      -9.314   8.696  69.753  1.00  0.00    -0.165 C  
HETATM    7  C   UNL     2      -9.561   7.185  69.965  1.00  0.00    -0.164 C  
HETATM    8  C   UNL     2      -8.825   8.953  68.306  1.00  0.00    -0.134 C  
HETATM    9  C   UNL     2     -10.593   6.554  69.039  1.00  0.00    -0.286 C  
BRANCH   8  10
HETATM   10  C   UNL     2      -8.423  10.395  67.996  1.00  0.00    -0.119 C  
BRANCH  10  11
HETATM   11  C   UNL     2      -9.163  11.093  66.834  1.00  0.00    -0.169 C  
BRANCH  11  12
HETATM   12  C   UNL     2      -9.321  12.607  67.117  1.00  0.00    -0.210 C  
HETATM   13  C   UNL     2     -11.674  12.564  68.144  1.00  0.00    -0.400 C  
HETATM   14  C   UNL     2     -10.764  13.158  67.067  1.00  0.00    -0.270 C  
HETATM   15  C   UNL     2     -10.736  14.685  67.238  1.00  0.00    -0.290 C  
ENDBRANCH  11  12
BRANCH  11  16
HETATM   16  O   UNL     2      -8.403  10.939  65.638  1.00  0.00    -0.160 OA 
HETATM   17  O   UNL     2     -10.423  10.701  64.285  1.00  0.00    -0.349 OA 
HETATM   18  O   UNL     2      -8.208  10.589  63.238  1.00  0.00    -0.159 OA 
HETATM   19  S   UNL     2      -9.062  10.179  64.349  1.00  0.00    -0.267 S  
HETATM   20  O   UNL     2      -8.994   8.763  64.682  1.00  0.00    -0.090 OA 
ENDBRANCH  11  16
ENDBRANCH  10  11
ENDBRANCH   8  10
ENDBRANCH   4   5
ENDBRANCH   3   4
TORSDOF 6
ENDMDL
MODEL      169
REMARK 921   NORMALIZED FREE ENERGY PREDICTED BY IDOCK:   -3.76 KCAL/MOL
REMARK 922        TOTAL FREE ENERGY PREDICTED BY IDOCK:   -6.28 KCAL/MOL
REMARK 923 INTER-LIGAND FREE ENERGY PREDICTED BY IDOCK:   -5.55 KCAL/MOL
REMARK 924 INTRA-LIGAND FREE ENERGY PREDICTED BY IDOCK:   -0.73 KCAL/MOL
REMARK 927      BINDING AFFINITY PREDICTED BY RF-SCORE:    0.00 PKD
ROOT
HETATM    1 NA   UNL     1      -8.512   3.692  67.867  1.00  0.00    -0.085 Na 
HETATM    2  C   UNL     2     -10.714   5.430  70.305  1.00  0.00    -0.286 C  
HETATM    3  C   UNL     2     -11.237   6.303  69.173  1.00  0.00    -0.439 C  
ENDROOT
BRANCH   3   4
HETATM    4  C   UNL     2     -10.679   5.844  67.826  1.00  0.00    -0.346 C  
BRANCH   4   5
HETATM    5  C   UNL     2     -10.231   6.991  66.915  1.00  0.00    -0.318 C  
HETATM    6  C   UNL     2      -9.357   8.087  67.573  1.00  0.00    -0.171 C  
HETATM    7  C   UNL     2      -8.104   7.537  68.291  1.00  0.00    -0.124 C  
HETATM    8  C   UNL     2      -8.944   9.170  66.546  1.00  0.00    -0.178 C  
HETATM    9  C   UNL     2      -7.057   6.900  67.385  1.00  0.00    -0.084 C  
BRANCH   8  10
HETATM   10  C   UNL     2     -10.101   9.889  65.851  1.00  0.00    -0.316 C  
BRANCH  10  11
HETATM   11  C   UNL     2     -10.642  11.165  66.531  1.00  0.00    -0.262 C  
BRANCH  11  12
HETATM   12  C   UNL     2     -11.310  12.098  65.492  1.00  0.00    -0.393 C  
HETATM   13  C   UNL     2      -9.876  14.193  65.878  1.00  0.00    -0.312 C  
HETATM   14  C   UNL     2     -11.289  13.607  65.825  1.00  0.00    -0.315 C  
HETATM   15  C   UNL     2     -12.098  14.376  64.769  1.00  0.00    -0.462 C  
ENDBRANCH  11  12
BRANCH  11  16
HETATM   16  O   UNL     2     -11.624  10.797  67.497  1.00  0.00    -0.510 OA 
HETATM   17  O   UNL     2     -10.847  12.505  69.061  1.00  0.00    -0.211 OA 
HETATM   18  O   UNL     2     -12.716  11.034  69.659  1.00  0.00    -0.218 OA 
HETATM   19  S   UNL     2     -11.383  11.148  69.076  1.00  0.00    -0.306 S  
HETATM   20  O   UNL     2     -10.427  10.148  69.532  1.00  0.00    -0.209 OA 
ENDBRANCH  11  16
ENDBRANCH  10  11
ENDBRANCH   8  10
ENDBRANCH   4   5
ENDBRANCH   3   4
TORSDOF 6
ENDMDL
MODEL      170
REMARK 921   NORMALIZED FREE ENERGY PREDICTED BY IDOCK:   -3.75 KCAL/MOL
REMARK 922        TOTAL FREE ENERGY PREDICTED BY IDOCK:   -6.27 KCAL/MOL
REMARK 923 INTER-LIGAND FREE ENERGY PREDICTED BY IDOCK:   -5.84 KCAL/MOL
REMARK 924 INTRA-LIGAND FREE ENERGY PREDICTED BY IDOCK:   -0.43 KCAL/MOL
REMARK 927      BINDING AFFINITY PREDICTED BY RF-SCORE:    0.00 PKD
ROOT
HETATM    1 NA   UNL     1     -12.883   6.736  69.601  1.00  0.00    -0.637 Na 
HETATM    2  C   UNL     2     -10.500   7.930  67.011  1.00  0.00    -0.419 C  
HETATM    3  C   UNL     2      -9.860   6.549  67.000  1.00  0.00    -0.200 C  
ENDROOT
BRANCH   3   4
HETATM    4  C   UNL     2     -10.640   5.576  67.882  1.00  0.00    -0.219 C  
BRANCH   4   5
HETATM    5  C   UNL     2     -10.598   5.919  69.375  1.00  0.00    -0.379 C  
HETATM    6  C   UNL     2     -10.159   4.781  70.328  1.00  0.00    -0.304 C  
HETATM    7  C   UNL     2      -8.801   4.144  69.951  1.00  0.00    -0.134 C  
HETATM    8  C   UNL     2     -10.128   5.258  71.800  1.00  0.00    -0.257 C  
HETATM    9  C   UNL     2      -7.589   5.058  70.087  1.00  0.00    -0.060 C  
BRANCH   8  10
HETATM   10  C   UNL     2     -11.452   5.797  72.342  1.00  0.00    -0.343 C  
BRANCH  10  11
HETATM   11  C   UNL     2     -11.470   7.270  72.805  1.00  0.00    -0.230 C  
BRANCH  11  12
HETATM   12  C   UNL     2     -10.043   7.748  73.166  1.00  0.00    -0.390 C  
HETATM   13  C   UNL     2      -9.473   8.952  70.970  1.00  0.00    -0.318 C  
HETATM   14  C   UNL     2      -9.056   7.885  71.984  1.00  0.00    -0.198 C  
HETATM   15  C   UNL     2      -7.660   8.238  72.521  1.00  0.00    -0.159 C  
ENDBRANCH  11  12
BRANCH  11  16
HETATM   16  O   UNL     2     -11.960   8.086  71.744  1.00  0.00    -0.275 OA 
HETATM   17  O   UNL     2     -13.622   9.129  73.199  1.00  0.00    -0.179 OA 
HETATM   18  O   UNL     2     -13.463   9.773  70.838  1.00  0.00    -0.309 OA 
HETATM   19  S   UNL     2     -13.478   8.688  71.815  1.00  0.00    -0.391 S  
HETATM   20  O   UNL     2     -14.336   7.564  71.468  1.00  0.00    -0.443 OA 
ENDBRANCH  11  16
ENDBRANCH  10  11
ENDBRANCH   8  10
ENDBRANCH   4   5
ENDBRANCH   3   4
TORSDOF 6
ENDMDL
MODEL      171
REMARK 921   NORMALIZED FREE ENERGY PREDICTED BY IDOCK:   -3.74 KCAL/MOL
REMARK 922        TOTAL FREE ENERGY PREDICTED BY IDOCK:   -6.26 KCAL/MOL
REMARK 923 INTER-LIGAND FREE ENERGY PREDICTED BY IDOCK:   -5.15 KCAL/MOL
REMARK 924 INTRA-LIGAND FREE ENERGY PREDICTED BY IDOCK:   -1.10 KCAL/MOL
REMARK 927      BINDING AFFINITY PREDICTED BY RF-SCORE:    0.00 PKD
ROOT
HETATM    1 NA   UNL     1     -11.812   4.289  65.580  1.00  0.00    -0.663 Na 
HETATM    2  C   UNL     2      -9.264   2.623  67.712  1.00  0.00    -0.244 C  
HETATM    3  C   UNL     2      -8.228   3.617  67.207  1.00  0.00    -0.091 C  
ENDROOT
BRANCH   3   4
HETATM    4  C   UNL     2      -8.876   4.683  66.326  1.00  0.00    -0.113 C  
BRANCH   4   5
HETATM    5  C   UNL     2      -9.924   5.536  67.049  1.00  0.00    -0.198 C  
HETATM    6  C   UNL     2      -9.382   6.713  67.897  1.00  0.00    -0.109 C  
HETATM    7  C   UNL     2      -8.453   7.669  67.113  1.00  0.00    -0.121 C  
HETATM    8  C   UNL     2     -10.535   7.514  68.550  1.00  0.00    -0.211 C  
HETATM    9  C   UNL     2      -9.121   8.460  65.995  1.00  0.00    -0.235 C  
BRANCH   8  10
HETATM   10  C   UNL     2     -11.461   6.707  69.460  1.00  0.00    -0.323 C  
BRANCH  10  11
HETATM   11  C   UNL     2     -10.922   6.345  70.861  1.00  0.00    -0.280 C  
BRANCH  11  12
HETATM   12  C   UNL     2     -10.355   4.905  70.874  1.00  0.00    -0.225 C  
HETATM   13  C   UNL     2     -11.063   4.232  73.249  1.00  0.00    -0.342 C  
HETATM   14  C   UNL     2      -9.910   4.364  72.252  1.00  0.00    -0.231 C  
HETATM   15  C   UNL     2      -9.256   2.985  72.075  1.00  0.00    -0.167 C  
ENDBRANCH  11  12
BRANCH  11  16
HETATM   16  O   UNL     2      -9.870   7.243  71.203  1.00  0.00    -0.182 OA 
HETATM   17  O   UNL     2     -10.876   7.730  73.374  1.00  0.00    -0.341 OA 
HETATM   18  O   UNL     2      -8.777   8.811  72.710  1.00  0.00    -0.398 OA 
HETATM   19  S   UNL     2     -10.125   8.407  72.322  1.00  0.00    -0.312 S  
HETATM   20  O   UNL     2     -10.892   9.428  71.622  1.00  0.00    -0.368 OA 
ENDBRANCH  11  16
ENDBRANCH  10  11
ENDBRANCH   8  10
ENDBRANCH   4   5
ENDBRANCH   3   4
TORSDOF 6
ENDMDL
MODEL      172
REMARK 921   NORMALIZED FREE ENERGY PREDICTED BY IDOCK:   -3.72 KCAL/MOL
REMARK 922        TOTAL FREE ENERGY PREDICTED BY IDOCK:   -6.23 KCAL/MOL
REMARK 923 INTER-LIGAND FREE ENERGY PREDICTED BY IDOCK:   -5.24 KCAL/MOL
REMARK 924 INTRA-LIGAND FREE ENERGY PREDICTED BY IDOCK:   -0.99 KCAL/MOL
REMARK 927      BINDING AFFINITY PREDICTED BY RF-SCORE:    0.00 PKD
ROOT
HETATM    1 NA   UNL     1     -12.024  16.426  63.390  1.00  0.00    -0.837 Na 
HETATM    2  C   UNL     2     -10.900  19.067  65.751  1.00  0.00    -0.247 C  
HETATM    3  C   UNL     2     -10.302  17.984  66.638  1.00  0.00    -0.375 C  
ENDROOT
BRANCH   3   4
HETATM    4  C   UNL     2     -10.401  16.613  65.971  1.00  0.00    -0.352 C  
BRANCH   4   5
HETATM    5  C   UNL     2     -10.359  15.438  66.954  1.00  0.00    -0.277 C  
HETATM    6  C   UNL     2      -9.070  14.580  66.939  1.00  0.00    -0.274 C  
HETATM    7  C   UNL     2      -7.774  15.401  67.128  1.00  0.00    -0.246 C  
HETATM    8  C   UNL     2      -9.136  13.447  67.992  1.00  0.00    -0.205 C  
HETATM    9  C   UNL     2      -7.611  16.064  68.490  1.00  0.00    -0.155 C  
BRANCH   8  10
HETATM   10  C   UNL     2     -10.310  12.479  67.841  1.00  0.00    -0.219 C  
BRANCH  10  11
HETATM   11  C   UNL     2     -10.860  11.840  69.135  1.00  0.00    -0.172 C  
BRANCH  11  12
HETATM   12  C   UNL     2     -12.199  12.501  69.545  1.00  0.00    -0.139 C  
HETATM   13  C   UNL     2     -11.277  14.739  70.403  1.00  0.00    -0.213 C  
HETATM   14  C   UNL     2     -12.127  13.506  70.717  1.00  0.00    -0.351 C  
HETATM   15  C   UNL     2     -13.545  13.969  71.083  1.00  0.00    -0.205 C  
ENDBRANCH  11  12
BRANCH  11  16
HETATM   16  O   UNL     2     -11.098  10.454  68.905  1.00  0.00    -0.227 OA 
HETATM   17  O   UNL     2     -10.052   9.837  71.025  1.00  0.00    -0.216 OA 
HETATM   18  O   UNL     2     -10.958   8.108  69.539  1.00  0.00    -0.176 OA 
HETATM   19  S   UNL     2     -10.175   9.335  69.660  1.00  0.00    -0.220 S  
HETATM   20  O   UNL     2      -8.920   9.335  68.922  1.00  0.00    -0.133 OA 
ENDBRANCH  11  16
ENDBRANCH  10  11
ENDBRANCH   8  10
ENDBRANCH   4   5
ENDBRANCH   3   4
TORSDOF 6
ENDMDL
MODEL      173
REMARK 921   NORMALIZED FREE ENERGY PREDICTED BY IDOCK:   -3.72 KCAL/MOL
REMARK 922        TOTAL FREE ENERGY PREDICTED BY IDOCK:   -6.23 KCAL/MOL
REMARK 923 INTER-LIGAND FREE ENERGY PREDICTED BY IDOCK:   -5.29 KCAL/MOL
REMARK 924 INTRA-LIGAND FREE ENERGY PREDICTED BY IDOCK:   -0.94 KCAL/MOL
REMARK 927      BINDING AFFINITY PREDICTED BY RF-SCORE:    0.00 PKD
ROOT
HETATM    1 NA   UNL     1      -8.065   9.504  70.570  1.00  0.00    -0.087 Na 
HETATM    2  C   UNL     2      -6.531  12.618  69.242  1.00  0.00    -0.106 C  
HETATM    3  C   UNL     2      -6.725  12.082  67.831  1.00  0.00    -0.080 C  
ENDROOT
BRANCH   3   4
HETATM    4  C   UNL     2      -7.506  10.769  67.847  1.00  0.00    -0.090 C  
BRANCH   4   5
HETATM    5  C   UNL     2      -8.993  10.933  68.180  1.00  0.00    -0.144 C  
HETATM    6  C   UNL     2      -9.969  10.918  66.978  1.00  0.00    -0.227 C  
HETATM    7  C   UNL     2      -9.822   9.675  66.071  1.00  0.00    -0.345 C  
HETATM    8  C   UNL     2     -11.439  11.061  67.444  1.00  0.00    -0.217 C  
HETATM    9  C   UNL     2     -10.205   8.347  66.713  1.00  0.00    -0.376 C  
BRANCH   8  10
HETATM   10  C   UNL     2     -11.751  12.322  68.250  1.00  0.00    -0.392 C  
BRANCH  10  11
HETATM   11  C   UNL     2     -12.141  12.128  69.731  1.00  0.00    -0.237 C  
BRANCH  11  12
HETATM   12  C   UNL     2     -11.619  10.769  70.260  1.00  0.00    -0.427 C  
HETATM   13  C   UNL     2     -13.780   9.931  71.366  1.00  0.00    -0.203 C  
HETATM   14  C   UNL     2     -12.292  10.240  71.547  1.00  0.00    -0.488 C  
HETATM   15  C   UNL     2     -11.579   8.960  72.009  1.00  0.00    -0.435 C  
ENDBRANCH  11  12
BRANCH  11  16
HETATM   16  O   UNL     2     -11.551  13.166  70.509  1.00  0.00    -0.077 OA 
HETATM   17  O   UNL     2     -13.635  13.560  71.720  1.00  0.00    -0.380 OA 
HETATM   18  O   UNL     2     -11.641  14.899  72.216  1.00  0.00    -0.330 OA 
HETATM   19  S   UNL     2     -12.499  14.309  71.193  1.00  0.00    -0.382 S  
HETATM   20  O   UNL     2     -12.846  15.202  70.097  1.00  0.00    -0.268 OA 
ENDBRANCH  11  16
ENDBRANCH  10  11
ENDBRANCH   8  10
ENDBRANCH   4   5
ENDBRANCH   3   4
TORSDOF 6
ENDMDL
MODEL      174
REMARK 921   NORMALIZED FREE ENERGY PREDICTED BY IDOCK:   -3.72 KCAL/MOL
REMARK 922        TOTAL FREE ENERGY PREDICTED BY IDOCK:   -6.23 KCAL/MOL
REMARK 923 INTER-LIGAND FREE ENERGY PREDICTED BY IDOCK:   -5.39 KCAL/MOL
REMARK 924 INTRA-LIGAND FREE ENERGY PREDICTED BY IDOCK:   -0.84 KCAL/MOL
REMARK 927      BINDING AFFINITY PREDICTED BY RF-SCORE:    0.00 PKD
ROOT
HETATM    1 NA   UNL     1      -9.556   8.904  63.483  1.00  0.00    -0.417 Na 
HETATM    2  C   UNL     2      -7.420   5.898  63.942  1.00  0.00    -0.075 C  
HETATM    3  C   UNL     2      -7.265   6.263  65.411  1.00  0.00    -0.070 C  
ENDROOT
BRANCH   3   4
HETATM    4  C   UNL     2      -8.143   7.459  65.773  1.00  0.00    -0.129 C  
BRANCH   4   5
HETATM    5  C   UNL     2      -8.659   7.440  67.216  1.00  0.00    -0.118 C  
HETATM    6  C   UNL     2     -10.164   7.122  67.400  1.00  0.00    -0.291 C  
HETATM    7  C   UNL     2     -10.610   5.808  66.721  1.00  0.00    -0.373 C  
HETATM    8  C   UNL     2     -10.555   7.102  68.898  1.00  0.00    -0.218 C  
HETATM    9  C   UNL     2     -10.018   4.533  67.308  1.00  0.00    -0.187 C  
BRANCH   8  10
HETATM   10  C   UNL     2     -10.282   8.396  69.665  1.00  0.00    -0.209 C  
BRANCH  10  11
HETATM   11  C   UNL     2     -11.005   8.574  71.018  1.00  0.00    -0.249 C  
BRANCH  11  12
HETATM   12  C   UNL     2     -10.129   8.048  72.180  1.00  0.00    -0.298 C  
HETATM   13  C   UNL     2     -11.052   5.655  72.305  1.00  0.00    -0.318 C  
HETATM   14  C   UNL     2     -10.765   6.952  73.065  1.00  0.00    -0.328 C  
HETATM   15  C   UNL     2      -9.828   6.634  74.240  1.00  0.00    -0.353 C  
ENDBRANCH  11  12
BRANCH  11  16
HETATM   16  O   UNL     2     -11.251   9.961  71.236  1.00  0.00    -0.361 OA 
HETATM   17  O   UNL     2     -13.667   9.610  71.300  1.00  0.00    -0.323 OA 
HETATM   18  O   UNL     2     -12.734  11.860  71.579  1.00  0.00    -0.347 OA 
HETATM   19  S   UNL     2     -12.702  10.602  70.839  1.00  0.00    -0.408 S  
HETATM   20  O   UNL     2     -12.657  10.745  69.391  1.00  0.00    -0.314 OA 
ENDBRANCH  11  16
ENDBRANCH  10  11
ENDBRANCH   8  10
ENDBRANCH   4   5
ENDBRANCH   3   4
TORSDOF 6
ENDMDL
MODEL      175
REMARK 921   NORMALIZED FREE ENERGY PREDICTED BY IDOCK:   -3.71 KCAL/MOL
REMARK 922        TOTAL FREE ENERGY PREDICTED BY IDOCK:   -6.22 KCAL/MOL
REMARK 923 INTER-LIGAND FREE ENERGY PREDICTED BY IDOCK:   -5.17 KCAL/MOL
REMARK 924 INTRA-LIGAND FREE ENERGY PREDICTED BY IDOCK:   -1.05 KCAL/MOL
REMARK 927      BINDING AFFINITY PREDICTED BY RF-SCORE:    0.00 PKD
ROOT
HETATM    1 NA   UNL     1     -14.347   9.820  69.906  1.00  0.00    -0.667 Na 
HETATM    2  C   UNL     2     -11.772   8.472  72.223  1.00  0.00    -0.443 C  
HETATM    3  C   UNL     2     -10.726   9.319  71.513  1.00  0.00    -0.425 C  
ENDROOT
BRANCH   3   4
HETATM    4  C   UNL     2     -11.374  10.232  70.474  1.00  0.00    -0.422 C  
BRANCH   4   5
HETATM    5  C   UNL     2     -10.645  10.260  69.127  1.00  0.00    -0.254 C  
HETATM    6  C   UNL     2     -11.403  10.924  67.951  1.00  0.00    -0.380 C  
HETATM    7  C   UNL     2     -11.890  12.359  68.255  1.00  0.00    -0.364 C  
HETATM    8  C   UNL     2     -10.554  10.917  66.657  1.00  0.00    -0.305 C  
HETATM    9  C   UNL     2     -10.790  13.395  68.453  1.00  0.00    -0.284 C  
BRANCH   8  10
HETATM   10  C   UNL     2     -10.110   9.537  66.171  1.00  0.00    -0.326 C  
BRANCH  10  11
HETATM   11  C   UNL     2      -8.631   9.385  65.752  1.00  0.00    -0.145 C  
BRANCH  11  12
HETATM   12  C   UNL     2      -7.810   8.715  66.881  1.00  0.00    -0.091 C  
HETATM   13  C   UNL     2      -7.297  10.809  68.277  1.00  0.00    -0.086 C  
HETATM   14  C   UNL     2      -6.724   9.596  67.541  1.00  0.00    -0.070 C  
HETATM   15  C   UNL     2      -5.918   8.751  68.540  1.00  0.00    -0.045 C  
ENDBRANCH  11  12
BRANCH  11  16
HETATM   16  O   UNL     2      -8.558   8.557  64.595  1.00  0.00    -0.150 OA 
HETATM   17  O   UNL     2      -7.088  10.138  63.453  1.00  0.00    -0.133 OA 
HETATM   18  O   UNL     2      -7.778   8.063  62.343  1.00  0.00    -0.107 OA 
HETATM   19  S   UNL     2      -8.176   9.214  63.147  1.00  0.00    -0.186 S  
HETATM   20  O   UNL     2      -9.397   9.874  62.709  1.00  0.00    -0.285 OA 
ENDBRANCH  11  16
ENDBRANCH  10  11
ENDBRANCH   8  10
ENDBRANCH   4   5
ENDBRANCH   3   4
TORSDOF 6
ENDMDL
MODEL      176
REMARK 921   NORMALIZED FREE ENERGY PREDICTED BY IDOCK:   -3.71 KCAL/MOL
REMARK 922        TOTAL FREE ENERGY PREDICTED BY IDOCK:   -6.21 KCAL/MOL
REMARK 923 INTER-LIGAND FREE ENERGY PREDICTED BY IDOCK:   -5.67 KCAL/MOL
REMARK 924 INTRA-LIGAND FREE ENERGY PREDICTED BY IDOCK:   -0.54 KCAL/MOL
REMARK 927      BINDING AFFINITY PREDICTED BY RF-SCORE:    0.00 PKD
ROOT
HETATM    1 NA   UNL     1     -11.119  10.389  71.223  1.00  0.00    -0.299 Na 
HETATM    2  C   UNL     2     -12.964  13.558  71.830  1.00  0.00    -0.439 C  
HETATM    3  C   UNL     2     -12.723  13.947  70.378  1.00  0.00    -0.286 C  
ENDROOT
BRANCH   3   4
HETATM    4  C   UNL     2     -12.057  12.807  69.609  1.00  0.00    -0.286 C  
BRANCH   4   5
HETATM    5  C   UNL     2     -11.122  13.274  68.489  1.00  0.00    -0.294 C  
HETATM    6  C   UNL     2      -9.735  12.588  68.423  1.00  0.00    -0.189 C  
HETATM    7  C   UNL     2      -9.807  11.045  68.367  1.00  0.00    -0.186 C  
HETATM    8  C   UNL     2      -8.898  13.122  67.235  1.00  0.00    -0.208 C  
HETATM    9  C   UNL     2     -10.427  10.463  67.103  1.00  0.00    -0.311 C  
BRANCH   8  10
HETATM   10  C   UNL     2      -8.643  14.629  67.238  1.00  0.00    -0.231 C  
BRANCH  10  11
HETATM   11  C   UNL     2      -9.184  15.432  66.035  1.00  0.00    -0.298 C  
BRANCH  11  12
HETATM   12  C   UNL     2      -9.876  14.493  65.017  1.00  0.00    -0.056 C  
HETATM   13  C   UNL     2     -11.792  16.046  64.301  1.00  0.00     0.005 C  
HETATM   14  C   UNL     2     -11.402  14.674  64.857  1.00  0.00    -0.403 C  
HETATM   15  C   UNL     2     -11.951  13.590  63.916  1.00  0.00    -0.491 C  
ENDBRANCH  11  12
BRANCH  11  16
HETATM   16  O   UNL     2     -10.147  16.375  66.499  1.00  0.00    -0.270 OA 
HETATM   17  O   UNL     2      -8.695  18.259  65.943  1.00  0.00    -0.500 OA 
HETATM   18  O   UNL     2     -10.901  18.646  66.941  1.00  0.00    -0.356 OA 
HETATM   19  S   UNL     2      -9.666  17.868  66.960  1.00  0.00    -0.312 S  
HETATM   20  O   UNL     2      -9.084  17.676  68.280  1.00  0.00    -0.261 OA 
ENDBRANCH  11  16
ENDBRANCH  10  11
ENDBRANCH   8  10
ENDBRANCH   4   5
ENDBRANCH   3   4
TORSDOF 6
ENDMDL
MODEL      177
REMARK 921   NORMALIZED FREE ENERGY PREDICTED BY IDOCK:   -3.70 KCAL/MOL
REMARK 922        TOTAL FREE ENERGY PREDICTED BY IDOCK:   -6.20 KCAL/MOL
REMARK 923 INTER-LIGAND FREE ENERGY PREDICTED BY IDOCK:   -6.03 KCAL/MOL
REMARK 924 INTRA-LIGAND FREE ENERGY PREDICTED BY IDOCK:   -0.17 KCAL/MOL
REMARK 927      BINDING AFFINITY PREDICTED BY RF-SCORE:    0.00 PKD
ROOT
HETATM    1 NA   UNL     1     -11.770   8.961  67.289  1.00  0.00    -0.380 Na 
HETATM    2  C   UNL     2      -9.907   8.472  70.468  1.00  0.00    -0.206 C  
HETATM    3  C   UNL     2      -8.844   9.437  69.964  1.00  0.00    -0.231 C  
ENDROOT
BRANCH   3   4
HETATM    4  C   UNL     2      -9.260  10.065  68.634  1.00  0.00    -0.152 C  
BRANCH   4   5
HETATM    5  C   UNL     2      -9.587  11.559  68.726  1.00  0.00    -0.112 C  
HETATM    6  C   UNL     2     -11.009  11.977  68.278  1.00  0.00    -0.275 C  
HETATM    7  C   UNL     2     -12.139  11.201  68.992  1.00  0.00    -0.315 C  
HETATM    8  C   UNL     2     -11.227  13.501  68.446  1.00  0.00    -0.309 C  
HETATM    9  C   UNL     2     -12.268  11.460  70.488  1.00  0.00    -0.478 C  
BRANCH   8  10
HETATM   10  C   UNL     2     -10.246  14.391  67.682  1.00  0.00    -0.229 C  
BRANCH  10  11
HETATM   11  C   UNL     2     -10.672  15.856  67.442  1.00  0.00    -0.313 C  
BRANCH  11  12
HETATM   12  C   UNL     2      -9.749  16.828  68.217  1.00  0.00    -0.252 C  
HETATM   13  C   UNL     2     -10.829  19.043  67.495  1.00  0.00    -0.478 C  
HETATM   14  C   UNL     2      -9.542  18.220  67.578  1.00  0.00    -0.282 C  
HETATM   15  C   UNL     2      -8.507  19.010  68.394  1.00  0.00    -0.383 C  
ENDBRANCH  11  12
BRANCH  11  16
HETATM   16  O   UNL     2     -10.564  16.151  66.052  1.00  0.00    -0.319 OA 
HETATM   17  O   UNL     2     -12.566  14.851  65.535  1.00  0.00    -0.021 OA 
HETATM   18  O   UNL     2     -11.325  15.979  63.746  1.00  0.00    -0.497 OA 
HETATM   19  S   UNL     2     -11.264  15.162  64.954  1.00  0.00    -0.394 S  
HETATM   20  O   UNL     2     -10.372  14.014  64.873  1.00  0.00    -0.404 OA 
ENDBRANCH  11  16
ENDBRANCH  10  11
ENDBRANCH   8  10
ENDBRANCH   4   5
ENDBRANCH   3   4
TORSDOF 6
ENDMDL
MODEL      178
REMARK 921   NORMALIZED FREE ENERGY PREDICTED BY IDOCK:   -3.70 KCAL/MOL
REMARK 922        TOTAL FREE ENERGY PREDICTED BY IDOCK:   -6.20 KCAL/MOL
REMARK 923 INTER-LIGAND FREE ENERGY PREDICTED BY IDOCK:   -5.13 KCAL/MOL
REMARK 924 INTRA-LIGAND FREE ENERGY PREDICTED BY IDOCK:   -1.07 KCAL/MOL
REMARK 927      BINDING AFFINITY PREDICTED BY RF-SCORE:    0.00 PKD
ROOT
HETATM    1 NA   UNL     1      -7.637  17.945  66.064  1.00  0.00    -0.195 Na 
HETATM    2  C   UNL     2      -6.328  15.305  68.330  1.00  0.00    -0.107 C  
HETATM    3  C   UNL     2      -7.196  15.869  69.446  1.00  0.00    -0.214 C  
ENDROOT
BRANCH   3   4
HETATM    4  C   UNL     2      -8.100  16.985  68.926  1.00  0.00    -0.210 C  
BRANCH   4   5
HETATM    5  C   UNL     2      -9.388  16.485  68.263  1.00  0.00    -0.217 C  
HETATM    6  C   UNL     2     -10.051  15.242  68.905  1.00  0.00    -0.225 C  
HETATM    7  C   UNL     2     -10.328  15.396  70.418  1.00  0.00    -0.121 C  
HETATM    8  C   UNL     2     -11.355  14.854  68.166  1.00  0.00    -0.326 C  
HETATM    9  C   UNL     2     -11.367  16.446  70.790  1.00  0.00    -0.211 C  
BRANCH   8  10
HETATM   10  C   UNL     2     -11.198  14.549  66.676  1.00  0.00    -0.346 C  
BRANCH  10  11
HETATM   11  C   UNL     2     -11.268  13.064  66.255  1.00  0.00    -0.301 C  
BRANCH  11  12
HETATM   12  C   UNL     2     -11.686  12.175  67.451  1.00  0.00    -0.374 C  
HETATM   13  C   UNL     2      -9.349  11.449  68.227  1.00  0.00    -0.187 C  
HETATM   14  C   UNL     2     -10.742  10.998  67.782  1.00  0.00    -0.270 C  
HETATM   15  C   UNL     2     -11.360  10.144  68.900  1.00  0.00    -0.176 C  
ENDBRANCH  11  12
BRANCH  11  16
HETATM   16  O   UNL     2     -12.244  12.918  65.226  1.00  0.00    -0.423 OA 
HETATM   17  O   UNL     2     -11.067  11.005  64.266  1.00  0.00    -0.242 OA 
HETATM   18  O   UNL     2     -13.143  11.822  63.248  1.00  0.00    -0.598 OA 
HETATM   19  S   UNL     2     -11.849  12.158  63.833  1.00  0.00    -0.487 S  
HETATM   20  O   UNL     2     -11.076  13.140  63.086  1.00  0.00     0.102 OA 
ENDBRANCH  11  16
ENDBRANCH  10  11
ENDBRANCH   8  10
ENDBRANCH   4   5
ENDBRANCH   3   4
TORSDOF 6
ENDMDL
MODEL      179
REMARK 921   NORMALIZED FREE ENERGY PREDICTED BY IDOCK:   -3.70 KCAL/MOL
REMARK 922        TOTAL FREE ENERGY PREDICTED BY IDOCK:   -6.20 KCAL/MOL
REMARK 923 INTER-LIGAND FREE ENERGY PREDICTED BY IDOCK:   -5.25 KCAL/MOL
REMARK 924 INTRA-LIGAND FREE ENERGY PREDICTED BY IDOCK:   -0.95 KCAL/MOL
REMARK 927      BINDING AFFINITY PREDICTED BY RF-SCORE:    0.00 PKD
ROOT
HETATM    1 NA   UNL     1     -10.259  14.639  73.055  1.00  0.00     0.015 Na 
HETATM    2  C   UNL     2     -13.660  13.896  71.752  1.00  0.00    -0.466 C  
HETATM    3  C   UNL     2     -13.545  15.105  70.834  1.00  0.00    -0.397 C  
ENDROOT
BRANCH   3   4
HETATM    4  C   UNL     2     -12.150  15.722  70.914  1.00  0.00    -0.459 C  
BRANCH   4   5
HETATM    5  C   UNL     2     -11.096  14.992  70.075  1.00  0.00    -0.290 C  
HETATM    6  C   UNL     2     -11.184  15.188  68.542  1.00  0.00    -0.301 C  
HETATM    7  C   UNL     2     -11.193  16.671  68.104  1.00  0.00    -0.202 C  
HETATM    8  C   UNL     2     -10.052  14.428  67.810  1.00  0.00    -0.226 C  
HETATM    9  C   UNL     2      -9.906  17.441  68.375  1.00  0.00    -0.316 C  
BRANCH   8  10
HETATM   10  C   UNL     2     -10.008  12.920  68.058  1.00  0.00    -0.236 C  
BRANCH  10  11
HETATM   11  C   UNL     2     -10.034  12.005  66.814  1.00  0.00    -0.201 C  
BRANCH  11  12
HETATM   12  C   UNL     2     -10.295  12.832  65.532  1.00  0.00    -0.301 C  
HETATM   13  C   UNL     2     -12.771  13.385  65.927  1.00  0.00    -0.317 C  
HETATM   14  C   UNL     2     -11.736  12.782  64.975  1.00  0.00    -0.391 C  
HETATM   15  C   UNL     2     -11.796  13.542  63.641  1.00  0.00    -0.383 C  
ENDBRANCH  11  12
BRANCH  11  16
HETATM   16  O   UNL     2      -8.769  11.363  66.682  1.00  0.00    -0.167 OA 
HETATM   17  O   UNL     2      -9.817   9.209  66.205  1.00  0.00    -0.269 OA 
HETATM   18  O   UNL     2      -7.374   9.410  66.275  1.00  0.00    -0.094 OA 
HETATM   19  S   UNL     2      -8.651   9.746  66.898  1.00  0.00    -0.124 S  
HETATM   20  O   UNL     2      -8.694   9.564  68.342  1.00  0.00    -0.123 OA 
ENDBRANCH  11  16
ENDBRANCH  10  11
ENDBRANCH   8  10
ENDBRANCH   4   5
ENDBRANCH   3   4
TORSDOF 6
ENDMDL
MODEL      180
REMARK 921   NORMALIZED FREE ENERGY PREDICTED BY IDOCK:   -3.68 KCAL/MOL
REMARK 922        TOTAL FREE ENERGY PREDICTED BY IDOCK:   -6.18 KCAL/MOL
REMARK 923 INTER-LIGAND FREE ENERGY PREDICTED BY IDOCK:   -5.37 KCAL/MOL
REMARK 924 INTRA-LIGAND FREE ENERGY PREDICTED BY IDOCK:   -0.81 KCAL/MOL
REMARK 927      BINDING AFFINITY PREDICTED BY RF-SCORE:    0.00 PKD
ROOT
HETATM    1 NA   UNL     1      -9.310   6.577  64.884  1.00  0.00    -0.366 Na 
HETATM    2  C   UNL     2     -10.145   7.343  68.424  1.00  0.00    -0.196 C  
HETATM    3  C   UNL     2     -10.344   8.801  68.035  1.00  0.00    -0.273 C  
ENDROOT
BRANCH   3   4
HETATM    4  C   UNL     2     -10.231   8.985  66.523  1.00  0.00    -0.318 C  
BRANCH   4   5
HETATM    5  C   UNL     2     -10.187  10.449  66.075  1.00  0.00    -0.295 C  
HETATM    6  C   UNL     2      -9.313  11.401  66.928  1.00  0.00    -0.191 C  
HETATM    7  C   UNL     2      -7.856  10.917  67.104  1.00  0.00    -0.127 C  
HETATM    8  C   UNL     2      -9.326  12.840  66.359  1.00  0.00    -0.196 C  
HETATM    9  C   UNL     2      -7.017  10.889  65.832  1.00  0.00    -0.029 C  
BRANCH   8  10
HETATM   10  C   UNL     2     -10.706  13.490  66.251  1.00  0.00    -0.288 C  
BRANCH  10  11
HETATM   11  C   UNL     2     -11.172  14.347  67.449  1.00  0.00    -0.325 C  
BRANCH  11  12
HETATM   12  C   UNL     2     -11.973  13.488  68.457  1.00  0.00    -0.379 C  
HETATM   13  C   UNL     2     -12.461  15.303  70.207  1.00  0.00    -0.405 C  
HETATM   14  C   UNL     2     -11.874  13.915  69.939  1.00  0.00    -0.394 C  
HETATM   15  C   UNL     2     -12.612  12.893  70.818  1.00  0.00    -0.314 C  
ENDBRANCH  11  12
BRANCH  11  16
HETATM   16  O   UNL     2     -10.029  14.872  68.118  1.00  0.00    -0.216 OA 
HETATM   17  O   UNL     2     -10.805  17.169  67.819  1.00  0.00    -0.348 OA 
HETATM   18  O   UNL     2      -8.684  16.716  68.965  1.00  0.00    -0.250 OA 
HETATM   19  S   UNL     2      -9.557  16.412  67.835  1.00  0.00    -0.230 S  
HETATM   20  O   UNL     2      -8.889  16.359  66.542  1.00  0.00    -0.227 OA 
ENDBRANCH  11  16
ENDBRANCH  10  11
ENDBRANCH   8  10
ENDBRANCH   4   5
ENDBRANCH   3   4
TORSDOF 6
ENDMDL
MODEL      181
REMARK 921   NORMALIZED FREE ENERGY PREDICTED BY IDOCK:   -3.68 KCAL/MOL
REMARK 922        TOTAL FREE ENERGY PREDICTED BY IDOCK:   -6.18 KCAL/MOL
REMARK 923 INTER-LIGAND FREE ENERGY PREDICTED BY IDOCK:   -5.53 KCAL/MOL
REMARK 924 INTRA-LIGAND FREE ENERGY PREDICTED BY IDOCK:   -0.65 KCAL/MOL
REMARK 927      BINDING AFFINITY PREDICTED BY RF-SCORE:    0.00 PKD
ROOT
HETATM    1 NA   UNL     1      -6.010  15.675  66.922  1.00  0.00    -0.134 Na 
HETATM    2  C   UNL     2      -6.229  18.409  69.430  1.00  0.00    -0.266 C  
HETATM    3  C   UNL     2      -6.725  19.341  68.333  1.00  0.00    -0.295 C  
ENDROOT
BRANCH   3   4
HETATM    4  C   UNL     2      -6.946  18.581  67.027  1.00  0.00    -0.210 C  
BRANCH   4   5
HETATM    5  C   UNL     2      -8.302  17.872  66.940  1.00  0.00    -0.260 C  
HETATM    6  C   UNL     2      -9.422  18.422  67.858  1.00  0.00    -0.299 C  
HETATM    7  C   UNL     2      -9.670  19.939  67.697  1.00  0.00    -0.511 C  
HETATM    8  C   UNL     2     -10.746  17.646  67.658  1.00  0.00    -0.318 C  
HETATM    9  C   UNL     2     -10.227  20.372  66.346  1.00  0.00    -0.338 C  
BRANCH   8  10
HETATM   10  C   UNL     2     -10.669  16.140  67.912  1.00  0.00    -0.321 C  
BRANCH  10  11
HETATM   11  C   UNL     2      -9.995  15.687  69.226  1.00  0.00    -0.265 C  
BRANCH  11  12
HETATM   12  C   UNL     2     -11.010  15.702  70.395  1.00  0.00    -0.366 C  
HETATM   13  C   UNL     2     -12.245  13.515  69.862  1.00  0.00    -0.356 C  
HETATM   14  C   UNL     2     -12.368  15.018  70.121  1.00  0.00    -0.380 C  
HETATM   15  C   UNL     2     -13.301  15.233  71.323  1.00  0.00    -0.586 C  
ENDBRANCH  11  12
BRANCH  11  16
HETATM   16  O   UNL     2      -9.516  14.354  69.068  1.00  0.00    -0.154 OA 
HETATM   17  O   UNL     2      -7.189  15.087  69.177  1.00  0.00    -0.132 OA 
HETATM   18  O   UNL     2      -7.728  12.714  68.873  1.00  0.00    -0.040 OA 
HETATM   19  S   UNL     2      -8.009  14.094  68.490  1.00  0.00    -0.140 S  
HETATM   20  O   UNL     2      -8.121  14.321  67.056  1.00  0.00    -0.162 OA 
ENDBRANCH  11  16
ENDBRANCH  10  11
ENDBRANCH   8  10
ENDBRANCH   4   5
ENDBRANCH   3   4
TORSDOF 6
ENDMDL
MODEL      182
REMARK 921   NORMALIZED FREE ENERGY PREDICTED BY IDOCK:   -3.67 KCAL/MOL
REMARK 922        TOTAL FREE ENERGY PREDICTED BY IDOCK:   -6.16 KCAL/MOL
REMARK 923 INTER-LIGAND FREE ENERGY PREDICTED BY IDOCK:   -5.39 KCAL/MOL
REMARK 924 INTRA-LIGAND FREE ENERGY PREDICTED BY IDOCK:   -0.77 KCAL/MOL
REMARK 927      BINDING AFFINITY PREDICTED BY RF-SCORE:    0.00 PKD
ROOT
HETATM    1 NA   UNL     1      -9.415  13.352  64.171  1.00  0.00    -0.580 Na 
HETATM    2  C   UNL     2     -11.699  14.691  66.779  1.00  0.00    -0.355 C  
HETATM    3  C   UNL     2     -12.135  13.267  67.092  1.00  0.00    -0.352 C  
ENDROOT
BRANCH   3   4
HETATM    4  C   UNL     2     -11.309  12.255  66.301  1.00  0.00    -0.395 C  
BRANCH   4   5
HETATM    5  C   UNL     2     -10.103  11.700  67.067  1.00  0.00    -0.234 C  
HETATM    6  C   UNL     2      -9.970  10.158  67.111  1.00  0.00    -0.243 C  
HETATM    7  C   UNL     2      -9.992   9.491  65.716  1.00  0.00    -0.316 C  
HETATM    8  C   UNL     2      -8.701   9.724  67.884  1.00  0.00    -0.125 C  
HETATM    9  C   UNL     2      -8.804   9.814  64.818  1.00  0.00    -0.239 C  
BRANCH   8  10
HETATM   10  C   UNL     2      -8.615  10.214  69.330  1.00  0.00    -0.180 C  
BRANCH  10  11
HETATM   11  C   UNL     2      -8.912   9.180  70.438  1.00  0.00    -0.229 C  
BRANCH  11  12
HETATM   12  C   UNL     2     -10.080   8.253  70.022  1.00  0.00    -0.196 C  
HETATM   13  C   UNL     2     -11.630   8.663  72.028  1.00  0.00    -0.440 C  
HETATM   14  C   UNL     2     -10.892   7.626  71.179  1.00  0.00    -0.251 C  
HETATM   15  C   UNL     2     -11.921   6.639  70.606  1.00  0.00    -0.404 C  
ENDBRANCH  11  12
BRANCH  11  16
HETATM   16  O   UNL     2      -7.755   8.374  70.646  1.00  0.00    -0.073 OA 
HETATM   17  O   UNL     2      -7.902   8.641  73.070  1.00  0.00    -0.373 OA 
HETATM   18  O   UNL     2      -6.097   7.310  72.076  1.00  0.00    -0.040 OA 
HETATM   19  S   UNL     2      -6.889   8.535  72.024  1.00  0.00    -0.068 S  
HETATM   20  O   UNL     2      -6.118   9.755  71.833  1.00  0.00    -0.295 OA 
ENDBRANCH  11  16
ENDBRANCH  10  11
ENDBRANCH   8  10
ENDBRANCH   4   5
ENDBRANCH   3   4
TORSDOF 6
ENDMDL
MODEL      183
REMARK 921   NORMALIZED FREE ENERGY PREDICTED BY IDOCK:   -3.66 KCAL/MOL
REMARK 922        TOTAL FREE ENERGY PREDICTED BY IDOCK:   -6.14 KCAL/MOL
REMARK 923 INTER-LIGAND FREE ENERGY PREDICTED BY IDOCK:   -5.62 KCAL/MOL
REMARK 924 INTRA-LIGAND FREE ENERGY PREDICTED BY IDOCK:   -0.52 KCAL/MOL
REMARK 927      BINDING AFFINITY PREDICTED BY RF-SCORE:    0.00 PKD
ROOT
HETATM    1 NA   UNL     1      -8.800  10.356  64.363  1.00  0.00    -0.149 Na 
HETATM    2  C   UNL     2      -8.960   9.313  67.927  1.00  0.00    -0.130 C  
HETATM    3  C   UNL     2     -10.220  10.152  68.090  1.00  0.00    -0.200 C  
ENDROOT
BRANCH   3   4
HETATM    4  C   UNL     2     -10.672  10.726  66.748  1.00  0.00    -0.291 C  
BRANCH   4   5
HETATM    5  C   UNL     2     -11.230  12.150  66.837  1.00  0.00    -0.375 C  
HETATM    6  C   UNL     2     -10.495  13.228  66.002  1.00  0.00    -0.289 C  
HETATM    7  C   UNL     2     -10.355  12.867  64.506  1.00  0.00    -0.380 C  
HETATM    8  C   UNL     2     -11.169  14.613  66.151  1.00  0.00    -0.341 C  
HETATM    9  C   UNL     2     -11.661  12.801  63.723  1.00  0.00    -0.548 C  
BRANCH   8  10
HETATM   10  C   UNL     2     -11.257  15.149  67.580  1.00  0.00    -0.331 C  
BRANCH  10  11
HETATM   11  C   UNL     2     -10.079  16.015  68.076  1.00  0.00    -0.240 C  
BRANCH  11  12
HETATM   12  C   UNL     2      -9.246  15.250  69.134  1.00  0.00    -0.234 C  
HETATM   13  C   UNL     2      -7.174  16.768  69.163  1.00  0.00    -0.214 C  
HETATM   14  C   UNL     2      -7.710  15.345  68.984  1.00  0.00    -0.186 C  
HETATM   15  C   UNL     2      -7.037  14.434  70.022  1.00  0.00     0.104 C  
ENDBRANCH  11  12
BRANCH  11  16
HETATM   16  O   UNL     2      -9.229  16.321  66.974  1.00  0.00    -0.205 OA 
HETATM   17  O   UNL     2      -9.166  18.689  67.571  1.00  0.00    -0.277 OA 
HETATM   18  O   UNL     2      -7.946  17.873  65.607  1.00  0.00    -0.527 OA 
HETATM   19  S   UNL     2      -9.183  17.844  66.381  1.00  0.00    -0.201 S  
HETATM   20  O   UNL     2     -10.401  17.969  65.594  1.00  0.00    -0.611 OA 
ENDBRANCH  11  16
ENDBRANCH  10  11
ENDBRANCH   8  10
ENDBRANCH   4   5
ENDBRANCH   3   4
TORSDOF 6
ENDMDL
MODEL      184
REMARK 921   NORMALIZED FREE ENERGY PREDICTED BY IDOCK:   -3.65 KCAL/MOL
REMARK 922        TOTAL FREE ENERGY PREDICTED BY IDOCK:   -6.13 KCAL/MOL
REMARK 923 INTER-LIGAND FREE ENERGY PREDICTED BY IDOCK:   -5.37 KCAL/MOL
REMARK 924 INTRA-LIGAND FREE ENERGY PREDICTED BY IDOCK:   -0.77 KCAL/MOL
REMARK 927      BINDING AFFINITY PREDICTED BY RF-SCORE:    0.00 PKD
ROOT
HETATM    1 NA   UNL     1      -5.835   9.877  68.598  1.00  0.00    -0.039 Na 
HETATM    2  C   UNL     2      -6.971   7.559  71.272  1.00  0.00    -0.050 C  
HETATM    3  C   UNL     2      -8.195   8.440  71.481  1.00  0.00    -0.182 C  
ENDROOT
BRANCH   3   4
HETATM    4  C   UNL     2      -8.254   9.552  70.435  1.00  0.00    -0.220 C  
BRANCH   4   5
HETATM    5  C   UNL     2      -9.666   9.850  69.922  1.00  0.00    -0.274 C  
HETATM    6  C   UNL     2      -9.892   9.677  68.399  1.00  0.00    -0.170 C  
HETATM    7  C   UNL     2      -9.476   8.288  67.862  1.00  0.00    -0.163 C  
HETATM    8  C   UNL     2     -11.359   9.977  68.010  1.00  0.00    -0.069 C  
HETATM    9  C   UNL     2     -10.308   7.115  68.367  1.00  0.00    -0.220 C  
BRANCH   8  10
HETATM   10  C   UNL     2     -11.862  11.374  68.373  1.00  0.00    -0.344 C  
BRANCH  10  11
HETATM   11  C   UNL     2     -11.289  12.557  67.560  1.00  0.00    -0.312 C  
BRANCH  11  12
HETATM   12  C   UNL     2     -11.549  12.357  66.047  1.00  0.00    -0.455 C  
HETATM   13  C   UNL     2     -10.463  14.517  65.181  1.00  0.00    -0.439 C  
HETATM   14  C   UNL     2     -11.722  13.647  65.213  1.00  0.00    -0.349 C  
HETATM   15  C   UNL     2     -12.099  13.278  63.770  1.00  0.00    -0.546 C  
ENDBRANCH  11  12
BRANCH  11  16
HETATM   16  O   UNL     2     -11.935  13.759  67.969  1.00  0.00    -0.361 OA 
HETATM   17  O   UNL     2      -9.892  14.602  69.008  1.00  0.00    -0.221 OA 
HETATM   18  O   UNL     2     -11.952  15.932  69.067  1.00  0.00    -0.378 OA 
HETATM   19  S   UNL     2     -11.335  14.618  69.224  1.00  0.00    -0.302 S  
HETATM   20  O   UNL     2     -11.756  13.882  70.408  1.00  0.00    -0.275 OA 
ENDBRANCH  11  16
ENDBRANCH  10  11
ENDBRANCH   8  10
ENDBRANCH   4   5
ENDBRANCH   3   4
TORSDOF 6
ENDMDL
MODEL      185
REMARK 921   NORMALIZED FREE ENERGY PREDICTED BY IDOCK:   -3.65 KCAL/MOL
REMARK 922        TOTAL FREE ENERGY PREDICTED BY IDOCK:   -6.13 KCAL/MOL
REMARK 923 INTER-LIGAND FREE ENERGY PREDICTED BY IDOCK:   -6.35 KCAL/MOL
REMARK 924 INTRA-LIGAND FREE ENERGY PREDICTED BY IDOCK:    0.22 KCAL/MOL
REMARK 927      BINDING AFFINITY PREDICTED BY RF-SCORE:    0.00 PKD
ROOT
HETATM    1 NA   UNL     1      -6.687   9.231  65.905  1.00  0.00    -0.068 Na 
HETATM    2  C   UNL     2      -9.488   7.248  67.332  1.00  0.00    -0.159 C  
HETATM    3  C   UNL     2     -10.466   8.262  66.756  1.00  0.00    -0.313 C  
ENDROOT
BRANCH   3   4
HETATM    4  C   UNL     2      -9.741   9.292  65.892  1.00  0.00    -0.355 C  
BRANCH   4   5
HETATM    5  C   UNL     2     -10.155  10.741  66.170  1.00  0.00    -0.297 C  
HETATM    6  C   UNL     2      -9.763  11.312  67.555  1.00  0.00    -0.192 C  
HETATM    7  C   UNL     2      -8.257  11.181  67.878  1.00  0.00    -0.121 C  
HETATM    8  C   UNL     2     -10.209  12.787  67.703  1.00  0.00    -0.219 C  
HETATM    9  C   UNL     2      -7.325  12.007  67.000  1.00  0.00    -0.097 C  
BRANCH   8  10
HETATM   10  C   UNL     2     -11.707  13.039  67.533  1.00  0.00    -0.421 C  
BRANCH  10  11
HETATM   11  C   UNL     2     -12.123  14.392  66.914  1.00  0.00    -0.356 C  
BRANCH  11  12
HETATM   12  C   UNL     2     -10.883  15.288  66.675  1.00  0.00    -0.310 C  
HETATM   13  C   UNL     2     -10.722  16.353  69.007  1.00  0.00    -0.322 C  
HETATM   14  C   UNL     2     -10.823  16.595  67.499  1.00  0.00    -0.221 C  
HETATM   15  C   UNL     2      -9.610  17.426  67.053  1.00  0.00    -0.273 C  
ENDBRANCH  11  12
BRANCH  11  16
HETATM   16  O   UNL     2     -12.753  14.156  65.658  1.00  0.00    -0.514 OA 
HETATM   17  O   UNL     2     -10.601  13.934  64.525  1.00  0.00    -0.424 OA 
HETATM   18  O   UNL     2     -12.693  13.713  63.266  1.00  0.00    -0.765 OA 
HETATM   19  S   UNL     2     -11.940  14.455  64.272  1.00  0.00    -0.351 S  
HETATM   20  O   UNL     2     -11.984  15.903  64.125  1.00  0.00    -0.577 OA 
ENDBRANCH  11  16
ENDBRANCH  10  11
ENDBRANCH   8  10
ENDBRANCH   4   5
ENDBRANCH   3   4
TORSDOF 6
ENDMDL
MODEL      186
REMARK 921   NORMALIZED FREE ENERGY PREDICTED BY IDOCK:   -3.65 KCAL/MOL
REMARK 922        TOTAL FREE ENERGY PREDICTED BY IDOCK:   -6.13 KCAL/MOL
REMARK 923 INTER-LIGAND FREE ENERGY PREDICTED BY IDOCK:   -5.41 KCAL/MOL
REMARK 924 INTRA-LIGAND FREE ENERGY PREDICTED BY IDOCK:   -0.72 KCAL/MOL
REMARK 927      BINDING AFFINITY PREDICTED BY RF-SCORE:    0.00 PKD
ROOT
HETATM    1 NA   UNL     1      -7.143  11.309  63.506  1.00  0.00    -0.348 Na 
HETATM    2  C   UNL     2      -7.567   7.687  64.226  1.00  0.00    -0.108 C  
HETATM    3  C   UNL     2      -8.414   8.053  65.437  1.00  0.00    -0.155 C  
ENDROOT
BRANCH   3   4
HETATM    4  C   UNL     2      -8.661   9.560  65.497  1.00  0.00    -0.163 C  
BRANCH   4   5
HETATM    5  C   UNL     2     -10.030   9.945  66.067  1.00  0.00    -0.338 C  
HETATM    6  C   UNL     2     -10.324  11.461  66.178  1.00  0.00    -0.294 C  
HETATM    7  C   UNL     2     -10.129  12.232  64.853  1.00  0.00    -0.274 C  
HETATM    8  C   UNL     2     -11.744  11.720  66.737  1.00  0.00    -0.197 C  
HETATM    9  C   UNL     2     -11.106  11.875  63.739  1.00  0.00    -0.510 C  
BRANCH   8  10
HETATM   10  C   UNL     2     -12.029  11.115  68.112  1.00  0.00    -0.131 C  
BRANCH  10  11
HETATM   11  C   UNL     2     -11.327  11.768  69.323  1.00  0.00    -0.286 C  
BRANCH  11  12
HETATM   12  C   UNL     2     -12.166  12.948  69.870  1.00  0.00    -0.258 C  
HETATM   13  C   UNL     2     -11.265  14.804  68.341  1.00  0.00    -0.298 C  
HETATM   14  C   UNL     2     -11.510  14.344  69.780  1.00  0.00    -0.328 C  
HETATM   15  C   UNL     2     -12.407  15.378  70.478  1.00  0.00    -0.452 C  
ENDBRANCH  11  12
BRANCH  11  16
HETATM   16  O   UNL     2     -11.188  10.799  70.359  1.00  0.00    -0.292 OA 
HETATM   17  O   UNL     2      -8.919  10.241  69.648  1.00  0.00    -0.190 OA 
HETATM   18  O   UNL     2      -9.936   9.094  71.563  1.00  0.00    -0.312 OA 
HETATM   19  S   UNL     2     -10.101   9.588  70.199  1.00  0.00    -0.265 S  
HETATM   20  O   UNL     2     -10.731   8.649  69.281  1.00  0.00    -0.213 OA 
ENDBRANCH  11  16
ENDBRANCH  10  11
ENDBRANCH   8  10
ENDBRANCH   4   5
ENDBRANCH   3   4
TORSDOF 6
ENDMDL
MODEL      187
REMARK 921   NORMALIZED FREE ENERGY PREDICTED BY IDOCK:   -3.63 KCAL/MOL
REMARK 922        TOTAL FREE ENERGY PREDICTED BY IDOCK:   -6.11 KCAL/MOL
REMARK 923 INTER-LIGAND FREE ENERGY PREDICTED BY IDOCK:   -6.60 KCAL/MOL
REMARK 924 INTRA-LIGAND FREE ENERGY PREDICTED BY IDOCK:    0.48 KCAL/MOL
REMARK 927      BINDING AFFINITY PREDICTED BY RF-SCORE:    0.00 PKD
ROOT
HETATM    1 NA   UNL     1     -14.409   9.592  69.877  1.00  0.00    -0.580 Na 
HETATM    2  C   UNL     2     -10.950   8.781  70.968  1.00  0.00    -0.328 C  
HETATM    3  C   UNL     2     -10.444   9.968  70.160  1.00  0.00    -0.338 C  
ENDROOT
BRANCH   3   4
HETATM    4  C   UNL     2     -11.607  10.771  69.579  1.00  0.00    -0.375 C  
BRANCH   4   5
HETATM    5  C   UNL     2     -11.201  11.737  68.462  1.00  0.00    -0.306 C  
HETATM    6  C   UNL     2      -9.763  11.580  67.910  1.00  0.00    -0.187 C  
HETATM    7  C   UNL     2      -9.430  10.146  67.439  1.00  0.00    -0.175 C  
HETATM    8  C   UNL     2      -9.483  12.589  66.770  1.00  0.00    -0.231 C  
HETATM    9  C   UNL     2     -10.213   9.658  66.225  1.00  0.00    -0.286 C  
BRANCH   8  10
HETATM   10  C   UNL     2      -9.653  14.062  67.142  1.00  0.00    -0.245 C  
BRANCH  10  11
HETATM   11  C   UNL     2     -11.067  14.664  66.991  1.00  0.00    -0.333 C  
BRANCH  11  12
HETATM   12  C   UNL     2     -11.382  15.624  68.165  1.00  0.00    -0.340 C  
HETATM   13  C   UNL     2      -9.004  15.877  69.102  1.00  0.00    -0.256 C  
HETATM   14  C   UNL     2     -10.460  15.508  69.400  1.00  0.00    -0.253 C  
HETATM   15  C   UNL     2     -10.980  16.428  70.515  1.00  0.00    -0.164 C  
ENDBRANCH  11  12
BRANCH  11  16
HETATM   16  O   UNL     2     -11.130  15.407  65.777  1.00  0.00    -0.324 OA 
HETATM   17  O   UNL     2     -13.257  14.378  65.159  1.00  0.00    -0.602 OA 
HETATM   18  O   UNL     2     -12.203  16.027  63.682  1.00  0.00    -0.743 OA 
HETATM   19  S   UNL     2     -12.029  14.851  64.529  1.00  0.00    -0.337 S  
HETATM   20  O   UNL     2     -11.225  13.788  63.943  1.00  0.00    -0.194 OA 
ENDBRANCH  11  16
ENDBRANCH  10  11
ENDBRANCH   8  10
ENDBRANCH   4   5
ENDBRANCH   3   4
TORSDOF 6
ENDMDL
MODEL      188
REMARK 921   NORMALIZED FREE ENERGY PREDICTED BY IDOCK:   -3.63 KCAL/MOL
REMARK 922        TOTAL FREE ENERGY PREDICTED BY IDOCK:   -6.11 KCAL/MOL
REMARK 923 INTER-LIGAND FREE ENERGY PREDICTED BY IDOCK:   -5.31 KCAL/MOL
REMARK 924 INTRA-LIGAND FREE ENERGY PREDICTED BY IDOCK:   -0.80 KCAL/MOL
REMARK 927      BINDING AFFINITY PREDICTED BY RF-SCORE:    0.00 PKD
ROOT
HETATM    1 NA   UNL     1      -7.300  12.121  65.961  1.00  0.00    -0.354 Na 
HETATM    2  C   UNL     2      -9.416  11.590  62.952  1.00  0.00    -0.309 C  
HETATM    3  C   UNL     2      -9.404  10.096  63.238  1.00  0.00    -0.332 C  
ENDROOT
BRANCH   3   4
HETATM    4  C   UNL     2      -8.709   9.798  64.566  1.00  0.00    -0.222 C  
BRANCH   4   5
HETATM    5  C   UNL     2      -9.659   9.341  65.678  1.00  0.00    -0.324 C  
HETATM    6  C   UNL     2      -9.631  10.169  66.986  1.00  0.00    -0.209 C  
HETATM    7  C   UNL     2      -9.852  11.683  66.768  1.00  0.00    -0.222 C  
HETATM    8  C   UNL     2     -10.652   9.629  68.017  1.00  0.00    -0.292 C  
HETATM    9  C   UNL     2     -11.234  12.077  66.258  1.00  0.00    -0.394 C  
BRANCH   8  10
HETATM   10  C   UNL     2     -10.465   8.166  68.419  1.00  0.00    -0.205 C  
BRANCH  10  11
HETATM   11  C   UNL     2     -10.490   7.848  69.930  1.00  0.00    -0.229 C  
BRANCH  11  12
HETATM   12  C   UNL     2     -11.603   8.655  70.642  1.00  0.00    -0.225 C  
HETATM   13  C   UNL     2     -11.128   7.921  73.056  1.00  0.00    -0.379 C  
HETATM   14  C   UNL     2     -12.167   8.032  71.939  1.00  0.00    -0.359 C  
HETATM   15  C   UNL     2     -13.343   8.882  72.445  1.00  0.00    -0.488 C  
ENDBRANCH  11  12
BRANCH  11  16
HETATM   16  O   UNL     2     -10.759   6.460  70.110  1.00  0.00    -0.228 OA 
HETATM   17  O   UNL     2      -8.689   6.133  71.364  1.00  0.00    -0.134 OA 
HETATM   18  O   UNL     2     -10.198   4.245  70.947  1.00  0.00    -0.140 OA 
HETATM   19  S   UNL     2      -9.530   5.424  70.405  1.00  0.00    -0.173 S  
HETATM   20  O   UNL     2      -8.897   5.226  69.108  1.00  0.00    -0.099 OA 
ENDBRANCH  11  16
ENDBRANCH  10  11
ENDBRANCH   8  10
ENDBRANCH   4   5
ENDBRANCH   3   4
TORSDOF 6
ENDMDL
MODEL      189
REMARK 921   NORMALIZED FREE ENERGY PREDICTED BY IDOCK:   -3.63 KCAL/MOL
REMARK 922        TOTAL FREE ENERGY PREDICTED BY IDOCK:   -6.10 KCAL/MOL
REMARK 923 INTER-LIGAND FREE ENERGY PREDICTED BY IDOCK:   -5.24 KCAL/MOL
REMARK 924 INTRA-LIGAND FREE ENERGY PREDICTED BY IDOCK:   -0.86 KCAL/MOL
REMARK 927      BINDING AFFINITY PREDICTED BY RF-SCORE:    0.00 PKD
ROOT
HETATM    1 NA   UNL     1     -10.203  14.999  67.747  1.00  0.00    -0.219 Na 
HETATM    2  C   UNL     2     -11.666  13.902  64.511  1.00  0.00    -0.430 C  
HETATM    3  C   UNL     2     -12.263  12.695  65.219  1.00  0.00    -0.532 C  
ENDROOT
BRANCH   3   4
HETATM    4  C   UNL     2     -12.028  12.772  66.727  1.00  0.00    -0.389 C  
BRANCH   4   5
HETATM    5  C   UNL     2     -11.430  11.497  67.331  1.00  0.00    -0.349 C  
HETATM    6  C   UNL     2     -10.084  11.020  66.730  1.00  0.00    -0.260 C  
HETATM    7  C   UNL     2      -8.983  12.105  66.731  1.00  0.00    -0.203 C  
HETATM    8  C   UNL     2      -9.571   9.745  67.441  1.00  0.00    -0.187 C  
HETATM    9  C   UNL     2      -8.496  12.542  68.107  1.00  0.00    -0.180 C  
BRANCH   8  10
HETATM   10  C   UNL     2     -10.518   8.546  67.403  1.00  0.00    -0.351 C  
BRANCH  10  11
HETATM   11  C   UNL     2     -10.899   7.912  68.759  1.00  0.00     0.046 C  
BRANCH  11  12
HETATM   12  C   UNL     2     -10.716   6.375  68.715  1.00  0.00    -0.339 C  
HETATM   13  C   UNL     2      -8.166   6.299  68.419  1.00  0.00    -0.116 C  
HETATM   14  C   UNL     2      -9.527   5.859  67.874  1.00  0.00    -0.112 C  
HETATM   15  C   UNL     2      -9.562   4.323  67.826  1.00  0.00    -0.210 C  
ENDBRANCH  11  12
BRANCH  11  16
HETATM   16  O   UNL     2     -10.046   8.435  69.774  1.00  0.00    -0.189 OA 
HETATM   17  O   UNL     2     -11.778   8.182  71.478  1.00  0.00    -0.268 OA 
HETATM   18  O   UNL     2      -9.583   9.104  72.067  1.00  0.00    -0.300 OA 
HETATM   19  S   UNL     2     -10.695   9.094  71.122  1.00  0.00    -0.338 S  
HETATM   20  O   UNL     2     -11.154  10.410  70.702  1.00  0.00    -0.313 OA 
ENDBRANCH  11  16
ENDBRANCH  10  11
ENDBRANCH   8  10
ENDBRANCH   4   5
ENDBRANCH   3   4
TORSDOF 6
ENDMDL
MODEL      190
REMARK 921   NORMALIZED FREE ENERGY PREDICTED BY IDOCK:   -3.62 KCAL/MOL
REMARK 922        TOTAL FREE ENERGY PREDICTED BY IDOCK:   -6.10 KCAL/MOL
REMARK 923 INTER-LIGAND FREE ENERGY PREDICTED BY IDOCK:   -5.62 KCAL/MOL
REMARK 924 INTRA-LIGAND FREE ENERGY PREDICTED BY IDOCK:   -0.48 KCAL/MOL
REMARK 927      BINDING AFFINITY PREDICTED BY RF-SCORE:    0.00 PKD
ROOT
HETATM    1 NA   UNL     1     -12.313  15.837  63.439  1.00  0.00    -0.835 Na 
HETATM    2  C   UNL     2     -12.163  12.124  63.355  1.00  0.00    -0.635 C  
HETATM    3  C   UNL     2     -12.327  12.108  64.868  1.00  0.00    -0.259 C  
ENDROOT
BRANCH   3   4
HETATM    4  C   UNL     2     -12.582  13.515  65.406  1.00  0.00    -0.531 C  
BRANCH   4   5
HETATM    5  C   UNL     2     -11.633  13.933  66.533  1.00  0.00    -0.385 C  
HETATM    6  C   UNL     2     -10.201  14.340  66.106  1.00  0.00    -0.317 C  
HETATM    7  C   UNL     2     -10.164  15.443  65.023  1.00  0.00    -0.295 C  
HETATM    8  C   UNL     2      -9.350  14.769  67.326  1.00  0.00    -0.211 C  
HETATM    9  C   UNL     2     -10.686  16.806  65.459  1.00  0.00    -0.206 C  
BRANCH   8  10
HETATM   10  C   UNL     2      -9.198  13.715  68.423  1.00  0.00    -0.169 C  
BRANCH  10  11
HETATM   11  C   UNL     2      -9.200  12.236  67.977  1.00  0.00    -0.195 C  
BRANCH  11  12
HETATM   12  C   UNL     2      -7.825  11.840  67.388  1.00  0.00    -0.155 C  
HETATM   13  C   UNL     2      -6.445  11.909  69.553  1.00  0.00    -0.113 C  
HETATM   14  C   UNL     2      -6.587  12.413  68.115  1.00  0.00    -0.073 C  
HETATM   15  C   UNL     2      -5.316  12.038  67.337  1.00  0.00    -0.112 C  
ENDBRANCH  11  12
BRANCH  11  16
HETATM   16  O   UNL     2      -9.457  11.409  69.109  1.00  0.00    -0.037 OA 
HETATM   17  O   UNL     2     -11.269  10.247  67.956  1.00  0.00    -0.293 OA 
HETATM   18  O   UNL     2     -10.683   9.650  70.261  1.00  0.00    -0.237 OA 
HETATM   19  S   UNL     2     -10.926  10.717  69.294  1.00  0.00    -0.264 S  
HETATM   20  O   UNL     2     -11.782  11.793  69.773  1.00  0.00    -0.301 OA 
ENDBRANCH  11  16
ENDBRANCH  10  11
ENDBRANCH   8  10
ENDBRANCH   4   5
ENDBRANCH   3   4
TORSDOF 6
ENDMDL
MODEL      191
REMARK 921   NORMALIZED FREE ENERGY PREDICTED BY IDOCK:   -3.62 KCAL/MOL
REMARK 922        TOTAL FREE ENERGY PREDICTED BY IDOCK:   -6.10 KCAL/MOL
REMARK 923 INTER-LIGAND FREE ENERGY PREDICTED BY IDOCK:   -5.21 KCAL/MOL
REMARK 924 INTRA-LIGAND FREE ENERGY PREDICTED BY IDOCK:   -0.88 KCAL/MOL
REMARK 927      BINDING AFFINITY PREDICTED BY RF-SCORE:    0.00 PKD
ROOT
HETATM    1 NA   UNL     1     -11.967   6.879  68.538  1.00  0.00    -0.503 Na 
HETATM    2  C   UNL     2     -12.499   9.096  71.473  1.00  0.00    -0.418 C  
HETATM    3  C   UNL     2     -11.215   8.554  72.084  1.00  0.00    -0.432 C  
ENDROOT
BRANCH   3   4
HETATM    4  C   UNL     2     -10.495   7.624  71.109  1.00  0.00    -0.220 C  
BRANCH   4   5
HETATM    5  C   UNL     2      -9.802   8.350  69.951  1.00  0.00    -0.186 C  
HETATM    6  C   UNL     2      -8.732   9.398  70.342  1.00  0.00    -0.278 C  
HETATM    7  C   UNL     2      -7.633   8.846  71.279  1.00  0.00    -0.132 C  
HETATM    8  C   UNL     2      -8.086  10.038  69.089  1.00  0.00    -0.126 C  
HETATM    9  C   UNL     2      -6.725   7.785  70.668  1.00  0.00    -0.038 C  
BRANCH   8  10
HETATM   10  C   UNL     2      -9.056  10.735  68.135  1.00  0.00    -0.151 C  
BRANCH  10  11
HETATM   11  C   UNL     2      -9.190  12.268  68.271  1.00  0.00    -0.189 C  
BRANCH  11  12
HETATM   12  C   UNL     2      -7.819  12.957  68.070  1.00  0.00    -0.149 C  
HETATM   13  C   UNL     2      -8.367  15.226  69.141  1.00  0.00    -0.233 C  
HETATM   14  C   UNL     2      -7.851  14.493  67.901  1.00  0.00    -0.153 C  
HETATM   15  C   UNL     2      -6.437  15.003  67.584  1.00  0.00    -0.175 C  
ENDBRANCH  11  12
BRANCH  11  16
HETATM   16  O   UNL     2     -10.082  12.748  67.268  1.00  0.00    -0.222 OA 
HETATM   17  O   UNL     2     -11.668  13.550  68.944  1.00  0.00    -0.293 OA 
HETATM   18  O   UNL     2     -12.146  13.822  66.554  1.00  0.00    -0.414 OA 
HETATM   19  S   UNL     2     -11.668  12.944  67.617  1.00  0.00    -0.359 S  
HETATM   20  O   UNL     2     -12.219  11.596  67.591  1.00  0.00    -0.544 OA 
ENDBRANCH  11  16
ENDBRANCH  10  11
ENDBRANCH   8  10
ENDBRANCH   4   5
ENDBRANCH   3   4
TORSDOF 6
ENDMDL
MODEL      192
REMARK 921   NORMALIZED FREE ENERGY PREDICTED BY IDOCK:   -3.61 KCAL/MOL
REMARK 922        TOTAL FREE ENERGY PREDICTED BY IDOCK:   -6.09 KCAL/MOL
REMARK 923 INTER-LIGAND FREE ENERGY PREDICTED BY IDOCK:   -6.21 KCAL/MOL
REMARK 924 INTRA-LIGAND FREE ENERGY PREDICTED BY IDOCK:    0.12 KCAL/MOL
REMARK 927      BINDING AFFINITY PREDICTED BY RF-SCORE:    0.00 PKD
ROOT
HETATM    1 NA   UNL     1     -12.054  15.463  64.929  1.00  0.00    -0.340 Na 
HETATM    2  C   UNL     2      -8.723  15.565  66.574  1.00  0.00    -0.340 C  
HETATM    3  C   UNL     2      -9.357  16.278  67.759  1.00  0.00    -0.216 C  
ENDROOT
BRANCH   3   4
HETATM    4  C   UNL     2     -10.875  16.360  67.601  1.00  0.00    -0.280 C  
BRANCH   4   5
HETATM    5  C   UNL     2     -11.600  15.034  67.854  1.00  0.00    -0.350 C  
HETATM    6  C   UNL     2     -11.110  14.206  69.068  1.00  0.00    -0.292 C  
HETATM    7  C   UNL     2     -11.094  14.998  70.395  1.00  0.00    -0.263 C  
HETATM    8  C   UNL     2     -11.937  12.909  69.236  1.00  0.00    -0.313 C  
HETATM    9  C   UNL     2     -12.460  15.419  70.923  1.00  0.00    -0.474 C  
BRANCH   8  10
HETATM   10  C   UNL     2     -11.933  11.968  68.032  1.00  0.00    -0.214 C  
BRANCH  10  11
HETATM   11  C   UNL     2     -10.555  11.485  67.526  1.00  0.00    -0.206 C  
BRANCH  11  12
HETATM   12  C   UNL     2     -10.645  10.033  66.997  1.00  0.00    -0.279 C  
HETATM   13  C   UNL     2     -10.333   8.793  69.225  1.00  0.00    -0.221 C  
HETATM   14  C   UNL     2      -9.841   8.974  67.787  1.00  0.00    -0.209 C  
HETATM   15  C   UNL     2      -9.929   7.621  67.065  1.00  0.00    -0.310 C  
ENDBRANCH  11  12
BRANCH  11  16
HETATM   16  O   UNL     2     -10.132  12.325  66.455  1.00  0.00    -0.218 OA 
HETATM   17  O   UNL     2     -12.380  12.384  65.501  1.00  0.00    -0.621 OA 
HETATM   18  O   UNL     2     -10.541  13.591  64.417  1.00  0.00    -0.419 OA 
HETATM   19  S   UNL     2     -10.988  12.361  65.062  1.00  0.00    -0.310 S  
HETATM   20  O   UNL     2     -10.615  11.136  64.370  1.00  0.00    -0.335 OA 
ENDBRANCH  11  16
ENDBRANCH  10  11
ENDBRANCH   8  10
ENDBRANCH   4   5
ENDBRANCH   3   4
TORSDOF 6
ENDMDL
MODEL      193
REMARK 921   NORMALIZED FREE ENERGY PREDICTED BY IDOCK:   -3.61 KCAL/MOL
REMARK 922        TOTAL FREE ENERGY PREDICTED BY IDOCK:   -6.08 KCAL/MOL
REMARK 923 INTER-LIGAND FREE ENERGY PREDICTED BY IDOCK:   -5.38 KCAL/MOL
REMARK 924 INTRA-LIGAND FREE ENERGY PREDICTED BY IDOCK:   -0.71 KCAL/MOL
REMARK 927      BINDING AFFINITY PREDICTED BY RF-SCORE:    0.00 PKD
ROOT
HETATM    1 NA   UNL     1     -14.363   9.797  69.923  1.00  0.00    -0.667 Na 
HETATM    2  C   UNL     2     -12.003   8.361  72.409  1.00  0.00    -0.451 C  
HETATM    3  C   UNL     2     -10.869   9.116  71.732  1.00  0.00    -0.416 C  
ENDROOT
BRANCH   3   4
HETATM    4  C   UNL     2     -11.402  10.036  70.635  1.00  0.00    -0.425 C  
BRANCH   4   5
HETATM    5  C   UNL     2     -10.663   9.906  69.299  1.00  0.00    -0.247 C  
HETATM    6  C   UNL     2     -11.325  10.595  68.080  1.00  0.00    -0.354 C  
HETATM    7  C   UNL     2     -11.635  12.092  68.305  1.00  0.00    -0.382 C  
HETATM    8  C   UNL     2     -10.471  10.419  66.801  1.00  0.00    -0.287 C  
HETATM    9  C   UNL     2     -10.419  12.997  68.467  1.00  0.00    -0.261 C  
BRANCH   8  10
HETATM   10  C   UNL     2     -10.195   8.972  66.391  1.00  0.00    -0.297 C  
BRANCH  10  11
HETATM   11  C   UNL     2      -8.809   8.394  66.755  1.00  0.00    -0.138 C  
BRANCH  11  12
HETATM   12  C   UNL     2      -8.940   7.308  67.850  1.00  0.00    -0.130 C  
HETATM   13  C   UNL     2     -10.787   5.890  66.768  1.00  0.00    -0.347 C  
HETATM   14  C   UNL     2     -10.338   6.669  68.007  1.00  0.00    -0.226 C  
HETATM   15  C   UNL     2     -10.334   5.714  69.210  1.00  0.00    -0.340 C  
ENDBRANCH  11  12
BRANCH  11  16
HETATM   16  O   UNL     2      -8.236   7.794  65.597  1.00  0.00    -0.120 OA 
HETATM   17  O   UNL     2      -6.116   8.957  65.940  1.00  0.00    -0.051 OA 
HETATM   18  O   UNL     2      -6.407   7.449  64.028  1.00  0.00    -0.047 OA 
HETATM   19  S   UNL     2      -6.975   8.516  64.846  1.00  0.00    -0.073 S  
HETATM   20  O   UNL     2      -7.573   9.611  64.095  1.00  0.00    -0.117 OA 
ENDBRANCH  11  16
ENDBRANCH  10  11
ENDBRANCH   8  10
ENDBRANCH   4   5
ENDBRANCH   3   4
TORSDOF 6
ENDMDL
MODEL      194
REMARK 921   NORMALIZED FREE ENERGY PREDICTED BY IDOCK:   -3.61 KCAL/MOL
REMARK 922        TOTAL FREE ENERGY PREDICTED BY IDOCK:   -6.08 KCAL/MOL
REMARK 923 INTER-LIGAND FREE ENERGY PREDICTED BY IDOCK:   -5.12 KCAL/MOL
REMARK 924 INTRA-LIGAND FREE ENERGY PREDICTED BY IDOCK:   -0.96 KCAL/MOL
REMARK 927      BINDING AFFINITY PREDICTED BY RF-SCORE:    0.00 PKD
ROOT
HETATM    1 NA   UNL     1     -10.370  17.500  68.923  1.00  0.00    -0.250 Na 
HETATM    2  C   UNL     2     -12.838  15.310  70.635  1.00  0.00    -0.462 C  
HETATM    3  C   UNL     2     -12.335  14.138  69.804  1.00  0.00    -0.350 C  
ENDROOT
BRANCH   3   4
HETATM    4  C   UNL     2     -11.124  14.540  68.965  1.00  0.00    -0.279 C  
BRANCH   4   5
HETATM    5  C   UNL     2     -10.650  13.455  67.993  1.00  0.00    -0.252 C  
HETATM    6  C   UNL     2     -11.700  12.939  66.978  1.00  0.00    -0.447 C  
HETATM    7  C   UNL     2     -12.365  14.060  66.148  1.00  0.00    -0.491 C  
HETATM    8  C   UNL     2     -11.094  11.871  66.036  1.00  0.00    -0.369 C  
HETATM    9  C   UNL     2     -11.441  14.801  65.189  1.00  0.00    -0.371 C  
BRANCH   8  10
HETATM   10  C   UNL     2     -10.511  10.639  66.729  1.00  0.00    -0.303 C  
BRANCH  10  11
HETATM   11  C   UNL     2      -9.134  10.144  66.234  1.00  0.00    -0.154 C  
BRANCH  11  12
HETATM   12  C   UNL     2      -9.228   9.636  64.775  1.00  0.00    -0.298 C  
HETATM   13  C   UNL     2      -7.597   7.660  64.951  1.00  0.00    -0.099 C  
HETATM   14  C   UNL     2      -7.961   8.951  64.214  1.00  0.00    -0.146 C  
HETATM   15  C   UNL     2      -8.170   8.625  62.727  1.00  0.00    -0.188 C  
ENDBRANCH  11  12
BRANCH  11  16
HETATM   16  O   UNL     2      -8.209  11.228  66.272  1.00  0.00    -0.169 OA 
HETATM   17  O   UNL     2      -6.542   9.874  67.435  1.00  0.00    -0.068 OA 
HETATM   18  O   UNL     2      -6.067  12.214  66.875  1.00  0.00    -0.182 OA 
HETATM   19  S   UNL     2      -7.028  11.249  67.402  1.00  0.00    -0.109 S  
HETATM   20  O   UNL     2      -7.699  11.661  68.627  1.00  0.00    -0.130 OA 
ENDBRANCH  11  16
ENDBRANCH  10  11
ENDBRANCH   8  10
ENDBRANCH   4   5
ENDBRANCH   3   4
TORSDOF 6
ENDMDL
MODEL      195
REMARK 921   NORMALIZED FREE ENERGY PREDICTED BY IDOCK:   -3.57 KCAL/MOL
REMARK 922        TOTAL FREE ENERGY PREDICTED BY IDOCK:   -6.03 KCAL/MOL
REMARK 923 INTER-LIGAND FREE ENERGY PREDICTED BY IDOCK:   -5.22 KCAL/MOL
REMARK 924 INTRA-LIGAND FREE ENERGY PREDICTED BY IDOCK:   -0.82 KCAL/MOL
REMARK 927      BINDING AFFINITY PREDICTED BY RF-SCORE:    0.00 PKD
ROOT
HETATM    1 NA   UNL     1     -13.012   6.709  69.724  1.00  0.00    -0.621 Na 
HETATM    2  C   UNL     2     -12.799   9.840  71.716  1.00  0.00    -0.530 C  
HETATM    3  C   UNL     2     -11.421  10.095  71.122  1.00  0.00    -0.387 C  
ENDROOT
BRANCH   3   4
HETATM    4  C   UNL     2     -11.087   9.059  70.049  1.00  0.00    -0.197 C  
BRANCH   4   5
HETATM    5  C   UNL     2     -11.146   9.603  68.618  1.00  0.00    -0.085 C  
HETATM    6  C   UNL     2      -9.859   9.445  67.772  1.00  0.00    -0.207 C  
HETATM    7  C   UNL     2      -9.332   7.994  67.704  1.00  0.00    -0.162 C  
HETATM    8  C   UNL     2     -10.054  10.004  66.341  1.00  0.00    -0.307 C  
HETATM    9  C   UNL     2     -10.230   7.005  66.971  1.00  0.00    -0.330 C  
BRANCH   8  10
HETATM   10  C   UNL     2     -10.455  11.477  66.261  1.00  0.00    -0.294 C  
BRANCH  10  11
HETATM   11  C   UNL     2      -9.629  12.473  67.104  1.00  0.00    -0.208 C  
BRANCH  11  12
HETATM   12  C   UNL     2      -8.115  12.287  66.844  1.00  0.00    -0.090 C  
HETATM   13  C   UNL     2      -7.461  11.251  69.102  1.00  0.00    -0.084 C  
HETATM   14  C   UNL     2      -7.200  12.367  68.087  1.00  0.00    -0.100 C  
HETATM   15  C   UNL     2      -5.729  12.293  67.647  1.00  0.00    -0.113 C  
ENDBRANCH  11  12
BRANCH  11  16
HETATM   16  O   UNL     2      -9.986  13.803  66.735  1.00  0.00    -0.256 OA 
HETATM   17  O   UNL     2     -10.863  14.278  68.964  1.00  0.00    -0.247 OA 
HETATM   18  O   UNL     2     -10.930  15.994  67.214  1.00  0.00    -0.300 OA 
HETATM   19  S   UNL     2     -11.148  14.595  67.569  1.00  0.00    -0.325 S  
HETATM   20  O   UNL     2     -12.398  14.028  67.084  1.00  0.00    -0.373 OA 
ENDBRANCH  11  16
ENDBRANCH  10  11
ENDBRANCH   8  10
ENDBRANCH   4   5
ENDBRANCH   3   4
TORSDOF 6
ENDMDL
MODEL      196
REMARK 921   NORMALIZED FREE ENERGY PREDICTED BY IDOCK:   -3.57 KCAL/MOL
REMARK 922        TOTAL FREE ENERGY PREDICTED BY IDOCK:   -6.03 KCAL/MOL
REMARK 923 INTER-LIGAND FREE ENERGY PREDICTED BY IDOCK:   -5.21 KCAL/MOL
REMARK 924 INTRA-LIGAND FREE ENERGY PREDICTED BY IDOCK:   -0.82 KCAL/MOL
REMARK 927      BINDING AFFINITY PREDICTED BY RF-SCORE:    0.00 PKD
ROOT
HETATM    1 NA   UNL     1      -7.632   7.513  66.603  1.00  0.00    -0.078 Na 
HETATM    2  C   UNL     2      -7.236   8.005  70.266  1.00  0.00    -0.053 C  
HETATM    3  C   UNL     2      -8.714   8.355  70.353  1.00  0.00    -0.142 C  
ENDROOT
BRANCH   3   4
HETATM    4  C   UNL     2      -9.406   8.151  69.007  1.00  0.00    -0.147 C  
BRANCH   4   5
HETATM    5  C   UNL     2     -10.450   9.222  68.674  1.00  0.00    -0.236 C  
HETATM    6  C   UNL     2      -9.910  10.536  68.056  1.00  0.00    -0.166 C  
HETATM    7  C   UNL     2      -9.037  10.319  66.799  1.00  0.00    -0.161 C  
HETATM    8  C   UNL     2     -11.060  11.522  67.737  1.00  0.00    -0.319 C  
HETATM    9  C   UNL     2      -9.766   9.759  65.584  1.00  0.00    -0.357 C  
BRANCH   8  10
HETATM   10  C   UNL     2     -11.930  11.922  68.929  1.00  0.00    -0.313 C  
BRANCH  10  11
HETATM   11  C   UNL     2     -11.895  13.406  69.354  1.00  0.00    -0.335 C  
BRANCH  11  12
HETATM   12  C   UNL     2     -11.923  13.535  70.897  1.00  0.00    -0.179 C  
HETATM   13  C   UNL     2     -14.015  15.007  71.123  1.00  0.00    -0.451 C  
HETATM   14  C   UNL     2     -12.530  14.841  71.457  1.00  0.00    -0.403 C  
HETATM   15  C   UNL     2     -12.365  14.869  72.984  1.00  0.00    -0.448 C  
ENDBRANCH  11  12
BRANCH  11  16
HETATM   16  O   UNL     2     -10.689  13.999  68.878  1.00  0.00    -0.249 OA 
HETATM   17  O   UNL     2     -11.762  16.178  68.622  1.00  0.00    -0.362 OA 
HETATM   18  O   UNL     2      -9.398  15.885  68.042  1.00  0.00    -0.199 OA 
HETATM   19  S   UNL     2     -10.755  15.353  67.964  1.00  0.00    -0.288 S  
HETATM   20  O   UNL     2     -11.154  14.886  66.644  1.00  0.00    -0.322 OA 
ENDBRANCH  11  16
ENDBRANCH  10  11
ENDBRANCH   8  10
ENDBRANCH   4   5
ENDBRANCH   3   4
TORSDOF 6
ENDMDL
MODEL      197
REMARK 921   NORMALIZED FREE ENERGY PREDICTED BY IDOCK:   -3.55 KCAL/MOL
REMARK 922        TOTAL FREE ENERGY PREDICTED BY IDOCK:   -6.01 KCAL/MOL
REMARK 923 INTER-LIGAND FREE ENERGY PREDICTED BY IDOCK:   -4.96 KCAL/MOL
REMARK 924 INTRA-LIGAND FREE ENERGY PREDICTED BY IDOCK:   -1.04 KCAL/MOL
REMARK 927      BINDING AFFINITY PREDICTED BY RF-SCORE:    0.00 PKD
ROOT
HETATM    1 NA   UNL     1     -11.361  15.975  65.586  1.00  0.00    -0.311 Na 
HETATM    2  C   UNL     2     -11.961  13.072  63.343  1.00  0.00    -0.592 C  
HETATM    3  C   UNL     2     -12.286  12.227  64.566  1.00  0.00    -0.469 C  
ENDROOT
BRANCH   3   4
HETATM    4  C   UNL     2     -12.305  13.080  65.833  1.00  0.00    -0.432 C  
BRANCH   4   5
HETATM    5  C   UNL     2     -11.764  12.365  67.075  1.00  0.00    -0.423 C  
HETATM    6  C   UNL     2     -10.237  12.112  67.109  1.00  0.00    -0.226 C  
HETATM    7  C   UNL     2      -9.390  13.386  66.891  1.00  0.00    -0.253 C  
HETATM    8  C   UNL     2      -9.811  11.412  68.422  1.00  0.00    -0.205 C  
HETATM    9  C   UNL     2      -9.489  14.434  67.993  1.00  0.00    -0.209 C  
BRANCH   8  10
HETATM   10  C   UNL     2     -10.486  10.068  68.698  1.00  0.00    -0.228 C  
BRANCH  10  11
HETATM   11  C   UNL     2      -9.576   8.912  69.168  1.00  0.00    -0.162 C  
BRANCH  11  12
HETATM   12  C   UNL     2      -8.168   9.439  69.539  1.00  0.00    -0.124 C  
HETATM   13  C   UNL     2      -7.089   9.330  67.211  1.00  0.00    -0.082 C  
HETATM   14  C   UNL     2      -6.998   8.909  68.680  1.00  0.00    -0.064 C  
HETATM   15  C   UNL     2      -5.668   9.421  69.254  1.00  0.00    -0.035 C  
ENDBRANCH  11  12
BRANCH  11  16
HETATM   16  O   UNL     2     -10.147   8.310  70.326  1.00  0.00    -0.188 OA 
HETATM   17  O   UNL     2      -9.147   6.146  69.800  1.00  0.00    -0.139 OA 
HETATM   18  O   UNL     2     -10.542   6.413  71.798  1.00  0.00    -0.212 OA 
HETATM   19  S   UNL     2     -10.371   6.692  70.376  1.00  0.00    -0.205 S  
HETATM   20  O   UNL     2     -11.554   6.459  69.560  1.00  0.00    -0.404 OA 
ENDBRANCH  11  16
ENDBRANCH  10  11
ENDBRANCH   8  10
ENDBRANCH   4   5
ENDBRANCH   3   4
TORSDOF 6
ENDMDL
MODEL      198
REMARK 921   NORMALIZED FREE ENERGY PREDICTED BY IDOCK:   -3.55 KCAL/MOL
REMARK 922        TOTAL FREE ENERGY PREDICTED BY IDOCK:   -6.00 KCAL/MOL
REMARK 923 INTER-LIGAND FREE ENERGY PREDICTED BY IDOCK:   -5.84 KCAL/MOL
REMARK 924 INTRA-LIGAND FREE ENERGY PREDICTED BY IDOCK:   -0.16 KCAL/MOL
REMARK 927      BINDING AFFINITY PREDICTED BY RF-SCORE:    0.00 PKD
ROOT
HETATM    1 NA   UNL     1      -7.779   8.127  70.462  1.00  0.00    -0.069 Na 
HETATM    2  C   UNL     2     -10.976   6.240  70.651  1.00  0.00    -0.370 C  
HETATM    3  C   UNL     2     -11.495   7.269  71.646  1.00  0.00    -0.297 C  
ENDROOT
BRANCH   3   4
HETATM    4  C   UNL     2     -10.505   8.421  71.809  1.00  0.00    -0.353 C  
BRANCH   4   5
HETATM    5  C   UNL     2     -10.703   9.559  70.803  1.00  0.00    -0.391 C  
HETATM    6  C   UNL     2     -12.132   9.726  70.229  1.00  0.00    -0.104 C  
HETATM    7  C   UNL     2     -13.227   9.856  71.312  1.00  0.00    -0.465 C  
HETATM    8  C   UNL     2     -12.211  10.923  69.251  1.00  0.00    -0.240 C  
HETATM    9  C   UNL     2     -13.157  11.118  72.164  1.00  0.00    -0.288 C  
BRANCH   8  10
HETATM   10  C   UNL     2     -11.261  10.856  68.054  1.00  0.00    -0.378 C  
BRANCH  10  11
HETATM   11  C   UNL     2     -11.087  12.148  67.226  1.00  0.00    -0.287 C  
BRANCH  11  12
HETATM   12  C   UNL     2     -11.412  11.890  65.735  1.00  0.00    -0.326 C  
HETATM   13  C   UNL     2     -10.857  14.220  64.810  1.00  0.00    -0.420 C  
HETATM   14  C   UNL     2     -11.906  13.112  64.928  1.00  0.00    -0.399 C  
HETATM   15  C   UNL     2     -12.306  12.664  63.513  1.00  0.00    -0.591 C  
ENDBRANCH  11  12
BRANCH  11  16
HETATM   16  O   UNL     2     -11.987  13.139  67.714  1.00  0.00    -0.350 OA 
HETATM   17  O   UNL     2     -10.204  14.801  67.873  1.00  0.00    -0.226 OA 
HETATM   18  O   UNL     2     -12.498  15.377  68.523  1.00  0.00     0.122 OA 
HETATM   19  S   UNL     2     -11.415  14.400  68.583  1.00  0.00    -0.306 S  
HETATM   20  O   UNL     2     -11.160  13.849  69.907  1.00  0.00    -0.101 OA 
ENDBRANCH  11  16
ENDBRANCH  10  11
ENDBRANCH   8  10
ENDBRANCH   4   5
ENDBRANCH   3   4
TORSDOF 6
ENDMDL
MODEL      199
REMARK 921   NORMALIZED FREE ENERGY PREDICTED BY IDOCK:   -3.54 KCAL/MOL
REMARK 922        TOTAL FREE ENERGY PREDICTED BY IDOCK:   -5.99 KCAL/MOL
REMARK 923 INTER-LIGAND FREE ENERGY PREDICTED BY IDOCK:   -5.19 KCAL/MOL
REMARK 924 INTRA-LIGAND FREE ENERGY PREDICTED BY IDOCK:   -0.79 KCAL/MOL
REMARK 927      BINDING AFFINITY PREDICTED BY RF-SCORE:    0.00 PKD
ROOT
HETATM    1 NA   UNL     1      -8.281  18.728  66.669  1.00  0.00    -0.231 Na 
HETATM    2  C   UNL     2      -6.330  15.781  67.820  1.00  0.00    -0.174 C  
HETATM    3  C   UNL     2      -7.261  15.664  69.018  1.00  0.00    -0.160 C  
ENDROOT
BRANCH   3   4
HETATM    4  C   UNL     2      -8.413  16.663  68.916  1.00  0.00    -0.233 C  
BRANCH   4   5
HETATM    5  C   UNL     2      -9.734  16.045  68.448  1.00  0.00    -0.213 C  
HETATM    6  C   UNL     2     -10.283  14.875  69.302  1.00  0.00    -0.219 C  
HETATM    7  C   UNL     2     -10.425  15.213  70.803  1.00  0.00     0.112 C  
HETATM    8  C   UNL     2     -11.633  14.358  68.746  1.00  0.00    -0.348 C  
HETATM    9  C   UNL     2     -11.468  16.272  71.140  1.00  0.00    -0.364 C  
BRANCH   8  10
HETATM   10  C   UNL     2     -11.602  13.869  67.298  1.00  0.00    -0.393 C  
BRANCH  10  11
HETATM   11  C   UNL     2     -11.234  12.387  67.068  1.00  0.00    -0.303 C  
BRANCH  11  12
HETATM   12  C   UNL     2     -10.363  12.231  65.798  1.00  0.00    -0.287 C  
HETATM   13  C   UNL     2     -12.231  12.299  64.038  1.00  0.00    -0.569 C  
HETATM   14  C   UNL     2     -11.035  11.526  64.598  1.00  0.00    -0.353 C  
HETATM   15  C   UNL     2     -10.006  11.335  63.473  1.00  0.00    -0.417 C  
ENDBRANCH  11  12
BRANCH  11  16
HETATM   16  O   UNL     2     -10.485  11.914  68.185  1.00  0.00    -0.193 OA 
HETATM   17  O   UNL     2     -11.403   9.663  67.954  1.00  0.00    -0.040 OA 
HETATM   18  O   UNL     2      -9.806  10.173  69.743  1.00  0.00    -0.232 OA 
HETATM   19  S   UNL     2     -10.991  10.591  69.001  1.00  0.00    -0.261 S  
HETATM   20  O   UNL     2     -12.093  11.068  69.826  1.00  0.00    -0.317 OA 
ENDBRANCH  11  16
ENDBRANCH  10  11
ENDBRANCH   8  10
ENDBRANCH   4   5
ENDBRANCH   3   4
TORSDOF 6
ENDMDL
MODEL      200
REMARK 921   NORMALIZED FREE ENERGY PREDICTED BY IDOCK:   -3.54 KCAL/MOL
REMARK 922        TOTAL FREE ENERGY PREDICTED BY IDOCK:   -5.99 KCAL/MOL
REMARK 923 INTER-LIGAND FREE ENERGY PREDICTED BY IDOCK:   -4.96 KCAL/MOL
REMARK 924 INTRA-LIGAND FREE ENERGY PREDICTED BY IDOCK:   -1.03 KCAL/MOL
REMARK 927      BINDING AFFINITY PREDICTED BY RF-SCORE:    0.00 PKD
ROOT
HETATM    1 NA   UNL     1      -8.312  13.102  69.280  1.00  0.00    -0.316 Na 
HETATM    2  C   UNL     2     -11.988  13.235  68.744  1.00  0.00    -0.335 C  
HETATM    3  C   UNL     2     -11.814  12.356  67.513  1.00  0.00    -0.354 C  
ENDROOT
BRANCH   3   4
HETATM    4  C   UNL     2     -10.367  11.887  67.375  1.00  0.00    -0.228 C  
BRANCH   4   5
HETATM    5  C   UNL     2     -10.109  10.487  67.942  1.00  0.00    -0.204 C  
HETATM    6  C   UNL     2     -10.031   9.334  66.912  1.00  0.00    -0.298 C  
HETATM    7  C   UNL     2      -9.008   9.580  65.779  1.00  0.00    -0.219 C  
HETATM    8  C   UNL     2      -9.737   7.980  67.603  1.00  0.00    -0.198 C  
HETATM    9  C   UNL     2      -7.548   9.621  66.212  1.00  0.00    -0.101 C  
BRANCH   8  10
HETATM   10  C   UNL     2     -10.751   7.552  68.664  1.00  0.00    -0.111 C  
BRANCH  10  11
HETATM   11  C   UNL     2     -10.456   7.969  70.122  1.00  0.00    -0.225 C  
BRANCH  11  12
HETATM   12  C   UNL     2     -11.732   7.859  70.991  1.00  0.00    -0.293 C  
HETATM   13  C   UNL     2     -12.657  10.225  70.617  1.00  0.00    -0.391 C  
HETATM   14  C   UNL     2     -12.224   9.173  71.641  1.00  0.00    -0.433 C  
HETATM   15  C   UNL     2     -13.411   8.873  72.568  1.00  0.00    -0.462 C  
ENDBRANCH  11  12
BRANCH  11  16
HETATM   16  O   UNL     2      -9.468   7.096  70.665  1.00  0.00    -0.162 OA 
HETATM   17  O   UNL     2      -8.594   8.853  72.119  1.00  0.00    -0.381 OA 
HETATM   18  O   UNL     2      -7.590   6.616  72.136  1.00  0.00    -0.094 OA 
HETATM   19  S   UNL     2      -8.114   7.719  71.336  1.00  0.00    -0.103 S  
HETATM   20  O   UNL     2      -7.284   8.101  70.203  1.00  0.00    -0.054 OA 
ENDBRANCH  11  16
ENDBRANCH  10  11
ENDBRANCH   8  10
ENDBRANCH   4   5
ENDBRANCH   3   4
TORSDOF 6
ENDMDL
MODEL      201
REMARK 921   NORMALIZED FREE ENERGY PREDICTED BY IDOCK:   -3.53 KCAL/MOL
REMARK 922        TOTAL FREE ENERGY PREDICTED BY IDOCK:   -5.97 KCAL/MOL
REMARK 923 INTER-LIGAND FREE ENERGY PREDICTED BY IDOCK:   -5.60 KCAL/MOL
REMARK 924 INTRA-LIGAND FREE ENERGY PREDICTED BY IDOCK:   -0.37 KCAL/MOL
REMARK 927      BINDING AFFINITY PREDICTED BY RF-SCORE:    0.00 PKD
ROOT
HETATM    1 NA   UNL     1      -8.389   7.876  66.692  1.00  0.00    -0.103 Na 
HETATM    2  C   UNL     2      -8.615   9.084  70.200  1.00  0.00    -0.169 C  
HETATM    3  C   UNL     2     -10.045   9.530  69.927  1.00  0.00    -0.262 C  
ENDROOT
BRANCH   3   4
HETATM    4  C   UNL     2     -10.498   9.095  68.535  1.00  0.00    -0.238 C  
BRANCH   4   5
HETATM    5  C   UNL     2     -11.146  10.213  67.712  1.00  0.00    -0.293 C  
HETATM    6  C   UNL     2     -10.183  11.263  67.106  1.00  0.00    -0.235 C  
HETATM    7  C   UNL     2      -9.047  10.649  66.257  1.00  0.00    -0.186 C  
HETATM    8  C   UNL     2     -10.952  12.320  66.276  1.00  0.00    -0.327 C  
HETATM    9  C   UNL     2      -9.490   9.955  64.974  1.00  0.00    -0.343 C  
BRANCH   8  10
HETATM   10  C   UNL     2     -12.026  13.096  67.036  1.00  0.00    -0.412 C  
BRANCH  10  11
HETATM   11  C   UNL     2     -11.663  14.525  67.497  1.00  0.00    -0.386 C  
BRANCH  11  12
HETATM   12  C   UNL     2     -11.907  14.689  69.016  1.00  0.00    -0.346 C  
HETATM   13  C   UNL     2     -10.655  16.903  69.371  1.00  0.00    -0.292 C  
HETATM   14  C   UNL     2     -10.809  15.442  69.801  1.00  0.00    -0.297 C  
HETATM   15  C   UNL     2     -11.136  15.406  71.302  1.00  0.00    -0.341 C  
ENDBRANCH  11  12
BRANCH  11  16
HETATM   16  O   UNL     2     -10.282  14.761  67.238  1.00  0.00    -0.239 OA 
HETATM   17  O   UNL     2     -10.767  16.870  66.105  1.00  0.00    -0.239 OA 
HETATM   18  O   UNL     2      -8.454  16.081  66.320  1.00  0.00    -0.312 OA 
HETATM   19  S   UNL     2      -9.841  15.746  66.009  1.00  0.00    -0.364 S  
HETATM   20  O   UNL     2     -10.021  14.940  64.810  1.00  0.00    -0.215 OA 
ENDBRANCH  11  16
ENDBRANCH  10  11
ENDBRANCH   8  10
ENDBRANCH   4   5
ENDBRANCH   3   4
TORSDOF 6
ENDMDL
MODEL      202
REMARK 921   NORMALIZED FREE ENERGY PREDICTED BY IDOCK:   -3.53 KCAL/MOL
REMARK 922        TOTAL FREE ENERGY PREDICTED BY IDOCK:   -5.97 KCAL/MOL
REMARK 923 INTER-LIGAND FREE ENERGY PREDICTED BY IDOCK:   -4.98 KCAL/MOL
REMARK 924 INTRA-LIGAND FREE ENERGY PREDICTED BY IDOCK:   -0.98 KCAL/MOL
REMARK 927      BINDING AFFINITY PREDICTED BY RF-SCORE:    0.00 PKD
ROOT
HETATM    1 NA   UNL     1     -12.831   6.601  69.483  1.00  0.00    -0.606 Na 
HETATM    2  C   UNL     2     -12.970  10.118  70.677  1.00  0.00    -0.296 C  
HETATM    3  C   UNL     2     -12.873   9.610  72.108  1.00  0.00    -0.460 C  
ENDROOT
BRANCH   3   4
HETATM    4  C   UNL     2     -12.645   8.100  72.139  1.00  0.00    -0.349 C  
BRANCH   4   5
HETATM    5  C   UNL     2     -11.399   7.642  71.374  1.00  0.00    -0.285 C  
HETATM    6  C   UNL     2     -10.043   8.191  71.882  1.00  0.00    -0.285 C  
HETATM    7  C   UNL     2      -9.793   7.938  73.386  1.00  0.00    -0.298 C  
HETATM    8  C   UNL     2      -8.862   7.635  71.049  1.00  0.00    -0.142 C  
HETATM    9  C   UNL     2      -9.630   6.476  73.785  1.00  0.00    -0.206 C  
BRANCH   8  10
HETATM   10  C   UNL     2      -8.922   7.929  69.550  1.00  0.00    -0.142 C  
BRANCH  10  11
HETATM   11  C   UNL     2      -8.628   9.380  69.109  1.00  0.00    -0.140 C  
BRANCH  11  12
HETATM   12  C   UNL     2      -9.946  10.162  68.887  1.00  0.00    -0.207 C  
HETATM   13  C   UNL     2     -10.129   9.892  66.340  1.00  0.00    -0.308 C  
HETATM   14  C   UNL     2     -10.092  10.866  67.519  1.00  0.00    -0.214 C  
HETATM   15  C   UNL     2     -11.385  11.698  67.507  1.00  0.00    -0.364 C  
ENDBRANCH  11  12
BRANCH  11  16
HETATM   16  O   UNL     2      -7.886  10.037  70.133  1.00  0.00    -0.177 OA 
HETATM   17  O   UNL     2      -6.580  11.296  68.498  1.00  0.00    -0.056 OA 
HETATM   18  O   UNL     2      -6.173  11.587  70.898  1.00  0.00    -0.303 OA 
HETATM   19  S   UNL     2      -6.411  10.657  69.799  1.00  0.00    -0.116 S  
HETATM   20  O   UNL     2      -5.524   9.502  69.771  1.00  0.00    -0.033 OA 
ENDBRANCH  11  16
ENDBRANCH  10  11
ENDBRANCH   8  10
ENDBRANCH   4   5
ENDBRANCH   3   4
TORSDOF 6
ENDMDL
MODEL      203
REMARK 921   NORMALIZED FREE ENERGY PREDICTED BY IDOCK:   -3.52 KCAL/MOL
REMARK 922        TOTAL FREE ENERGY PREDICTED BY IDOCK:   -5.95 KCAL/MOL
REMARK 923 INTER-LIGAND FREE ENERGY PREDICTED BY IDOCK:   -5.27 KCAL/MOL
REMARK 924 INTRA-LIGAND FREE ENERGY PREDICTED BY IDOCK:   -0.68 KCAL/MOL
REMARK 927      BINDING AFFINITY PREDICTED BY RF-SCORE:    0.00 PKD
ROOT
HETATM    1 NA   UNL     1     -10.264   9.669  64.737  1.00  0.00    -0.309 Na 
HETATM    2  C   UNL     2     -12.740  12.086  63.380  1.00  0.00    -0.527 C  
HETATM    3  C   UNL     2     -12.178  13.147  64.315  1.00  0.00    -0.463 C  
ENDROOT
BRANCH   3   4
HETATM    4  C   UNL     2     -10.946  12.630  65.054  1.00  0.00    -0.323 C  
BRANCH   4   5
HETATM    5  C   UNL     2     -11.254  12.007  66.420  1.00  0.00    -0.389 C  
HETATM    6  C   UNL     2     -10.440  12.551  67.619  1.00  0.00    -0.228 C  
HETATM    7  C   UNL     2     -10.510  14.088  67.773  1.00  0.00    -0.236 C  
HETATM    8  C   UNL     2     -10.862  11.868  68.943  1.00  0.00    -0.261 C  
HETATM    9  C   UNL     2     -11.880  14.648  68.134  1.00  0.00    -0.332 C  
BRANCH   8  10
HETATM   10  C   UNL     2     -10.720  10.346  68.969  1.00  0.00    -0.260 C  
BRANCH  10  11
HETATM   11  C   UNL     2      -9.530   9.768  69.767  1.00  0.00    -0.228 C  
BRANCH  11  12
HETATM   12  C   UNL     2      -9.864   8.353  70.298  1.00  0.00    -0.188 C  
HETATM   13  C   UNL     2     -10.236   7.174  68.047  1.00  0.00    -0.223 C  
HETATM   14  C   UNL     2     -10.818   7.508  69.423  1.00  0.00    -0.161 C  
HETATM   15  C   UNL     2     -11.149   6.194  70.147  1.00  0.00    -0.448 C  
ENDBRANCH  11  12
BRANCH  11  16
HETATM   16  O   UNL     2      -8.398   9.667  68.908  1.00  0.00    -0.108 OA 
HETATM   17  O   UNL     2      -6.868  10.275  70.712  1.00  0.00    -0.334 OA 
HETATM   18  O   UNL     2      -6.009   9.809  68.463  1.00  0.00    -0.042 OA 
HETATM   19  S   UNL     2      -7.024  10.474  69.275  1.00  0.00    -0.100 S  
HETATM   20  O   UNL     2      -7.298  11.855  68.903  1.00  0.00    -0.112 OA 
ENDBRANCH  11  16
ENDBRANCH  10  11
ENDBRANCH   8  10
ENDBRANCH   4   5
ENDBRANCH   3   4
TORSDOF 6
ENDMDL
MODEL      204
REMARK 921   NORMALIZED FREE ENERGY PREDICTED BY IDOCK:   -3.50 KCAL/MOL
REMARK 922        TOTAL FREE ENERGY PREDICTED BY IDOCK:   -5.93 KCAL/MOL
REMARK 923 INTER-LIGAND FREE ENERGY PREDICTED BY IDOCK:   -5.04 KCAL/MOL
REMARK 924 INTRA-LIGAND FREE ENERGY PREDICTED BY IDOCK:   -0.89 KCAL/MOL
REMARK 927      BINDING AFFINITY PREDICTED BY RF-SCORE:    0.00 PKD
ROOT
HETATM    1 NA   UNL     1     -12.273  16.876  70.642  1.00  0.00    -0.428 Na 
HETATM    2  C   UNL     2      -9.087  16.824  68.729  1.00  0.00    -0.259 C  
HETATM    3  C   UNL     2      -9.782  16.016  67.642  1.00  0.00    -0.224 C  
ENDROOT
BRANCH   3   4
HETATM    4  C   UNL     2     -11.275  15.878  67.933  1.00  0.00    -0.297 C  
BRANCH   4   5
HETATM    5  C   UNL     2     -11.799  14.442  67.838  1.00  0.00    -0.384 C  
HETATM    6  C   UNL     2     -11.341  13.470  68.953  1.00  0.00    -0.332 C  
HETATM    7  C   UNL     2     -11.628  13.985  70.382  1.00  0.00    -0.206 C  
HETATM    8  C   UNL     2     -11.958  12.063  68.764  1.00  0.00    -0.299 C  
HETATM    9  C   UNL     2     -13.102  14.104  70.752  1.00  0.00    -0.289 C  
BRANCH   8  10
HETATM   10  C   UNL     2     -11.642  11.383  67.432  1.00  0.00    -0.266 C  
BRANCH  10  11
HETATM   11  C   UNL     2     -10.521  10.321  67.438  1.00  0.00    -0.251 C  
BRANCH  11  12
HETATM   12  C   UNL     2     -10.942   9.084  68.268  1.00  0.00     0.025 C  
HETATM   13  C   UNL     2      -9.676   9.626  70.435  1.00  0.00    -0.304 C  
HETATM   14  C   UNL     2      -9.925   8.601  69.326  1.00  0.00    -0.195 C  
HETATM   15  C   UNL     2     -10.433   7.299  69.967  1.00  0.00    -0.234 C  
ENDBRANCH  11  12
BRANCH  11  16
HETATM   16  O   UNL     2     -10.274   9.897  66.099  1.00  0.00    -0.250 OA 
HETATM   17  O   UNL     2      -8.116  11.041  66.046  1.00  0.00    -0.159 OA 
HETATM   18  O   UNL     2      -8.913   9.807  64.083  1.00  0.00    -0.214 OA 
HETATM   19  S   UNL     2      -9.235  10.739  65.159  1.00  0.00    -0.217 S  
HETATM   20  O   UNL     2      -9.985  11.916  64.744  1.00  0.00    -0.253 OA 
ENDBRANCH  11  16
ENDBRANCH  10  11
ENDBRANCH   8  10
ENDBRANCH   4   5
ENDBRANCH   3   4
TORSDOF 6
ENDMDL
MODEL      205
REMARK 921   NORMALIZED FREE ENERGY PREDICTED BY IDOCK:   -3.49 KCAL/MOL
REMARK 922        TOTAL FREE ENERGY PREDICTED BY IDOCK:   -5.93 KCAL/MOL
REMARK 923 INTER-LIGAND FREE ENERGY PREDICTED BY IDOCK:   -4.90 KCAL/MOL
REMARK 924 INTRA-LIGAND FREE ENERGY PREDICTED BY IDOCK:   -1.03 KCAL/MOL
REMARK 927      BINDING AFFINITY PREDICTED BY RF-SCORE:    0.00 PKD
ROOT
HETATM    1 NA   UNL     1      -7.343  12.444  66.175  1.00  0.00    -0.357 Na 
HETATM    2  C   UNL     2     -10.480  13.748  64.666  1.00  0.00    -0.433 C  
HETATM    3  C   UNL     2     -10.797  12.343  64.173  1.00  0.00    -0.414 C  
ENDROOT
BRANCH   3   4
HETATM    4  C   UNL     2      -9.778  11.335  64.701  1.00  0.00    -0.294 C  
BRANCH   4   5
HETATM    5  C   UNL     2     -10.391  10.216  65.550  1.00  0.00    -0.196 C  
HETATM    6  C   UNL     2      -9.925  10.143  67.025  1.00  0.00    -0.249 C  
HETATM    7  C   UNL     2     -10.095  11.470  67.799  1.00  0.00    -0.198 C  
HETATM    8  C   UNL     2     -10.635   8.995  67.784  1.00  0.00    -0.278 C  
HETATM    9  C   UNL     2     -11.534  11.920  68.019  1.00  0.00    -0.389 C  
BRANCH   8  10
HETATM   10  C   UNL     2     -10.441   7.599  67.191  1.00  0.00    -0.412 C  
BRANCH  10  11
HETATM   11  C   UNL     2      -9.911   6.503  68.142  1.00  0.00    -0.139 C  
BRANCH  11  12
HETATM   12  C   UNL     2      -8.601   5.889  67.592  1.00  0.00    -0.102 C  
HETATM   13  C   UNL     2      -9.261   3.410  67.701  1.00  0.00    -0.233 C  
HETATM   14  C   UNL     2      -8.245   4.477  68.111  1.00  0.00    -0.090 C  
HETATM   15  C   UNL     2      -6.863   4.069  67.577  1.00  0.00    -0.051 C  
ENDBRANCH  11  12
BRANCH  11  16
HETATM   16  O   UNL     2      -9.634   7.083  69.413  1.00  0.00    -0.155 OA 
HETATM   17  O   UNL     2     -10.546   5.147  70.590  1.00  0.00    -0.233 OA 
HETATM   18  O   UNL     2      -9.654   7.054  71.847  1.00  0.00    -0.152 OA 
HETATM   19  S   UNL     2     -10.475   6.598  70.729  1.00  0.00    -0.222 S  
HETATM   20  O   UNL     2     -11.765   7.261  70.606  1.00  0.00    -0.303 OA 
ENDBRANCH  11  16
ENDBRANCH  10  11
ENDBRANCH   8  10
ENDBRANCH   4   5
ENDBRANCH   3   4
TORSDOF 6
ENDMDL
MODEL      206
REMARK 921   NORMALIZED FREE ENERGY PREDICTED BY IDOCK:   -3.49 KCAL/MOL
REMARK 922        TOTAL FREE ENERGY PREDICTED BY IDOCK:   -5.92 KCAL/MOL
REMARK 923 INTER-LIGAND FREE ENERGY PREDICTED BY IDOCK:   -4.97 KCAL/MOL
REMARK 924 INTRA-LIGAND FREE ENERGY PREDICTED BY IDOCK:   -0.96 KCAL/MOL
REMARK 927      BINDING AFFINITY PREDICTED BY RF-SCORE:    0.00 PKD
ROOT
HETATM    1 NA   UNL     1      -8.412  11.472  63.076  1.00  0.00    -0.318 Na 
HETATM    2  C   UNL     2      -8.179   8.790  65.639  1.00  0.00    -0.121 C  
HETATM    3  C   UNL     2      -9.502   9.267  66.222  1.00  0.00    -0.284 C  
ENDROOT
BRANCH   3   4
HETATM    4  C   UNL     2     -10.116  10.367  65.357  1.00  0.00    -0.354 C  
BRANCH   4   5
HETATM    5  C   UNL     2     -10.085  11.756  66.001  1.00  0.00    -0.263 C  
HETATM    6  C   UNL     2     -10.263  12.960  65.043  1.00  0.00    -0.289 C  
HETATM    7  C   UNL     2     -11.532  12.873  64.165  1.00  0.00    -0.449 C  
HETATM    8  C   UNL     2     -10.244  14.302  65.814  1.00  0.00    -0.351 C  
HETATM    9  C   UNL     2     -12.855  12.962  64.915  1.00  0.00    -0.370 C  
BRANCH   8  10
HETATM   10  C   UNL     2      -8.979  14.572  66.628  1.00  0.00    -0.247 C  
BRANCH  10  11
HETATM   11  C   UNL     2      -9.163  14.837  68.139  1.00  0.00    -0.195 C  
BRANCH  11  12
HETATM   12  C   UNL     2     -10.472  14.190  68.653  1.00  0.00    -0.250 C  
HETATM   13  C   UNL     2     -11.821  16.334  69.075  1.00  0.00    -0.072 C  
HETATM   14  C   UNL     2     -11.288  15.026  69.664  1.00  0.00    -0.309 C  
HETATM   15  C   UNL     2     -12.478  14.196  70.171  1.00  0.00    -0.391 C  
ENDBRANCH  11  12
BRANCH  11  16
HETATM   16  O   UNL     2      -8.070  14.261  68.849  1.00  0.00    -0.132 OA 
HETATM   17  O   UNL     2      -7.341  16.443  69.668  1.00  0.00    -0.138 OA 
HETATM   18  O   UNL     2      -6.103  14.415  70.275  1.00  0.00    -0.148 OA 
HETATM   19  S   UNL     2      -6.768  15.177  69.222  1.00  0.00    -0.160 S  
HETATM   20  O   UNL     2      -6.022  15.280  67.976  1.00  0.00    -0.123 OA 
ENDBRANCH  11  16
ENDBRANCH  10  11
ENDBRANCH   8  10
ENDBRANCH   4   5
ENDBRANCH   3   4
TORSDOF 6
ENDMDL
MODEL      207
REMARK 921   NORMALIZED FREE ENERGY PREDICTED BY IDOCK:   -3.48 KCAL/MOL
REMARK 922        TOTAL FREE ENERGY PREDICTED BY IDOCK:   -5.90 KCAL/MOL
REMARK 923 INTER-LIGAND FREE ENERGY PREDICTED BY IDOCK:   -5.08 KCAL/MOL
REMARK 924 INTRA-LIGAND FREE ENERGY PREDICTED BY IDOCK:   -0.83 KCAL/MOL
REMARK 927      BINDING AFFINITY PREDICTED BY RF-SCORE:    0.00 PKD
ROOT
HETATM    1 NA   UNL     1      -9.505  13.773  64.317  1.00  0.00    -0.579 Na 
HETATM    2  C   UNL     2     -11.494  14.592  67.349  1.00  0.00    -0.385 C  
HETATM    3  C   UNL     2     -11.889  13.126  67.454  1.00  0.00    -0.412 C  
ENDROOT
BRANCH   3   4
HETATM    4  C   UNL     2     -11.152  12.284  66.414  1.00  0.00    -0.345 C  
BRANCH   4   5
HETATM    5  C   UNL     2     -10.047  11.398  66.999  1.00  0.00    -0.237 C  
HETATM    6  C   UNL     2      -9.892   9.992  66.371  1.00  0.00    -0.283 C  
HETATM    7  C   UNL     2      -9.718  10.012  64.835  1.00  0.00    -0.377 C  
HETATM    8  C   UNL     2      -8.728   9.208  67.024  1.00  0.00    -0.131 C  
HETATM    9  C   UNL     2      -8.428  10.649  64.331  1.00  0.00    -0.070 C  
BRANCH   8  10
HETATM   10  C   UNL     2      -8.842   9.004  68.535  1.00  0.00    -0.134 C  
BRANCH  10  11
HETATM   11  C   UNL     2      -9.633   7.768  69.016  1.00  0.00    -0.155 C  
BRANCH  11  12
HETATM   12  C   UNL     2     -10.918   8.198  69.765  1.00  0.00    -0.133 C  
HETATM   13  C   UNL     2      -9.877   8.699  72.059  1.00  0.00    -0.396 C  
HETATM   14  C   UNL     2     -10.942   7.918  71.285  1.00  0.00    -0.266 C  
HETATM   15  C   UNL     2     -12.324   8.281  71.851  1.00  0.00    -0.379 C  
ENDBRANCH  11  12
BRANCH  11  16
HETATM   16  O   UNL     2     -10.015   6.989  67.885  1.00  0.00    -0.144 OA 
HETATM   17  O   UNL     2      -9.860   4.910  69.158  1.00  0.00    -0.170 OA 
HETATM   18  O   UNL     2     -10.499   4.870  66.791  1.00  0.00    -0.243 OA 
HETATM   19  S   UNL     2      -9.604   5.408  67.810  1.00  0.00    -0.134 S  
HETATM   20  O   UNL     2      -8.194   5.412  67.446  1.00  0.00    -0.101 OA 
ENDBRANCH  11  16
ENDBRANCH  10  11
ENDBRANCH   8  10
ENDBRANCH   4   5
ENDBRANCH   3   4
TORSDOF 6
ENDMDL
MODEL      208
REMARK 921   NORMALIZED FREE ENERGY PREDICTED BY IDOCK:   -3.46 KCAL/MOL
REMARK 922        TOTAL FREE ENERGY PREDICTED BY IDOCK:   -5.88 KCAL/MOL
REMARK 923 INTER-LIGAND FREE ENERGY PREDICTED BY IDOCK:   -5.39 KCAL/MOL
REMARK 924 INTRA-LIGAND FREE ENERGY PREDICTED BY IDOCK:   -0.49 KCAL/MOL
REMARK 927      BINDING AFFINITY PREDICTED BY RF-SCORE:    0.00 PKD
ROOT
HETATM    1 NA   UNL     1     -12.763  16.146  63.426  1.00  0.00    -0.739 Na 
HETATM    2  C   UNL     2     -10.313  17.676  65.765  1.00  0.00    -0.194 C  
HETATM    3  C   UNL     2     -10.216  16.344  66.495  1.00  0.00    -0.310 C  
ENDROOT
BRANCH   3   4
HETATM    4  C   UNL     2     -11.011  15.262  65.767  1.00  0.00    -0.340 C  
BRANCH   4   5
HETATM    5  C   UNL     2     -10.595  13.832  66.130  1.00  0.00    -0.291 C  
HETATM    6  C   UNL     2     -11.745  12.818  66.346  1.00  0.00    -0.464 C  
HETATM    7  C   UNL     2     -12.733  12.736  65.160  1.00  0.00    -0.402 C  
HETATM    8  C   UNL     2     -11.198  11.408  66.676  1.00  0.00    -0.298 C  
HETATM    9  C   UNL     2     -12.157  12.179  63.864  1.00  0.00    -0.584 C  
BRANCH   8  10
HETATM   10  C   UNL     2     -10.301  11.326  67.912  1.00  0.00    -0.205 C  
BRANCH  10  11
HETATM   11  C   UNL     2      -9.969   9.914  68.442  1.00  0.00    -0.158 C  
BRANCH  11  12
HETATM   12  C   UNL     2     -10.839   8.845  67.737  1.00  0.00    -0.106 C  
HETATM   13  C   UNL     2     -10.233   6.826  69.202  1.00  0.00    -0.195 C  
HETATM   14  C   UNL     2     -10.303   7.396  67.784  1.00  0.00    -0.273 C  
HETATM   15  C   UNL     2     -11.206   6.488  66.935  1.00  0.00    -0.205 C  
ENDBRANCH  11  12
BRANCH  11  16
HETATM   16  O   UNL     2      -8.600   9.625  68.172  1.00  0.00    -0.118 OA 
HETATM   17  O   UNL     2      -7.982   9.944  70.513  1.00  0.00    -0.246 OA 
HETATM   18  O   UNL     2      -6.278   9.354  68.851  1.00  0.00    -0.043 OA 
HETATM   19  S   UNL     2      -7.437  10.178  69.179  1.00  0.00    -0.110 S  
HETATM   20  O   UNL     2      -7.301  11.588  68.844  1.00  0.00    -0.112 OA 
ENDBRANCH  11  16
ENDBRANCH  10  11
ENDBRANCH   8  10
ENDBRANCH   4   5
ENDBRANCH   3   4
TORSDOF 6
ENDMDL
MODEL      209
REMARK 921   NORMALIZED FREE ENERGY PREDICTED BY IDOCK:   -3.44 KCAL/MOL
REMARK 922        TOTAL FREE ENERGY PREDICTED BY IDOCK:   -5.85 KCAL/MOL
REMARK 923 INTER-LIGAND FREE ENERGY PREDICTED BY IDOCK:   -5.28 KCAL/MOL
REMARK 924 INTRA-LIGAND FREE ENERGY PREDICTED BY IDOCK:   -0.58 KCAL/MOL
REMARK 927      BINDING AFFINITY PREDICTED BY RF-SCORE:    0.00 PKD
ROOT
HETATM    1 NA   UNL     1      -9.895   6.046  70.069  1.00  0.00    -0.149 Na 
HETATM    2  C   UNL     2      -9.821   5.711  66.368  1.00  0.00    -0.184 C  
HETATM    3  C   UNL     2      -9.157   7.078  66.282  1.00  0.00    -0.178 C  
ENDROOT
BRANCH   3   4
HETATM    4  C   UNL     2      -8.828   7.615  67.674  1.00  0.00    -0.125 C  
BRANCH   4   5
HETATM    5  C   UNL     2      -8.853   9.143  67.775  1.00  0.00    -0.125 C  
HETATM    6  C   UNL     2     -10.228   9.788  68.077  1.00  0.00    -0.229 C  
HETATM    7  C   UNL     2     -10.917   9.220  69.339  1.00  0.00    -0.138 C  
HETATM    8  C   UNL     2     -10.117  11.328  68.184  1.00  0.00    -0.195 C  
HETATM    9  C   UNL     2     -10.214   9.515  70.658  1.00  0.00    -0.364 C  
BRANCH   8  10
HETATM   10  C   UNL     2      -9.565  12.033  66.944  1.00  0.00    -0.209 C  
BRANCH  10  11
HETATM   11  C   UNL     2     -10.309  13.301  66.470  1.00  0.00    -0.285 C  
BRANCH  11  12
HETATM   12  C   UNL     2      -9.533  14.576  66.879  1.00  0.00    -0.263 C  
HETATM   13  C   UNL     2     -11.401  15.764  68.179  1.00  0.00    -0.337 C  
HETATM   14  C   UNL     2     -10.378  15.859  67.045  1.00  0.00    -0.297 C  
HETATM   15  C   UNL     2      -9.449  17.052  67.321  1.00  0.00    -0.240 C  
ENDBRANCH  11  12
BRANCH  11  16
HETATM   16  O   UNL     2     -10.412  13.276  65.049  1.00  0.00    -0.320 OA 
HETATM   17  O   UNL     2     -12.698  12.422  65.145  1.00  0.00    -0.630 OA 
HETATM   18  O   UNL     2     -11.618  12.834  62.982  1.00  0.00    -0.320 OA 
HETATM   19  S   UNL     2     -11.496  12.286  64.329  1.00  0.00    -0.391 S  
HETATM   20  O   UNL     2     -10.889  10.964  64.399  1.00  0.00    -0.299 OA 
ENDBRANCH  11  16
ENDBRANCH  10  11
ENDBRANCH   8  10
ENDBRANCH   4   5
ENDBRANCH   3   4
TORSDOF 6
ENDMDL
MODEL      210
REMARK 921   NORMALIZED FREE ENERGY PREDICTED BY IDOCK:   -3.44 KCAL/MOL
REMARK 922        TOTAL FREE ENERGY PREDICTED BY IDOCK:   -5.85 KCAL/MOL
REMARK 923 INTER-LIGAND FREE ENERGY PREDICTED BY IDOCK:   -5.11 KCAL/MOL
REMARK 924 INTRA-LIGAND FREE ENERGY PREDICTED BY IDOCK:   -0.74 KCAL/MOL
REMARK 927      BINDING AFFINITY PREDICTED BY RF-SCORE:    0.00 PKD
ROOT
HETATM    1 NA   UNL     1      -9.090  13.780  65.233  1.00  0.00    -0.461 Na 
HETATM    2  C   UNL     2      -6.309  13.146  67.617  1.00  0.00    -0.163 C  
HETATM    3  C   UNL     2      -7.193  13.659  68.745  1.00  0.00    -0.100 C  
ENDROOT
BRANCH   3   4
HETATM    4  C   UNL     2      -8.608  13.946  68.245  1.00  0.00    -0.177 C  
BRANCH   4   5
HETATM    5  C   UNL     2      -9.590  12.790  68.459  1.00  0.00    -0.113 C  
HETATM    6  C   UNL     2     -10.981  13.169  69.024  1.00  0.00    -0.241 C  
HETATM    7  C   UNL     2     -11.708  14.262  68.207  1.00  0.00    -0.377 C  
HETATM    8  C   UNL     2     -11.890  11.924  69.165  1.00  0.00    -0.371 C  
HETATM    9  C   UNL     2     -12.118  13.861  66.795  1.00  0.00    -0.476 C  
BRANCH   8  10
HETATM   10  C   UNL     2     -11.342  10.810  70.058  1.00  0.00    -0.397 C  
BRANCH  10  11
HETATM   11  C   UNL     2     -11.173   9.417  69.414  1.00  0.00     0.008 C  
BRANCH  11  12
HETATM   12  C   UNL     2     -10.838   9.547  67.908  1.00  0.00    -0.240 C  
HETATM   13  C   UNL     2     -10.185   7.107  67.446  1.00  0.00    -0.291 C  
HETATM   14  C   UNL     2      -9.764   8.576  67.367  1.00  0.00    -0.222 C  
HETATM   15  C   UNL     2      -9.456   8.919  65.901  1.00  0.00    -0.303 C  
ENDBRANCH  11  12
BRANCH  11  16
HETATM   16  O   UNL     2     -10.097   8.735  70.054  1.00  0.00    -0.182 OA 
HETATM   17  O   UNL     2     -11.569   6.932  70.795  1.00  0.00    -0.310 OA 
HETATM   18  O   UNL     2      -9.182   6.894  71.356  1.00  0.00    -0.155 OA 
HETATM   19  S   UNL     2     -10.408   7.681  71.264  1.00  0.00    -0.198 S  
HETATM   20  O   UNL     2     -10.684   8.521  72.421  1.00  0.00    -0.341 OA 
ENDBRANCH  11  16
ENDBRANCH  10  11
ENDBRANCH   8  10
ENDBRANCH   4   5
ENDBRANCH   3   4
TORSDOF 6
ENDMDL
MODEL      211
REMARK 921   NORMALIZED FREE ENERGY PREDICTED BY IDOCK:   -3.44 KCAL/MOL
REMARK 922        TOTAL FREE ENERGY PREDICTED BY IDOCK:   -5.85 KCAL/MOL
REMARK 923 INTER-LIGAND FREE ENERGY PREDICTED BY IDOCK:   -6.49 KCAL/MOL
REMARK 924 INTRA-LIGAND FREE ENERGY PREDICTED BY IDOCK:    0.64 KCAL/MOL
REMARK 927      BINDING AFFINITY PREDICTED BY RF-SCORE:    0.00 PKD
ROOT
HETATM    1 NA   UNL     1      -8.641  11.752  64.863  1.00  0.00    -0.375 Na 
HETATM    2  C   UNL     2     -11.902  12.738  63.377  1.00  0.00    -0.591 C  
HETATM    3  C   UNL     2     -12.486  12.825  64.780  1.00  0.00    -0.539 C  
ENDROOT
BRANCH   3   4
HETATM    4  C   UNL     2     -11.404  12.615  65.838  1.00  0.00    -0.373 C  
BRANCH   4   5
HETATM    5  C   UNL     2     -11.950  12.329  67.240  1.00  0.00    -0.201 C  
HETATM    6  C   UNL     2     -11.042  12.737  68.426  1.00  0.00    -0.293 C  
HETATM    7  C   UNL     2     -10.594  14.216  68.386  1.00  0.00    -0.263 C  
HETATM    8  C   UNL     2     -11.715  12.425  69.784  1.00  0.00    -0.361 C  
HETATM    9  C   UNL     2     -11.706  15.242  68.566  1.00  0.00    -0.352 C  
BRANCH   8  10
HETATM   10  C   UNL     2     -12.096  10.961  70.006  1.00  0.00    -0.433 C  
BRANCH  10  11
HETATM   11  C   UNL     2     -11.060  10.069  70.726  1.00  0.00    -0.334 C  
BRANCH  11  12
HETATM   12  C   UNL     2     -11.523   8.592  70.737  1.00  0.00    -0.293 C  
HETATM   13  C   UNL     2     -13.580   8.845  72.253  1.00  0.00    -0.513 C  
HETATM   14  C   UNL     2     -12.253   8.121  72.015  1.00  0.00    -0.385 C  
HETATM   15  C   UNL     2     -12.528   6.612  71.922  1.00  0.00    -0.334 C  
ENDBRANCH  11  12
BRANCH  11  16
HETATM   16  O   UNL     2      -9.819  10.143  70.029  1.00  0.00    -0.228 OA 
HETATM   17  O   UNL     2     -10.773   9.090  68.043  1.00  0.00    -0.208 OA 
HETATM   18  O   UNL     2      -8.414   9.756  68.080  1.00  0.00    -0.117 OA 
HETATM   19  S   UNL     2      -9.520   9.120  68.789  1.00  0.00    -0.148 S  
HETATM   20  O   UNL     2      -9.189   7.854  69.429  1.00  0.00    -0.146 OA 
ENDBRANCH  11  16
ENDBRANCH  10  11
ENDBRANCH   8  10
ENDBRANCH   4   5
ENDBRANCH   3   4
TORSDOF 6
ENDMDL
MODEL      212
REMARK 921   NORMALIZED FREE ENERGY PREDICTED BY IDOCK:   -3.42 KCAL/MOL
REMARK 922        TOTAL FREE ENERGY PREDICTED BY IDOCK:   -5.82 KCAL/MOL
REMARK 923 INTER-LIGAND FREE ENERGY PREDICTED BY IDOCK:   -5.05 KCAL/MOL
REMARK 924 INTRA-LIGAND FREE ENERGY PREDICTED BY IDOCK:   -0.77 KCAL/MOL
REMARK 927      BINDING AFFINITY PREDICTED BY RF-SCORE:    0.00 PKD
ROOT
HETATM    1 NA   UNL     1      -9.792   9.769  69.532  1.00  0.00    -0.151 Na 
HETATM    2  C   UNL     2     -10.832   6.872  67.448  1.00  0.00    -0.396 C  
HETATM    3  C   UNL     2      -9.555   7.030  66.636  1.00  0.00    -0.220 C  
ENDROOT
BRANCH   3   4
HETATM    4  C   UNL     2      -8.650   8.102  67.240  1.00  0.00    -0.124 C  
BRANCH   4   5
HETATM    5  C   UNL     2      -9.052   9.535  66.875  1.00  0.00    -0.158 C  
HETATM    6  C   UNL     2      -7.891  10.522  66.598  1.00  0.00    -0.125 C  
HETATM    7  C   UNL     2      -6.892  10.024  65.529  1.00  0.00    -0.120 C  
HETATM    8  C   UNL     2      -8.424  11.923  66.212  1.00  0.00     0.031 C  
HETATM    9  C   UNL     2      -7.452   9.902  64.117  1.00  0.00    -0.139 C  
BRANCH   8  10
HETATM   10  C   UNL     2      -9.329  12.589  67.248  1.00  0.00    -0.190 C  
BRANCH  10  11
HETATM   11  C   UNL     2     -10.059  13.880  66.814  1.00  0.00    -0.265 C  
BRANCH  11  12
HETATM   12  C   UNL     2      -9.096  15.091  66.851  1.00  0.00    -0.269 C  
HETATM   13  C   UNL     2     -10.611  16.749  68.097  1.00  0.00    -0.350 C  
HETATM   14  C   UNL     2      -9.762  16.486  66.851  1.00  0.00    -0.259 C  
HETATM   15  C   UNL     2      -8.678  17.571  66.758  1.00  0.00    -0.278 C  
ENDBRANCH  11  12
BRANCH  11  16
HETATM   16  O   UNL     2     -10.528  13.722  65.477  1.00  0.00    -0.295 OA 
HETATM   17  O   UNL     2     -12.800  14.356  66.110  1.00  0.00    -0.251 OA 
HETATM   18  O   UNL     2     -12.277  13.772  63.787  1.00  0.00    -0.599 OA 
HETATM   19  S   UNL     2     -12.115  13.444  65.200  1.00  0.00    -0.437 S  
HETATM   20  O   UNL     2     -12.304  12.038  65.528  1.00  0.00    -0.460 OA 
ENDBRANCH  11  16
ENDBRANCH  10  11
ENDBRANCH   8  10
ENDBRANCH   4   5
ENDBRANCH   3   4
TORSDOF 6
ENDMDL
MODEL      213
REMARK 921   NORMALIZED FREE ENERGY PREDICTED BY IDOCK:   -3.42 KCAL/MOL
REMARK 922        TOTAL FREE ENERGY PREDICTED BY IDOCK:   -5.82 KCAL/MOL
REMARK 923 INTER-LIGAND FREE ENERGY PREDICTED BY IDOCK:   -5.52 KCAL/MOL
REMARK 924 INTRA-LIGAND FREE ENERGY PREDICTED BY IDOCK:   -0.31 KCAL/MOL
REMARK 927      BINDING AFFINITY PREDICTED BY RF-SCORE:    0.00 PKD
ROOT
HETATM    1 NA   UNL     1      -9.409  14.938  70.821  1.00  0.00    -0.434 Na 
HETATM    2  C   UNL     2      -5.903  15.378  69.667  1.00  0.00    -0.124 C  
HETATM    3  C   UNL     2      -6.396  16.379  68.633  1.00  0.00    -0.133 C  
ENDROOT
BRANCH   3   4
HETATM    4  C   UNL     2      -7.887  16.662  68.811  1.00  0.00    -0.238 C  
BRANCH   4   5
HETATM    5  C   UNL     2      -8.801  15.624  68.153  1.00  0.00    -0.174 C  
HETATM    6  C   UNL     2     -10.315  15.950  68.148  1.00  0.00    -0.256 C  
HETATM    7  C   UNL     2     -10.652  17.330  67.539  1.00  0.00    -0.329 C  
HETATM    8  C   UNL     2     -11.127  14.843  67.432  1.00  0.00    -0.325 C  
HETATM    9  C   UNL     2     -10.366  17.476  66.050  1.00  0.00    -0.309 C  
BRANCH   8  10
HETATM   10  C   UNL     2     -10.981  13.439  68.018  1.00  0.00    -0.265 C  
BRANCH  10  11
HETATM   11  C   UNL     2     -11.215  12.252  67.058  1.00  0.00    -0.310 C  
BRANCH  11  12
HETATM   12  C   UNL     2     -12.024  12.702  65.818  1.00  0.00    -0.503 C  
HETATM   13  C   UNL     2     -10.884  11.223  64.056  1.00  0.00    -0.414 C  
HETATM   14  C   UNL     2     -11.279  12.644  64.465  1.00  0.00    -0.375 C  
HETATM   15  C   UNL     2     -12.168  13.242  63.364  1.00  0.00    -0.476 C  
ENDBRANCH  11  12
BRANCH  11  16
HETATM   16  O   UNL     2      -9.954  11.757  66.614  1.00  0.00    -0.196 OA 
HETATM   17  O   UNL     2     -10.434   9.522  67.473  1.00  0.00    -0.241 OA 
HETATM   18  O   UNL     2      -8.299   9.991  66.361  1.00  0.00    -0.123 OA 
HETATM   19  S   UNL     2      -9.305  10.434  67.321  1.00  0.00    -0.146 S  
HETATM   20  O   UNL     2      -8.771  10.919  68.587  1.00  0.00    -0.142 OA 
ENDBRANCH  11  16
ENDBRANCH  10  11
ENDBRANCH   8  10
ENDBRANCH   4   5
ENDBRANCH   3   4
TORSDOF 6
ENDMDL
MODEL      214
REMARK 921   NORMALIZED FREE ENERGY PREDICTED BY IDOCK:   -3.41 KCAL/MOL
REMARK 922        TOTAL FREE ENERGY PREDICTED BY IDOCK:   -5.81 KCAL/MOL
REMARK 923 INTER-LIGAND FREE ENERGY PREDICTED BY IDOCK:   -5.29 KCAL/MOL
REMARK 924 INTRA-LIGAND FREE ENERGY PREDICTED BY IDOCK:   -0.52 KCAL/MOL
REMARK 927      BINDING AFFINITY PREDICTED BY RF-SCORE:    0.00 PKD
ROOT
HETATM    1 NA   UNL     1     -11.615   8.725  67.242  1.00  0.00    -0.444 Na 
HETATM    2  C   UNL     2     -10.055   9.187  70.584  1.00  0.00    -0.307 C  
HETATM    3  C   UNL     2      -8.793   9.688  69.897  1.00  0.00    -0.240 C  
ENDROOT
BRANCH   3   4
HETATM    4  C   UNL     2      -9.004   9.817  68.389  1.00  0.00    -0.123 C  
BRANCH   4   5
HETATM    5  C   UNL     2      -9.268  11.251  67.918  1.00  0.00    -0.157 C  
HETATM    6  C   UNL     2      -8.349  12.347  68.512  1.00  0.00    -0.081 C  
HETATM    7  C   UNL     2      -6.841  12.060  68.332  1.00  0.00    -0.072 C  
HETATM    8  C   UNL     2      -8.694  13.743  67.937  1.00  0.00    -0.183 C  
HETATM    9  C   UNL     2      -6.339  12.074  66.893  1.00  0.00    -0.066 C  
BRANCH   8  10
HETATM   10  C   UNL     2     -10.133  14.207  68.161  1.00  0.00    -0.239 C  
BRANCH  10  11
HETATM   11  C   UNL     2     -10.329  15.619  68.756  1.00  0.00    -0.218 C  
BRANCH  11  12
HETATM   12  C   UNL     2     -10.139  16.703  67.667  1.00  0.00    -0.272 C  
HETATM   13  C   UNL     2      -9.750  18.725  69.201  1.00  0.00    -0.243 C  
HETATM   14  C   UNL     2     -10.574  18.134  68.054  1.00  0.00    -0.359 C  
HETATM   15  C   UNL     2     -10.444  19.057  66.832  1.00  0.00    -0.505 C  
ENDBRANCH  11  12
BRANCH  11  16
HETATM   16  O   UNL     2     -11.654  15.728  69.270  1.00  0.00    -0.333 OA 
HETATM   17  O   UNL     2     -10.870  15.511  71.573  1.00  0.00    -0.219 OA 
HETATM   18  O   UNL     2     -13.260  15.779  71.098  1.00  0.00    -0.526 OA 
HETATM   19  S   UNL     2     -12.007  15.120  70.746  1.00  0.00    -0.363 S  
HETATM   20  O   UNL     2     -12.109  13.682  70.536  1.00  0.00    -0.338 OA 
ENDBRANCH  11  16
ENDBRANCH  10  11
ENDBRANCH   8  10
ENDBRANCH   4   5
ENDBRANCH   3   4
TORSDOF 6
ENDMDL
MODEL      215
REMARK 921   NORMALIZED FREE ENERGY PREDICTED BY IDOCK:   -3.41 KCAL/MOL
REMARK 922        TOTAL FREE ENERGY PREDICTED BY IDOCK:   -5.81 KCAL/MOL
REMARK 923 INTER-LIGAND FREE ENERGY PREDICTED BY IDOCK:   -4.86 KCAL/MOL
REMARK 924 INTRA-LIGAND FREE ENERGY PREDICTED BY IDOCK:   -0.95 KCAL/MOL
REMARK 927      BINDING AFFINITY PREDICTED BY RF-SCORE:    0.00 PKD
ROOT
HETATM    1 NA   UNL     1     -12.469  10.591  71.812  1.00  0.00    -0.304 Na 
HETATM    2  C   UNL     2      -9.236   8.775  72.053  1.00  0.00    -0.294 C  
HETATM    3  C   UNL     2      -9.093   8.879  70.542  1.00  0.00    -0.233 C  
ENDROOT
BRANCH   3   4
HETATM    4  C   UNL     2     -10.210   9.733  69.944  1.00  0.00    -0.291 C  
BRANCH   4   5
HETATM    5  C   UNL     2      -9.725  10.766  68.922  1.00  0.00    -0.207 C  
HETATM    6  C   UNL     2      -8.576  10.317  67.986  1.00  0.00    -0.118 C  
HETATM    7  C   UNL     2      -8.868   9.002  67.228  1.00  0.00    -0.126 C  
HETATM    8  C   UNL     2      -8.197  11.433  66.983  1.00  0.00    -0.160 C  
HETATM    9  C   UNL     2      -9.998   9.072  66.209  1.00  0.00    -0.352 C  
BRANCH   8  10
HETATM   10  C   UNL     2      -7.762  12.759  67.609  1.00  0.00    -0.162 C  
BRANCH  10  11
HETATM   11  C   UNL     2      -8.386  14.046  67.026  1.00  0.00    -0.104 C  
BRANCH  11  12
HETATM   12  C   UNL     2      -9.931  13.960  67.039  1.00  0.00    -0.258 C  
HETATM   13  C   UNL     2     -10.290  13.102  64.646  1.00  0.00    -0.381 C  
HETATM   14  C   UNL     2     -10.633  14.177  65.680  1.00  0.00    -0.317 C  
HETATM   15  C   UNL     2     -12.156  14.190  65.886  1.00  0.00    -0.441 C  
ENDBRANCH  11  12
BRANCH  11  16
HETATM   16  O   UNL     2      -7.993  15.158  67.827  1.00  0.00    -0.125 OA 
HETATM   17  O   UNL     2      -7.852  16.621  65.876  1.00  0.00    -0.237 OA 
HETATM   18  O   UNL     2      -7.334  17.483  68.112  1.00  0.00    -0.204 OA 
HETATM   19  S   UNL     2      -7.173  16.399  67.148  1.00  0.00    -0.219 S  
HETATM   20  O   UNL     2      -5.811  15.905  67.005  1.00  0.00    -0.329 OA 
ENDBRANCH  11  16
ENDBRANCH  10  11
ENDBRANCH   8  10
ENDBRANCH   4   5
ENDBRANCH   3   4
TORSDOF 6
ENDMDL
MODEL      216
REMARK 921   NORMALIZED FREE ENERGY PREDICTED BY IDOCK:   -3.41 KCAL/MOL
REMARK 922        TOTAL FREE ENERGY PREDICTED BY IDOCK:   -5.81 KCAL/MOL
REMARK 923 INTER-LIGAND FREE ENERGY PREDICTED BY IDOCK:   -4.60 KCAL/MOL
REMARK 924 INTRA-LIGAND FREE ENERGY PREDICTED BY IDOCK:   -1.21 KCAL/MOL
REMARK 927      BINDING AFFINITY PREDICTED BY RF-SCORE:    0.00 PKD
ROOT
HETATM    1 NA   UNL     1     -10.107  14.851  70.782  1.00  0.00    -0.445 Na 
HETATM    2  C   UNL     2      -7.409  14.962  68.229  1.00  0.00    -0.109 C  
HETATM    3  C   UNL     2      -8.186  13.949  67.400  1.00  0.00    -0.198 C  
ENDROOT
BRANCH   3   4
HETATM    4  C   UNL     2      -9.551  13.663  68.023  1.00  0.00    -0.216 C  
BRANCH   4   5
HETATM    5  C   UNL     2      -9.766  12.197  68.410  1.00  0.00    -0.193 C  
HETATM    6  C   UNL     2     -11.080  11.543  67.917  1.00  0.00    -0.317 C  
HETATM    7  C   UNL     2     -11.303  11.668  66.393  1.00  0.00    -0.312 C  
HETATM    8  C   UNL     2     -11.166  10.058  68.344  1.00  0.00    -0.187 C  
HETATM    9  C   UNL     2     -10.310  10.907  65.522  1.00  0.00    -0.316 C  
BRANCH   8  10
HETATM   10  C   UNL     2     -11.087   9.803  69.850  1.00  0.00    -0.293 C  
BRANCH  10  11
HETATM   11  C   UNL     2     -10.094   8.719  70.324  1.00  0.00    -0.191 C  
BRANCH  11  12
HETATM   12  C   UNL     2      -8.722   9.347  70.670  1.00  0.00    -0.263 C  
HETATM   13  C   UNL     2      -7.594   9.095  68.377  1.00  0.00    -0.083 C  
HETATM   14  C   UNL     2      -7.511   8.806  69.878  1.00  0.00    -0.053 C  
HETATM   15  C   UNL     2      -6.219   9.431  70.426  1.00  0.00    -0.061 C  
ENDBRANCH  11  12
BRANCH  11  16
HETATM   16  O   UNL     2     -10.610   8.098  71.499  1.00  0.00    -0.215 OA 
HETATM   17  O   UNL     2     -10.568   5.891  70.452  1.00  0.00    -0.242 OA 
HETATM   18  O   UNL     2     -11.367   6.155  72.755  1.00  0.00    -0.264 OA 
HETATM   19  S   UNL     2     -11.383   6.661  71.386  1.00  0.00    -0.305 S  
HETATM   20  O   UNL     2     -12.704   6.994  70.872  1.00  0.00    -0.334 OA 
ENDBRANCH  11  16
ENDBRANCH  10  11
ENDBRANCH   8  10
ENDBRANCH   4   5
ENDBRANCH   3   4
TORSDOF 6
ENDMDL
MODEL      217
REMARK 921   NORMALIZED FREE ENERGY PREDICTED BY IDOCK:   -3.40 KCAL/MOL
REMARK 922        TOTAL FREE ENERGY PREDICTED BY IDOCK:   -5.80 KCAL/MOL
REMARK 923 INTER-LIGAND FREE ENERGY PREDICTED BY IDOCK:   -4.97 KCAL/MOL
REMARK 924 INTRA-LIGAND FREE ENERGY PREDICTED BY IDOCK:   -0.83 KCAL/MOL
REMARK 927      BINDING AFFINITY PREDICTED BY RF-SCORE:    0.00 PKD
ROOT
HETATM    1 NA   UNL     1     -10.807  14.937  71.558  1.00  0.00    -0.386 Na 
HETATM    2  C   UNL     2     -10.319  17.243  68.683  1.00  0.00    -0.357 C  
HETATM    3  C   UNL     2     -10.848  16.158  67.756  1.00  0.00    -0.318 C  
ENDROOT
BRANCH   3   4
HETATM    4  C   UNL     2     -11.348  14.954  68.551  1.00  0.00    -0.314 C  
BRANCH   4   5
HETATM    5  C   UNL     2     -10.495  13.693  68.377  1.00  0.00    -0.251 C  
HETATM    6  C   UNL     2     -11.210  12.460  67.773  1.00  0.00    -0.327 C  
HETATM    7  C   UNL     2     -11.911  12.746  66.425  1.00  0.00    -0.443 C  
HETATM    8  C   UNL     2     -10.239  11.264  67.620  1.00  0.00    -0.206 C  
HETATM    9  C   UNL     2     -10.985  13.085  65.264  1.00  0.00    -0.307 C  
BRANCH   8  10
HETATM   10  C   UNL     2      -9.569  10.795  68.911  1.00  0.00    -0.204 C  
BRANCH  10  11
HETATM   11  C   UNL     2      -9.239   9.290  69.021  1.00  0.00    -0.144 C  
BRANCH  11  12
HETATM   12  C   UNL     2     -10.516   8.471  69.331  1.00  0.00    -0.223 C  
HETATM   13  C   UNL     2     -10.557   8.770  71.881  1.00  0.00    -0.425 C  
HETATM   14  C   UNL     2     -10.559   7.781  70.713  1.00  0.00    -0.220 C  
HETATM   15  C   UNL     2     -11.821   6.910  70.812  1.00  0.00    -0.427 C  
ENDBRANCH  11  12
BRANCH  11  16
HETATM   16  O   UNL     2      -8.708   8.837  67.778  1.00  0.00    -0.134 OA 
HETATM   17  O   UNL     2      -7.030   7.461  68.899  1.00  0.00    -0.072 OA 
HETATM   18  O   UNL     2      -7.137   7.537  66.450  1.00  0.00    -0.068 OA 
HETATM   19  S   UNL     2      -7.171   8.285  67.703  1.00  0.00    -0.089 S  
HETATM   20  O   UNL     2      -6.348   9.487  67.721  1.00  0.00    -0.057 OA 
ENDBRANCH  11  16
ENDBRANCH  10  11
ENDBRANCH   8  10
ENDBRANCH   4   5
ENDBRANCH   3   4
TORSDOF 6
ENDMDL
MODEL      218
REMARK 921   NORMALIZED FREE ENERGY PREDICTED BY IDOCK:   -3.40 KCAL/MOL
REMARK 922        TOTAL FREE ENERGY PREDICTED BY IDOCK:   -5.80 KCAL/MOL
REMARK 923 INTER-LIGAND FREE ENERGY PREDICTED BY IDOCK:   -5.07 KCAL/MOL
REMARK 924 INTRA-LIGAND FREE ENERGY PREDICTED BY IDOCK:   -0.73 KCAL/MOL
REMARK 927      BINDING AFFINITY PREDICTED BY RF-SCORE:    0.00 PKD
ROOT
HETATM    1 NA   UNL     1     -10.932   9.929  72.398  1.00  0.00    -0.123 Na 
HETATM    2  C   UNL     2     -11.543   6.294  71.924  1.00  0.00    -0.369 C  
HETATM    3  C   UNL     2     -10.662   6.333  70.684  1.00  0.00    -0.321 C  
ENDROOT
BRANCH   3   4
HETATM    4  C   UNL     2     -10.011   7.705  70.518  1.00  0.00    -0.184 C  
BRANCH   4   5
HETATM    5  C   UNL     2     -10.673   8.584  69.452  1.00  0.00    -0.166 C  
HETATM    6  C   UNL     2      -9.866   8.806  68.149  1.00  0.00    -0.194 C  
HETATM    7  C   UNL     2      -9.413   7.495  67.466  1.00  0.00    -0.165 C  
HETATM    8  C   UNL     2     -10.650   9.682  67.143  1.00  0.00    -0.298 C  
HETATM    9  C   UNL     2     -10.535   6.624  66.914  1.00  0.00    -0.349 C  
BRANCH   8  10
HETATM   10  C   UNL     2     -11.051  11.067  67.652  1.00  0.00    -0.363 C  
BRANCH  10  11
HETATM   11  C   UNL     2     -10.538  12.283  66.850  1.00  0.00    -0.224 C  
BRANCH  11  12
HETATM   12  C   UNL     2      -9.328  12.937  67.561  1.00  0.00    -0.190 C  
HETATM   13  C   UNL     2      -7.481  11.382  66.685  1.00  0.00    -0.110 C  
HETATM   14  C   UNL     2      -8.158  11.990  67.915  1.00  0.00    -0.150 C  
HETATM   15  C   UNL     2      -7.104  12.760  68.725  1.00  0.00    -0.089 C  
ENDBRANCH  11  12
BRANCH  11  16
HETATM   16  O   UNL     2     -10.116  11.847  65.561  1.00  0.00    -0.232 OA 
HETATM   17  O   UNL     2     -10.831  13.940  64.525  1.00  0.00    -0.398 OA 
HETATM   18  O   UNL     2      -9.831  12.162  63.164  1.00  0.00    -0.398 OA 
HETATM   19  S   UNL     2     -10.774  12.514  64.221  1.00  0.00    -0.400 S  
HETATM   20  O   UNL     2     -12.084  11.889  64.105  1.00  0.00    -0.351 OA 
ENDBRANCH  11  16
ENDBRANCH  10  11
ENDBRANCH   8  10
ENDBRANCH   4   5
ENDBRANCH   3   4
TORSDOF 6
ENDMDL
MODEL      219
REMARK 921   NORMALIZED FREE ENERGY PREDICTED BY IDOCK:   -3.40 KCAL/MOL
REMARK 922        TOTAL FREE ENERGY PREDICTED BY IDOCK:   -5.80 KCAL/MOL
REMARK 923 INTER-LIGAND FREE ENERGY PREDICTED BY IDOCK:   -6.18 KCAL/MOL
REMARK 924 INTRA-LIGAND FREE ENERGY PREDICTED BY IDOCK:    0.39 KCAL/MOL
REMARK 927      BINDING AFFINITY PREDICTED BY RF-SCORE:    0.00 PKD
ROOT
HETATM    1 NA   UNL     1      -9.660  14.916  70.901  1.00  0.00    -0.453 Na 
HETATM    2  C   UNL     2      -6.059  14.060  71.237  1.00  0.00    -0.040 C  
HETATM    3  C   UNL     2      -5.761  14.956  70.043  1.00  0.00    -0.127 C  
ENDROOT
BRANCH   3   4
HETATM    4  C   UNL     2      -7.015  15.702  69.591  1.00  0.00    -0.167 C  
BRANCH   4   5
HETATM    5  C   UNL     2      -7.911  14.898  68.644  1.00  0.00    -0.144 C  
HETATM    6  C   UNL     2      -9.215  15.593  68.180  1.00  0.00    -0.185 C  
HETATM    7  C   UNL     2      -8.987  16.985  67.548  1.00  0.00    -0.220 C  
HETATM    8  C   UNL     2     -10.016  14.695  67.206  1.00  0.00    -0.235 C  
HETATM    9  C   UNL     2      -8.225  16.988  66.228  1.00  0.00    -0.322 C  
BRANCH   8  10
HETATM   10  C   UNL     2     -10.419  13.327  67.757  1.00  0.00    -0.242 C  
BRANCH  10  11
HETATM   11  C   UNL     2     -11.741  12.724  67.232  1.00  0.00    -0.378 C  
BRANCH  11  12
HETATM   12  C   UNL     2     -11.587  12.264  65.762  1.00  0.00    -0.443 C  
HETATM   13  C   UNL     2     -12.317  14.436  64.601  1.00  0.00    -0.435 C  
HETATM   14  C   UNL     2     -12.539  12.928  64.742  1.00  0.00    -0.493 C  
HETATM   15  C   UNL     2     -12.350  12.274  63.364  1.00  0.00    -0.624 C  
ENDBRANCH  11  12
BRANCH  11  16
HETATM   16  O   UNL     2     -12.080  11.587  68.023  1.00  0.00    -0.617 OA 
HETATM   17  O   UNL     2     -11.796  12.841  70.099  1.00  0.00    -0.319 OA 
HETATM   18  O   UNL     2     -12.442  10.476  70.157  1.00  0.00    -0.295 OA 
HETATM   19  S   UNL     2     -11.576  11.497  69.575  1.00  0.00    -0.357 S  
HETATM   20  O   UNL     2     -10.170  11.128  69.485  1.00  0.00    -0.091 OA 
ENDBRANCH  11  16
ENDBRANCH  10  11
ENDBRANCH   8  10
ENDBRANCH   4   5
ENDBRANCH   3   4
TORSDOF 6
ENDMDL
MODEL      220
REMARK 921   NORMALIZED FREE ENERGY PREDICTED BY IDOCK:   -3.40 KCAL/MOL
REMARK 922        TOTAL FREE ENERGY PREDICTED BY IDOCK:   -5.80 KCAL/MOL
REMARK 923 INTER-LIGAND FREE ENERGY PREDICTED BY IDOCK:   -5.33 KCAL/MOL
REMARK 924 INTRA-LIGAND FREE ENERGY PREDICTED BY IDOCK:   -0.47 KCAL/MOL
REMARK 927      BINDING AFFINITY PREDICTED BY RF-SCORE:    0.00 PKD
ROOT
HETATM    1 NA   UNL     1     -13.251  12.486  63.830  1.00  0.00    -0.587 Na 
HETATM    2  C   UNL     2     -11.499  15.739  64.232  1.00  0.00    -0.203 C  
HETATM    3  C   UNL     2     -11.026  15.286  65.606  1.00  0.00    -0.348 C  
ENDROOT
BRANCH   3   4
HETATM    4  C   UNL     2     -11.416  13.832  65.867  1.00  0.00    -0.330 C  
BRANCH   4   5
HETATM    5  C   UNL     2     -10.230  12.919  66.194  1.00  0.00    -0.286 C  
HETATM    6  C   UNL     2     -10.365  11.439  65.758  1.00  0.00    -0.304 C  
HETATM    7  C   UNL     2     -10.701  11.260  64.260  1.00  0.00    -0.416 C  
HETATM    8  C   UNL     2      -9.095  10.629  66.116  1.00  0.00    -0.190 C  
HETATM    9  C   UNL     2      -9.614  11.703  63.288  1.00  0.00    -0.334 C  
BRANCH   8  10
HETATM   10  C   UNL     2      -8.720  10.618  67.598  1.00  0.00    -0.121 C  
BRANCH  10  11
HETATM   11  C   UNL     2      -9.443   9.589  68.495  1.00  0.00    -0.141 C  
BRANCH  11  12
HETATM   12  C   UNL     2     -10.380   8.690  67.652  1.00  0.00    -0.317 C  
HETATM   13  C   UNL     2     -10.890   6.899  69.419  1.00  0.00    -0.283 C  
HETATM   14  C   UNL     2     -10.376   7.186  68.007  1.00  0.00    -0.238 C  
HETATM   15  C   UNL     2     -11.251   6.420  67.002  1.00  0.00    -0.274 C  
ENDBRANCH  11  12
BRANCH  11  16
HETATM   16  O   UNL     2      -8.473   8.756  69.124  1.00  0.00    -0.119 OA 
HETATM   17  O   UNL     2      -9.428   9.167  71.334  1.00  0.00    -0.267 OA 
HETATM   18  O   UNL     2      -7.466   7.718  71.082  1.00  0.00    -0.074 OA 
HETATM   19  S   UNL     2      -8.126   8.965  70.708  1.00  0.00    -0.171 S  
HETATM   20  O   UNL     2      -7.271  10.144  70.744  1.00  0.00    -0.320 OA 
ENDBRANCH  11  16
ENDBRANCH  10  11
ENDBRANCH   8  10
ENDBRANCH   4   5
ENDBRANCH   3   4
TORSDOF 6
ENDMDL
MODEL      221
REMARK 921   NORMALIZED FREE ENERGY PREDICTED BY IDOCK:   -3.38 KCAL/MOL
REMARK 922        TOTAL FREE ENERGY PREDICTED BY IDOCK:   -5.78 KCAL/MOL
REMARK 923 INTER-LIGAND FREE ENERGY PREDICTED BY IDOCK:   -5.34 KCAL/MOL
REMARK 924 INTRA-LIGAND FREE ENERGY PREDICTED BY IDOCK:   -0.44 KCAL/MOL
REMARK 927      BINDING AFFINITY PREDICTED BY RF-SCORE:    0.00 PKD
ROOT
HETATM    1 NA   UNL     1     -10.210   7.251  66.987  1.00  0.00    -0.150 Na 
HETATM    2  C   UNL     2      -9.155   4.344  69.050  1.00  0.00    -0.180 C  
HETATM    3  C   UNL     2     -10.170   4.756  70.105  1.00  0.00    -0.259 C  
ENDROOT
BRANCH   3   4
HETATM    4  C   UNL     2     -11.022   5.927  69.618  1.00  0.00    -0.447 C  
BRANCH   4   5
HETATM    5  C   UNL     2     -10.367   7.298  69.815  1.00  0.00    -0.227 C  
HETATM    6  C   UNL     2     -11.258   8.399  70.441  1.00  0.00    -0.220 C  
HETATM    7  C   UNL     2     -11.905   7.988  71.783  1.00  0.00    -0.339 C  
HETATM    8  C   UNL     2     -10.477   9.725  70.615  1.00  0.00    -0.358 C  
HETATM    9  C   UNL     2     -10.935   7.772  72.938  1.00  0.00    -0.467 C  
BRANCH   8  10
HETATM   10  C   UNL     2      -9.889  10.312  69.332  1.00  0.00    -0.247 C  
BRANCH  10  11
HETATM   11  C   UNL     2     -10.890  10.754  68.242  1.00  0.00    -0.229 C  
BRANCH  11  12
HETATM   12  C   UNL     2     -11.891  11.791  68.806  1.00  0.00    -0.380 C  
HETATM   13  C   UNL     2     -10.592  13.931  68.231  1.00  0.00    -0.263 C  
HETATM   14  C   UNL     2     -11.277  13.111  69.327  1.00  0.00    -0.266 C  
HETATM   15  C   UNL     2     -12.378  13.970  69.967  1.00  0.00    -0.397 C  
ENDBRANCH  11  12
BRANCH  11  16
HETATM   16  O   UNL     2     -10.173  11.361  67.170  1.00  0.00    -0.195 OA 
HETATM   17  O   UNL     2     -10.233   9.305  65.853  1.00  0.00    -0.245 OA 
HETATM   18  O   UNL     2      -9.126  11.309  64.973  1.00  0.00    -0.173 OA 
HETATM   19  S   UNL     2      -9.339  10.428  66.118  1.00  0.00    -0.180 S  
HETATM   20  O   UNL     2      -8.129  10.055  66.836  1.00  0.00    -0.116 OA 
ENDBRANCH  11  16
ENDBRANCH  10  11
ENDBRANCH   8  10
ENDBRANCH   4   5
ENDBRANCH   3   4
TORSDOF 6
ENDMDL
MODEL      222
REMARK 921   NORMALIZED FREE ENERGY PREDICTED BY IDOCK:   -3.38 KCAL/MOL
REMARK 922        TOTAL FREE ENERGY PREDICTED BY IDOCK:   -5.77 KCAL/MOL
REMARK 923 INTER-LIGAND FREE ENERGY PREDICTED BY IDOCK:   -5.31 KCAL/MOL
REMARK 924 INTRA-LIGAND FREE ENERGY PREDICTED BY IDOCK:   -0.46 KCAL/MOL
REMARK 927      BINDING AFFINITY PREDICTED BY RF-SCORE:    0.00 PKD
ROOT
HETATM    1 NA   UNL     1     -11.639  17.094  67.681  1.00  0.00    -0.238 Na 
HETATM    2  C   UNL     2      -7.924  16.986  67.653  1.00  0.00    -0.187 C  
HETATM    3  C   UNL     2      -7.992  15.703  66.837  1.00  0.00    -0.278 C  
ENDROOT
BRANCH   3   4
HETATM    4  C   UNL     2      -9.433  15.379  66.446  1.00  0.00    -0.325 C  
BRANCH   4   5
HETATM    5  C   UNL     2      -9.742  13.879  66.392  1.00  0.00    -0.309 C  
HETATM    6  C   UNL     2     -11.195  13.466  66.732  1.00  0.00    -0.332 C  
HETATM    7  C   UNL     2     -12.264  14.200  65.891  1.00  0.00    -0.458 C  
HETATM    8  C   UNL     2     -11.388  11.935  66.613  1.00  0.00    -0.400 C  
HETATM    9  C   UNL     2     -12.261  13.876  64.402  1.00  0.00    -0.449 C  
BRANCH   8  10
HETATM   10  C   UNL     2     -10.472  11.088  67.497  1.00  0.00    -0.244 C  
BRANCH  10  11
HETATM   11  C   UNL     2     -10.392   9.579  67.178  1.00  0.00    -0.253 C  
BRANCH  11  12
HETATM   12  C   UNL     2      -9.761   9.347  65.783  1.00  0.00    -0.354 C  
HETATM   13  C   UNL     2      -7.603  10.702  66.106  1.00  0.00    -0.138 C  
HETATM   14  C   UNL     2      -8.855  10.481  65.253  1.00  0.00    -0.205 C  
HETATM   15  C   UNL     2      -8.417  10.158  63.816  1.00  0.00    -0.181 C  
ENDBRANCH  11  12
BRANCH  11  16
HETATM   16  O   UNL     2      -9.570   8.940  68.152  1.00  0.00    -0.142 OA 
HETATM   17  O   UNL     2     -10.893   6.889  68.045  1.00  0.00    -0.222 OA 
HETATM   18  O   UNL     2      -8.968   7.046  69.557  1.00  0.00    -0.143 OA 
HETATM   19  S   UNL     2     -10.164   7.690  69.023  1.00  0.00    -0.209 S  
HETATM   20  O   UNL     2     -11.021   8.314  70.022  1.00  0.00    -0.247 OA 
ENDBRANCH  11  16
ENDBRANCH  10  11
ENDBRANCH   8  10
ENDBRANCH   4   5
ENDBRANCH   3   4
TORSDOF 6
ENDMDL
MODEL      223
REMARK 921   NORMALIZED FREE ENERGY PREDICTED BY IDOCK:   -3.38 KCAL/MOL
REMARK 922        TOTAL FREE ENERGY PREDICTED BY IDOCK:   -5.77 KCAL/MOL
REMARK 923 INTER-LIGAND FREE ENERGY PREDICTED BY IDOCK:   -4.98 KCAL/MOL
REMARK 924 INTRA-LIGAND FREE ENERGY PREDICTED BY IDOCK:   -0.79 KCAL/MOL
REMARK 927      BINDING AFFINITY PREDICTED BY RF-SCORE:    0.00 PKD
ROOT
HETATM    1 NA   UNL     1      -6.585   9.841  66.984  1.00  0.00    -0.062 Na 
HETATM    2  C   UNL     2      -9.906  11.478  67.311  1.00  0.00    -0.208 C  
HETATM    3  C   UNL     2     -10.561  10.184  66.852  1.00  0.00    -0.267 C  
ENDROOT
BRANCH   3   4
HETATM    4  C   UNL     2      -9.527   9.069  66.703  1.00  0.00    -0.251 C  
BRANCH   4   5
HETATM    5  C   UNL     2      -9.413   8.158  67.930  1.00  0.00    -0.162 C  
HETATM    6  C   UNL     2     -10.631   7.248  68.223  1.00  0.00    -0.217 C  
HETATM    7  C   UNL     2     -11.057   6.372  67.023  1.00  0.00    -0.405 C  
HETATM    8  C   UNL     2     -10.382   6.357  69.465  1.00  0.00    -0.252 C  
HETATM    9  C   UNL     2     -10.052   5.308  66.599  1.00  0.00    -0.259 C  
BRANCH   8  10
HETATM   10  C   UNL     2     -10.074   7.109  70.760  1.00  0.00    -0.197 C  
BRANCH  10  11
HETATM   11  C   UNL     2     -11.093   6.966  71.911  1.00  0.00    -0.246 C  
BRANCH  11  12
HETATM   12  C   UNL     2     -10.463   6.216  73.110  1.00  0.00    -0.254 C  
HETATM   13  C   UNL     2     -10.392   3.858  72.094  1.00  0.00    -0.139 C  
HETATM   14  C   UNL     2     -10.860   4.730  73.262  1.00  0.00    -0.351 C  
HETATM   15  C   UNL     2     -10.260   4.170  74.562  1.00  0.00    -0.264 C  
ENDBRANCH  11  12
BRANCH  11  16
HETATM   16  O   UNL     2     -11.483   8.265  72.351  1.00  0.00    -0.355 OA 
HETATM   17  O   UNL     2     -13.711   8.017  71.382  1.00  0.00    -0.308 OA 
HETATM   18  O   UNL     2     -13.089  10.083  72.548  1.00  0.00    -0.253 OA 
HETATM   19  S   UNL     2     -12.701   9.049  71.593  1.00  0.00    -0.379 S  
HETATM   20  O   UNL     2     -12.106   9.546  70.360  1.00  0.00    -0.155 OA 
ENDBRANCH  11  16
ENDBRANCH  10  11
ENDBRANCH   8  10
ENDBRANCH   4   5
ENDBRANCH   3   4
TORSDOF 6
ENDMDL
MODEL      224
REMARK 921   NORMALIZED FREE ENERGY PREDICTED BY IDOCK:   -3.38 KCAL/MOL
REMARK 922        TOTAL FREE ENERGY PREDICTED BY IDOCK:   -5.77 KCAL/MOL
REMARK 923 INTER-LIGAND FREE ENERGY PREDICTED BY IDOCK:   -4.82 KCAL/MOL
REMARK 924 INTRA-LIGAND FREE ENERGY PREDICTED BY IDOCK:   -0.95 KCAL/MOL
REMARK 927      BINDING AFFINITY PREDICTED BY RF-SCORE:    0.00 PKD
ROOT
HETATM    1 NA   UNL     1      -9.106   6.071  69.825  1.00  0.00    -0.125 Na 
HETATM    2  C   UNL     2     -10.337   7.983  72.765  1.00  0.00    -0.408 C  
HETATM    3  C   UNL     2     -11.096   8.901  71.818  1.00  0.00    -0.433 C  
ENDROOT
BRANCH   3   4
HETATM    4  C   UNL     2     -11.001   8.402  70.377  1.00  0.00    -0.249 C  
BRANCH   4   5
HETATM    5  C   UNL     2     -10.740   9.508  69.350  1.00  0.00    -0.244 C  
HETATM    6  C   UNL     2      -9.302  10.081  69.312  1.00  0.00    -0.224 C  
HETATM    7  C   UNL     2      -8.206   9.005  69.137  1.00  0.00    -0.121 C  
HETATM    8  C   UNL     2      -9.156  11.166  68.218  1.00  0.00    -0.162 C  
HETATM    9  C   UNL     2      -8.213   8.275  67.800  1.00  0.00    -0.127 C  
BRANCH   8  10
HETATM   10  C   UNL     2     -10.102  12.360  68.347  1.00  0.00    -0.217 C  
BRANCH  10  11
HETATM   11  C   UNL     2      -9.504  13.759  68.082  1.00  0.00    -0.212 C  
BRANCH  11  12
HETATM   12  C   UNL     2      -8.001  13.790  68.449  1.00  0.00    -0.144 C  
HETATM   13  C   UNL     2      -7.662  16.336  68.467  1.00  0.00    -0.189 C  
HETATM   14  C   UNL     2      -7.195  14.991  67.904  1.00  0.00    -0.162 C  
HETATM   15  C   UNL     2      -5.708  14.807  68.243  1.00  0.00    -0.116 C  
ENDBRANCH  11  12
BRANCH  11  16
HETATM   16  O   UNL     2      -9.632  14.065  66.695  1.00  0.00    -0.270 OA 
HETATM   17  O   UNL     2     -10.840  16.132  67.176  1.00  0.00    -0.302 OA 
HETATM   18  O   UNL     2     -10.390  15.470  64.858  1.00  0.00    -0.382 OA 
HETATM   19  S   UNL     2     -10.828  15.058  66.189  1.00  0.00    -0.333 S  
HETATM   20  O   UNL     2     -12.026  14.231  66.210  1.00  0.00    -0.396 OA 
ENDBRANCH  11  16
ENDBRANCH  10  11
ENDBRANCH   8  10
ENDBRANCH   4   5
ENDBRANCH   3   4
TORSDOF 6
ENDMDL
MODEL      225
REMARK 921   NORMALIZED FREE ENERGY PREDICTED BY IDOCK:   -3.37 KCAL/MOL
REMARK 922        TOTAL FREE ENERGY PREDICTED BY IDOCK:   -5.76 KCAL/MOL
REMARK 923 INTER-LIGAND FREE ENERGY PREDICTED BY IDOCK:   -4.88 KCAL/MOL
REMARK 924 INTRA-LIGAND FREE ENERGY PREDICTED BY IDOCK:   -0.88 KCAL/MOL
REMARK 927      BINDING AFFINITY PREDICTED BY RF-SCORE:    0.00 PKD
ROOT
HETATM    1 NA   UNL     1      -7.327  18.123  65.242  1.00  0.00    -0.225 Na 
HETATM    2  C   UNL     2     -10.084  19.814  67.073  1.00  0.00    -0.551 C  
HETATM    3  C   UNL     2      -9.550  19.225  68.370  1.00  0.00    -0.450 C  
ENDROOT
BRANCH   3   4
HETATM    4  C   UNL     2      -8.231  18.491  68.137  1.00  0.00    -0.315 C  
BRANCH   4   5
HETATM    5  C   UNL     2      -8.291  16.990  68.438  1.00  0.00    -0.241 C  
HETATM    6  C   UNL     2      -7.444  16.072  67.522  1.00  0.00    -0.186 C  
HETATM    7  C   UNL     2      -5.955  16.479  67.438  1.00  0.00    -0.188 C  
HETATM    8  C   UNL     2      -7.564  14.588  67.945  1.00  0.00    -0.153 C  
HETATM    9  C   UNL     2      -5.163  16.330  68.731  1.00  0.00    -0.108 C  
BRANCH   8  10
HETATM   10  C   UNL     2      -8.983  14.019  67.946  1.00  0.00    -0.188 C  
BRANCH  10  11
HETATM   11  C   UNL     2      -9.120  12.481  67.921  1.00  0.00    -0.199 C  
BRANCH  11  12
HETATM   12  C   UNL     2      -7.958  11.815  68.696  1.00  0.00    -0.116 C  
HETATM   13  C   UNL     2      -6.378  11.377  66.719  1.00  0.00    -0.142 C  
HETATM   14  C   UNL     2      -7.128  10.775  67.910  1.00  0.00    -0.085 C  
HETATM   15  C   UNL     2      -6.106  10.118  68.851  1.00  0.00    -0.043 C  
ENDBRANCH  11  12
BRANCH  11  16
HETATM   16  O   UNL     2     -10.345  12.112  68.549  1.00  0.00    -0.220 OA 
HETATM   17  O   UNL     2     -10.805  10.420  66.849  1.00  0.00    -0.236 OA 
HETATM   18  O   UNL     2     -12.383  10.789  68.690  1.00  0.00    -0.430 OA 
HETATM   19  S   UNL     2     -11.521  11.387  67.675  1.00  0.00    -0.239 S  
HETATM   20  O   UNL     2     -12.132  12.466  66.912  1.00  0.00    -0.564 OA 
ENDBRANCH  11  16
ENDBRANCH  10  11
ENDBRANCH   8  10
ENDBRANCH   4   5
ENDBRANCH   3   4
TORSDOF 6
ENDMDL
MODEL      226
REMARK 921   NORMALIZED FREE ENERGY PREDICTED BY IDOCK:   -3.37 KCAL/MOL
REMARK 922        TOTAL FREE ENERGY PREDICTED BY IDOCK:   -5.76 KCAL/MOL
REMARK 923 INTER-LIGAND FREE ENERGY PREDICTED BY IDOCK:   -5.76 KCAL/MOL
REMARK 924 INTRA-LIGAND FREE ENERGY PREDICTED BY IDOCK:    0.00 KCAL/MOL
REMARK 927      BINDING AFFINITY PREDICTED BY RF-SCORE:    0.00 PKD
ROOT
HETATM    1 NA   UNL     1      -9.572   9.054  72.806  1.00  0.00    -0.249 Na 
HETATM    2  C   UNL     2     -12.733   7.757  71.342  1.00  0.00    -0.333 C  
HETATM    3  C   UNL     2     -13.183   9.191  71.106  1.00  0.00    -0.205 C  
ENDROOT
BRANCH   3   4
HETATM    4  C   UNL     2     -12.071  10.179  71.455  1.00  0.00    -0.442 C  
BRANCH   4   5
HETATM    5  C   UNL     2     -11.205  10.590  70.260  1.00  0.00    -0.391 C  
HETATM    6  C   UNL     2     -11.889  11.480  69.193  1.00  0.00    -0.406 C  
HETATM    7  C   UNL     2     -12.535  12.759  69.771  1.00  0.00     0.049 C  
HETATM    8  C   UNL     2     -10.906  11.851  68.056  1.00  0.00    -0.256 C  
HETATM    9  C   UNL     2     -11.564  13.779  70.352  1.00  0.00    -0.143 C  
BRANCH   8  10
HETATM   10  C   UNL     2     -10.288  10.668  67.311  1.00  0.00    -0.265 C  
BRANCH  10  11
HETATM   11  C   UNL     2      -9.937  10.884  65.822  1.00  0.00    -0.247 C  
BRANCH  11  12
HETATM   12  C   UNL     2      -9.469   9.560  65.172  1.00  0.00    -0.305 C  
HETATM   13  C   UNL     2     -10.457   7.920  66.885  1.00  0.00    -0.388 C  
HETATM   14  C   UNL     2      -9.202   8.387  66.142  1.00  0.00    -0.263 C  
HETATM   15  C   UNL     2      -8.624   7.197  65.361  1.00  0.00    -0.046 C  
ENDBRANCH  11  12
BRANCH  11  16
HETATM   16  O   UNL     2     -11.100  11.335  65.131  1.00  0.00    -0.197 OA 
HETATM   17  O   UNL     2      -9.778  12.065  63.211  1.00  0.00    -0.353 OA 
HETATM   18  O   UNL     2     -12.213  12.352  63.221  1.00  0.00    -0.510 OA 
HETATM   19  S   UNL     2     -10.962  12.470  63.962  1.00  0.00    -0.435 S  
HETATM   20  O   UNL     2     -10.794  13.723  64.685  1.00  0.00    -0.375 OA 
ENDBRANCH  11  16
ENDBRANCH  10  11
ENDBRANCH   8  10
ENDBRANCH   4   5
ENDBRANCH   3   4
TORSDOF 6
ENDMDL
MODEL      227
REMARK 921   NORMALIZED FREE ENERGY PREDICTED BY IDOCK:   -3.36 KCAL/MOL
REMARK 922        TOTAL FREE ENERGY PREDICTED BY IDOCK:   -5.75 KCAL/MOL
REMARK 923 INTER-LIGAND FREE ENERGY PREDICTED BY IDOCK:   -5.05 KCAL/MOL
REMARK 924 INTRA-LIGAND FREE ENERGY PREDICTED BY IDOCK:   -0.70 KCAL/MOL
REMARK 927      BINDING AFFINITY PREDICTED BY RF-SCORE:    0.00 PKD
ROOT
HETATM    1 NA   UNL     1     -10.273  11.430  69.991  1.00  0.00    -0.410 Na 
HETATM    2  C   UNL     2     -13.243  10.462  72.005  1.00  0.00    -0.497 C  
HETATM    3  C   UNL     2     -12.687   9.048  72.099  1.00  0.00    -0.470 C  
ENDROOT
BRANCH   3   4
HETATM    4  C   UNL     2     -11.292   8.966  71.482  1.00  0.00    -0.395 C  
BRANCH   4   5
HETATM    5  C   UNL     2     -11.254   8.268  70.119  1.00  0.00    -0.132 C  
HETATM    6  C   UNL     2      -9.856   7.838  69.608  1.00  0.00    -0.182 C  
HETATM    7  C   UNL     2      -9.070   6.963  70.610  1.00  0.00    -0.155 C  
HETATM    8  C   UNL     2      -9.953   7.119  68.240  1.00  0.00    -0.171 C  
HETATM    9  C   UNL     2      -9.663   5.586  70.883  1.00  0.00    -0.231 C  
BRANCH   8  10
HETATM   10  C   UNL     2     -10.601   7.930  67.118  1.00  0.00    -0.383 C  
BRANCH  10  11
HETATM   11  C   UNL     2      -9.882   9.227  66.686  1.00  0.00    -0.245 C  
BRANCH  11  12
HETATM   12  C   UNL     2     -10.772  10.464  66.959  1.00  0.00    -0.298 C  
HETATM   13  C   UNL     2     -10.812  11.442  64.586  1.00  0.00    -0.359 C  
HETATM   14  C   UNL     2     -10.511  11.697  66.065  1.00  0.00    -0.294 C  
HETATM   15  C   UNL     2     -11.378  12.871  66.546  1.00  0.00    -0.361 C  
ENDBRANCH  11  12
BRANCH  11  16
HETATM   16  O   UNL     2      -8.680   9.366  67.439  1.00  0.00    -0.125 OA 
HETATM   17  O   UNL     2      -7.433  10.104  65.473  1.00  0.00    -0.133 OA 
HETATM   18  O   UNL     2      -6.315   9.903  67.646  1.00  0.00    -0.058 OA 
HETATM   19  S   UNL     2      -7.233   9.308  66.679  1.00  0.00    -0.082 S  
HETATM   20  O   UNL     2      -7.012   7.893  66.416  1.00  0.00    -0.064 OA 
ENDBRANCH  11  16
ENDBRANCH  10  11
ENDBRANCH   8  10
ENDBRANCH   4   5
ENDBRANCH   3   4
TORSDOF 6
ENDMDL
MODEL      228
REMARK 921   NORMALIZED FREE ENERGY PREDICTED BY IDOCK:   -3.36 KCAL/MOL
REMARK 922        TOTAL FREE ENERGY PREDICTED BY IDOCK:   -5.75 KCAL/MOL
REMARK 923 INTER-LIGAND FREE ENERGY PREDICTED BY IDOCK:   -5.12 KCAL/MOL
REMARK 924 INTRA-LIGAND FREE ENERGY PREDICTED BY IDOCK:   -0.63 KCAL/MOL
REMARK 927      BINDING AFFINITY PREDICTED BY RF-SCORE:    0.00 PKD
ROOT
HETATM    1 NA   UNL     1     -11.906  11.397  70.883  1.00  0.00    -0.279 Na 
HETATM    2  C   UNL     2     -12.079  15.106  70.716  1.00  0.00    -0.387 C  
HETATM    3  C   UNL     2     -12.008  15.016  69.198  1.00  0.00    -0.308 C  
ENDROOT
BRANCH   3   4
HETATM    4  C   UNL     2     -12.059  13.562  68.733  1.00  0.00    -0.305 C  
BRANCH   4   5
HETATM    5  C   UNL     2     -10.943  13.181  67.754  1.00  0.00    -0.272 C  
HETATM    6  C   UNL     2     -11.384  12.435  66.471  1.00  0.00    -0.392 C  
HETATM    7  C   UNL     2     -12.484  13.169  65.671  1.00  0.00    -0.485 C  
HETATM    8  C   UNL     2     -10.175  12.133  65.552  1.00  0.00    -0.294 C  
HETATM    9  C   UNL     2     -12.068  14.497  65.051  1.00  0.00    -0.390 C  
BRANCH   8  10
HETATM   10  C   UNL     2      -9.062  11.298  66.186  1.00  0.00    -0.216 C  
BRANCH  10  11
HETATM   11  C   UNL     2      -8.474  11.813  67.519  1.00  0.00    -0.154 C  
BRANCH  11  12
HETATM   12  C   UNL     2      -8.101  10.629  68.444  1.00  0.00    -0.123 C  
HETATM   13  C   UNL     2     -10.464   9.726  68.886  1.00  0.00    -0.233 C  
HETATM   14  C   UNL     2      -9.159  10.237  69.501  1.00  0.00    -0.187 C  
HETATM   15  C   UNL     2      -8.587   9.143  70.416  1.00  0.00    -0.236 C  
ENDBRANCH  11  12
BRANCH  11  16
HETATM   16  O   UNL     2      -7.291  12.559  67.248  1.00  0.00    -0.144 OA 
HETATM   17  O   UNL     2      -7.781  14.145  69.040  1.00  0.00    -0.114 OA 
HETATM   18  O   UNL     2      -5.764  14.408  67.669  1.00  0.00    -0.306 OA 
HETATM   19  S   UNL     2      -7.196  14.127  67.703  1.00  0.00    -0.174 S  
HETATM   20  O   UNL     2      -7.985  14.845  66.712  1.00  0.00    -0.120 OA 
ENDBRANCH  11  16
ENDBRANCH  10  11
ENDBRANCH   8  10
ENDBRANCH   4   5
ENDBRANCH   3   4
TORSDOF 6
ENDMDL
MODEL      229
REMARK 921   NORMALIZED FREE ENERGY PREDICTED BY IDOCK:   -3.35 KCAL/MOL
REMARK 922        TOTAL FREE ENERGY PREDICTED BY IDOCK:   -5.73 KCAL/MOL
REMARK 923 INTER-LIGAND FREE ENERGY PREDICTED BY IDOCK:   -4.60 KCAL/MOL
REMARK 924 INTRA-LIGAND FREE ENERGY PREDICTED BY IDOCK:   -1.13 KCAL/MOL
REMARK 927      BINDING AFFINITY PREDICTED BY RF-SCORE:    0.00 PKD
ROOT
HETATM    1 NA   UNL     1      -8.651  12.985  69.551  1.00  0.00    -0.317 Na 
HETATM    2  C   UNL     2     -11.995  12.983  67.929  1.00  0.00    -0.338 C  
HETATM    3  C   UNL     2     -11.464  12.005  66.891  1.00  0.00    -0.402 C  
ENDROOT
BRANCH   3   4
HETATM    4  C   UNL     2     -10.044  11.559  67.236  1.00  0.00    -0.223 C  
BRANCH   4   5
HETATM    5  C   UNL     2      -9.919  10.066  67.557  1.00  0.00    -0.232 C  
HETATM    6  C   UNL     2     -10.259   9.088  66.405  1.00  0.00    -0.297 C  
HETATM    7  C   UNL     2      -9.470   9.359  65.105  1.00  0.00    -0.255 C  
HETATM    8  C   UNL     2     -10.067   7.615  66.843  1.00  0.00    -0.348 C  
HETATM    9  C   UNL     2      -7.966   9.124  65.190  1.00  0.00    -0.117 C  
BRANCH   8  10
HETATM   10  C   UNL     2     -10.895   7.177  68.051  1.00  0.00    -0.193 C  
BRANCH  10  11
HETATM   11  C   UNL     2     -10.117   6.773  69.322  1.00  0.00    -0.168 C  
BRANCH  11  12
HETATM   12  C   UNL     2      -8.595   6.727  69.041  1.00  0.00    -0.131 C  
HETATM   13  C   UNL     2      -8.496   4.467  67.824  1.00  0.00    -0.103 C  
HETATM   14  C   UNL     2      -7.960   5.319  68.978  1.00  0.00    -0.086 C  
HETATM   15  C   UNL     2      -6.437   5.450  68.824  1.00  0.00    -0.043 C  
ENDBRANCH  11  12
BRANCH  11  16
HETATM   16  O   UNL     2     -10.354   7.740  70.341  1.00  0.00    -0.206 OA 
HETATM   17  O   UNL     2     -10.601   6.009  72.046  1.00  0.00    -0.209 OA 
HETATM   18  O   UNL     2     -10.832   8.377  72.642  1.00  0.00    -0.342 OA 
HETATM   19  S   UNL     2     -11.159   7.312  71.698  1.00  0.00    -0.237 S  
HETATM   20  O   UNL     2     -12.557   7.260  71.295  1.00  0.00    -0.355 OA 
ENDBRANCH  11  16
ENDBRANCH  10  11
ENDBRANCH   8  10
ENDBRANCH   4   5
ENDBRANCH   3   4
TORSDOF 6
ENDMDL
MODEL      230
REMARK 921   NORMALIZED FREE ENERGY PREDICTED BY IDOCK:   -3.33 KCAL/MOL
REMARK 922        TOTAL FREE ENERGY PREDICTED BY IDOCK:   -5.71 KCAL/MOL
REMARK 923 INTER-LIGAND FREE ENERGY PREDICTED BY IDOCK:   -5.19 KCAL/MOL
REMARK 924 INTRA-LIGAND FREE ENERGY PREDICTED BY IDOCK:   -0.52 KCAL/MOL
REMARK 927      BINDING AFFINITY PREDICTED BY RF-SCORE:    0.00 PKD
ROOT
HETATM    1 NA   UNL     1      -6.823  11.811  65.334  1.00  0.00    -0.329 Na 
HETATM    2  C   UNL     2     -10.151  12.173  63.719  1.00  0.00    -0.404 C  
HETATM    3  C   UNL     2     -10.661  11.017  64.567  1.00  0.00    -0.383 C  
ENDROOT
BRANCH   3   4
HETATM    4  C   UNL     2      -9.605  10.573  65.578  1.00  0.00    -0.282 C  
BRANCH   4   5
HETATM    5  C   UNL     2     -10.165  10.268  66.971  1.00  0.00    -0.282 C  
HETATM    6  C   UNL     2      -9.466  10.973  68.160  1.00  0.00    -0.172 C  
HETATM    7  C   UNL     2      -9.382  12.509  68.010  1.00  0.00    -0.205 C  
HETATM    8  C   UNL     2     -10.140  10.610  69.505  1.00  0.00    -0.164 C  
HETATM    9  C   UNL     2     -10.716  13.245  68.040  1.00  0.00    -0.254 C  
BRANCH   8  10
HETATM   10  C   UNL     2     -10.176   9.119  69.839  1.00  0.00    -0.222 C  
BRANCH  10  11
HETATM   11  C   UNL     2      -9.884   8.722  71.303  1.00  0.00    -0.266 C  
BRANCH  11  12
HETATM   12  C   UNL     2     -11.115   8.028  71.937  1.00  0.00    -0.333 C  
HETATM   13  C   UNL     2     -11.379   6.103  70.257  1.00  0.00    -0.414 C  
HETATM   14  C   UNL     2     -12.052   7.286  70.958  1.00  0.00    -0.361 C  
HETATM   15  C   UNL     2     -13.282   6.768  71.720  1.00  0.00    -0.212 C  
ENDBRANCH  11  12
BRANCH  11  16
HETATM   16  O   UNL     2      -8.792   7.806  71.329  1.00  0.00    -0.129 OA 
HETATM   17  O   UNL     2      -8.164   8.490  73.588  1.00  0.00    -0.383 OA 
HETATM   18  O   UNL     2      -6.873   6.770  72.409  1.00  0.00    -0.062 OA 
HETATM   19  S   UNL     2      -7.535   8.069  72.340  1.00  0.00    -0.116 S  
HETATM   20  O   UNL     2      -6.758   9.119  71.695  1.00  0.00    -0.220 OA 
ENDBRANCH  11  16
ENDBRANCH  10  11
ENDBRANCH   8  10
ENDBRANCH   4   5
ENDBRANCH   3   4
TORSDOF 6
ENDMDL
MODEL      231
REMARK 921   NORMALIZED FREE ENERGY PREDICTED BY IDOCK:   -3.33 KCAL/MOL
REMARK 922        TOTAL FREE ENERGY PREDICTED BY IDOCK:   -5.71 KCAL/MOL
REMARK 923 INTER-LIGAND FREE ENERGY PREDICTED BY IDOCK:   -5.98 KCAL/MOL
REMARK 924 INTRA-LIGAND FREE ENERGY PREDICTED BY IDOCK:    0.27 KCAL/MOL
REMARK 927      BINDING AFFINITY PREDICTED BY RF-SCORE:    0.00 PKD
ROOT
HETATM    1 NA   UNL     1      -7.687  16.458  68.795  1.00  0.00    -0.143 Na 
HETATM    2  C   UNL     2     -10.667  14.872  70.351  1.00  0.00    -0.054 C  
HETATM    3  C   UNL     2     -11.350  16.232  70.370  1.00  0.00    -0.313 C  
ENDROOT
BRANCH   3   4
HETATM    4  C   UNL     2     -10.501  17.281  69.654  1.00  0.00     0.047 C  
BRANCH   4   5
HETATM    5  C   UNL     2      -9.689  16.728  68.478  1.00  0.00    -0.248 C  
HETATM    6  C   UNL     2     -10.298  16.933  67.069  1.00  0.00    -0.307 C  
HETATM    7  C   UNL     2     -10.649  18.405  66.751  1.00  0.00    -0.367 C  
HETATM    8  C   UNL     2      -9.373  16.361  65.967  1.00  0.00    -0.335 C  
HETATM    9  C   UNL     2      -9.461  19.353  66.644  1.00  0.00    -0.416 C  
BRANCH   8  10
HETATM   10  C   UNL     2      -9.048  14.872  66.093  1.00  0.00    -0.202 C  
BRANCH  10  11
HETATM   11  C   UNL     2     -10.004  13.885  65.388  1.00  0.00    -0.247 C  
BRANCH  11  12
HETATM   12  C   UNL     2      -9.672  12.425  65.784  1.00  0.00    -0.210 C  
HETATM   13  C   UNL     2      -9.596  11.397  63.432  1.00  0.00    -0.344 C  
HETATM   14  C   UNL     2     -10.205  11.329  64.834  1.00  0.00    -0.341 C  
HETATM   15  C   UNL     2      -9.907   9.945  65.431  1.00  0.00    -0.384 C  
ENDBRANCH  11  12
BRANCH  11  16
HETATM   16  O   UNL     2     -11.342  14.164  65.793  1.00  0.00    -0.308 OA 
HETATM   17  O   UNL     2     -12.241  13.357  63.670  1.00  0.00    -0.616 OA 
HETATM   18  O   UNL     2     -13.745  14.216  65.407  1.00  0.00    -0.363 OA 
HETATM   19  S   UNL     2     -12.502  14.394  64.663  1.00  0.00    -0.239 S  
HETATM   20  O   UNL     2     -12.272  15.745  64.171  1.00  0.00    -0.588 OA 
ENDBRANCH  11  16
ENDBRANCH  10  11
ENDBRANCH   8  10
ENDBRANCH   4   5
ENDBRANCH   3   4
TORSDOF 6
ENDMDL
MODEL      232
REMARK 921   NORMALIZED FREE ENERGY PREDICTED BY IDOCK:   -3.32 KCAL/MOL
REMARK 922        TOTAL FREE ENERGY PREDICTED BY IDOCK:   -5.70 KCAL/MOL
REMARK 923 INTER-LIGAND FREE ENERGY PREDICTED BY IDOCK:   -5.01 KCAL/MOL
REMARK 924 INTRA-LIGAND FREE ENERGY PREDICTED BY IDOCK:   -0.68 KCAL/MOL
REMARK 927      BINDING AFFINITY PREDICTED BY RF-SCORE:    0.00 PKD
ROOT
HETATM    1 NA   UNL     1     -12.758  16.199  63.594  1.00  0.00    -0.782 Na 
HETATM    2  C   UNL     2     -10.260  17.449  66.046  1.00  0.00    -0.308 C  
HETATM    3  C   UNL     2     -10.191  16.054  66.649  1.00  0.00    -0.295 C  
ENDROOT
BRANCH   3   4
HETATM    4  C   UNL     2     -11.016  15.062  65.831  1.00  0.00    -0.343 C  
BRANCH   4   5
HETATM    5  C   UNL     2     -10.359  13.687  65.671  1.00  0.00    -0.309 C  
HETATM    6  C   UNL     2     -11.305  12.463  65.745  1.00  0.00    -0.393 C  
HETATM    7  C   UNL     2     -12.494  12.536  64.760  1.00  0.00    -0.532 C  
HETATM    8  C   UNL     2     -10.530  11.139  65.541  1.00  0.00    -0.317 C  
HETATM    9  C   UNL     2     -12.126  12.471  63.283  1.00  0.00    -0.525 C  
BRANCH   8  10
HETATM   10  C   UNL     2      -9.399  10.881  66.537  1.00  0.00    -0.195 C  
BRANCH  10  11
HETATM   11  C   UNL     2      -8.600   9.571  66.364  1.00  0.00    -0.134 C  
BRANCH  11  12
HETATM   12  C   UNL     2      -7.977   9.492  64.948  1.00  0.00    -0.121 C  
HETATM   13  C   UNL     2      -7.633   6.951  64.819  1.00  0.00    -0.108 C  
HETATM   14  C   UNL     2      -6.984   8.332  64.709  1.00  0.00    -0.075 C  
HETATM   15  C   UNL     2      -6.362   8.471  63.310  1.00  0.00    -0.086 C  
ENDBRANCH  11  12
BRANCH  11  16
HETATM   16  O   UNL     2      -7.543   9.540  67.319  1.00  0.00    -0.091 OA 
HETATM   17  O   UNL     2      -8.285   7.385  68.197  1.00  0.00    -0.122 OA 
HETATM   18  O   UNL     2      -6.322   8.503  69.152  1.00  0.00    -0.042 OA 
HETATM   19  S   UNL     2      -7.694   8.632  68.671  1.00  0.00    -0.100 S  
HETATM   20  O   UNL     2      -8.576   9.404  69.535  1.00  0.00    -0.136 OA 
ENDBRANCH  11  16
ENDBRANCH  10  11
ENDBRANCH   8  10
ENDBRANCH   4   5
ENDBRANCH   3   4
TORSDOF 6
ENDMDL
MODEL      233
REMARK 921   NORMALIZED FREE ENERGY PREDICTED BY IDOCK:   -3.32 KCAL/MOL
REMARK 922        TOTAL FREE ENERGY PREDICTED BY IDOCK:   -5.69 KCAL/MOL
REMARK 923 INTER-LIGAND FREE ENERGY PREDICTED BY IDOCK:   -4.98 KCAL/MOL
REMARK 924 INTRA-LIGAND FREE ENERGY PREDICTED BY IDOCK:   -0.71 KCAL/MOL
REMARK 927      BINDING AFFINITY PREDICTED BY RF-SCORE:    0.00 PKD
ROOT
HETATM    1 NA   UNL     1     -13.776  12.720  64.842  1.00  0.00    -0.708 Na 
HETATM    2  C   UNL     2     -11.231  15.429  64.842  1.00  0.00    -0.410 C  
HETATM    3  C   UNL     2     -11.076  15.249  66.345  1.00  0.00    -0.273 C  
ENDROOT
BRANCH   3   4
HETATM    4  C   UNL     2     -11.892  14.056  66.841  1.00  0.00    -0.458 C  
BRANCH   4   5
HETATM    5  C   UNL     2     -11.043  12.855  67.268  1.00  0.00    -0.309 C  
HETATM    6  C   UNL     2     -11.295  11.532  66.504  1.00  0.00    -0.263 C  
HETATM    7  C   UNL     2     -11.182  11.669  64.968  1.00  0.00    -0.275 C  
HETATM    8  C   UNL     2     -10.359  10.405  67.004  1.00  0.00    -0.295 C  
HETATM    9  C   UNL     2      -9.790  11.994  64.441  1.00  0.00    -0.180 C  
BRANCH   8  10
HETATM   10  C   UNL     2     -10.464  10.079  68.494  1.00  0.00    -0.229 C  
BRANCH  10  11
HETATM   11  C   UNL     2      -9.200   9.509  69.176  1.00  0.00    -0.163 C  
BRANCH  11  12
HETATM   12  C   UNL     2      -9.579   8.701  70.441  1.00  0.00    -0.196 C  
HETATM   13  C   UNL     2     -10.892   6.806  69.310  1.00  0.00    -0.303 C  
HETATM   14  C   UNL     2     -10.905   7.911  70.368  1.00  0.00    -0.244 C  
HETATM   15  C   UNL     2     -11.199   7.275  71.736  1.00  0.00    -0.278 C  
ENDBRANCH  11  12
BRANCH  11  16
HETATM   16  O   UNL     2      -8.536   8.633  68.269  1.00  0.00    -0.136 OA 
HETATM   17  O   UNL     2      -6.363   9.094  69.283  1.00  0.00    -0.041 OA 
HETATM   18  O   UNL     2      -6.543   7.554  67.383  1.00  0.00    -0.058 OA 
HETATM   19  S   UNL     2      -6.941   8.830  67.969  1.00  0.00    -0.079 S  
HETATM   20  O   UNL     2      -6.875   9.967  67.062  1.00  0.00    -0.084 OA 
ENDBRANCH  11  16
ENDBRANCH  10  11
ENDBRANCH   8  10
ENDBRANCH   4   5
ENDBRANCH   3   4
TORSDOF 6
ENDMDL
MODEL      234
REMARK 921   NORMALIZED FREE ENERGY PREDICTED BY IDOCK:   -3.32 KCAL/MOL
REMARK 922        TOTAL FREE ENERGY PREDICTED BY IDOCK:   -5.69 KCAL/MOL
REMARK 923 INTER-LIGAND FREE ENERGY PREDICTED BY IDOCK:   -4.73 KCAL/MOL
REMARK 924 INTRA-LIGAND FREE ENERGY PREDICTED BY IDOCK:   -0.96 KCAL/MOL
REMARK 927      BINDING AFFINITY PREDICTED BY RF-SCORE:    0.00 PKD
ROOT
HETATM    1 NA   UNL     1      -8.132  16.765  66.080  1.00  0.00    -0.181 Na 
HETATM    2  C   UNL     2     -10.609  16.680  68.851  1.00  0.00    -0.337 C  
HETATM    3  C   UNL     2     -11.387  15.618  68.089  1.00  0.00    -0.340 C  
ENDROOT
BRANCH   3   4
HETATM    4  C   UNL     2     -10.634  15.182  66.833  1.00  0.00    -0.297 C  
BRANCH   4   5
HETATM    5  C   UNL     2     -10.350  13.678  66.767  1.00  0.00    -0.268 C  
HETATM    6  C   UNL     2     -11.578  12.757  66.563  1.00  0.00    -0.435 C  
HETATM    7  C   UNL     2     -12.438  13.131  65.334  1.00  0.00    -0.535 C  
HETATM    8  C   UNL     2     -11.160  11.269  66.482  1.00  0.00    -0.280 C  
HETATM    9  C   UNL     2     -11.763  12.942  63.980  1.00  0.00    -0.499 C  
BRANCH   8  10
HETATM   10  C   UNL     2     -10.407  10.733  67.700  1.00  0.00    -0.236 C  
BRANCH  10  11
HETATM   11  C   UNL     2      -9.142   9.890  67.425  1.00  0.00    -0.134 C  
BRANCH  11  12
HETATM   12  C   UNL     2      -7.868  10.662  67.847  1.00  0.00    -0.105 C  
HETATM   13  C   UNL     2      -6.467  10.280  65.729  1.00  0.00    -0.119 C  
HETATM   14  C   UNL     2      -6.537  10.149  67.252  1.00  0.00    -0.069 C  
HETATM   15  C   UNL     2      -5.366  10.931  67.866  1.00  0.00    -0.039 C  
ENDBRANCH  11  12
BRANCH  11  16
HETATM   16  O   UNL     2      -9.209   8.688  68.187  1.00  0.00    -0.137 OA 
HETATM   17  O   UNL     2      -8.565   7.332  66.261  1.00  0.00    -0.129 OA 
HETATM   18  O   UNL     2      -9.021   6.273  68.425  1.00  0.00    -0.118 OA 
HETATM   19  S   UNL     2      -9.435   7.257  67.430  1.00  0.00    -0.137 S  
HETATM   20  O   UNL     2     -10.854   7.235  67.101  1.00  0.00    -0.337 OA 
ENDBRANCH  11  16
ENDBRANCH  10  11
ENDBRANCH   8  10
ENDBRANCH   4   5
ENDBRANCH   3   4
TORSDOF 6
ENDMDL
MODEL      235
REMARK 921   NORMALIZED FREE ENERGY PREDICTED BY IDOCK:   -3.31 KCAL/MOL
REMARK 922        TOTAL FREE ENERGY PREDICTED BY IDOCK:   -5.68 KCAL/MOL
REMARK 923 INTER-LIGAND FREE ENERGY PREDICTED BY IDOCK:   -4.71 KCAL/MOL
REMARK 924 INTRA-LIGAND FREE ENERGY PREDICTED BY IDOCK:   -0.97 KCAL/MOL
REMARK 927      BINDING AFFINITY PREDICTED BY RF-SCORE:    0.00 PKD
ROOT
HETATM    1 NA   UNL     1      -9.543   9.745  69.525  1.00  0.00    -0.142 Na 
HETATM    2  C   UNL     2     -10.748   7.122  67.184  1.00  0.00    -0.422 C  
HETATM    3  C   UNL     2      -9.436   7.236  66.421  1.00  0.00    -0.185 C  
ENDROOT
BRANCH   3   4
HETATM    4  C   UNL     2      -8.467   8.176  67.135  1.00  0.00    -0.124 C  
BRANCH   4   5
HETATM    5  C   UNL     2      -8.849   9.657  67.036  1.00  0.00    -0.142 C  
HETATM    6  C   UNL     2      -7.738  10.620  66.550  1.00  0.00    -0.137 C  
HETATM    7  C   UNL     2      -7.100  10.205  65.205  1.00  0.00    -0.137 C  
HETATM    8  C   UNL     2      -8.253  12.077  66.464  1.00  0.00     0.013 C  
HETATM    9  C   UNL     2      -8.025  10.268  63.995  1.00  0.00    -0.126 C  
BRANCH   8  10
HETATM   10  C   UNL     2      -8.798  12.658  67.769  1.00  0.00    -0.179 C  
BRANCH  10  11
HETATM   11  C   UNL     2     -10.203  13.299  67.717  1.00  0.00    -0.228 C  
BRANCH  11  12
HETATM   12  C   UNL     2     -11.116  12.536  66.727  1.00  0.00    -0.323 C  
HETATM   13  C   UNL     2     -10.801  14.042  64.672  1.00  0.00    -0.416 C  
HETATM   14  C   UNL     2     -11.796  13.392  65.636  1.00  0.00    -0.403 C  
HETATM   15  C   UNL     2     -12.762  12.515  64.824  1.00  0.00    -0.415 C  
ENDBRANCH  11  12
BRANCH  11  16
HETATM   16  O   UNL     2     -10.793  13.233  69.012  1.00  0.00    -0.241 OA 
HETATM   17  O   UNL     2     -12.052  15.292  68.636  1.00  0.00    -0.263 OA 
HETATM   18  O   UNL     2     -12.245  14.092  70.767  1.00  0.00    -0.321 OA 
HETATM   19  S   UNL     2     -11.363  14.593  69.717  1.00  0.00    -0.268 S  
HETATM   20  O   UNL     2     -10.174  15.285  70.195  1.00  0.00    -0.253 OA 
ENDBRANCH  11  16
ENDBRANCH  10  11
ENDBRANCH   8  10
ENDBRANCH   4   5
ENDBRANCH   3   4
TORSDOF 6
ENDMDL
MODEL      236
REMARK 921   NORMALIZED FREE ENERGY PREDICTED BY IDOCK:   -3.30 KCAL/MOL
REMARK 922        TOTAL FREE ENERGY PREDICTED BY IDOCK:   -5.66 KCAL/MOL
REMARK 923 INTER-LIGAND FREE ENERGY PREDICTED BY IDOCK:   -4.55 KCAL/MOL
REMARK 924 INTRA-LIGAND FREE ENERGY PREDICTED BY IDOCK:   -1.11 KCAL/MOL
REMARK 927      BINDING AFFINITY PREDICTED BY RF-SCORE:    0.00 PKD
ROOT
HETATM    1 NA   UNL     1     -14.379   7.185  70.282  1.00  0.00    -0.562 Na 
HETATM    2  C   UNL     2     -11.938   9.971  69.977  1.00  0.00    -0.146 C  
HETATM    3  C   UNL     2     -11.668   9.864  71.471  1.00  0.00    -0.414 C  
ENDROOT
BRANCH   3   4
HETATM    4  C   UNL     2     -12.403   8.669  72.077  1.00  0.00    -0.435 C  
BRANCH   4   5
HETATM    5  C   UNL     2     -11.908   7.311  71.570  1.00  0.00    -0.335 C  
HETATM    6  C   UNL     2     -10.391   7.035  71.721  1.00  0.00    -0.216 C  
HETATM    7  C   UNL     2      -9.864   7.223  73.162  1.00  0.00    -0.281 C  
HETATM    8  C   UNL     2     -10.021   5.624  71.203  1.00  0.00    -0.244 C  
HETATM    9  C   UNL     2     -10.396   6.231  74.188  1.00  0.00    -0.319 C  
BRANCH   8  10
HETATM   10  C   UNL     2     -10.375   5.349  69.741  1.00  0.00    -0.375 C  
BRANCH  10  11
HETATM   11  C   UNL     2      -9.300   5.686  68.685  1.00  0.00    -0.123 C  
BRANCH  11  12
HETATM   12  C   UNL     2      -8.929   7.188  68.743  1.00  0.00    -0.128 C  
HETATM   13  C   UNL     2     -10.635   8.072  67.039  1.00  0.00    -0.364 C  
HETATM   14  C   UNL     2      -9.161   7.993  67.444  1.00  0.00    -0.147 C  
HETATM   15  C   UNL     2      -8.625   9.422  67.625  1.00  0.00    -0.116 C  
ENDBRANCH  11  12
BRANCH  11  16
HETATM   16  O   UNL     2      -8.126   4.925  68.956  1.00  0.00    -0.079 OA 
HETATM   17  O   UNL     2      -7.690   4.592  66.576  1.00  0.00    -0.090 OA 
HETATM   18  O   UNL     2      -6.186   3.631  68.257  1.00  0.00    -0.031 OA 
HETATM   19  S   UNL     2      -7.564   3.872  67.838  1.00  0.00    -0.067 S  
HETATM   20  O   UNL     2      -8.446   2.718  67.944  1.00  0.00    -0.077 OA 
ENDBRANCH  11  16
ENDBRANCH  10  11
ENDBRANCH   8  10
ENDBRANCH   4   5
ENDBRANCH   3   4
TORSDOF 6
ENDMDL
MODEL      237
REMARK 921   NORMALIZED FREE ENERGY PREDICTED BY IDOCK:   -3.30 KCAL/MOL
REMARK 922        TOTAL FREE ENERGY PREDICTED BY IDOCK:   -5.66 KCAL/MOL
REMARK 923 INTER-LIGAND FREE ENERGY PREDICTED BY IDOCK:   -4.59 KCAL/MOL
REMARK 924 INTRA-LIGAND FREE ENERGY PREDICTED BY IDOCK:   -1.07 KCAL/MOL
REMARK 927      BINDING AFFINITY PREDICTED BY RF-SCORE:    0.00 PKD
ROOT
HETATM    1 NA   UNL     1      -8.759  12.718  65.778  1.00  0.00    -0.391 Na 
HETATM    2  C   UNL     2     -11.759  12.755  63.584  1.00  0.00    -0.587 C  
HETATM    3  C   UNL     2     -12.631  12.905  64.822  1.00  0.00    -0.493 C  
ENDROOT
BRANCH   3   4
HETATM    4  C   UNL     2     -11.777  13.084  66.076  1.00  0.00    -0.442 C  
BRANCH   4   5
HETATM    5  C   UNL     2     -11.718  11.844  66.973  1.00  0.00    -0.304 C  
HETATM    6  C   UNL     2     -10.703  11.891  68.141  1.00  0.00    -0.246 C  
HETATM    7  C   UNL     2     -10.862  13.127  69.055  1.00  0.00    -0.202 C  
HETATM    8  C   UNL     2     -10.759  10.597  68.989  1.00  0.00    -0.257 C  
HETATM    9  C   UNL     2     -12.158  13.188  69.854  1.00  0.00    -0.357 C  
BRANCH   8  10
HETATM   10  C   UNL     2     -10.490   9.300  68.225  1.00  0.00    -0.260 C  
BRANCH  10  11
HETATM   11  C   UNL     2      -9.046   8.753  68.262  1.00  0.00    -0.141 C  
BRANCH  11  12
HETATM   12  C   UNL     2      -9.002   7.372  68.960  1.00  0.00    -0.131 C  
HETATM   13  C   UNL     2      -7.799   8.069  71.119  1.00  0.00    -0.089 C  
HETATM   14  C   UNL     2      -7.807   7.131  69.910  1.00  0.00    -0.113 C  
HETATM   15  C   UNL     2      -7.839   5.680  70.416  1.00  0.00    -0.102 C  
ENDBRANCH  11  12
BRANCH  11  16
HETATM   16  O   UNL     2      -8.573   8.594  66.927  1.00  0.00    -0.117 OA 
HETATM   17  O   UNL     2      -6.291   9.176  67.576  1.00  0.00    -0.061 OA 
HETATM   18  O   UNL     2      -6.818   8.638  65.242  1.00  0.00    -0.070 OA 
HETATM   19  S   UNL     2      -7.206   9.355  66.453  1.00  0.00    -0.089 S  
HETATM   20  O   UNL     2      -7.609  10.738  66.242  1.00  0.00    -0.135 OA 
ENDBRANCH  11  16
ENDBRANCH  10  11
ENDBRANCH   8  10
ENDBRANCH   4   5
ENDBRANCH   3   4
TORSDOF 6
ENDMDL
MODEL      238
REMARK 921   NORMALIZED FREE ENERGY PREDICTED BY IDOCK:   -3.29 KCAL/MOL
REMARK 922        TOTAL FREE ENERGY PREDICTED BY IDOCK:   -5.65 KCAL/MOL
REMARK 923 INTER-LIGAND FREE ENERGY PREDICTED BY IDOCK:   -5.89 KCAL/MOL
REMARK 924 INTRA-LIGAND FREE ENERGY PREDICTED BY IDOCK:    0.24 KCAL/MOL
REMARK 927      BINDING AFFINITY PREDICTED BY RF-SCORE:    0.00 PKD
ROOT
HETATM    1 NA   UNL     1      -5.881  11.409  64.893  1.00  0.00    -0.333 Na 
HETATM    2  C   UNL     2      -5.851   9.622  68.152  1.00  0.00    -0.040 C  
HETATM    3  C   UNL     2      -5.429  10.918  68.830  1.00  0.00    -0.040 C  
ENDROOT
BRANCH   3   4
HETATM    4  C   UNL     2      -5.433  12.081  67.839  1.00  0.00    -0.060 C  
BRANCH   4   5
HETATM    5  C   UNL     2      -6.817  12.413  67.273  1.00  0.00    -0.127 C  
HETATM    6  C   UNL     2      -7.720  13.312  68.153  1.00  0.00    -0.143 C  
HETATM    7  C   UNL     2      -7.052  14.639  68.578  1.00  0.00    -0.112 C  
HETATM    8  C   UNL     2      -9.075  13.599  67.462  1.00  0.00    -0.213 C  
HETATM    9  C   UNL     2      -6.762  15.618  67.447  1.00  0.00    -0.218 C  
BRANCH   8  10
HETATM   10  C   UNL     2      -9.901  12.365  67.101  1.00  0.00    -0.206 C  
BRANCH  10  11
HETATM   11  C   UNL     2     -11.406  12.586  66.829  1.00  0.00    -0.334 C  
BRANCH  11  12
HETATM   12  C   UNL     2     -12.148  12.963  68.133  1.00  0.00    -0.183 C  
HETATM   13  C   UNL     2     -11.649  15.482  68.147  1.00  0.00    -0.313 C  
HETATM   14  C   UNL     2     -11.571  14.163  68.919  1.00  0.00    -0.345 C  
HETATM   15  C   UNL     2     -12.334  14.324  70.242  1.00  0.00    -0.418 C  
ENDBRANCH  11  12
BRANCH  11  16
HETATM   16  O   UNL     2     -11.559  13.658  65.901  1.00  0.00    -0.312 OA 
HETATM   17  O   UNL     2     -13.227  12.420  64.617  1.00  0.00    -0.822 OA 
HETATM   18  O   UNL     2     -12.550  14.673  63.924  1.00  0.00    -0.834 OA 
HETATM   19  S   UNL     2     -12.131  13.358  64.399  1.00  0.00    -0.416 S  
HETATM   20  O   UNL     2     -11.001  12.781  63.685  1.00  0.00    -0.425 OA 
ENDBRANCH  11  16
ENDBRANCH  10  11
ENDBRANCH   8  10
ENDBRANCH   4   5
ENDBRANCH   3   4
TORSDOF 6
ENDMDL
MODEL      239
REMARK 921   NORMALIZED FREE ENERGY PREDICTED BY IDOCK:   -3.29 KCAL/MOL
REMARK 922        TOTAL FREE ENERGY PREDICTED BY IDOCK:   -5.65 KCAL/MOL
REMARK 923 INTER-LIGAND FREE ENERGY PREDICTED BY IDOCK:   -5.22 KCAL/MOL
REMARK 924 INTRA-LIGAND FREE ENERGY PREDICTED BY IDOCK:   -0.43 KCAL/MOL
REMARK 927      BINDING AFFINITY PREDICTED BY RF-SCORE:    0.00 PKD
ROOT
HETATM    1 NA   UNL     1     -10.787  12.484  66.180  1.00  0.00    -0.248 Na 
HETATM    2  C   UNL     2      -9.331  10.176  63.656  1.00  0.00    -0.336 C  
HETATM    3  C   UNL     2      -9.103   9.153  64.759  1.00  0.00    -0.157 C  
ENDROOT
BRANCH   3   4
HETATM    4  C   UNL     2      -9.710   9.627  66.079  1.00  0.00    -0.331 C  
BRANCH   4   5
HETATM    5  C   UNL     2      -9.221   8.849  67.305  1.00  0.00    -0.164 C  
HETATM    6  C   UNL     2     -10.250   7.901  67.969  1.00  0.00    -0.256 C  
HETATM    7  C   UNL     2     -10.887   6.889  66.989  1.00  0.00    -0.436 C  
HETATM    8  C   UNL     2      -9.630   7.151  69.173  1.00  0.00    -0.154 C  
HETATM    9  C   UNL     2      -9.934   5.849  66.410  1.00  0.00    -0.162 C  
BRANCH   8  10
HETATM   10  C   UNL     2      -9.073   8.043  70.284  1.00  0.00    -0.148 C  
BRANCH  10  11
HETATM   11  C   UNL     2      -9.958   8.238  71.534  1.00  0.00    -0.199 C  
BRANCH  11  12
HETATM   12  C   UNL     2     -10.759   9.559  71.438  1.00  0.00    -0.348 C  
HETATM   13  C   UNL     2     -13.110   8.617  71.865  1.00  0.00    -0.409 C  
HETATM   14  C   UNL     2     -12.214   9.433  70.930  1.00  0.00    -0.297 C  
HETATM   15  C   UNL     2     -12.823  10.835  70.769  1.00  0.00    -0.408 C  
ENDBRANCH  11  12
BRANCH  11  16
HETATM   16  O   UNL     2     -10.885   7.158  71.622  1.00  0.00    -0.223 OA 
HETATM   17  O   UNL     2     -10.424   6.844  74.000  1.00  0.00    -0.374 OA 
HETATM   18  O   UNL     2     -12.041   5.403  72.849  1.00  0.00    -0.172 OA 
HETATM   19  S   UNL     2     -10.733   6.051  72.815  1.00  0.00    -0.252 S  
HETATM   20  O   UNL     2      -9.638   5.194  72.384  1.00  0.00    -0.146 OA 
ENDBRANCH  11  16
ENDBRANCH  10  11
ENDBRANCH   8  10
ENDBRANCH   4   5
ENDBRANCH   3   4
TORSDOF 6
ENDMDL
MODEL      240
REMARK 921   NORMALIZED FREE ENERGY PREDICTED BY IDOCK:   -3.29 KCAL/MOL
REMARK 922        TOTAL FREE ENERGY PREDICTED BY IDOCK:   -5.65 KCAL/MOL
REMARK 923 INTER-LIGAND FREE ENERGY PREDICTED BY IDOCK:   -4.99 KCAL/MOL
REMARK 924 INTRA-LIGAND FREE ENERGY PREDICTED BY IDOCK:   -0.66 KCAL/MOL
REMARK 927      BINDING AFFINITY PREDICTED BY RF-SCORE:    0.00 PKD
ROOT
HETATM    1 NA   UNL     1      -9.592   5.972  70.632  1.00  0.00    -0.153 Na 
HETATM    2  C   UNL     2      -6.737   8.089  71.721  1.00  0.00    -0.058 C  
HETATM    3  C   UNL     2      -6.478   8.444  70.264  1.00  0.00    -0.035 C  
ENDROOT
BRANCH   3   4
HETATM    4  C   UNL     2      -7.566   7.871  69.358  1.00  0.00    -0.103 C  
BRANCH   4   5
HETATM    5  C   UNL     2      -8.622   8.893  68.929  1.00  0.00    -0.135 C  
HETATM    6  C   UNL     2      -8.234   9.829  67.757  1.00  0.00    -0.114 C  
HETATM    7  C   UNL     2      -7.760   9.078  66.492  1.00  0.00    -0.096 C  
HETATM    8  C   UNL     2      -9.391  10.793  67.398  1.00  0.00    -0.163 C  
HETATM    9  C   UNL     2      -8.823   8.240  65.792  1.00  0.00    -0.194 C  
BRANCH   8  10
HETATM   10  C   UNL     2      -9.873  11.691  68.537  1.00  0.00    -0.196 C  
BRANCH  10  11
HETATM   11  C   UNL     2     -11.352  12.134  68.501  1.00  0.00    -0.275 C  
BRANCH  11  12
HETATM   12  C   UNL     2     -11.805  12.410  67.047  1.00  0.00    -0.368 C  
HETATM   13  C   UNL     2     -10.797  14.755  66.768  1.00  0.00    -0.316 C  
HETATM   14  C   UNL     2     -12.058  13.892  66.686  1.00  0.00    -0.485 C  
HETATM   15  C   UNL     2     -12.622  13.983  65.260  1.00  0.00    -0.495 C  
ENDBRANCH  11  12
BRANCH  11  16
HETATM   16  O   UNL     2     -12.164  11.089  69.031  1.00  0.00    -0.483 OA 
HETATM   17  O   UNL     2     -12.313  12.193  71.205  1.00  0.00    -0.306 OA 
HETATM   18  O   UNL     2     -13.430  10.043  70.828  1.00  0.00    -0.316 OA 
HETATM   19  S   UNL     2     -12.225  10.848  70.647  1.00  0.00    -0.404 S  
HETATM   20  O   UNL     2     -10.979  10.164  70.964  1.00  0.00    -0.291 OA 
ENDBRANCH  11  16
ENDBRANCH  10  11
ENDBRANCH   8  10
ENDBRANCH   4   5
ENDBRANCH   3   4
TORSDOF 6
ENDMDL
MODEL      241
REMARK 921   NORMALIZED FREE ENERGY PREDICTED BY IDOCK:   -3.27 KCAL/MOL
REMARK 922        TOTAL FREE ENERGY PREDICTED BY IDOCK:   -5.62 KCAL/MOL
REMARK 923 INTER-LIGAND FREE ENERGY PREDICTED BY IDOCK:   -5.04 KCAL/MOL
REMARK 924 INTRA-LIGAND FREE ENERGY PREDICTED BY IDOCK:   -0.57 KCAL/MOL
REMARK 927      BINDING AFFINITY PREDICTED BY RF-SCORE:    0.00 PKD
ROOT
HETATM    1 NA   UNL     1     -13.123  10.200  69.162  1.00  0.00    -0.518 Na 
HETATM    2  C   UNL     2     -11.468  13.521  69.379  1.00  0.00    -0.340 C  
HETATM    3  C   UNL     2     -11.100  13.406  67.907  1.00  0.00    -0.289 C  
ENDROOT
BRANCH   3   4
HETATM    4  C   UNL     2     -11.728  12.162  67.281  1.00  0.00    -0.369 C  
BRANCH   4   5
HETATM    5  C   UNL     2     -11.013  10.855  67.640  1.00  0.00    -0.350 C  
HETATM    6  C   UNL     2     -10.025  10.303  66.584  1.00  0.00    -0.270 C  
HETATM    7  C   UNL     2      -8.951  11.324  66.142  1.00  0.00    -0.210 C  
HETATM    8  C   UNL     2      -9.346   9.001  67.074  1.00  0.00    -0.190 C  
HETATM    9  C   UNL     2      -7.954  11.733  67.219  1.00  0.00    -0.161 C  
BRANCH   8  10
HETATM   10  C   UNL     2     -10.297   7.857  67.425  1.00  0.00    -0.349 C  
BRANCH  10  11
HETATM   11  C   UNL     2      -9.847   6.891  68.543  1.00  0.00    -0.144 C  
BRANCH  11  12
HETATM   12  C   UNL     2     -10.597   7.194  69.863  1.00  0.00    -0.246 C  
HETATM   13  C   UNL     2      -9.538   5.374  71.334  1.00  0.00    -0.202 C  
HETATM   14  C   UNL     2     -10.835   5.987  70.799  1.00  0.00    -0.358 C  
HETATM   15  C   UNL     2     -11.697   6.427  71.992  1.00  0.00    -0.376 C  
ENDBRANCH  11  12
BRANCH  11  16
HETATM   16  O   UNL     2     -10.151   5.554  68.153  1.00  0.00    -0.151 OA 
HETATM   17  O   UNL     2      -7.823   4.861  68.408  1.00  0.00    -0.081 OA 
HETATM   18  O   UNL     2      -9.524   3.250  67.682  1.00  0.00    -0.204 OA 
HETATM   19  S   UNL     2      -8.973   4.595  67.549  1.00  0.00    -0.117 S  
HETATM   20  O   UNL     2      -8.795   5.052  66.178  1.00  0.00    -0.120 OA 
ENDBRANCH  11  16
ENDBRANCH  10  11
ENDBRANCH   8  10
ENDBRANCH   4   5
ENDBRANCH   3   4
TORSDOF 6
ENDMDL
MODEL      242
REMARK 921   NORMALIZED FREE ENERGY PREDICTED BY IDOCK:   -3.27 KCAL/MOL
REMARK 922        TOTAL FREE ENERGY PREDICTED BY IDOCK:   -5.62 KCAL/MOL
REMARK 923 INTER-LIGAND FREE ENERGY PREDICTED BY IDOCK:   -6.14 KCAL/MOL
REMARK 924 INTRA-LIGAND FREE ENERGY PREDICTED BY IDOCK:    0.53 KCAL/MOL
REMARK 927      BINDING AFFINITY PREDICTED BY RF-SCORE:    0.00 PKD
ROOT
HETATM    1 NA   UNL     1     -11.029  12.205  70.548  1.00  0.00    -0.476 Na 
HETATM    2  C   UNL     2     -13.331   9.685  72.022  1.00  0.00    -0.547 C  
HETATM    3  C   UNL     2     -12.264   8.621  71.806  1.00  0.00    -0.403 C  
ENDROOT
BRANCH   3   4
HETATM    4  C   UNL     2     -10.964   9.244  71.299  1.00  0.00    -0.421 C  
BRANCH   4   5
HETATM    5  C   UNL     2     -10.940   9.490  69.787  1.00  0.00    -0.245 C  
HETATM    6  C   UNL     2      -9.830   8.758  68.992  1.00  0.00    -0.183 C  
HETATM    7  C   UNL     2      -9.804   7.230  69.223  1.00  0.00    -0.166 C  
HETATM    8  C   UNL     2      -9.929   9.061  67.477  1.00  0.00    -0.262 C  
HETATM    9  C   UNL     2     -11.018   6.468  68.706  1.00  0.00    -0.371 C  
BRANCH   8  10
HETATM   10  C   UNL     2      -9.839  10.540  67.098  1.00  0.00    -0.213 C  
BRANCH  10  11
HETATM   11  C   UNL     2     -10.660  10.998  65.872  1.00  0.00    -0.206 C  
BRANCH  11  12
HETATM   12  C   UNL     2     -10.267  12.438  65.459  1.00  0.00    -0.297 C  
HETATM   13  C   UNL     2     -12.016  13.723  66.832  1.00  0.00    -0.460 C  
HETATM   14  C   UNL     2     -11.413  13.475  65.447  1.00  0.00    -0.318 C  
HETATM   15  C   UNL     2     -10.891  14.810  64.894  1.00  0.00    -0.433 C  
ENDBRANCH  11  12
BRANCH  11  16
HETATM   16  O   UNL     2     -10.386  10.129  64.776  1.00  0.00    -0.221 OA 
HETATM   17  O   UNL     2      -8.013  10.707  64.800  1.00  0.00    -0.091 OA 
HETATM   18  O   UNL     2      -8.884   9.112  63.153  1.00  0.00    -0.196 OA 
HETATM   19  S   UNL     2      -9.068  10.385  63.844  1.00  0.00    -0.266 S  
HETATM   20  O   UNL     2      -9.437  11.500  62.984  1.00  0.00    -0.367 OA 
ENDBRANCH  11  16
ENDBRANCH  10  11
ENDBRANCH   8  10
ENDBRANCH   4   5
ENDBRANCH   3   4
TORSDOF 6
ENDMDL
MODEL      243
REMARK 921   NORMALIZED FREE ENERGY PREDICTED BY IDOCK:   -3.26 KCAL/MOL
REMARK 922        TOTAL FREE ENERGY PREDICTED BY IDOCK:   -5.61 KCAL/MOL
REMARK 923 INTER-LIGAND FREE ENERGY PREDICTED BY IDOCK:   -4.87 KCAL/MOL
REMARK 924 INTRA-LIGAND FREE ENERGY PREDICTED BY IDOCK:   -0.74 KCAL/MOL
REMARK 927      BINDING AFFINITY PREDICTED BY RF-SCORE:    0.00 PKD
ROOT
HETATM    1 NA   UNL     1     -11.472  17.375  67.908  1.00  0.00    -0.346 Na 
HETATM    2  C   UNL     2      -7.762  17.565  67.768  1.00  0.00    -0.209 C  
HETATM    3  C   UNL     2      -7.778  16.542  66.641  1.00  0.00    -0.318 C  
ENDROOT
BRANCH   3   4
HETATM    4  C   UNL     2      -9.208  16.223  66.210  1.00  0.00    -0.363 C  
BRANCH   4   5
HETATM    5  C   UNL     2      -9.544  14.728  66.222  1.00  0.00    -0.339 C  
HETATM    6  C   UNL     2      -9.389  14.002  67.581  1.00  0.00    -0.203 C  
HETATM    7  C   UNL     2     -10.168  14.670  68.736  1.00  0.00    -0.242 C  
HETATM    8  C   UNL     2      -9.784  12.509  67.470  1.00  0.00    -0.196 C  
HETATM    9  C   UNL     2     -11.686  14.631  68.610  1.00  0.00    -0.362 C  
BRANCH   8  10
HETATM   10  C   UNL     2      -8.994  11.696  66.444  1.00  0.00    -0.198 C  
BRANCH  10  11
HETATM   11  C   UNL     2      -9.690  10.450  65.853  1.00  0.00    -0.217 C  
BRANCH  11  12
HETATM   12  C   UNL     2     -10.947  10.858  65.046  1.00  0.00    -0.035 C  
HETATM   13  C   UNL     2      -9.820  11.322  62.786  1.00  0.00    -0.241 C  
HETATM   14  C   UNL     2     -10.717  11.868  63.899  1.00  0.00    -0.450 C  
HETATM   15  C   UNL     2     -12.070  12.264  63.287  1.00  0.00    -0.518 C  
ENDBRANCH  11  12
BRANCH  11  16
HETATM   16  O   UNL     2      -8.788   9.787  64.971  1.00  0.00    -0.164 OA 
HETATM   17  O   UNL     2      -9.228   7.623  66.012  1.00  0.00    -0.150 OA 
HETATM   18  O   UNL     2      -7.644   7.803  64.149  1.00  0.00    -0.098 OA 
HETATM   19  S   UNL     2      -8.123   8.360  65.411  1.00  0.00    -0.141 S  
HETATM   20  O   UNL     2      -7.076   8.719  66.357  1.00  0.00    -0.080 OA 
ENDBRANCH  11  16
ENDBRANCH  10  11
ENDBRANCH   8  10
ENDBRANCH   4   5
ENDBRANCH   3   4
TORSDOF 6
ENDMDL
MODEL      244
REMARK 921   NORMALIZED FREE ENERGY PREDICTED BY IDOCK:   -3.25 KCAL/MOL
REMARK 922        TOTAL FREE ENERGY PREDICTED BY IDOCK:   -5.59 KCAL/MOL
REMARK 923 INTER-LIGAND FREE ENERGY PREDICTED BY IDOCK:   -4.81 KCAL/MOL
REMARK 924 INTRA-LIGAND FREE ENERGY PREDICTED BY IDOCK:   -0.78 KCAL/MOL
REMARK 927      BINDING AFFINITY PREDICTED BY RF-SCORE:    0.00 PKD
ROOT
HETATM    1 NA   UNL     1     -12.539  11.340  63.703  1.00  0.00    -0.372 Na 
HETATM    2  C   UNL     2     -11.216  14.693  64.610  1.00  0.00    -0.353 C  
HETATM    3  C   UNL     2     -11.383  14.333  66.080  1.00  0.00    -0.335 C  
ENDROOT
BRANCH   3   4
HETATM    4  C   UNL     2     -11.814  12.876  66.242  1.00  0.00    -0.477 C  
BRANCH   4   5
HETATM    5  C   UNL     2     -10.892  12.051  67.145  1.00  0.00    -0.297 C  
HETATM    6  C   UNL     2     -10.657  10.580  66.722  1.00  0.00    -0.284 C  
HETATM    7  C   UNL     2     -10.158  10.422  65.268  1.00  0.00    -0.370 C  
HETATM    8  C   UNL     2      -9.688   9.863  67.693  1.00  0.00    -0.183 C  
HETATM    9  C   UNL     2      -8.769  10.982  64.987  1.00  0.00    -0.040 C  
BRANCH   8  10
HETATM   10  C   UNL     2     -10.129   9.834  69.157  1.00  0.00    -0.200 C  
BRANCH  10  11
HETATM   11  C   UNL     2      -9.660   8.632  70.006  1.00  0.00    -0.170 C  
BRANCH  11  12
HETATM   12  C   UNL     2      -8.507   9.045  70.951  1.00  0.00    -0.253 C  
HETATM   13  C   UNL     2      -6.580   7.834  69.762  1.00  0.00    -0.035 C  
HETATM   14  C   UNL     2      -7.339   8.041  71.075  1.00  0.00    -0.059 C  
HETATM   15  C   UNL     2      -6.349   8.535  72.141  1.00  0.00    -0.072 C  
ENDBRANCH  11  12
BRANCH  11  16
HETATM   16  O   UNL     2     -10.749   8.172  70.803  1.00  0.00    -0.215 OA 
HETATM   17  O   UNL     2      -9.877   5.891  70.828  1.00  0.00    -0.175 OA 
HETATM   18  O   UNL     2     -11.968   6.432  71.990  1.00  0.00    -0.329 OA 
HETATM   19  S   UNL     2     -11.157   6.589  70.786  1.00  0.00    -0.322 S  
HETATM   20  O   UNL     2     -11.879   6.409  69.534  1.00  0.00    -0.274 OA 
ENDBRANCH  11  16
ENDBRANCH  10  11
ENDBRANCH   8  10
ENDBRANCH   4   5
ENDBRANCH   3   4
TORSDOF 6
ENDMDL
MODEL      245
REMARK 921   NORMALIZED FREE ENERGY PREDICTED BY IDOCK:   -3.25 KCAL/MOL
REMARK 922        TOTAL FREE ENERGY PREDICTED BY IDOCK:   -5.59 KCAL/MOL
REMARK 923 INTER-LIGAND FREE ENERGY PREDICTED BY IDOCK:   -4.42 KCAL/MOL
REMARK 924 INTRA-LIGAND FREE ENERGY PREDICTED BY IDOCK:   -1.17 KCAL/MOL
REMARK 927      BINDING AFFINITY PREDICTED BY RF-SCORE:    0.00 PKD
ROOT
HETATM    1 NA   UNL     1     -12.754   6.594  69.086  1.00  0.00    -0.484 Na 
HETATM    2  C   UNL     2     -11.169   8.890  71.543  1.00  0.00    -0.396 C  
HETATM    3  C   UNL     2     -11.398   7.846  72.627  1.00  0.00    -0.468 C  
ENDROOT
BRANCH   3   4
HETATM    4  C   UNL     2     -11.954   6.553  72.034  1.00  0.00    -0.372 C  
BRANCH   4   5
HETATM    5  C   UNL     2     -10.988   5.835  71.087  1.00  0.00    -0.295 C  
HETATM    6  C   UNL     2      -9.524   5.702  71.574  1.00  0.00    -0.177 C  
HETATM    7  C   UNL     2      -9.389   5.051  72.969  1.00  0.00    -0.140 C  
HETATM    8  C   UNL     2      -8.656   4.935  70.547  1.00  0.00    -0.122 C  
HETATM    9  C   UNL     2      -9.808   3.589  73.053  1.00  0.00    -0.194 C  
BRANCH   8  10
HETATM   10  C   UNL     2      -8.599   5.549  69.148  1.00  0.00    -0.104 C  
BRANCH  10  11
HETATM   11  C   UNL     2      -8.536   7.090  69.062  1.00  0.00    -0.129 C  
BRANCH  11  12
HETATM   12  C   UNL     2      -7.131   7.603  69.462  1.00  0.00    -0.064 C  
HETATM   13  C   UNL     2      -7.714   8.555  71.775  1.00  0.00    -0.154 C  
HETATM   14  C   UNL     2      -7.101   8.831  70.400  1.00  0.00    -0.048 C  
HETATM   15  C   UNL     2      -5.648   9.291  70.595  1.00  0.00    -0.035 C  
ENDBRANCH  11  12
BRANCH  11  16
HETATM   16  O   UNL     2      -8.792   7.493  67.719  1.00  0.00    -0.132 OA 
HETATM   17  O   UNL     2     -10.573   9.008  68.424  1.00  0.00    -0.207 OA 
HETATM   18  O   UNL     2     -10.004   8.784  66.049  1.00  0.00    -0.256 OA 
HETATM   19  S   UNL     2     -10.253   8.110  67.320  1.00  0.00    -0.305 S  
HETATM   20  O   UNL     2     -11.131   6.951  67.236  1.00  0.00    -0.339 OA 
ENDBRANCH  11  16
ENDBRANCH  10  11
ENDBRANCH   8  10
ENDBRANCH   4   5
ENDBRANCH   3   4
TORSDOF 6
ENDMDL
MODEL      246
REMARK 921   NORMALIZED FREE ENERGY PREDICTED BY IDOCK:   -3.24 KCAL/MOL
REMARK 922        TOTAL FREE ENERGY PREDICTED BY IDOCK:   -5.58 KCAL/MOL
REMARK 923 INTER-LIGAND FREE ENERGY PREDICTED BY IDOCK:   -4.42 KCAL/MOL
REMARK 924 INTRA-LIGAND FREE ENERGY PREDICTED BY IDOCK:   -1.16 KCAL/MOL
REMARK 927      BINDING AFFINITY PREDICTED BY RF-SCORE:    0.00 PKD
ROOT
HETATM    1 NA   UNL     1      -8.074   4.343  71.072  1.00  0.00    -0.065 Na 
HETATM    2  C   UNL     2      -8.140   2.485  67.854  1.00  0.00    -0.069 C  
HETATM    3  C   UNL     2      -9.410   3.234  67.476  1.00  0.00    -0.250 C  
ENDROOT
BRANCH   3   4
HETATM    4  C   UNL     2      -9.744   4.304  68.515  1.00  0.00    -0.164 C  
BRANCH   4   5
HETATM    5  C   UNL     2      -9.950   5.702  67.924  1.00  0.00    -0.174 C  
HETATM    6  C   UNL     2      -8.883   6.764  68.290  1.00  0.00    -0.125 C  
HETATM    7  C   UNL     2      -7.435   6.326  67.974  1.00  0.00    -0.090 C  
HETATM    8  C   UNL     2      -9.185   8.122  67.612  1.00  0.00    -0.150 C  
HETATM    9  C   UNL     2      -7.111   6.154  66.495  1.00  0.00    -0.068 C  
BRANCH   8  10
HETATM   10  C   UNL     2     -10.546   8.734  67.944  1.00  0.00    -0.236 C  
BRANCH  10  11
HETATM   11  C   UNL     2     -10.611   9.671  69.170  1.00  0.00    -0.220 C  
BRANCH  11  12
HETATM   12  C   UNL     2      -9.655   9.181  70.285  1.00  0.00    -0.249 C  
HETATM   13  C   UNL     2     -11.084   7.250  71.196  1.00  0.00    -0.275 C  
HETATM   14  C   UNL     2     -10.328   8.541  71.521  1.00  0.00    -0.321 C  
HETATM   15  C   UNL     2      -9.261   8.230  72.582  1.00  0.00    -0.345 C  
ENDBRANCH  11  12
BRANCH  11  16
HETATM   16  O   UNL     2     -10.206  10.980  68.778  1.00  0.00    -0.185 OA 
HETATM   17  O   UNL     2     -12.119  12.000  69.902  1.00  0.00    -0.301 OA 
HETATM   18  O   UNL     2     -10.495  13.396  68.707  1.00  0.00    -0.242 OA 
HETATM   19  S   UNL     2     -11.309  12.184  68.702  1.00  0.00    -0.307 S  
HETATM   20  O   UNL     2     -12.036  11.939  67.464  1.00  0.00    -0.586 OA 
ENDBRANCH  11  16
ENDBRANCH  10  11
ENDBRANCH   8  10
ENDBRANCH   4   5
ENDBRANCH   3   4
TORSDOF 6
ENDMDL
MODEL      247
REMARK 921   NORMALIZED FREE ENERGY PREDICTED BY IDOCK:   -3.22 KCAL/MOL
REMARK 922        TOTAL FREE ENERGY PREDICTED BY IDOCK:   -5.56 KCAL/MOL
REMARK 923 INTER-LIGAND FREE ENERGY PREDICTED BY IDOCK:   -4.73 KCAL/MOL
REMARK 924 INTRA-LIGAND FREE ENERGY PREDICTED BY IDOCK:   -0.82 KCAL/MOL
REMARK 927      BINDING AFFINITY PREDICTED BY RF-SCORE:    0.00 PKD
ROOT
HETATM    1 NA   UNL     1     -11.375  15.630  63.606  1.00  0.00    -0.619 Na 
HETATM    2  C   UNL     2     -12.054  12.049  62.876  1.00  0.00     0.159 C  
HETATM    3  C   UNL     2     -12.495  11.864  64.321  1.00  0.00    -0.289 C  
ENDROOT
BRANCH   3   4
HETATM    4  C   UNL     2     -12.521  13.200  65.061  1.00  0.00    -0.516 C  
BRANCH   4   5
HETATM    5  C   UNL     2     -11.992  13.129  66.497  1.00  0.00    -0.459 C  
HETATM    6  C   UNL     2     -10.486  13.434  66.688  1.00  0.00    -0.280 C  
HETATM    7  C   UNL     2     -10.045  14.789  66.089  1.00  0.00    -0.312 C  
HETATM    8  C   UNL     2     -10.081  13.359  68.180  1.00  0.00    -0.244 C  
HETATM    9  C   UNL     2     -10.632  16.024  66.761  1.00  0.00    -0.297 C  
BRANCH   8  10
HETATM   10  C   UNL     2     -10.347  12.019  68.865  1.00  0.00    -0.117 C  
BRANCH  10  11
HETATM   11  C   UNL     2      -9.469  10.825  68.432  1.00  0.00    -0.174 C  
BRANCH  11  12
HETATM   12  C   UNL     2      -8.736  10.214  69.651  1.00  0.00    -0.176 C  
HETATM   13  C   UNL     2      -6.661  11.726  69.652  1.00  0.00    -0.034 C  
HETATM   14  C   UNL     2      -7.193  10.292  69.623  1.00  0.00    -0.140 C  
HETATM   15  C   UNL     2      -6.619   9.532  70.829  1.00  0.00    -0.104 C  
ENDBRANCH  11  12
BRANCH  11  16
HETATM   16  O   UNL     2     -10.300   9.818  67.860  1.00  0.00    -0.185 OA 
HETATM   17  O   UNL     2      -8.372   8.619  66.959  1.00  0.00    -0.105 OA 
HETATM   18  O   UNL     2     -10.644   7.774  66.584  1.00  0.00    -0.276 OA 
HETATM   19  S   UNL     2      -9.752   8.930  66.601  1.00  0.00    -0.259 S  
HETATM   20  O   UNL     2      -9.872   9.813  65.449  1.00  0.00    -0.306 OA 
ENDBRANCH  11  16
ENDBRANCH  10  11
ENDBRANCH   8  10
ENDBRANCH   4   5
ENDBRANCH   3   4
TORSDOF 6
ENDMDL
MODEL      248
REMARK 921   NORMALIZED FREE ENERGY PREDICTED BY IDOCK:   -3.22 KCAL/MOL
REMARK 922        TOTAL FREE ENERGY PREDICTED BY IDOCK:   -5.55 KCAL/MOL
REMARK 923 INTER-LIGAND FREE ENERGY PREDICTED BY IDOCK:   -4.54 KCAL/MOL
REMARK 924 INTRA-LIGAND FREE ENERGY PREDICTED BY IDOCK:   -1.01 KCAL/MOL
REMARK 927      BINDING AFFINITY PREDICTED BY RF-SCORE:    0.00 PKD
ROOT
HETATM    1 NA   UNL     1     -11.513  16.929  67.098  1.00  0.00    -0.165 Na 
HETATM    2  C   UNL     2     -12.261  14.891  64.082  1.00  0.00    -0.280 C  
HETATM    3  C   UNL     2     -12.218  13.640  64.947  1.00  0.00    -0.447 C  
ENDROOT
BRANCH   3   4
HETATM    4  C   UNL     2     -12.057  14.000  66.423  1.00  0.00    -0.483 C  
BRANCH   4   5
HETATM    5  C   UNL     2     -11.091  13.088  67.185  1.00  0.00    -0.304 C  
HETATM    6  C   UNL     2      -9.625  13.073  66.687  1.00  0.00    -0.259 C  
HETATM    7  C   UNL     2      -8.982  14.477  66.603  1.00  0.00    -0.247 C  
HETATM    8  C   UNL     2      -8.744  12.140  67.553  1.00  0.00    -0.173 C  
HETATM    9  C   UNL     2      -8.780  15.185  67.936  1.00  0.00    -0.157 C  
BRANCH   8  10
HETATM   10  C   UNL     2      -9.200  10.683  67.619  1.00  0.00    -0.153 C  
BRANCH  10  11
HETATM   11  C   UNL     2      -9.344  10.057  69.023  1.00  0.00    -0.181 C  
BRANCH  11  12
HETATM   12  C   UNL     2      -7.963   9.941  69.714  1.00  0.00    -0.181 C  
HETATM   13  C   UNL     2      -7.981   7.417  70.190  1.00  0.00    -0.112 C  
HETATM   14  C   UNL     2      -7.828   8.824  70.774  1.00  0.00    -0.120 C  
HETATM   15  C   UNL     2      -6.453   8.926  71.453  1.00  0.00    -0.076 C  
ENDBRANCH  11  12
BRANCH  11  16
HETATM   16  O   UNL     2     -10.175  10.893  69.823  1.00  0.00    -0.088 OA 
HETATM   17  O   UNL     2     -11.556   9.001  70.516  1.00  0.00    -0.254 OA 
HETATM   18  O   UNL     2     -12.056  11.262  71.324  1.00  0.00    -0.234 OA 
HETATM   19  S   UNL     2     -11.696  10.416  70.190  1.00  0.00    -0.320 S  
HETATM   20  O   UNL     2     -12.461  10.663  68.976  1.00  0.00    -0.311 OA 
ENDBRANCH  11  16
ENDBRANCH  10  11
ENDBRANCH   8  10
ENDBRANCH   4   5
ENDBRANCH   3   4
TORSDOF 6
ENDMDL
MODEL      249
REMARK 921   NORMALIZED FREE ENERGY PREDICTED BY IDOCK:   -3.21 KCAL/MOL
REMARK 922        TOTAL FREE ENERGY PREDICTED BY IDOCK:   -5.55 KCAL/MOL
REMARK 923 INTER-LIGAND FREE ENERGY PREDICTED BY IDOCK:   -4.77 KCAL/MOL
REMARK 924 INTRA-LIGAND FREE ENERGY PREDICTED BY IDOCK:   -0.77 KCAL/MOL
REMARK 927      BINDING AFFINITY PREDICTED BY RF-SCORE:    0.00 PKD
ROOT
HETATM    1 NA   UNL     1      -7.701   8.329  73.091  1.00  0.00    -0.103 Na 
HETATM    2  C   UNL     2     -11.361   7.743  72.816  1.00  0.00    -0.446 C  
HETATM    3  C   UNL     2     -11.404   8.718  71.648  1.00  0.00    -0.390 C  
ENDROOT
BRANCH   3   4
HETATM    4  C   UNL     2      -9.998   9.170  71.260  1.00  0.00    -0.373 C  
BRANCH   4   5
HETATM    5  C   UNL     2      -9.804   9.382  69.755  1.00  0.00    -0.218 C  
HETATM    6  C   UNL     2      -8.607  10.271  69.337  1.00  0.00    -0.167 C  
HETATM    7  C   UNL     2      -7.255   9.812  69.928  1.00  0.00    -0.116 C  
HETATM    8  C   UNL     2      -8.500  10.384  67.797  1.00  0.00    -0.114 C  
HETATM    9  C   UNL     2      -6.745   8.466  69.428  1.00  0.00    -0.045 C  
BRANCH   8  10
HETATM   10  C   UNL     2      -9.734  10.949  67.094  1.00  0.00    -0.199 C  
BRANCH  10  11
HETATM   11  C   UNL     2      -9.757  10.872  65.551  1.00  0.00    -0.233 C  
BRANCH  11  12
HETATM   12  C   UNL     2      -9.213   9.508  65.063  1.00  0.00    -0.297 C  
HETATM   13  C   UNL     2      -7.575  10.362  63.279  1.00  0.00    -0.077 C  
HETATM   14  C   UNL     2      -8.763   9.447  63.586  1.00  0.00    -0.222 C  
HETATM   15  C   UNL     2      -8.376   8.004  63.227  1.00  0.00     0.027 C  
ENDBRANCH  11  12
BRANCH  11  16
HETATM   16  O   UNL     2     -11.102  11.005  65.098  1.00  0.00    -0.105 OA 
HETATM   17  O   UNL     2     -10.440  12.544  63.321  1.00  0.00    -0.346 OA 
HETATM   18  O   UNL     2     -12.795  11.923  63.609  1.00  0.00    -0.646 OA 
HETATM   19  S   UNL     2     -11.546  12.329  64.248  1.00  0.00    -0.395 S  
HETATM   20  O   UNL     2     -11.683  13.379  65.247  1.00  0.00    -0.307 OA 
ENDBRANCH  11  16
ENDBRANCH  10  11
ENDBRANCH   8  10
ENDBRANCH   4   5
ENDBRANCH   3   4
TORSDOF 6
ENDMDL
MODEL      250
REMARK 921   NORMALIZED FREE ENERGY PREDICTED BY IDOCK:   -3.21 KCAL/MOL
REMARK 922        TOTAL FREE ENERGY PREDICTED BY IDOCK:   -5.54 KCAL/MOL
REMARK 923 INTER-LIGAND FREE ENERGY PREDICTED BY IDOCK:   -4.61 KCAL/MOL
REMARK 924 INTRA-LIGAND FREE ENERGY PREDICTED BY IDOCK:   -0.93 KCAL/MOL
REMARK 927      BINDING AFFINITY PREDICTED BY RF-SCORE:    0.00 PKD
ROOT
HETATM    1 NA   UNL     1      -6.359   8.650  67.065  1.00  0.00    -0.047 Na 
HETATM    2  C   UNL     2      -9.386  10.733  66.510  1.00  0.00    -0.192 C  
HETATM    3  C   UNL     2     -10.137   9.482  66.076  1.00  0.00    -0.319 C  
ENDROOT
BRANCH   3   4
HETATM    4  C   UNL     2      -9.279   8.233  66.273  1.00  0.00    -0.258 C  
BRANCH   4   5
HETATM    5  C   UNL     2      -9.560   7.484  67.580  1.00  0.00    -0.171 C  
HETATM    6  C   UNL     2     -10.743   6.486  67.557  1.00  0.00    -0.395 C  
HETATM    7  C   UNL     2     -10.652   5.440  66.423  1.00  0.00    -0.322 C  
HETATM    8  C   UNL     2     -10.906   5.773  68.922  1.00  0.00    -0.305 C  
HETATM    9  C   UNL     2      -9.500   4.450  66.536  1.00  0.00    -0.186 C  
BRANCH   8  10
HETATM   10  C   UNL     2     -11.133   6.696  70.120  1.00  0.00    -0.384 C  
BRANCH  10  11
HETATM   11  C   UNL     2     -10.073   6.657  71.243  1.00  0.00    -0.188 C  
BRANCH  11  12
HETATM   12  C   UNL     2      -9.687   5.196  71.580  1.00  0.00    -0.217 C  
HETATM   13  C   UNL     2     -11.608   4.653  73.195  1.00  0.00    -0.261 C  
HETATM   14  C   UNL     2     -10.093   4.696  72.985  1.00  0.00    -0.207 C  
HETATM   15  C   UNL     2      -9.527   3.285  73.209  1.00  0.00    -0.129 C  
ENDBRANCH  11  12
BRANCH  11  16
HETATM   16  O   UNL     2      -8.902   7.338  70.802  1.00  0.00    -0.148 OA 
HETATM   17  O   UNL     2      -8.881   8.762  72.786  1.00  0.00    -0.382 OA 
HETATM   18  O   UNL     2      -7.158   9.017  71.059  1.00  0.00    -0.084 OA 
HETATM   19  S   UNL     2      -8.576   8.840  71.361  1.00  0.00    -0.174 S  
HETATM   20  O   UNL     2      -9.474   9.712  70.618  1.00  0.00    -0.244 OA 
ENDBRANCH  11  16
ENDBRANCH  10  11
ENDBRANCH   8  10
ENDBRANCH   4   5
ENDBRANCH   3   4
TORSDOF 6
ENDMDL
MODEL      251
REMARK 921   NORMALIZED FREE ENERGY PREDICTED BY IDOCK:   -3.21 KCAL/MOL
REMARK 922        TOTAL FREE ENERGY PREDICTED BY IDOCK:   -5.54 KCAL/MOL
REMARK 923 INTER-LIGAND FREE ENERGY PREDICTED BY IDOCK:   -5.33 KCAL/MOL
REMARK 924 INTRA-LIGAND FREE ENERGY PREDICTED BY IDOCK:   -0.21 KCAL/MOL
REMARK 927      BINDING AFFINITY PREDICTED BY RF-SCORE:    0.00 PKD
ROOT
HETATM    1 NA   UNL     1     -11.157  17.348  69.700  1.00  0.00    -0.340 Na 
HETATM    2  C   UNL     2     -10.430  19.237  66.582  1.00  0.00    -0.541 C  
HETATM    3  C   UNL     2     -10.175  17.916  65.871  1.00  0.00    -0.228 C  
ENDROOT
BRANCH   3   4
HETATM    4  C   UNL     2     -10.502  16.732  66.780  1.00  0.00    -0.258 C  
BRANCH   4   5
HETATM    5  C   UNL     2     -10.002  15.384  66.252  1.00  0.00    -0.308 C  
HETATM    6  C   UNL     2     -11.036  14.231  66.231  1.00  0.00    -0.317 C  
HETATM    7  C   UNL     2     -12.341  14.579  65.479  1.00  0.00    -0.272 C  
HETATM    8  C   UNL     2     -10.421  12.934  65.650  1.00  0.00    -0.292 C  
HETATM    9  C   UNL     2     -12.192  14.802  63.979  1.00  0.00    -0.185 C  
BRANCH   8  10
HETATM   10  C   UNL     2      -9.189  12.406  66.385  1.00  0.00    -0.192 C  
BRANCH  10  11
HETATM   11  C   UNL     2      -9.440  11.509  67.617  1.00  0.00    -0.168 C  
BRANCH  11  12
HETATM   12  C   UNL     2     -10.076  12.325  68.768  1.00  0.00    -0.082 C  
HETATM   13  C   UNL     2     -12.036  10.759  69.316  1.00  0.00    -0.334 C  
HETATM   14  C   UNL     2     -11.605  12.179  68.939  1.00  0.00    -0.377 C  
HETATM   15  C   UNL     2     -12.093  13.145  70.030  1.00  0.00    -0.375 C  
ENDBRANCH  11  12
BRANCH  11  16
HETATM   16  O   UNL     2     -10.343  10.466  67.258  1.00  0.00    -0.202 OA 
HETATM   17  O   UNL     2      -8.633   8.755  67.593  1.00  0.00    -0.126 OA 
HETATM   18  O   UNL     2     -10.890   8.127  66.868  1.00  0.00    -0.250 OA 
HETATM   19  S   UNL     2      -9.761   9.039  66.712  1.00  0.00    -0.238 S  
HETATM   20  O   UNL     2      -9.374   9.303  65.333  1.00  0.00    -0.239 OA 
ENDBRANCH  11  16
ENDBRANCH  10  11
ENDBRANCH   8  10
ENDBRANCH   4   5
ENDBRANCH   3   4
TORSDOF 6
ENDMDL
MODEL      252
REMARK 921   NORMALIZED FREE ENERGY PREDICTED BY IDOCK:   -3.20 KCAL/MOL
REMARK 922        TOTAL FREE ENERGY PREDICTED BY IDOCK:   -5.53 KCAL/MOL
REMARK 923 INTER-LIGAND FREE ENERGY PREDICTED BY IDOCK:   -4.68 KCAL/MOL
REMARK 924 INTRA-LIGAND FREE ENERGY PREDICTED BY IDOCK:   -0.85 KCAL/MOL
REMARK 927      BINDING AFFINITY PREDICTED BY RF-SCORE:    0.00 PKD
ROOT
HETATM    1 NA   UNL     1      -9.529   9.267  72.405  1.00  0.00    -0.269 Na 
HETATM    2  C   UNL     2     -13.203   9.074  71.875  1.00  0.00    -0.462 C  
HETATM    3  C   UNL     2     -13.116  10.313  70.996  1.00  0.00    -0.458 C  
ENDROOT
BRANCH   3   4
HETATM    4  C   UNL     2     -11.662  10.732  70.782  1.00  0.00    -0.400 C  
BRANCH   4   5
HETATM    5  C   UNL     2     -10.914   9.879  69.752  1.00  0.00    -0.304 C  
HETATM    6  C   UNL     2     -11.384  10.010  68.283  1.00  0.00    -0.117 C  
HETATM    7  C   UNL     2     -11.406  11.466  67.764  1.00  0.00    -0.354 C  
HETATM    8  C   UNL     2     -10.534   9.125  67.339  1.00  0.00    -0.339 C  
HETATM    9  C   UNL     2     -10.044  12.139  67.646  1.00  0.00    -0.205 C  
BRANCH   8  10
HETATM   10  C   UNL     2     -10.529   7.632  67.667  1.00  0.00    -0.313 C  
BRANCH  10  11
HETATM   11  C   UNL     2      -9.265   6.834  67.277  1.00  0.00    -0.133 C  
BRANCH  11  12
HETATM   12  C   UNL     2      -8.059   7.259  68.150  1.00  0.00    -0.124 C  
HETATM   13  C   UNL     2      -8.867   6.331  70.404  1.00  0.00    -0.147 C  
HETATM   14  C   UNL     2      -8.369   7.557  69.634  1.00  0.00    -0.131 C  
HETATM   15  C   UNL     2      -7.103   8.087  70.325  1.00  0.00    -0.048 C  
ENDBRANCH  11  12
BRANCH  11  16
HETATM   16  O   UNL     2      -9.506   5.446  67.493  1.00  0.00    -0.115 OA 
HETATM   17  O   UNL     2      -8.361   4.839  65.423  1.00  0.00    -0.115 OA 
HETATM   18  O   UNL     2      -9.343   3.104  66.851  1.00  0.00    -0.179 OA 
HETATM   19  S   UNL     2      -9.503   4.413  66.226  1.00  0.00    -0.192 S  
HETATM   20  O   UNL     2     -10.787   4.627  65.574  1.00  0.00    -0.278 OA 
ENDBRANCH  11  16
ENDBRANCH  10  11
ENDBRANCH   8  10
ENDBRANCH   4   5
ENDBRANCH   3   4
TORSDOF 6
ENDMDL
MODEL      253
REMARK 921   NORMALIZED FREE ENERGY PREDICTED BY IDOCK:   -3.20 KCAL/MOL
REMARK 922        TOTAL FREE ENERGY PREDICTED BY IDOCK:   -5.53 KCAL/MOL
REMARK 923 INTER-LIGAND FREE ENERGY PREDICTED BY IDOCK:   -6.26 KCAL/MOL
REMARK 924 INTRA-LIGAND FREE ENERGY PREDICTED BY IDOCK:    0.72 KCAL/MOL
REMARK 927      BINDING AFFINITY PREDICTED BY RF-SCORE:    0.00 PKD
ROOT
HETATM    1 NA   UNL     1     -11.211  18.054  71.152  1.00  0.00    -0.438 Na 
HETATM    2  C   UNL     2      -8.797  18.326  68.339  1.00  0.00    -0.321 C  
HETATM    3  C   UNL     2      -9.614  17.296  67.572  1.00  0.00    -0.259 C  
ENDROOT
BRANCH   3   4
HETATM    4  C   UNL     2     -10.895  16.941  68.325  1.00  0.00    -0.357 C  
BRANCH   4   5
HETATM    5  C   UNL     2     -11.415  15.529  68.040  1.00  0.00    -0.313 C  
HETATM    6  C   UNL     2     -11.111  14.457  69.115  1.00  0.00    -0.290 C  
HETATM    7  C   UNL     2     -11.573  14.852  70.536  1.00  0.00    -0.336 C  
HETATM    8  C   UNL     2     -11.712  13.084  68.727  1.00  0.00    -0.363 C  
HETATM    9  C   UNL     2     -13.080  14.968  70.726  1.00  0.00    -0.420 C  
BRANCH   8  10
HETATM   10  C   UNL     2     -11.237  12.514  67.390  1.00  0.00    -0.344 C  
BRANCH  10  11
HETATM   11  C   UNL     2      -9.992  13.170  66.753  1.00  0.00    -0.250 C  
BRANCH  11  12
HETATM   12  C   UNL     2      -8.709  12.391  67.130  1.00  0.00    -0.195 C  
HETATM   13  C   UNL     2      -7.589  14.178  68.594  1.00  0.00    -0.126 C  
HETATM   14  C   UNL     2      -7.448  13.246  67.388  1.00  0.00    -0.134 C  
HETATM   15  C   UNL     2      -6.241  12.324  67.620  1.00  0.00    -0.120 C  
ENDBRANCH  11  12
BRANCH  11  16
HETATM   16  O   UNL     2     -10.129  13.147  65.334  1.00  0.00    -0.289 OA 
HETATM   17  O   UNL     2     -12.500  12.582  65.487  1.00  0.00    -0.646 OA 
HETATM   18  O   UNL     2     -11.426  12.841  63.298  1.00  0.00    -0.476 OA 
HETATM   19  S   UNL     2     -11.342  12.293  64.648  1.00  0.00    -0.335 S  
HETATM   20  O   UNL     2     -10.901  10.907  64.719  1.00  0.00    -0.245 OA 
ENDBRANCH  11  16
ENDBRANCH  10  11
ENDBRANCH   8  10
ENDBRANCH   4   5
ENDBRANCH   3   4
TORSDOF 6
ENDMDL
MODEL      254
REMARK 921   NORMALIZED FREE ENERGY PREDICTED BY IDOCK:   -3.20 KCAL/MOL
REMARK 922        TOTAL FREE ENERGY PREDICTED BY IDOCK:   -5.53 KCAL/MOL
REMARK 923 INTER-LIGAND FREE ENERGY PREDICTED BY IDOCK:   -5.35 KCAL/MOL
REMARK 924 INTRA-LIGAND FREE ENERGY PREDICTED BY IDOCK:   -0.18 KCAL/MOL
REMARK 927      BINDING AFFINITY PREDICTED BY RF-SCORE:    0.00 PKD
ROOT
HETATM    1 NA   UNL     1      -8.697   8.407  70.415  1.00  0.00    -0.115 Na 
HETATM    2  C   UNL     2     -10.576   7.457  67.352  1.00  0.00    -0.371 C  
HETATM    3  C   UNL     2     -10.355   8.862  66.811  1.00  0.00    -0.317 C  
ENDROOT
BRANCH   3   4
HETATM    4  C   UNL     2      -9.440   9.666  67.733  1.00  0.00    -0.146 C  
BRANCH   4   5
HETATM    5  C   UNL     2      -9.714  11.173  67.722  1.00  0.00    -0.183 C  
HETATM    6  C   UNL     2      -9.002  11.991  66.617  1.00  0.00    -0.204 C  
HETATM    7  C   UNL     2      -9.250  11.456  65.189  1.00  0.00    -0.119 C  
HETATM    8  C   UNL     2      -9.380  13.490  66.693  1.00  0.00    -0.254 C  
HETATM    9  C   UNL     2     -10.685  11.567  64.688  1.00  0.00    -0.379 C  
BRANCH   8  10
HETATM   10  C   UNL     2      -9.067  14.180  68.021  1.00  0.00    -0.191 C  
BRANCH  10  11
HETATM   11  C   UNL     2      -9.685  15.577  68.247  1.00  0.00    -0.201 C  
BRANCH  11  12
HETATM   12  C   UNL     2     -10.435  15.631  69.601  1.00  0.00    -0.283 C  
HETATM   13  C   UNL     2     -12.160  13.781  69.160  1.00  0.00    -0.374 C  
HETATM   14  C   UNL     2     -11.929  15.239  69.563  1.00  0.00    -0.356 C  
HETATM   15  C   UNL     2     -12.554  15.468  70.948  1.00  0.00    -0.512 C  
ENDBRANCH  11  12
BRANCH  11  16
HETATM   16  O   UNL     2      -8.643  16.548  68.275  1.00  0.00    -0.188 OA 
HETATM   17  O   UNL     2      -8.994  17.114  65.925  1.00  0.00    -0.519 OA 
HETATM   18  O   UNL     2      -7.250  18.246  67.225  1.00  0.00    -0.197 OA 
HETATM   19  S   UNL     2      -7.902  16.985  66.884  1.00  0.00    -0.239 S  
HETATM   20  O   UNL     2      -6.993  15.886  66.591  1.00  0.00    -0.203 OA 
ENDBRANCH  11  16
ENDBRANCH  10  11
ENDBRANCH   8  10
ENDBRANCH   4   5
ENDBRANCH   3   4
TORSDOF 6
ENDMDL
MODEL      255
REMARK 921   NORMALIZED FREE ENERGY PREDICTED BY IDOCK:   -3.20 KCAL/MOL
REMARK 922        TOTAL FREE ENERGY PREDICTED BY IDOCK:   -5.52 KCAL/MOL
REMARK 923 INTER-LIGAND FREE ENERGY PREDICTED BY IDOCK:   -4.23 KCAL/MOL
REMARK 924 INTRA-LIGAND FREE ENERGY PREDICTED BY IDOCK:   -1.29 KCAL/MOL
REMARK 927      BINDING AFFINITY PREDICTED BY RF-SCORE:    0.00 PKD
ROOT
HETATM    1 NA   UNL     1     -11.613   9.486  72.440  1.00  0.00    -0.337 Na 
HETATM    2  C   UNL     2      -8.690   7.848  74.047  1.00  0.00    -0.305 C  
HETATM    3  C   UNL     2      -8.034   7.731  72.678  1.00  0.00    -0.145 C  
ENDROOT
BRANCH   3   4
HETATM    4  C   UNL     2      -8.864   8.444  71.611  1.00  0.00    -0.246 C  
BRANCH   4   5
HETATM    5  C   UNL     2      -9.179   7.580  70.386  1.00  0.00    -0.157 C  
HETATM    6  C   UNL     2      -9.814   6.197  70.669  1.00  0.00    -0.214 C  
HETATM    7  C   UNL     2     -11.089   6.264  71.540  1.00  0.00    -0.333 C  
HETATM    8  C   UNL     2     -10.111   5.434  69.355  1.00  0.00    -0.304 C  
HETATM    9  C   UNL     2     -12.285   6.955  70.898  1.00  0.00    -0.404 C  
BRANCH   8  10
HETATM   10  C   UNL     2      -8.903   5.187  68.452  1.00  0.00    -0.108 C  
BRANCH  10  11
HETATM   11  C   UNL     2      -9.029   5.628  66.977  1.00  0.00    -0.114 C  
BRANCH  11  12
HETATM   12  C   UNL     2      -8.451   7.051  66.781  1.00  0.00    -0.118 C  
HETATM   13  C   UNL     2     -10.596   8.399  67.203  1.00  0.00    -0.326 C  
HETATM   14  C   UNL     2      -9.438   8.114  66.245  1.00  0.00    -0.259 C  
HETATM   15  C   UNL     2      -8.684   9.427  65.984  1.00  0.00    -0.171 C  
ENDBRANCH  11  12
BRANCH  11  16
HETATM   16  O   UNL     2      -8.288   4.728  66.157  1.00  0.00    -0.110 OA 
HETATM   17  O   UNL     2     -10.293   4.063  64.931  1.00  0.00    -0.224 OA 
HETATM   18  O   UNL     2      -8.117   3.076  64.378  1.00  0.00    -0.082 OA 
HETATM   19  S   UNL     2      -9.050   3.480  65.425  1.00  0.00    -0.151 S  
HETATM   20  O   UNL     2      -9.246   2.499  66.483  1.00  0.00    -0.124 OA 
ENDBRANCH  11  16
ENDBRANCH  10  11
ENDBRANCH   8  10
ENDBRANCH   4   5
ENDBRANCH   3   4
TORSDOF 6
ENDMDL
MODEL      256
REMARK 921   NORMALIZED FREE ENERGY PREDICTED BY IDOCK:   -3.19 KCAL/MOL
REMARK 922        TOTAL FREE ENERGY PREDICTED BY IDOCK:   -5.52 KCAL/MOL
REMARK 923 INTER-LIGAND FREE ENERGY PREDICTED BY IDOCK:   -4.41 KCAL/MOL
REMARK 924 INTRA-LIGAND FREE ENERGY PREDICTED BY IDOCK:   -1.11 KCAL/MOL
REMARK 927      BINDING AFFINITY PREDICTED BY RF-SCORE:    0.00 PKD
ROOT
HETATM    1 NA   UNL     1     -12.330   6.570  68.663  1.00  0.00    -0.514 Na 
HETATM    2  C   UNL     2     -11.978   9.387  71.061  1.00  0.00    -0.389 C  
HETATM    3  C   UNL     2     -12.557   8.498  72.152  1.00  0.00    -0.431 C  
ENDROOT
BRANCH   3   4
HETATM    4  C   UNL     2     -12.760   7.071  71.645  1.00  0.00    -0.417 C  
BRANCH   4   5
HETATM    5  C   UNL     2     -11.468   6.381  71.194  1.00  0.00    -0.381 C  
HETATM    6  C   UNL     2     -10.361   6.231  72.267  1.00  0.00    -0.216 C  
HETATM    7  C   UNL     2     -10.840   5.539  73.563  1.00  0.00    -0.321 C  
HETATM    8  C   UNL     2      -9.123   5.494  71.700  1.00  0.00    -0.155 C  
HETATM    9  C   UNL     2     -11.236   4.075  73.415  1.00  0.00    -0.313 C  
BRANCH   8  10
HETATM   10  C   UNL     2      -8.471   6.150  70.482  1.00  0.00    -0.137 C  
BRANCH  10  11
HETATM   11  C   UNL     2      -8.349   5.289  69.205  1.00  0.00    -0.091 C  
BRANCH  11  12
HETATM   12  C   UNL     2      -9.195   3.999  69.332  1.00  0.00    -0.216 C  
HETATM   13  C   UNL     2      -7.417   2.473  70.383  1.00  0.00    -0.039 C  
HETATM   14  C   UNL     2      -8.417   2.667  69.241  1.00  0.00    -0.099 C  
HETATM   15  C   UNL     2      -9.408   1.493  69.253  1.00  0.00    -0.172 C  
ENDBRANCH  11  12
BRANCH  11  16
HETATM   16  O   UNL     2      -8.835   6.035  68.093  1.00  0.00    -0.113 OA 
HETATM   17  O   UNL     2      -7.309   4.902  66.559  1.00  0.00    -0.079 OA 
HETATM   18  O   UNL     2      -8.844   6.626  65.732  1.00  0.00    -0.148 OA 
HETATM   19  S   UNL     2      -7.897   6.221  66.766  1.00  0.00    -0.105 S  
HETATM   20  O   UNL     2      -6.928   7.240  67.142  1.00  0.00    -0.073 OA 
ENDBRANCH  11  16
ENDBRANCH  10  11
ENDBRANCH   8  10
ENDBRANCH   4   5
ENDBRANCH   3   4
TORSDOF 6
ENDMDL
MODEL      257
REMARK 921   NORMALIZED FREE ENERGY PREDICTED BY IDOCK:   -3.19 KCAL/MOL
REMARK 922        TOTAL FREE ENERGY PREDICTED BY IDOCK:   -5.52 KCAL/MOL
REMARK 923 INTER-LIGAND FREE ENERGY PREDICTED BY IDOCK:   -4.39 KCAL/MOL
REMARK 924 INTRA-LIGAND FREE ENERGY PREDICTED BY IDOCK:   -1.13 KCAL/MOL
REMARK 927      BINDING AFFINITY PREDICTED BY RF-SCORE:    0.00 PKD
ROOT
HETATM    1 NA   UNL     1      -6.827   6.948  73.917  1.00  0.00    -0.069 Na 
HETATM    2  C   UNL     2     -10.482   6.360  74.247  1.00  0.00    -0.218 C  
HETATM    3  C   UNL     2     -10.729   7.519  73.291  1.00  0.00    -0.437 C  
ENDROOT
BRANCH   3   4
HETATM    4  C   UNL     2      -9.414   8.052  72.726  1.00  0.00    -0.336 C  
BRANCH   4   5
HETATM    5  C   UNL     2      -9.478   8.420  71.240  1.00  0.00    -0.240 C  
HETATM    6  C   UNL     2      -8.855   7.401  70.254  1.00  0.00    -0.147 C  
HETATM    7  C   UNL     2      -9.408   5.966  70.410  1.00  0.00    -0.181 C  
HETATM    8  C   UNL     2      -9.008   7.870  68.787  1.00  0.00    -0.141 C  
HETATM    9  C   UNL     2     -10.878   5.788  70.049  1.00  0.00    -0.403 C  
BRANCH   8  10
HETATM   10  C   UNL     2      -8.387   9.229  68.465  1.00  0.00    -0.119 C  
BRANCH  10  11
HETATM   11  C   UNL     2      -9.158  10.135  67.481  1.00  0.00    -0.134 C  
BRANCH  11  12
HETATM   12  C   UNL     2      -9.563  11.465  68.163  1.00  0.00    -0.190 C  
HETATM   13  C   UNL     2     -11.663  10.642  69.392  1.00  0.00    -0.344 C  
HETATM   14  C   UNL     2     -11.075  11.663  68.415  1.00  0.00    -0.285 C  
HETATM   15  C   UNL     2     -11.321  13.073  68.974  1.00  0.00    -0.340 C  
ENDBRANCH  11  12
BRANCH  11  16
HETATM   16  O   UNL     2      -8.317  10.441  66.371  1.00  0.00    -0.132 OA 
HETATM   17  O   UNL     2     -10.134  10.066  64.782  1.00  0.00    -0.296 OA 
HETATM   18  O   UNL     2      -7.905  10.711  63.988  1.00  0.00    -0.029 OA 
HETATM   19  S   UNL     2      -8.691   9.870  64.886  1.00  0.00    -0.193 S  
HETATM   20  O   UNL     2      -8.293   8.470  64.919  1.00  0.00    -0.157 OA 
ENDBRANCH  11  16
ENDBRANCH  10  11
ENDBRANCH   8  10
ENDBRANCH   4   5
ENDBRANCH   3   4
TORSDOF 6
ENDMDL
MODEL      258
REMARK 921   NORMALIZED FREE ENERGY PREDICTED BY IDOCK:   -3.18 KCAL/MOL
REMARK 922        TOTAL FREE ENERGY PREDICTED BY IDOCK:   -5.50 KCAL/MOL
REMARK 923 INTER-LIGAND FREE ENERGY PREDICTED BY IDOCK:   -4.61 KCAL/MOL
REMARK 924 INTRA-LIGAND FREE ENERGY PREDICTED BY IDOCK:   -0.88 KCAL/MOL
REMARK 927      BINDING AFFINITY PREDICTED BY RF-SCORE:    0.00 PKD
ROOT
HETATM    1 NA   UNL     1     -11.833   7.546  68.749  1.00  0.00    -0.392 Na 
HETATM    2  C   UNL     2     -12.136  10.823  70.477  1.00  0.00    -0.459 C  
HETATM    3  C   UNL     2     -12.728  10.105  71.681  1.00  0.00    -0.549 C  
ENDROOT
BRANCH   3   4
HETATM    4  C   UNL     2     -12.686   8.589  71.490  1.00  0.00    -0.340 C  
BRANCH   4   5
HETATM    5  C   UNL     2     -11.326   8.057  71.029  1.00  0.00    -0.294 C  
HETATM    6  C   UNL     2     -10.193   8.064  72.085  1.00  0.00    -0.308 C  
HETATM    7  C   UNL     2     -10.563   7.340  73.399  1.00  0.00    -0.435 C  
HETATM    8  C   UNL     2      -8.882   7.477  71.509  1.00  0.00    -0.133 C  
HETATM    9  C   UNL     2     -10.777   5.836  73.281  1.00  0.00    -0.297 C  
BRANCH   8  10
HETATM   10  C   UNL     2      -8.333   8.187  70.272  1.00  0.00    -0.124 C  
BRANCH  10  11
HETATM   11  C   UNL     2      -8.391   7.412  68.937  1.00  0.00    -0.129 C  
BRANCH  11  12
HETATM   12  C   UNL     2      -9.150   6.074  69.113  1.00  0.00    -0.124 C  
HETATM   13  C   UNL     2      -7.165   4.593  69.792  1.00  0.00    -0.054 C  
HETATM   14  C   UNL     2      -8.337   4.792  68.827  1.00  0.00    -0.084 C  
HETATM   15  C   UNL     2      -9.261   3.568  68.920  1.00  0.00    -0.227 C  
ENDBRANCH  11  12
BRANCH  11  16
HETATM   16  O   UNL     2      -9.088   8.197  67.972  1.00  0.00    -0.134 OA 
HETATM   17  O   UNL     2      -7.624   7.435  66.171  1.00  0.00    -0.084 OA 
HETATM   18  O   UNL     2      -9.439   9.019  65.708  1.00  0.00    -0.245 OA 
HETATM   19  S   UNL     2      -8.338   8.638  66.588  1.00  0.00    -0.110 S  
HETATM   20  O   UNL     2      -7.460   9.732  66.978  1.00  0.00    -0.091 OA 
ENDBRANCH  11  16
ENDBRANCH  10  11
ENDBRANCH   8  10
ENDBRANCH   4   5
ENDBRANCH   3   4
TORSDOF 6
ENDMDL
MODEL      259
REMARK 921   NORMALIZED FREE ENERGY PREDICTED BY IDOCK:   -3.17 KCAL/MOL
REMARK 922        TOTAL FREE ENERGY PREDICTED BY IDOCK:   -5.49 KCAL/MOL
REMARK 923 INTER-LIGAND FREE ENERGY PREDICTED BY IDOCK:   -4.62 KCAL/MOL
REMARK 924 INTRA-LIGAND FREE ENERGY PREDICTED BY IDOCK:   -0.87 KCAL/MOL
REMARK 927      BINDING AFFINITY PREDICTED BY RF-SCORE:    0.00 PKD
ROOT
HETATM    1 NA   UNL     1      -8.734   3.363  67.798  1.00  0.00    -0.085 Na 
HETATM    2  C   UNL     2     -10.139   4.951  70.850  1.00  0.00    -0.292 C  
HETATM    3  C   UNL     2     -10.838   5.973  69.966  1.00  0.00    -0.429 C  
ENDROOT
BRANCH   3   4
HETATM    4  C   UNL     2     -10.657   5.634  68.488  1.00  0.00    -0.259 C  
BRANCH   4   5
HETATM    5  C   UNL     2     -10.496   6.859  67.582  1.00  0.00    -0.290 C  
HETATM    6  C   UNL     2      -9.280   7.772  67.875  1.00  0.00    -0.141 C  
HETATM    7  C   UNL     2      -7.929   7.021  67.900  1.00  0.00    -0.115 C  
HETATM    8  C   UNL     2      -9.210   8.954  66.878  1.00  0.00    -0.185 C  
HETATM    9  C   UNL     2      -7.480   6.438  66.565  1.00  0.00    -0.086 C  
BRANCH   8  10
HETATM   10  C   UNL     2     -10.442   9.859  66.847  1.00  0.00    -0.284 C  
BRANCH  10  11
HETATM   11  C   UNL     2     -10.239  11.299  66.327  1.00  0.00    -0.236 C  
BRANCH  11  12
HETATM   12  C   UNL     2     -11.380  11.698  65.360  1.00  0.00    -0.218 C  
HETATM   13  C   UNL     2     -10.106  11.467  63.143  1.00  0.00    -0.395 C  
HETATM   14  C   UNL     2     -10.945  12.378  64.042  1.00  0.00    -0.442 C  
HETATM   15  C   UNL     2     -12.190  12.825  63.261  1.00  0.00    -0.500 C  
ENDBRANCH  11  12
BRANCH  11  16
HETATM   16  O   UNL     2     -10.253  12.200  67.431  1.00  0.00    -0.197 OA 
HETATM   17  O   UNL     2      -8.104  13.162  66.784  1.00  0.00     0.008 OA 
HETATM   18  O   UNL     2      -9.276  13.975  68.779  1.00  0.00    -0.158 OA 
HETATM   19  S   UNL     2      -8.849  12.822  67.992  1.00  0.00    -0.200 S  
HETATM   20  O   UNL     2      -8.250  11.742  68.763  1.00  0.00    -0.121 OA 
ENDBRANCH  11  16
ENDBRANCH  10  11
ENDBRANCH   8  10
ENDBRANCH   4   5
ENDBRANCH   3   4
TORSDOF 6
ENDMDL
MODEL      260
REMARK 921   NORMALIZED FREE ENERGY PREDICTED BY IDOCK:   -3.15 KCAL/MOL
REMARK 922        TOTAL FREE ENERGY PREDICTED BY IDOCK:   -5.47 KCAL/MOL
REMARK 923 INTER-LIGAND FREE ENERGY PREDICTED BY IDOCK:   -4.79 KCAL/MOL
REMARK 924 INTRA-LIGAND FREE ENERGY PREDICTED BY IDOCK:   -0.68 KCAL/MOL
REMARK 927      BINDING AFFINITY PREDICTED BY RF-SCORE:    0.00 PKD
ROOT
HETATM    1 NA   UNL     1      -9.581   9.735  69.539  1.00  0.00    -0.142 Na 
HETATM    2  C   UNL     2     -10.780   7.126  67.178  1.00  0.00    -0.422 C  
HETATM    3  C   UNL     2      -9.474   7.259  66.408  1.00  0.00    -0.185 C  
ENDROOT
BRANCH   3   4
HETATM    4  C   UNL     2      -8.508   8.200  67.126  1.00  0.00    -0.124 C  
BRANCH   4   5
HETATM    5  C   UNL     2      -8.912   9.676  67.062  1.00  0.00    -0.150 C  
HETATM    6  C   UNL     2      -7.794  10.677  66.680  1.00  0.00    -0.135 C  
HETATM    7  C   UNL     2      -7.071  10.328  65.360  1.00  0.00    -0.139 C  
HETATM    8  C   UNL     2      -8.333  12.127  66.621  1.00  0.00    -0.051 C  
HETATM    9  C   UNL     2      -7.924  10.423  64.101  1.00  0.00    -0.073 C  
BRANCH   8  10
HETATM   10  C   UNL     2      -8.964  12.646  67.913  1.00  0.00    -0.189 C  
BRANCH  10  11
HETATM   11  C   UNL     2     -10.347  13.325  67.792  1.00  0.00    -0.233 C  
BRANCH  11  12
HETATM   12  C   UNL     2     -10.596  14.274  68.989  1.00  0.00    -0.243 C  
HETATM   13  C   UNL     2     -12.070  12.724  70.410  1.00  0.00    -0.382 C  
HETATM   14  C   UNL     2     -11.939  14.090  69.732  1.00  0.00    -0.393 C  
HETATM   15  C   UNL     2     -12.088  15.184  70.800  1.00  0.00    -0.387 C  
ENDBRANCH  11  12
BRANCH  11  16
HETATM   16  O   UNL     2     -10.384  14.096  66.594  1.00  0.00    -0.270 OA 
HETATM   17  O   UNL     2     -12.790  13.757  66.350  1.00  0.00    -0.238 OA 
HETATM   18  O   UNL     2     -11.550  15.077  64.697  1.00  0.00    -0.410 OA 
HETATM   19  S   UNL     2     -11.596  13.872  65.520  1.00  0.00    -0.339 S  
HETATM   20  O   UNL     2     -11.247  12.641  64.824  1.00  0.00    -0.286 OA 
ENDBRANCH  11  16
ENDBRANCH  10  11
ENDBRANCH   8  10
ENDBRANCH   4   5
ENDBRANCH   3   4
TORSDOF 6
ENDMDL
MODEL      261
REMARK 921   NORMALIZED FREE ENERGY PREDICTED BY IDOCK:   -3.12 KCAL/MOL
REMARK 922        TOTAL FREE ENERGY PREDICTED BY IDOCK:   -5.43 KCAL/MOL
REMARK 923 INTER-LIGAND FREE ENERGY PREDICTED BY IDOCK:   -5.33 KCAL/MOL
REMARK 924 INTRA-LIGAND FREE ENERGY PREDICTED BY IDOCK:   -0.09 KCAL/MOL
REMARK 927      BINDING AFFINITY PREDICTED BY RF-SCORE:    0.00 PKD
ROOT
HETATM    1 NA   UNL     1      -8.216  14.949  70.475  1.00  0.00    -0.373 Na 
HETATM    2  C   UNL     2     -11.919  14.711  70.686  1.00  0.00    -0.380 C  
HETATM    3  C   UNL     2     -12.020  16.081  70.031  1.00  0.00    -0.198 C  
ENDROOT
BRANCH   3   4
HETATM    4  C   UNL     2     -10.644  16.582  69.596  1.00  0.00    -0.302 C  
BRANCH   4   5
HETATM    5  C   UNL     2      -9.734  15.490  69.026  1.00  0.00    -0.237 C  
HETATM    6  C   UNL     2      -9.863  15.214  67.507  1.00  0.00    -0.220 C  
HETATM    7  C   UNL     2      -9.695  16.476  66.630  1.00  0.00    -0.275 C  
HETATM    8  C   UNL     2      -8.875  14.115  67.048  1.00  0.00    -0.237 C  
HETATM    9  C   UNL     2      -8.307  17.105  66.647  1.00  0.00    -0.286 C  
BRANCH   8  10
HETATM   10  C   UNL     2      -9.020  12.766  67.753  1.00  0.00    -0.190 C  
BRANCH  10  11
HETATM   11  C   UNL     2      -9.737  11.643  66.973  1.00  0.00    -0.186 C  
BRANCH  11  12
HETATM   12  C   UNL     2      -9.990  10.418  67.886  1.00  0.00    -0.192 C  
HETATM   13  C   UNL     2      -7.568   9.594  68.103  1.00  0.00    -0.082 C  
HETATM   14  C   UNL     2      -9.007   9.237  67.722  1.00  0.00    -0.131 C  
HETATM   15  C   UNL     2      -9.468   8.061  68.596  1.00  0.00    -0.147 C  
ENDBRANCH  11  12
BRANCH  11  16
HETATM   16  O   UNL     2     -10.997  12.126  66.514  1.00  0.00    -0.258 OA 
HETATM   17  O   UNL     2     -10.771  10.944  64.388  1.00  0.00    -0.340 OA 
HETATM   18  O   UNL     2     -12.760  12.305  64.845  1.00  0.00    -0.575 OA 
HETATM   19  S   UNL     2     -11.305  12.198  64.910  1.00  0.00    -0.316 S  
HETATM   20  O   UNL     2     -10.584  13.376  64.450  1.00  0.00    -0.411 OA 
ENDBRANCH  11  16
ENDBRANCH  10  11
ENDBRANCH   8  10
ENDBRANCH   4   5
ENDBRANCH   3   4
TORSDOF 6
ENDMDL
MODEL      262
REMARK 921   NORMALIZED FREE ENERGY PREDICTED BY IDOCK:   -3.12 KCAL/MOL
REMARK 922        TOTAL FREE ENERGY PREDICTED BY IDOCK:   -5.42 KCAL/MOL
REMARK 923 INTER-LIGAND FREE ENERGY PREDICTED BY IDOCK:   -4.82 KCAL/MOL
REMARK 924 INTRA-LIGAND FREE ENERGY PREDICTED BY IDOCK:   -0.59 KCAL/MOL
REMARK 927      BINDING AFFINITY PREDICTED BY RF-SCORE:    0.00 PKD
ROOT
HETATM    1 NA   UNL     1      -5.159  10.243  67.686  1.00  0.00    -0.034 Na 
HETATM    2  C   UNL     2      -7.869   8.751  69.746  1.00  0.00    -0.090 C  
HETATM    3  C   UNL     2      -8.584  10.094  69.734  1.00  0.00    -0.148 C  
ENDROOT
BRANCH   3   4
HETATM    4  C   UNL     2      -7.865  11.089  68.825  1.00  0.00    -0.138 C  
BRANCH   4   5
HETATM    5  C   UNL     2      -8.796  12.095  68.141  1.00  0.00    -0.187 C  
HETATM    6  C   UNL     2      -9.028  11.893  66.624  1.00  0.00    -0.198 C  
HETATM    7  C   UNL     2      -9.511  10.473  66.252  1.00  0.00    -0.217 C  
HETATM    8  C   UNL     2     -10.007  12.949  66.057  1.00  0.00    -0.275 C  
HETATM    9  C   UNL     2     -10.897  10.098  66.762  1.00  0.00    -0.129 C  
BRANCH   8  10
HETATM   10  C   UNL     2      -9.582  14.406  66.247  1.00  0.00    -0.321 C  
BRANCH  10  11
HETATM   11  C   UNL     2     -10.521  15.306  67.079  1.00  0.00    -0.292 C  
BRANCH  11  12
HETATM   12  C   UNL     2     -11.429  14.450  67.996  1.00  0.00    -0.336 C  
HETATM   13  C   UNL     2     -11.413  15.961  70.072  1.00  0.00    -0.354 C  
HETATM   14  C   UNL     2     -11.155  14.560  69.513  1.00  0.00    -0.285 C  
HETATM   15  C   UNL     2     -12.045  13.559  70.267  1.00  0.00    -0.425 C  
ENDBRANCH  11  12
BRANCH  11  16
HETATM   16  O   UNL     2      -9.735  16.163  67.903  1.00  0.00    -0.222 OA 
HETATM   17  O   UNL     2     -10.505  18.152  66.713  1.00  0.00    -0.365 OA 
HETATM   18  O   UNL     2      -8.916  18.356  68.569  1.00  0.00    -0.312 OA 
HETATM   19  S   UNL     2      -9.299  17.641  67.356  1.00  0.00    -0.250 S  
HETATM   20  O   UNL     2      -8.208  17.382  66.428  1.00  0.00    -0.248 OA 
ENDBRANCH  11  16
ENDBRANCH  10  11
ENDBRANCH   8  10
ENDBRANCH   4   5
ENDBRANCH   3   4
TORSDOF 6
ENDMDL
MODEL      263
REMARK 921   NORMALIZED FREE ENERGY PREDICTED BY IDOCK:   -3.11 KCAL/MOL
REMARK 922        TOTAL FREE ENERGY PREDICTED BY IDOCK:   -5.41 KCAL/MOL
REMARK 923 INTER-LIGAND FREE ENERGY PREDICTED BY IDOCK:   -4.40 KCAL/MOL
REMARK 924 INTRA-LIGAND FREE ENERGY PREDICTED BY IDOCK:   -1.01 KCAL/MOL
REMARK 927      BINDING AFFINITY PREDICTED BY RF-SCORE:    0.00 PKD
ROOT
HETATM    1 NA   UNL     1      -8.110  13.579  66.070  1.00  0.00    -0.330 Na 
HETATM    2  C   UNL     2     -11.381  14.763  64.763  1.00  0.00    -0.399 C  
HETATM    3  C   UNL     2     -11.562  13.420  64.069  1.00  0.00    -0.429 C  
ENDROOT
BRANCH   3   4
HETATM    4  C   UNL     2     -10.439  12.455  64.444  1.00  0.00    -0.371 C  
BRANCH   4   5
HETATM    5  C   UNL     2     -10.891  11.288  65.329  1.00  0.00    -0.261 C  
HETATM    6  C   UNL     2     -10.252  11.209  66.737  1.00  0.00    -0.272 C  
HETATM    7  C   UNL     2     -10.397  12.509  67.560  1.00  0.00    -0.225 C  
HETATM    8  C   UNL     2     -10.809  10.010  67.542  1.00  0.00    -0.326 C  
HETATM    9  C   UNL     2     -11.821  12.877  67.958  1.00  0.00    -0.390 C  
BRANCH   8  10
HETATM   10  C   UNL     2     -10.616   8.638  66.894  1.00  0.00    -0.270 C  
BRANCH  10  11
HETATM   11  C   UNL     2      -9.268   7.928  67.149  1.00  0.00    -0.146 C  
BRANCH  11  12
HETATM   12  C   UNL     2      -8.203   8.390  66.125  1.00  0.00    -0.113 C  
HETATM   13  C   UNL     2      -6.116   7.445  67.285  1.00  0.00    -0.046 C  
HETATM   14  C   UNL     2      -6.797   8.682  66.695  1.00  0.00    -0.069 C  
HETATM   15  C   UNL     2      -5.901   9.250  65.583  1.00  0.00    -0.054 C  
ENDBRANCH  11  12
BRANCH  11  16
HETATM   16  O   UNL     2      -8.806   8.262  68.455  1.00  0.00    -0.136 OA 
HETATM   17  O   UNL     2      -8.618   5.908  69.081  1.00  0.00    -0.114 OA 
HETATM   18  O   UNL     2      -8.042   7.668  70.689  1.00  0.00    -0.104 OA 
HETATM   19  S   UNL     2      -8.980   7.190  69.678  1.00  0.00    -0.140 S  
HETATM   20  O   UNL     2     -10.384   7.284  70.052  1.00  0.00    -0.204 OA 
ENDBRANCH  11  16
ENDBRANCH  10  11
ENDBRANCH   8  10
ENDBRANCH   4   5
ENDBRANCH   3   4
TORSDOF 6
ENDMDL
MODEL      264
REMARK 921   NORMALIZED FREE ENERGY PREDICTED BY IDOCK:   -3.11 KCAL/MOL
REMARK 922        TOTAL FREE ENERGY PREDICTED BY IDOCK:   -5.41 KCAL/MOL
REMARK 923 INTER-LIGAND FREE ENERGY PREDICTED BY IDOCK:   -4.53 KCAL/MOL
REMARK 924 INTRA-LIGAND FREE ENERGY PREDICTED BY IDOCK:   -0.88 KCAL/MOL
REMARK 927      BINDING AFFINITY PREDICTED BY RF-SCORE:    0.00 PKD
ROOT
HETATM    1 NA   UNL     1     -13.781  12.742  64.847  1.00  0.00    -0.708 Na 
HETATM    2  C   UNL     2     -10.877  15.052  65.069  1.00  0.00    -0.439 C  
HETATM    3  C   UNL     2     -10.669  14.611  66.511  1.00  0.00    -0.312 C  
ENDROOT
BRANCH   3   4
HETATM    4  C   UNL     2     -11.620  13.473  66.878  1.00  0.00    -0.398 C  
BRANCH   4   5
HETATM    5  C   UNL     2     -10.913  12.174  67.276  1.00  0.00    -0.308 C  
HETATM    6  C   UNL     2     -11.132  10.960  66.340  1.00  0.00    -0.077 C  
HETATM    7  C   UNL     2     -10.795  11.247  64.859  1.00  0.00    -0.299 C  
HETATM    8  C   UNL     2     -10.345   9.721  66.830  1.00  0.00    -0.301 C  
HETATM    9  C   UNL     2      -9.326  11.521  64.563  1.00  0.00    -0.029 C  
BRANCH   8  10
HETATM   10  C   UNL     2     -10.678   9.250  68.246  1.00  0.00    -0.195 C  
BRANCH  10  11
HETATM   11  C   UNL     2      -9.612   8.398  68.969  1.00  0.00    -0.160 C  
BRANCH  11  12
HETATM   12  C   UNL     2      -9.802   8.471  70.504  1.00  0.00    -0.206 C  
HETATM   13  C   UNL     2      -7.446   9.268  71.145  1.00  0.00    -0.045 C  
HETATM   14  C   UNL     2      -8.537   8.216  71.355  1.00  0.00    -0.168 C  
HETATM   15  C   UNL     2      -8.918   8.195  72.844  1.00  0.00    -0.328 C  
ENDBRANCH  11  12
BRANCH  11  16
HETATM   16  O   UNL     2      -9.751   7.038  68.566  1.00  0.00    -0.139 OA 
HETATM   17  O   UNL     2      -7.362   6.621  68.851  1.00  0.00    -0.088 OA 
HETATM   18  O   UNL     2      -8.851   4.827  68.090  1.00  0.00    -0.102 OA 
HETATM   19  S   UNL     2      -8.460   6.229  67.974  1.00  0.00    -0.117 S  
HETATM   20  O   UNL     2      -8.318   6.714  66.608  1.00  0.00    -0.112 OA 
ENDBRANCH  11  16
ENDBRANCH  10  11
ENDBRANCH   8  10
ENDBRANCH   4   5
ENDBRANCH   3   4
TORSDOF 6
ENDMDL
MODEL      265
REMARK 921   NORMALIZED FREE ENERGY PREDICTED BY IDOCK:   -3.11 KCAL/MOL
REMARK 922        TOTAL FREE ENERGY PREDICTED BY IDOCK:   -5.41 KCAL/MOL
REMARK 923 INTER-LIGAND FREE ENERGY PREDICTED BY IDOCK:   -5.06 KCAL/MOL
REMARK 924 INTRA-LIGAND FREE ENERGY PREDICTED BY IDOCK:   -0.34 KCAL/MOL
REMARK 927      BINDING AFFINITY PREDICTED BY RF-SCORE:    0.00 PKD
ROOT
HETATM    1 NA   UNL     1     -12.932  16.547  71.094  1.00  0.00    -0.550 Na 
HETATM    2  C   UNL     2      -9.849  16.811  69.036  1.00  0.00    -0.260 C  
HETATM    3  C   UNL     2     -10.473  15.860  68.025  1.00  0.00    -0.274 C  
ENDROOT
BRANCH   3   4
HETATM    4  C   UNL     2     -11.921  15.542  68.393  1.00  0.00    -0.123 C  
BRANCH   4   5
HETATM    5  C   UNL     2     -12.249  14.046  68.399  1.00  0.00    -0.202 C  
HETATM    6  C   UNL     2     -11.565  13.199  69.500  1.00  0.00    -0.347 C  
HETATM    7  C   UNL     2     -11.793  13.738  70.931  1.00  0.00    -0.146 C  
HETATM    8  C   UNL     2     -11.998  11.715  69.420  1.00  0.00    -0.381 C  
HETATM    9  C   UNL     2     -13.231  13.677  71.432  1.00  0.00    -0.358 C  
BRANCH   8  10
HETATM   10  C   UNL     2     -11.710  11.019  68.090  1.00  0.00    -0.277 C  
BRANCH  10  11
HETATM   11  C   UNL     2     -10.268  11.118  67.546  1.00  0.00    -0.186 C  
BRANCH  11  12
HETATM   12  C   UNL     2     -10.055  12.458  66.801  1.00  0.00    -0.226 C  
HETATM   13  C   UNL     2     -12.088  12.356  65.235  1.00  0.00    -0.451 C  
HETATM   14  C   UNL     2     -10.569  12.513  65.344  1.00  0.00    -0.310 C  
HETATM   15  C   UNL     2     -10.168  13.853  64.709  1.00  0.00    -0.353 C  
ENDBRANCH  11  12
BRANCH  11  16
HETATM   16  O   UNL     2      -9.353  11.063  68.637  1.00  0.00    -0.183 OA 
HETATM   17  O   UNL     2      -7.467  10.636  67.146  1.00  0.00    -0.093 OA 
HETATM   18  O   UNL     2      -7.124  10.774  69.570  1.00  0.00    -0.109 OA 
HETATM   19  S   UNL     2      -7.939  10.259  68.474  1.00  0.00    -0.112 S  
HETATM   20  O   UNL     2      -8.301   8.853  68.589  1.00  0.00    -0.121 OA 
ENDBRANCH  11  16
ENDBRANCH  10  11
ENDBRANCH   8  10
ENDBRANCH   4   5
ENDBRANCH   3   4
TORSDOF 6
ENDMDL
MODEL      266
REMARK 921   NORMALIZED FREE ENERGY PREDICTED BY IDOCK:   -3.10 KCAL/MOL
REMARK 922        TOTAL FREE ENERGY PREDICTED BY IDOCK:   -5.40 KCAL/MOL
REMARK 923 INTER-LIGAND FREE ENERGY PREDICTED BY IDOCK:   -4.76 KCAL/MOL
REMARK 924 INTRA-LIGAND FREE ENERGY PREDICTED BY IDOCK:   -0.64 KCAL/MOL
REMARK 927      BINDING AFFINITY PREDICTED BY RF-SCORE:    0.00 PKD
ROOT
HETATM    1 NA   UNL     1     -10.804  15.544  67.512  1.00  0.00    -0.254 Na 
HETATM    2  C   UNL     2      -7.375  15.157  68.893  1.00  0.00    -0.142 C  
HETATM    3  C   UNL     2      -7.317  13.761  68.290  1.00  0.00    -0.118 C  
ENDROOT
BRANCH   3   4
HETATM    4  C   UNL     2      -8.552  13.483  67.434  1.00  0.00    -0.209 C  
BRANCH   4   5
HETATM    5  C   UNL     2      -9.326  12.227  67.848  1.00  0.00    -0.190 C  
HETATM    6  C   UNL     2     -10.856  12.258  67.613  1.00  0.00    -0.262 C  
HETATM    7  C   UNL     2     -11.256  12.602  66.160  1.00  0.00    -0.350 C  
HETATM    8  C   UNL     2     -11.519  10.926  68.042  1.00  0.00    -0.356 C  
HETATM    9  C   UNL     2     -10.868  11.567  65.111  1.00  0.00    -0.326 C  
BRANCH   8  10
HETATM   10  C   UNL     2     -11.307  10.528  69.502  1.00  0.00    -0.341 C  
BRANCH  10  11
HETATM   11  C   UNL     2     -10.386   9.318  69.771  1.00  0.00    -0.218 C  
BRANCH  11  12
HETATM   12  C   UNL     2     -10.263   9.050  71.291  1.00  0.00    -0.384 C  
HETATM   13  C   UNL     2      -7.757   8.501  71.385  1.00  0.00    -0.131 C  
HETATM   14  C   UNL     2      -9.177   8.036  71.715  1.00  0.00    -0.212 C  
HETATM   15  C   UNL     2      -9.272   7.786  73.228  1.00  0.00    -0.318 C  
ENDBRANCH  11  12
BRANCH  11  16
HETATM   16  O   UNL     2     -10.946   8.160  69.157  1.00  0.00    -0.081 OA 
HETATM   17  O   UNL     2      -8.751   7.384  68.420  1.00  0.00    -0.124 OA 
HETATM   18  O   UNL     2     -10.765   6.087  67.895  1.00  0.00    -0.246 OA 
HETATM   19  S   UNL     2     -10.135   7.403  67.957  1.00  0.00    -0.188 S  
HETATM   20  O   UNL     2     -10.347   8.239  66.785  1.00  0.00    -0.310 OA 
ENDBRANCH  11  16
ENDBRANCH  10  11
ENDBRANCH   8  10
ENDBRANCH   4   5
ENDBRANCH   3   4
TORSDOF 6
ENDMDL
MODEL      267
REMARK 921   NORMALIZED FREE ENERGY PREDICTED BY IDOCK:   -3.10 KCAL/MOL
REMARK 922        TOTAL FREE ENERGY PREDICTED BY IDOCK:   -5.40 KCAL/MOL
REMARK 923 INTER-LIGAND FREE ENERGY PREDICTED BY IDOCK:   -4.24 KCAL/MOL
REMARK 924 INTRA-LIGAND FREE ENERGY PREDICTED BY IDOCK:   -1.16 KCAL/MOL
REMARK 927      BINDING AFFINITY PREDICTED BY RF-SCORE:    0.00 PKD
ROOT
HETATM    1 NA   UNL     1      -9.025  11.391  67.475  1.00  0.00    -0.136 Na 
HETATM    2  C   UNL     2     -11.891  12.797  69.380  1.00  0.00    -0.359 C  
HETATM    3  C   UNL     2     -11.973  11.497  70.166  1.00  0.00    -0.452 C  
ENDROOT
BRANCH   3   4
HETATM    4  C   UNL     2     -10.817  10.565  69.807  1.00  0.00    -0.335 C  
BRANCH   4   5
HETATM    5  C   UNL     2     -11.242   9.116  69.547  1.00  0.00     0.022 C  
HETATM    6  C   UNL     2     -10.790   8.071  70.596  1.00  0.00    -0.240 C  
HETATM    7  C   UNL     2     -11.192   8.429  72.045  1.00  0.00    -0.404 C  
HETATM    8  C   UNL     2     -11.304   6.655  70.239  1.00  0.00    -0.431 C  
HETATM    9  C   UNL     2     -12.689   8.427  72.328  1.00  0.00    -0.376 C  
BRANCH   8  10
HETATM   10  C   UNL     2     -10.869   6.124  68.873  1.00  0.00    -0.406 C  
BRANCH  10  11
HETATM   11  C   UNL     2      -9.350   6.022  68.614  1.00  0.00    -0.117 C  
BRANCH  11  12
HETATM   12  C   UNL     2      -8.794   4.678  69.143  1.00  0.00    -0.126 C  
HETATM   13  C   UNL     2      -8.077   5.451  71.484  1.00  0.00    -0.117 C  
HETATM   14  C   UNL     2      -7.650   4.778  70.178  1.00  0.00    -0.055 C  
HETATM   15  C   UNL     2      -7.127   3.370  70.501  1.00  0.00    -0.034 C  
ENDBRANCH  11  12
BRANCH  11  16
HETATM   16  O   UNL     2      -9.111   6.084  67.211  1.00  0.00    -0.113 OA 
HETATM   17  O   UNL     2      -7.489   7.889  67.480  1.00  0.00    -0.090 OA 
HETATM   18  O   UNL     2      -8.014   7.017  65.249  1.00  0.00    -0.114 OA 
HETATM   19  S   UNL     2      -8.522   7.456  66.545  1.00  0.00    -0.134 S  
HETATM   20  O   UNL     2      -9.666   8.354  66.482  1.00  0.00    -0.224 OA 
ENDBRANCH  11  16
ENDBRANCH  10  11
ENDBRANCH   8  10
ENDBRANCH   4   5
ENDBRANCH   3   4
TORSDOF 6
ENDMDL
MODEL      268
REMARK 921   NORMALIZED FREE ENERGY PREDICTED BY IDOCK:   -3.09 KCAL/MOL
REMARK 922        TOTAL FREE ENERGY PREDICTED BY IDOCK:   -5.39 KCAL/MOL
REMARK 923 INTER-LIGAND FREE ENERGY PREDICTED BY IDOCK:   -5.55 KCAL/MOL
REMARK 924 INTRA-LIGAND FREE ENERGY PREDICTED BY IDOCK:    0.17 KCAL/MOL
REMARK 927      BINDING AFFINITY PREDICTED BY RF-SCORE:    0.00 PKD
ROOT
HETATM    1 NA   UNL     1     -12.085   6.555  68.696  1.00  0.00    -0.558 Na 
HETATM    2  C   UNL     2     -11.862   7.284  72.334  1.00  0.00    -0.247 C  
HETATM    3  C   UNL     2     -10.409   7.693  72.138  1.00  0.00    -0.270 C  
ENDROOT
BRANCH   3   4
HETATM    4  C   UNL     2     -10.035   7.690  70.656  1.00  0.00    -0.183 C  
BRANCH   4   5
HETATM    5  C   UNL     2     -10.896   8.619  69.794  1.00  0.00    -0.185 C  
HETATM    6  C   UNL     2     -10.153   9.413  68.692  1.00  0.00    -0.208 C  
HETATM    7  C   UNL     2      -9.317   8.526  67.742  1.00  0.00    -0.153 C  
HETATM    8  C   UNL     2     -11.132  10.290  67.873  1.00  0.00    -0.341 C  
HETATM    9  C   UNL     2     -10.117   7.575  66.860  1.00  0.00    -0.336 C  
BRANCH   8  10
HETATM   10  C   UNL     2     -11.935  11.307  68.682  1.00  0.00    -0.314 C  
BRANCH  10  11
HETATM   11  C   UNL     2     -11.550  12.794  68.517  1.00  0.00    -0.321 C  
BRANCH  11  12
HETATM   12  C   UNL     2     -12.366  13.682  69.488  1.00  0.00    -0.232 C  
HETATM   13  C   UNL     2     -11.433  15.971  68.793  1.00  0.00    -0.375 C  
HETATM   14  C   UNL     2     -11.684  14.992  69.943  1.00  0.00    -0.343 C  
HETATM   15  C   UNL     2     -12.561  15.687  70.995  1.00  0.00    -0.515 C  
ENDBRANCH  11  12
BRANCH  11  16
HETATM   16  O   UNL     2     -10.167  12.953  68.821  1.00  0.00    -0.197 OA 
HETATM   17  O   UNL     2      -9.765  14.176  66.745  1.00  0.00    -0.258 OA 
HETATM   18  O   UNL     2      -7.924  13.746  68.307  1.00  0.00    -0.130 OA 
HETATM   19  S   UNL     2      -9.094  13.215  67.615  1.00  0.00    -0.213 S  
HETATM   20  O   UNL     2      -8.903  11.908  67.003  1.00  0.00    -0.176 OA 
ENDBRANCH  11  16
ENDBRANCH  10  11
ENDBRANCH   8  10
ENDBRANCH   4   5
ENDBRANCH   3   4
TORSDOF 6
ENDMDL
MODEL      269
REMARK 921   NORMALIZED FREE ENERGY PREDICTED BY IDOCK:   -3.07 KCAL/MOL
REMARK 922        TOTAL FREE ENERGY PREDICTED BY IDOCK:   -5.35 KCAL/MOL
REMARK 923 INTER-LIGAND FREE ENERGY PREDICTED BY IDOCK:   -4.28 KCAL/MOL
REMARK 924 INTRA-LIGAND FREE ENERGY PREDICTED BY IDOCK:   -1.08 KCAL/MOL
REMARK 927      BINDING AFFINITY PREDICTED BY RF-SCORE:    0.00 PKD
ROOT
HETATM    1 NA   UNL     1      -8.166   8.876  72.810  1.00  0.00    -0.153 Na 
HETATM    2  C   UNL     2     -11.819   8.209  72.642  1.00  0.00    -0.389 C  
HETATM    3  C   UNL     2     -11.925   9.218  71.507  1.00  0.00    -0.439 C  
ENDROOT
BRANCH   3   4
HETATM    4  C   UNL     2     -10.544   9.717  71.086  1.00  0.00    -0.327 C  
BRANCH   4   5
HETATM    5  C   UNL     2     -10.116   9.260  69.688  1.00  0.00    -0.208 C  
HETATM    6  C   UNL     2     -10.848   9.926  68.496  1.00  0.00    -0.257 C  
HETATM    7  C   UNL     2     -10.804  11.471  68.523  1.00  0.00    -0.254 C  
HETATM    8  C   UNL     2     -10.309   9.406  67.142  1.00  0.00    -0.326 C  
HETATM    9  C   UNL     2      -9.424  12.090  68.339  1.00  0.00    -0.181 C  
BRANCH   8  10
HETATM   10  C   UNL     2     -10.411   7.895  66.932  1.00  0.00    -0.388 C  
BRANCH  10  11
HETATM   11  C   UNL     2      -9.161   7.179  66.375  1.00  0.00    -0.157 C  
BRANCH  11  12
HETATM   12  C   UNL     2      -7.868   7.868  66.875  1.00  0.00    -0.104 C  
HETATM   13  C   UNL     2      -7.477   9.443  64.885  1.00  0.00    -0.107 C  
HETATM   14  C   UNL     2      -6.890   8.349  65.779  1.00  0.00    -0.067 C  
HETATM   15  C   UNL     2      -5.610   8.888  66.436  1.00  0.00    -0.045 C  
ENDBRANCH  11  12
BRANCH  11  16
HETATM   16  O   UNL     2      -9.154   5.830  66.834  1.00  0.00    -0.116 OA 
HETATM   17  O   UNL     2      -8.695   4.980  64.591  1.00  0.00    -0.151 OA 
HETATM   18  O   UNL     2      -8.942   3.432  66.476  1.00  0.00    -0.132 OA 
HETATM   19  S   UNL     2      -9.450   4.612  65.784  1.00  0.00    -0.185 S  
HETATM   20  O   UNL     2     -10.893   4.635  65.592  1.00  0.00    -0.292 OA 
ENDBRANCH  11  16
ENDBRANCH  10  11
ENDBRANCH   8  10
ENDBRANCH   4   5
ENDBRANCH   3   4
TORSDOF 6
ENDMDL
MODEL      270
REMARK 921   NORMALIZED FREE ENERGY PREDICTED BY IDOCK:   -3.07 KCAL/MOL
REMARK 922        TOTAL FREE ENERGY PREDICTED BY IDOCK:   -5.35 KCAL/MOL
REMARK 923 INTER-LIGAND FREE ENERGY PREDICTED BY IDOCK:   -4.79 KCAL/MOL
REMARK 924 INTRA-LIGAND FREE ENERGY PREDICTED BY IDOCK:   -0.56 KCAL/MOL
REMARK 927      BINDING AFFINITY PREDICTED BY RF-SCORE:    0.00 PKD
ROOT
HETATM    1 NA   UNL     1     -10.979   9.820  72.243  1.00  0.00    -0.295 Na 
HETATM    2  C   UNL     2     -12.349   6.379  71.935  1.00  0.00    -0.279 C  
HETATM    3  C   UNL     2     -11.349   6.107  70.821  1.00  0.00    -0.364 C  
ENDROOT
BRANCH   3   4
HETATM    4  C   UNL     2     -10.386   7.281  70.651  1.00  0.00    -0.213 C  
BRANCH   4   5
HETATM    5  C   UNL     2     -10.724   8.198  69.471  1.00  0.00    -0.180 C  
HETATM    6  C   UNL     2      -9.666   8.281  68.343  1.00  0.00    -0.170 C  
HETATM    7  C   UNL     2      -9.258   6.905  67.770  1.00  0.00    -0.119 C  
HETATM    8  C   UNL     2     -10.134   9.212  67.198  1.00  0.00    -0.301 C  
HETATM    9  C   UNL     2     -10.354   6.155  67.022  1.00  0.00    -0.295 C  
BRANCH   8  10
HETATM   10  C   UNL     2     -10.451  10.650  67.610  1.00  0.00    -0.267 C  
BRANCH  10  11
HETATM   11  C   UNL     2      -9.578  11.763  66.991  1.00  0.00    -0.187 C  
BRANCH  11  12
HETATM   12  C   UNL     2     -10.437  12.711  66.119  1.00  0.00    -0.278 C  
HETATM   13  C   UNL     2     -11.642  13.979  67.999  1.00  0.00    -0.372 C  
HETATM   14  C   UNL     2     -11.791  13.146  66.723  1.00  0.00    -0.444 C  
HETATM   15  C   UNL     2     -12.572  13.971  65.688  1.00  0.00    -0.542 C  
ENDBRANCH  11  12
BRANCH  11  16
HETATM   16  O   UNL     2      -8.990  12.530  68.038  1.00  0.00    -0.179 OA 
HETATM   17  O   UNL     2      -6.868  12.697  66.839  1.00  0.00     0.007 OA 
HETATM   18  O   UNL     2      -7.131  13.738  69.044  1.00  0.00    -0.110 OA 
HETATM   19  S   UNL     2      -7.364  12.566  68.206  1.00  0.00    -0.124 S  
HETATM   20  O   UNL     2      -7.030  11.293  68.828  1.00  0.00    -0.076 OA 
ENDBRANCH  11  16
ENDBRANCH  10  11
ENDBRANCH   8  10
ENDBRANCH   4   5
ENDBRANCH   3   4
TORSDOF 6
ENDMDL
MODEL      271
REMARK 921   NORMALIZED FREE ENERGY PREDICTED BY IDOCK:   -3.03 KCAL/MOL
REMARK 922        TOTAL FREE ENERGY PREDICTED BY IDOCK:   -5.30 KCAL/MOL
REMARK 923 INTER-LIGAND FREE ENERGY PREDICTED BY IDOCK:   -5.19 KCAL/MOL
REMARK 924 INTRA-LIGAND FREE ENERGY PREDICTED BY IDOCK:   -0.11 KCAL/MOL
REMARK 927      BINDING AFFINITY PREDICTED BY RF-SCORE:    0.00 PKD
ROOT
HETATM    1 NA   UNL     1      -5.423   9.853  68.819  1.00  0.00    -0.036 Na 
HETATM    2  C   UNL     2      -8.342   7.696  69.618  1.00  0.00    -0.130 C  
HETATM    3  C   UNL     2      -9.199   8.947  69.748  1.00  0.00    -0.167 C  
ENDROOT
BRANCH   3   4
HETATM    4  C   UNL     2      -8.412  10.194  69.349  1.00  0.00    -0.179 C  
BRANCH   4   5
HETATM    5  C   UNL     2      -9.152  11.111  68.371  1.00  0.00    -0.168 C  
HETATM    6  C   UNL     2      -8.833  10.910  66.869  1.00  0.00    -0.145 C  
HETATM    7  C   UNL     2      -9.017   9.455  66.383  1.00  0.00    -0.182 C  
HETATM    8  C   UNL     2      -9.662  11.872  65.983  1.00  0.00    -0.257 C  
HETATM    9  C   UNL     2     -10.449   8.935  66.400  1.00  0.00    -0.071 C  
BRANCH   8  10
HETATM   10  C   UNL     2      -9.474  13.360  66.277  1.00  0.00    -0.196 C  
BRANCH  10  11
HETATM   11  C   UNL     2     -10.740  14.167  66.643  1.00  0.00    -0.289 C  
BRANCH  11  12
HETATM   12  C   UNL     2     -10.449  15.142  67.810  1.00  0.00    -0.247 C  
HETATM   13  C   UNL     2     -10.387  17.334  66.473  1.00  0.00    -0.308 C  
HETATM   14  C   UNL     2      -9.648  16.413  67.446  1.00  0.00    -0.231 C  
HETATM   15  C   UNL     2      -9.332  17.203  68.725  1.00  0.00    -0.252 C  
ENDBRANCH  11  12
BRANCH  11  16
HETATM   16  O   UNL     2     -11.148  14.931  65.512  1.00  0.00    -0.329 OA 
HETATM   17  O   UNL     2     -13.309  13.797  65.420  1.00  0.00    -0.669 OA 
HETATM   18  O   UNL     2     -12.751  15.536  63.783  1.00  0.00    -0.596 OA 
HETATM   19  S   UNL     2     -12.308  14.353  64.516  1.00  0.00    -0.348 S  
HETATM   20  O   UNL     2     -11.631  13.350  63.707  1.00  0.00    -0.390 OA 
ENDBRANCH  11  16
ENDBRANCH  10  11
ENDBRANCH   8  10
ENDBRANCH   4   5
ENDBRANCH   3   4
TORSDOF 6
ENDMDL
MODEL      272
REMARK 921   NORMALIZED FREE ENERGY PREDICTED BY IDOCK:   -3.02 KCAL/MOL
REMARK 922        TOTAL FREE ENERGY PREDICTED BY IDOCK:   -5.28 KCAL/MOL
REMARK 923 INTER-LIGAND FREE ENERGY PREDICTED BY IDOCK:   -4.53 KCAL/MOL
REMARK 924 INTRA-LIGAND FREE ENERGY PREDICTED BY IDOCK:   -0.75 KCAL/MOL
REMARK 927      BINDING AFFINITY PREDICTED BY RF-SCORE:    0.00 PKD
ROOT
HETATM    1 NA   UNL     1      -8.115   6.698  71.307  1.00  0.00    -0.097 Na 
HETATM    2  C   UNL     2     -11.282   7.669  72.994  1.00  0.00    -0.388 C  
HETATM    3  C   UNL     2     -12.020   7.444  71.682  1.00  0.00    -0.339 C  
ENDROOT
BRANCH   3   4
HETATM    4  C   UNL     2     -11.088   6.860  70.622  1.00  0.00    -0.322 C  
BRANCH   4   5
HETATM    5  C   UNL     2     -10.387   7.915  69.759  1.00  0.00    -0.219 C  
HETATM    6  C   UNL     2      -9.309   7.391  68.778  1.00  0.00    -0.144 C  
HETATM    7  C   UNL     2      -9.813   6.271  67.840  1.00  0.00    -0.129 C  
HETATM    8  C   UNL     2      -8.698   8.544  67.945  1.00  0.00    -0.138 C  
HETATM    9  C   UNL     2     -10.877   6.690  66.833  1.00  0.00    -0.415 C  
BRANCH   8  10
HETATM   10  C   UNL     2      -8.048   9.665  68.755  1.00  0.00    -0.097 C  
BRANCH  10  11
HETATM   11  C   UNL     2      -8.645  11.081  68.595  1.00  0.00    -0.157 C  
BRANCH  11  12
HETATM   12  C   UNL     2      -7.669  12.002  67.824  1.00  0.00    -0.139 C  
HETATM   13  C   UNL     2      -6.025  12.507  69.732  1.00  0.00    -0.135 C  
HETATM   14  C   UNL     2      -6.955  13.086  68.663  1.00  0.00    -0.102 C  
HETATM   15  C   UNL     2      -6.130  13.991  67.735  1.00  0.00    -0.134 C  
ENDBRANCH  11  12
BRANCH  11  16
HETATM   16  O   UNL     2      -9.858  10.994  67.853  1.00  0.00    -0.166 OA 
HETATM   17  O   UNL     2     -10.634  13.147  68.707  1.00  0.00    -0.248 OA 
HETATM   18  O   UNL     2     -12.024  11.855  67.154  1.00  0.00    -0.611 OA 
HETATM   19  S   UNL     2     -11.170  11.841  68.337  1.00  0.00    -0.278 S  
HETATM   20  O   UNL     2     -11.699  11.086  69.465  1.00  0.00    -0.271 OA 
ENDBRANCH  11  16
ENDBRANCH  10  11
ENDBRANCH   8  10
ENDBRANCH   4   5
ENDBRANCH   3   4
TORSDOF 6
ENDMDL
MODEL      273
REMARK 921   NORMALIZED FREE ENERGY PREDICTED BY IDOCK:   -3.01 KCAL/MOL
REMARK 922        TOTAL FREE ENERGY PREDICTED BY IDOCK:   -5.28 KCAL/MOL
REMARK 923 INTER-LIGAND FREE ENERGY PREDICTED BY IDOCK:   -4.34 KCAL/MOL
REMARK 924 INTRA-LIGAND FREE ENERGY PREDICTED BY IDOCK:   -0.94 KCAL/MOL
REMARK 927      BINDING AFFINITY PREDICTED BY RF-SCORE:    0.00 PKD
ROOT
HETATM    1 NA   UNL     1      -9.224  14.430  65.021  1.00  0.00    -0.488 Na 
HETATM    2  C   UNL     2      -6.597  14.536  67.649  1.00  0.00    -0.174 C  
HETATM    3  C   UNL     2      -7.687  14.448  68.707  1.00  0.00    -0.139 C  
ENDROOT
BRANCH   3   4
HETATM    4  C   UNL     2      -9.057  14.235  68.065  1.00  0.00    -0.191 C  
BRANCH   4   5
HETATM    5  C   UNL     2      -9.436  12.763  67.877  1.00  0.00    -0.208 C  
HETATM    6  C   UNL     2     -10.899  12.383  68.213  1.00  0.00    -0.264 C  
HETATM    7  C   UNL     2     -11.950  13.240  67.470  1.00  0.00    -0.371 C  
HETATM    8  C   UNL     2     -11.164  10.880  67.955  1.00  0.00    -0.387 C  
HETATM    9  C   UNL     2     -11.991  13.059  65.958  1.00  0.00    -0.498 C  
BRANCH   8  10
HETATM   10  C   UNL     2     -10.270   9.914  68.732  1.00  0.00    -0.205 C  
BRANCH  10  11
HETATM   11  C   UNL     2      -9.316   9.025  67.905  1.00  0.00    -0.141 C  
BRANCH  11  12
HETATM   12  C   UNL     2      -7.852   9.507  68.054  1.00  0.00    -0.087 C  
HETATM   13  C   UNL     2      -7.529   8.994  70.549  1.00  0.00    -0.099 C  
HETATM   14  C   UNL     2      -7.457  10.051  69.445  1.00  0.00    -0.113 C  
HETATM   15  C   UNL     2      -6.025  10.605  69.390  1.00  0.00    -0.041 C  
ENDBRANCH  11  12
BRANCH  11  16
HETATM   16  O   UNL     2      -9.396   7.684  68.383  1.00  0.00    -0.146 OA 
HETATM   17  O   UNL     2      -8.988   6.775  66.154  1.00  0.00    -0.153 OA 
HETATM   18  O   UNL     2      -9.336   5.273  68.061  1.00  0.00    -0.111 OA 
HETATM   19  S   UNL     2      -9.767   6.473  67.350  1.00  0.00    -0.133 S  
HETATM   20  O   UNL     2     -11.205   6.585  67.155  1.00  0.00    -0.388 OA 
ENDBRANCH  11  16
ENDBRANCH  10  11
ENDBRANCH   8  10
ENDBRANCH   4   5
ENDBRANCH   3   4
TORSDOF 6
ENDMDL
MODEL      274
REMARK 921   NORMALIZED FREE ENERGY PREDICTED BY IDOCK:   -3.01 KCAL/MOL
REMARK 922        TOTAL FREE ENERGY PREDICTED BY IDOCK:   -5.27 KCAL/MOL
REMARK 923 INTER-LIGAND FREE ENERGY PREDICTED BY IDOCK:   -4.87 KCAL/MOL
REMARK 924 INTRA-LIGAND FREE ENERGY PREDICTED BY IDOCK:   -0.39 KCAL/MOL
REMARK 927      BINDING AFFINITY PREDICTED BY RF-SCORE:    0.00 PKD
ROOT
HETATM    1 NA   UNL     1     -10.210  14.671  72.290  1.00  0.00    -0.282 Na 
HETATM    2  C   UNL     2     -13.817  13.881  72.709  1.00  0.00    -0.320 C  
HETATM    3  C   UNL     2     -14.012  14.099  71.215  1.00  0.00    -0.196 C  
ENDROOT
BRANCH   3   4
HETATM    4  C   UNL     2     -12.674  14.338  70.517  1.00  0.00    -0.391 C  
BRANCH   4   5
HETATM    5  C   UNL     2     -12.361  13.328  69.409  1.00  0.00    -0.086 C  
HETATM    6  C   UNL     2     -11.377  12.190  69.777  1.00  0.00    -0.173 C  
HETATM    7  C   UNL     2     -11.787  11.396  71.037  1.00  0.00     0.027 C  
HETATM    8  C   UNL     2     -11.165  11.222  68.588  1.00  0.00    -0.310 C  
HETATM    9  C   UNL     2     -13.068  10.579  70.909  1.00  0.00    -0.390 C  
BRANCH   8  10
HETATM   10  C   UNL     2     -10.634  11.864  67.306  1.00  0.00    -0.261 C  
BRANCH  10  11
HETATM   11  C   UNL     2     -10.076  10.911  66.225  1.00  0.00    -0.233 C  
BRANCH  11  12
HETATM   12  C   UNL     2     -10.660  11.260  64.834  1.00  0.00    -0.364 C  
HETATM   13  C   UNL     2     -10.830  13.807  65.115  1.00  0.00    -0.349 C  
HETATM   14  C   UNL     2     -11.568  12.509  64.775  1.00  0.00    -0.387 C  
HETATM   15  C   UNL     2     -12.166  12.641  63.366  1.00  0.00    -0.610 C  
ENDBRANCH  11  12
BRANCH  11  16
HETATM   16  O   UNL     2      -8.660  11.055  66.164  1.00  0.00    -0.169 OA 
HETATM   17  O   UNL     2      -8.331   8.636  66.119  1.00  0.00    -0.115 OA 
HETATM   18  O   UNL     2      -6.403  10.150  66.063  1.00  0.00    -0.080 OA 
HETATM   19  S   UNL     2      -7.696   9.832  66.661  1.00  0.00    -0.102 S  
HETATM   20  O   UNL     2      -7.732   9.904  68.115  1.00  0.00    -0.082 OA 
ENDBRANCH  11  16
ENDBRANCH  10  11
ENDBRANCH   8  10
ENDBRANCH   4   5
ENDBRANCH   3   4
TORSDOF 6
ENDMDL
MODEL      275
REMARK 921   NORMALIZED FREE ENERGY PREDICTED BY IDOCK:   -2.99 KCAL/MOL
REMARK 922        TOTAL FREE ENERGY PREDICTED BY IDOCK:   -5.25 KCAL/MOL
REMARK 923 INTER-LIGAND FREE ENERGY PREDICTED BY IDOCK:   -6.01 KCAL/MOL
REMARK 924 INTRA-LIGAND FREE ENERGY PREDICTED BY IDOCK:    0.77 KCAL/MOL
REMARK 927      BINDING AFFINITY PREDICTED BY RF-SCORE:    0.00 PKD
ROOT
HETATM    1 NA   UNL     1      -7.365  17.569  65.476  1.00  0.00    -0.259 Na 
HETATM    2  C   UNL     2     -10.509  19.514  65.858  1.00  0.00    -0.585 C  
HETATM    3  C   UNL     2     -10.794  18.752  67.145  1.00  0.00    -0.375 C  
ENDROOT
BRANCH   3   4
HETATM    4  C   UNL     2      -9.622  17.846  67.516  1.00  0.00    -0.269 C  
BRANCH   4   5
HETATM    5  C   UNL     2     -10.034  16.430  67.929  1.00  0.00    -0.243 C  
HETATM    6  C   UNL     2      -9.335  15.267  67.183  1.00  0.00    -0.227 C  
HETATM    7  C   UNL     2      -7.792  15.341  67.224  1.00  0.00    -0.240 C  
HETATM    8  C   UNL     2      -9.813  13.892  67.709  1.00  0.00    -0.237 C  
HETATM    9  C   UNL     2      -7.164  15.160  68.601  1.00  0.00    -0.118 C  
BRANCH   8  10
HETATM   10  C   UNL     2     -11.317  13.638  67.607  1.00  0.00    -0.328 C  
BRANCH  10  11
HETATM   11  C   UNL     2     -11.761  12.340  66.897  1.00  0.00    -0.334 C  
BRANCH  11  12
HETATM   12  C   UNL     2     -10.648  11.826  65.951  1.00  0.00    -0.314 C  
HETATM   13  C   UNL     2     -11.055  13.417  63.977  1.00  0.00    -0.282 C  
HETATM   14  C   UNL     2     -10.929  11.962  64.437  1.00  0.00    -0.392 C  
HETATM   15  C   UNL     2      -9.796  11.293  63.643  1.00  0.00    -0.377 C  
ENDBRANCH  11  12
BRANCH  11  16
HETATM   16  O   UNL     2     -12.014  11.336  67.876  1.00  0.00    -0.630 OA 
HETATM   17  O   UNL     2      -9.629  11.036  68.308  1.00  0.00    -0.158 OA 
HETATM   18  O   UNL     2     -11.286   9.699  69.524  1.00  0.00    -0.167 OA 
HETATM   19  S   UNL     2     -10.852  10.245  68.241  1.00  0.00    -0.261 S  
HETATM   20  O   UNL     2     -10.876   9.299  67.134  1.00  0.00    -0.217 OA 
ENDBRANCH  11  16
ENDBRANCH  10  11
ENDBRANCH   8  10
ENDBRANCH   4   5
ENDBRANCH   3   4
TORSDOF 6
ENDMDL
MODEL      276
REMARK 921   NORMALIZED FREE ENERGY PREDICTED BY IDOCK:   -2.99 KCAL/MOL
REMARK 922        TOTAL FREE ENERGY PREDICTED BY IDOCK:   -5.24 KCAL/MOL
REMARK 923 INTER-LIGAND FREE ENERGY PREDICTED BY IDOCK:   -4.71 KCAL/MOL
REMARK 924 INTRA-LIGAND FREE ENERGY PREDICTED BY IDOCK:   -0.53 KCAL/MOL
REMARK 927      BINDING AFFINITY PREDICTED BY RF-SCORE:    0.00 PKD
ROOT
HETATM    1 NA   UNL     1     -10.156  14.920  70.700  1.00  0.00    -0.417 Na 
HETATM    2  C   UNL     2      -7.312  14.756  68.312  1.00  0.00    -0.115 C  
HETATM    3  C   UNL     2      -8.031  13.637  67.572  1.00  0.00    -0.189 C  
ENDROOT
BRANCH   3   4
HETATM    4  C   UNL     2      -9.428  13.410  68.146  1.00  0.00    -0.218 C  
BRANCH   4   5
HETATM    5  C   UNL     2      -9.631  12.022  68.762  1.00  0.00     0.004 C  
HETATM    6  C   UNL     2     -10.958  11.305  68.412  1.00  0.00    -0.268 C  
HETATM    7  C   UNL     2     -11.222  11.191  66.894  1.00  0.00    -0.258 C  
HETATM    8  C   UNL     2     -11.032   9.905  69.068  1.00  0.00    -0.223 C  
HETATM    9  C   UNL     2     -10.253  10.301  66.125  1.00  0.00    -0.285 C  
BRANCH   8  10
HETATM   10  C   UNL     2     -10.911   9.887  70.592  1.00  0.00    -0.405 C  
BRANCH  10  11
HETATM   11  C   UNL     2     -11.191   8.543  71.300  1.00  0.00    -0.265 C  
BRANCH  11  12
HETATM   12  C   UNL     2      -9.874   7.904  71.803  1.00  0.00    -0.223 C  
HETATM   13  C   UNL     2      -9.099   6.836  69.599  1.00  0.00    -0.143 C  
HETATM   14  C   UNL     2      -9.428   6.614  71.078  1.00  0.00    -0.168 C  
HETATM   15  C   UNL     2      -8.185   6.039  71.774  1.00  0.00    -0.118 C  
ENDBRANCH  11  12
BRANCH  11  16
HETATM   16  O   UNL     2     -12.033   8.777  72.427  1.00  0.00    -0.359 OA 
HETATM   17  O   UNL     2     -14.053   8.472  71.088  1.00  0.00    -0.233 OA 
HETATM   18  O   UNL     2     -14.217   8.994  73.479  1.00  0.00    -0.008 OA 
HETATM   19  S   UNL     2     -13.571   9.283  72.202  1.00  0.00    -0.465 S  
HETATM   20  O   UNL     2     -13.450  10.698  71.883  1.00  0.00    -0.358 OA 
ENDBRANCH  11  16
ENDBRANCH  10  11
ENDBRANCH   8  10
ENDBRANCH   4   5
ENDBRANCH   3   4
TORSDOF 6
ENDMDL
MODEL      277
REMARK 921   NORMALIZED FREE ENERGY PREDICTED BY IDOCK:   -2.98 KCAL/MOL
REMARK 922        TOTAL FREE ENERGY PREDICTED BY IDOCK:   -5.23 KCAL/MOL
REMARK 923 INTER-LIGAND FREE ENERGY PREDICTED BY IDOCK:   -4.68 KCAL/MOL
REMARK 924 INTRA-LIGAND FREE ENERGY PREDICTED BY IDOCK:   -0.55 KCAL/MOL
REMARK 927      BINDING AFFINITY PREDICTED BY RF-SCORE:    0.00 PKD
ROOT
HETATM    1 NA   UNL     1     -11.610   7.780  68.829  1.00  0.00    -0.430 Na 
HETATM    2  C   UNL     2     -12.286  11.371  69.507  1.00  0.00    -0.303 C  
HETATM    3  C   UNL     2     -12.489  11.029  70.976  1.00  0.00    -0.512 C  
ENDROOT
BRANCH   3   4
HETATM    4  C   UNL     2     -12.162   9.562  71.248  1.00  0.00    -0.433 C  
BRANCH   4   5
HETATM    5  C   UNL     2     -10.727   9.166  70.886  1.00  0.00    -0.343 C  
HETATM    6  C   UNL     2     -10.007   8.219  71.878  1.00  0.00    -0.299 C  
HETATM    7  C   UNL     2     -10.793   6.923  72.183  1.00  0.00    -0.256 C  
HETATM    8  C   UNL     2      -8.581   7.870  71.388  1.00  0.00    -0.141 C  
HETATM    9  C   UNL     2     -10.959   5.966  71.009  1.00  0.00    -0.335 C  
BRANCH   8  10
HETATM   10  C   UNL     2      -7.652   9.064  71.168  1.00  0.00    -0.130 C  
BRANCH  10  11
HETATM   11  C   UNL     2      -7.284   9.403  69.707  1.00  0.00    -0.076 C  
BRANCH  11  12
HETATM   12  C   UNL     2      -8.192   8.630  68.720  1.00  0.00    -0.121 C  
HETATM   13  C   UNL     2      -7.881  10.126  66.656  1.00  0.00    -0.110 C  
HETATM   14  C   UNL     2      -8.874   9.476  67.622  1.00  0.00    -0.121 C  
HETATM   15  C   UNL     2      -9.834   8.590  66.813  1.00  0.00    -0.327 C  
ENDBRANCH  11  12
BRANCH  11  16
HETATM   16  O   UNL     2      -7.476  10.799  69.490  1.00  0.00    -0.142 OA 
HETATM   17  O   UNL     2      -5.130  11.113  68.885  1.00  0.00    -0.042 OA 
HETATM   18  O   UNL     2      -6.673  13.019  68.899  1.00  0.00    -0.089 OA 
HETATM   19  S   UNL     2      -6.201  11.819  69.581  1.00  0.00    -0.133 S  
HETATM   20  O   UNL     2      -5.962  11.980  71.009  1.00  0.00    -0.342 OA 
ENDBRANCH  11  16
ENDBRANCH  10  11
ENDBRANCH   8  10
ENDBRANCH   4   5
ENDBRANCH   3   4
TORSDOF 6
ENDMDL
MODEL      278
REMARK 921   NORMALIZED FREE ENERGY PREDICTED BY IDOCK:   -2.98 KCAL/MOL
REMARK 922        TOTAL FREE ENERGY PREDICTED BY IDOCK:   -5.23 KCAL/MOL
REMARK 923 INTER-LIGAND FREE ENERGY PREDICTED BY IDOCK:   -4.53 KCAL/MOL
REMARK 924 INTRA-LIGAND FREE ENERGY PREDICTED BY IDOCK:   -0.70 KCAL/MOL
REMARK 927      BINDING AFFINITY PREDICTED BY RF-SCORE:    0.00 PKD
ROOT
HETATM    1 NA   UNL     1      -9.819   9.182  72.444  1.00  0.00    -0.269 Na 
HETATM    2  C   UNL     2     -13.385   8.549  71.610  1.00  0.00    -0.372 C  
HETATM    3  C   UNL     2     -13.519  10.005  71.189  1.00  0.00    -0.299 C  
ENDROOT
BRANCH   3   4
HETATM    4  C   UNL     2     -12.166  10.713  71.229  1.00  0.00    -0.447 C  
BRANCH   4   5
HETATM    5  C   UNL     2     -11.225  10.325  70.084  1.00  0.00    -0.387 C  
HETATM    6  C   UNL     2     -11.638  10.795  68.668  1.00  0.00    -0.342 C  
HETATM    7  C   UNL     2     -11.901  12.314  68.568  1.00  0.00    -0.359 C  
HETATM    8  C   UNL     2     -10.596  10.368  67.606  1.00  0.00    -0.304 C  
HETATM    9  C   UNL     2     -10.682  13.205  68.775  1.00  0.00    -0.253 C  
BRANCH   8  10
HETATM   10  C   UNL     2     -10.334   8.865  67.511  1.00  0.00    -0.328 C  
BRANCH  10  11
HETATM   11  C   UNL     2      -8.961   8.361  68.008  1.00  0.00    -0.138 C  
BRANCH  11  12
HETATM   12  C   UNL     2      -8.211   7.613  66.879  1.00  0.00    -0.120 C  
HETATM   13  C   UNL     2      -8.305   9.441  65.077  1.00  0.00    -0.155 C  
HETATM   14  C   UNL     2      -8.616   7.986  65.435  1.00  0.00    -0.138 C  
HETATM   15  C   UNL     2      -7.881   7.070  64.444  1.00  0.00    -0.111 C  
ENDBRANCH  11  12
BRANCH  11  16
HETATM   16  O   UNL     2      -8.171   9.479  68.405  1.00  0.00    -0.111 OA 
HETATM   17  O   UNL     2      -6.531   8.038  69.501  1.00  0.00    -0.034 OA 
HETATM   18  O   UNL     2      -6.244  10.473  69.511  1.00  0.00    -0.044 OA 
HETATM   19  S   UNL     2      -7.155   9.345  69.679  1.00  0.00    -0.071 S  
HETATM   20  O   UNL     2      -8.019   9.425  70.848  1.00  0.00    -0.249 OA 
ENDBRANCH  11  16
ENDBRANCH  10  11
ENDBRANCH   8  10
ENDBRANCH   4   5
ENDBRANCH   3   4
TORSDOF 6
ENDMDL
MODEL      279
REMARK 921   NORMALIZED FREE ENERGY PREDICTED BY IDOCK:   -2.97 KCAL/MOL
REMARK 922        TOTAL FREE ENERGY PREDICTED BY IDOCK:   -5.22 KCAL/MOL
REMARK 923 INTER-LIGAND FREE ENERGY PREDICTED BY IDOCK:   -4.16 KCAL/MOL
REMARK 924 INTRA-LIGAND FREE ENERGY PREDICTED BY IDOCK:   -1.06 KCAL/MOL
REMARK 927      BINDING AFFINITY PREDICTED BY RF-SCORE:    0.00 PKD
ROOT
HETATM    1 NA   UNL     1      -8.600   7.024  66.235  1.00  0.00    -0.103 Na 
HETATM    2  C   UNL     2      -5.388   5.409  67.181  1.00  0.00    -0.008 C  
HETATM    3  C   UNL     2      -5.930   5.215  68.590  1.00  0.00    -0.021 C  
ENDROOT
BRANCH   3   4
HETATM    4  C   UNL     2      -7.396   5.638  68.676  1.00  0.00    -0.079 C  
BRANCH   4   5
HETATM    5  C   UNL     2      -7.658   6.779  69.665  1.00  0.00    -0.101 C  
HETATM    6  C   UNL     2      -8.919   6.640  70.552  1.00  0.00    -0.152 C  
HETATM    7  C   UNL     2      -8.984   5.310  71.338  1.00  0.00    -0.156 C  
HETATM    8  C   UNL     2      -9.058   7.836  71.526  1.00  0.00    -0.158 C  
HETATM    9  C   UNL     2      -7.912   5.127  72.405  1.00  0.00    -0.102 C  
BRANCH   8  10
HETATM   10  C   UNL     2      -9.134   9.213  70.866  1.00  0.00    -0.316 C  
BRANCH  10  11
HETATM   11  C   UNL     2     -10.509   9.647  70.311  1.00  0.00    -0.283 C  
BRANCH  11  12
HETATM   12  C   UNL     2     -11.567   9.687  71.441  1.00  0.00    -0.472 C  
HETATM   13  C   UNL     2     -12.528   7.323  71.151  1.00  0.00    -0.373 C  
HETATM   14  C   UNL     2     -12.828   8.822  71.217  1.00  0.00    -0.250 C  
HETATM   15  C   UNL     2     -13.829   9.071  72.356  1.00  0.00    -0.540 C  
ENDBRANCH  11  12
BRANCH  11  16
HETATM   16  O   UNL     2     -10.395  10.956  69.759  1.00  0.00    -0.127 OA 
HETATM   17  O   UNL     2     -11.749  10.347  67.820  1.00  0.00    -0.353 OA 
HETATM   18  O   UNL     2     -10.845  12.616  68.037  1.00  0.00    -0.212 OA 
HETATM   19  S   UNL     2     -10.600  11.182  68.153  1.00  0.00    -0.208 S  
HETATM   20  O   UNL     2      -9.353  10.724  67.556  1.00  0.00    -0.146 OA 
ENDBRANCH  11  16
ENDBRANCH  10  11
ENDBRANCH   8  10
ENDBRANCH   4   5
ENDBRANCH   3   4
TORSDOF 6
ENDMDL
MODEL      280
REMARK 921   NORMALIZED FREE ENERGY PREDICTED BY IDOCK:   -2.96 KCAL/MOL
REMARK 922        TOTAL FREE ENERGY PREDICTED BY IDOCK:   -5.21 KCAL/MOL
REMARK 923 INTER-LIGAND FREE ENERGY PREDICTED BY IDOCK:   -5.52 KCAL/MOL
REMARK 924 INTRA-LIGAND FREE ENERGY PREDICTED BY IDOCK:    0.31 KCAL/MOL
REMARK 927      BINDING AFFINITY PREDICTED BY RF-SCORE:    0.00 PKD
ROOT
HETATM    1 NA   UNL     1     -11.296  17.013  67.597  1.00  0.00    -0.323 Na 
HETATM    2  C   UNL     2      -7.777  16.527  68.690  1.00  0.00    -0.216 C  
HETATM    3  C   UNL     2      -8.099  15.071  68.993  1.00  0.00    -0.178 C  
ENDROOT
BRANCH   3   4
HETATM    4  C   UNL     2      -9.517  14.719  68.548  1.00  0.00    -0.214 C  
BRANCH   4   5
HETATM    5  C   UNL     2      -9.714  13.239  68.205  1.00  0.00    -0.225 C  
HETATM    6  C   UNL     2     -11.134  12.666  68.432  1.00  0.00    -0.297 C  
HETATM    7  C   UNL     2     -12.249  13.468  67.721  1.00  0.00    -0.194 C  
HETATM    8  C   UNL     2     -11.213  11.176  68.022  1.00  0.00    -0.359 C  
HETATM    9  C   UNL     2     -12.211  13.433  66.198  1.00  0.00    -0.471 C  
BRANCH   8  10
HETATM   10  C   UNL     2     -10.243  10.244  68.749  1.00  0.00    -0.205 C  
BRANCH  10  11
HETATM   11  C   UNL     2     -10.434  10.086  70.274  1.00  0.00    -0.272 C  
BRANCH  11  12
HETATM   12  C   UNL     2     -11.827   9.491  70.592  1.00  0.00    -0.301 C  
HETATM   13  C   UNL     2     -12.953  11.611  71.504  1.00  0.00    -0.463 C  
HETATM   14  C   UNL     2     -12.592  10.147  71.764  1.00  0.00    -0.500 C  
HETATM   15  C   UNL     2     -13.887   9.364  72.032  1.00  0.00    -0.409 C  
ENDBRANCH  11  12
BRANCH  11  16
HETATM   16  O   UNL     2      -9.442   9.196  70.778  1.00  0.00    -0.229 OA 
HETATM   17  O   UNL     2      -9.952   7.526  69.071  1.00  0.00    -0.167 OA 
HETATM   18  O   UNL     2      -8.211   7.097  70.744  1.00  0.00    -0.117 OA 
HETATM   19  S   UNL     2      -9.557   7.594  70.474  1.00  0.00    -0.166 S  
HETATM   20  O   UNL     2     -10.581   7.118  71.393  1.00  0.00    -0.216 OA 
ENDBRANCH  11  16
ENDBRANCH  10  11
ENDBRANCH   8  10
ENDBRANCH   4   5
ENDBRANCH   3   4
TORSDOF 6
ENDMDL
MODEL      281
REMARK 921   NORMALIZED FREE ENERGY PREDICTED BY IDOCK:   -2.95 KCAL/MOL
REMARK 922        TOTAL FREE ENERGY PREDICTED BY IDOCK:   -5.20 KCAL/MOL
REMARK 923 INTER-LIGAND FREE ENERGY PREDICTED BY IDOCK:   -5.56 KCAL/MOL
REMARK 924 INTRA-LIGAND FREE ENERGY PREDICTED BY IDOCK:    0.36 KCAL/MOL
REMARK 927      BINDING AFFINITY PREDICTED BY RF-SCORE:    0.00 PKD
ROOT
HETATM    1 NA   UNL     1      -9.583   9.945  64.818  1.00  0.00    -0.192 Na 
HETATM    2  C   UNL     2     -12.436  11.866  63.410  1.00  0.00    -0.582 C  
HETATM    3  C   UNL     2     -12.503  12.666  64.703  1.00  0.00    -0.538 C  
ENDROOT
BRANCH   3   4
HETATM    4  C   UNL     2     -11.346  12.303  65.632  1.00  0.00    -0.394 C  
BRANCH   4   5
HETATM    5  C   UNL     2     -11.785  11.877  67.037  1.00  0.00    -0.304 C  
HETATM    6  C   UNL     2     -10.890  12.354  68.208  1.00  0.00    -0.264 C  
HETATM    7  C   UNL     2     -10.654  13.881  68.229  1.00  0.00    -0.263 C  
HETATM    8  C   UNL     2     -11.453  11.887  69.573  1.00  0.00    -0.357 C  
HETATM    9  C   UNL     2     -11.888  14.731  68.503  1.00  0.00    -0.340 C  
BRANCH   8  10
HETATM   10  C   UNL     2     -11.617  10.376  69.732  1.00  0.00    -0.339 C  
BRANCH  10  11
HETATM   11  C   UNL     2     -10.478   9.486  69.186  1.00  0.00    -0.210 C  
BRANCH  11  12
HETATM   12  C   UNL     2      -9.152   9.780  69.928  1.00  0.00    -0.257 C  
HETATM   13  C   UNL     2      -7.794  10.687  67.946  1.00  0.00    -0.105 C  
HETATM   14  C   UNL     2      -7.863   9.664  69.082  1.00  0.00    -0.090 C  
HETATM   15  C   UNL     2      -6.637   9.855  69.988  1.00  0.00    -0.091 C  
ENDBRANCH  11  12
BRANCH  11  16
HETATM   16  O   UNL     2     -10.815   8.118  69.396  1.00  0.00    -0.193 OA 
HETATM   17  O   UNL     2     -11.777   8.603  71.588  1.00  0.00    -0.274 OA 
HETATM   18  O   UNL     2     -11.750   6.307  70.726  1.00  0.00    -0.340 OA 
HETATM   19  S   UNL     2     -11.016   7.554  70.917  1.00  0.00    -0.258 S  
HETATM   20  O   UNL     2      -9.663   7.394  71.432  1.00  0.00    -0.167 OA 
ENDBRANCH  11  16
ENDBRANCH  10  11
ENDBRANCH   8  10
ENDBRANCH   4   5
ENDBRANCH   3   4
TORSDOF 6
ENDMDL
MODEL      282
REMARK 921   NORMALIZED FREE ENERGY PREDICTED BY IDOCK:   -2.95 KCAL/MOL
REMARK 922        TOTAL FREE ENERGY PREDICTED BY IDOCK:   -5.19 KCAL/MOL
REMARK 923 INTER-LIGAND FREE ENERGY PREDICTED BY IDOCK:   -5.85 KCAL/MOL
REMARK 924 INTRA-LIGAND FREE ENERGY PREDICTED BY IDOCK:    0.65 KCAL/MOL
REMARK 927      BINDING AFFINITY PREDICTED BY RF-SCORE:    0.00 PKD
ROOT
HETATM    1 NA   UNL     1      -9.704   8.768  70.477  1.00  0.00    -0.151 Na 
HETATM    2  C   UNL     2     -10.797   6.889  67.462  1.00  0.00    -0.363 C  
HETATM    3  C   UNL     2     -10.215   7.994  66.593  1.00  0.00    -0.315 C  
ENDROOT
BRANCH   3   4
HETATM    4  C   UNL     2      -9.472   9.025  67.442  1.00  0.00    -0.179 C  
BRANCH   4   5
HETATM    5  C   UNL     2     -10.233  10.341  67.631  1.00  0.00    -0.247 C  
HETATM    6  C   UNL     2      -9.664  11.574  66.886  1.00  0.00    -0.205 C  
HETATM    7  C   UNL     2      -9.475  11.351  65.368  1.00  0.00    -0.240 C  
HETATM    8  C   UNL     2     -10.533  12.831  67.131  1.00  0.00    -0.240 C  
HETATM    9  C   UNL     2     -10.758  11.154  64.570  1.00  0.00    -0.368 C  
BRANCH   8  10
HETATM   10  C   UNL     2     -10.697  13.239  68.595  1.00  0.00    -0.281 C  
BRANCH  10  11
HETATM   11  C   UNL     2     -11.995  13.986  68.973  1.00  0.00    -0.357 C  
BRANCH  11  12
HETATM   12  C   UNL     2     -12.328  13.783  70.471  1.00  0.00    -0.429 C  
HETATM   13  C   UNL     2     -12.271  11.216  70.534  1.00  0.00    -0.475 C  
HETATM   14  C   UNL     2     -13.081  12.481  70.827  1.00  0.00     0.175 C  
HETATM   15  C   UNL     2     -13.447  12.493  72.319  1.00  0.00    -0.490 C  
ENDBRANCH  11  12
BRANCH  11  16
HETATM   16  O   UNL     2     -11.815  15.380  68.740  1.00  0.00    -0.351 OA 
HETATM   17  O   UNL     2      -9.593  15.349  69.754  1.00  0.00    -0.266 OA 
HETATM   18  O   UNL     2     -10.524  17.439  68.873  1.00  0.00    -0.345 OA 
HETATM   19  S   UNL     2     -10.754  16.227  69.652  1.00  0.00    -0.337 S  
HETATM   20  O   UNL     2     -11.443  16.434  70.918  1.00  0.00    -0.380 OA 
ENDBRANCH  11  16
ENDBRANCH  10  11
ENDBRANCH   8  10
ENDBRANCH   4   5
ENDBRANCH   3   4
TORSDOF 6
ENDMDL
MODEL      283
REMARK 921   NORMALIZED FREE ENERGY PREDICTED BY IDOCK:   -2.95 KCAL/MOL
REMARK 922        TOTAL FREE ENERGY PREDICTED BY IDOCK:   -5.18 KCAL/MOL
REMARK 923 INTER-LIGAND FREE ENERGY PREDICTED BY IDOCK:   -4.21 KCAL/MOL
REMARK 924 INTRA-LIGAND FREE ENERGY PREDICTED BY IDOCK:   -0.97 KCAL/MOL
REMARK 927      BINDING AFFINITY PREDICTED BY RF-SCORE:    0.00 PKD
ROOT
HETATM    1 NA   UNL     1      -8.473   6.657  67.004  1.00  0.00    -0.106 Na 
HETATM    2  C   UNL     2      -5.844   4.361  68.283  1.00  0.00    -0.026 C  
HETATM    3  C   UNL     2      -6.737   4.043  69.475  1.00  0.00    -0.037 C  
ENDROOT
BRANCH   3   4
HETATM    4  C   UNL     2      -8.107   4.703  69.324  1.00  0.00    -0.069 C  
BRANCH   4   5
HETATM    5  C   UNL     2      -8.393   5.790  70.364  1.00  0.00    -0.121 C  
HETATM    6  C   UNL     2      -9.837   5.843  70.920  1.00  0.00    -0.224 C  
HETATM    7  C   UNL     2     -10.332   4.497  71.495  1.00  0.00    -0.138 C  
HETATM    8  C   UNL     2      -9.992   6.960  71.981  1.00  0.00    -0.179 C  
HETATM    9  C   UNL     2      -9.607   4.012  72.745  1.00  0.00    -0.177 C  
BRANCH   8  10
HETATM   10  C   UNL     2      -9.653   8.372  71.502  1.00  0.00    -0.273 C  
BRANCH  10  11
HETATM   11  C   UNL     2     -10.751   9.127  70.721  1.00  0.00    -0.263 C  
BRANCH  11  12
HETATM   12  C   UNL     2     -10.399   9.199  69.215  1.00  0.00    -0.223 C  
HETATM   13  C   UNL     2     -10.792  11.710  68.847  1.00  0.00    -0.264 C  
HETATM   14  C   UNL     2     -11.134  10.287  68.399  1.00  0.00    -0.302 C  
HETATM   15  C   UNL     2     -10.776  10.142  66.912  1.00  0.00    -0.231 C  
ENDBRANCH  11  12
BRANCH  11  16
HETATM   16  O   UNL     2     -11.985   8.429  70.859  1.00  0.00    -0.270 OA 
HETATM   17  O   UNL     2     -13.232  10.512  71.119  1.00  0.00    -0.361 OA 
HETATM   18  O   UNL     2     -14.395   8.354  71.195  1.00  0.00    -0.285 OA 
HETATM   19  S   UNL     2     -13.243   9.142  71.622  1.00  0.00    -0.387 S  
HETATM   20  O   UNL     2     -12.920   9.038  73.038  1.00  0.00    -0.277 OA 
ENDBRANCH  11  16
ENDBRANCH  10  11
ENDBRANCH   8  10
ENDBRANCH   4   5
ENDBRANCH   3   4
TORSDOF 6
ENDMDL
MODEL      284
REMARK 921   NORMALIZED FREE ENERGY PREDICTED BY IDOCK:   -2.95 KCAL/MOL
REMARK 922        TOTAL FREE ENERGY PREDICTED BY IDOCK:   -5.18 KCAL/MOL
REMARK 923 INTER-LIGAND FREE ENERGY PREDICTED BY IDOCK:   -4.66 KCAL/MOL
REMARK 924 INTRA-LIGAND FREE ENERGY PREDICTED BY IDOCK:   -0.53 KCAL/MOL
REMARK 927      BINDING AFFINITY PREDICTED BY RF-SCORE:    0.00 PKD
ROOT
HETATM    1 NA   UNL     1      -8.128   6.824  71.857  1.00  0.00    -0.095 Na 
HETATM    2  C   UNL     2     -10.032   4.817  69.374  1.00  0.00    -0.269 C  
HETATM    3  C   UNL     2     -11.124   5.877  69.393  1.00  0.00    -0.369 C  
ENDROOT
BRANCH   3   4
HETATM    4  C   UNL     2     -10.709   7.077  70.242  1.00  0.00    -0.266 C  
BRANCH   4   5
HETATM    5  C   UNL     2     -10.634   8.395  69.463  1.00  0.00    -0.217 C  
HETATM    6  C   UNL     2      -9.828   9.538  70.127  1.00  0.00    -0.288 C  
HETATM    7  C   UNL     2      -8.387   9.138  70.518  1.00  0.00    -0.222 C  
HETATM    8  C   UNL     2      -9.802  10.802  69.234  1.00  0.00    -0.160 C  
HETATM    9  C   UNL     2      -7.456   8.827  69.353  1.00  0.00    -0.080 C  
BRANCH   8  10
HETATM   10  C   UNL     2     -11.171  11.380  68.876  1.00  0.00    -0.310 C  
BRANCH  10  11
HETATM   11  C   UNL     2     -11.351  11.914  67.438  1.00  0.00    -0.324 C  
BRANCH  11  12
HETATM   12  C   UNL     2     -11.611  13.440  67.448  1.00  0.00    -0.394 C  
HETATM   13  C   UNL     2      -9.305  14.217  68.270  1.00  0.00    -0.203 C  
HETATM   14  C   UNL     2     -10.818  14.254  68.496  1.00  0.00    -0.264 C  
HETATM   15  C   UNL     2     -11.282  15.718  68.465  1.00  0.00    -0.354 C  
ENDBRANCH  11  12
BRANCH  11  16
HETATM   16  O   UNL     2     -10.159  11.668  66.697  1.00  0.00    -0.203 OA 
HETATM   17  O   UNL     2     -11.415  11.284  64.638  1.00  0.00    -0.104 OA 
HETATM   18  O   UNL     2      -8.969  11.116  64.647  1.00  0.00    -0.126 OA 
HETATM   19  S   UNL     2     -10.223  10.790  65.319  1.00  0.00    -0.270 S  
HETATM   20  O   UNL     2     -10.337   9.410  65.768  1.00  0.00    -0.139 OA 
ENDBRANCH  11  16
ENDBRANCH  10  11
ENDBRANCH   8  10
ENDBRANCH   4   5
ENDBRANCH   3   4
TORSDOF 6
ENDMDL
MODEL      285
REMARK 921   NORMALIZED FREE ENERGY PREDICTED BY IDOCK:   -2.94 KCAL/MOL
REMARK 922        TOTAL FREE ENERGY PREDICTED BY IDOCK:   -5.17 KCAL/MOL
REMARK 923 INTER-LIGAND FREE ENERGY PREDICTED BY IDOCK:   -4.36 KCAL/MOL
REMARK 924 INTRA-LIGAND FREE ENERGY PREDICTED BY IDOCK:   -0.81 KCAL/MOL
REMARK 927      BINDING AFFINITY PREDICTED BY RF-SCORE:    0.00 PKD
ROOT
HETATM    1 NA   UNL     1     -13.234   6.224  70.469  1.00  0.00    -0.113 Na 
HETATM    2  C   UNL     2     -11.153   9.076  71.630  1.00  0.00    -0.433 C  
HETATM    3  C   UNL     2     -10.175   8.790  70.500  1.00  0.00    -0.240 C  
ENDROOT
BRANCH   3   4
HETATM    4  C   UNL     2     -10.705   7.690  69.582  1.00  0.00    -0.230 C  
BRANCH   4   5
HETATM    5  C   UNL     2     -10.428   7.932  68.095  1.00  0.00    -0.227 C  
HETATM    6  C   UNL     2      -8.950   7.816  67.646  1.00  0.00    -0.128 C  
HETATM    7  C   UNL     2      -8.283   6.479  68.040  1.00  0.00    -0.116 C  
HETATM    8  C   UNL     2      -8.804   8.051  66.123  1.00  0.00    -0.198 C  
HETATM    9  C   UNL     2      -8.844   5.240  67.354  1.00  0.00    -0.105 C  
BRANCH   8  10
HETATM   10  C   UNL     2      -9.313   9.401  65.616  1.00  0.00    -0.309 C  
BRANCH  10  11
HETATM   11  C   UNL     2      -9.302  10.575  66.619  1.00  0.00    -0.161 C  
BRANCH  11  12
HETATM   12  C   UNL     2      -8.021  11.428  66.449  1.00  0.00    -0.088 C  
HETATM   13  C   UNL     2      -6.507  10.186  68.110  1.00  0.00    -0.057 C  
HETATM   14  C   UNL     2      -7.106  11.531  67.690  1.00  0.00    -0.098 C  
HETATM   15  C   UNL     2      -5.957  12.509  67.399  1.00  0.00    -0.147 C  
ENDBRANCH  11  12
BRANCH  11  16
HETATM   16  O   UNL     2     -10.431  11.409  66.373  1.00  0.00    -0.237 OA 
HETATM   17  O   UNL     2     -10.205  12.500  68.546  1.00  0.00    -0.228 OA 
HETATM   18  O   UNL     2     -12.010  13.145  67.017  1.00  0.00    -0.379 OA 
HETATM   19  S   UNL     2     -11.251  12.059  67.629  1.00  0.00    -0.305 S  
HETATM   20  O   UNL     2     -12.058  10.964  68.147  1.00  0.00    -0.563 OA 
ENDBRANCH  11  16
ENDBRANCH  10  11
ENDBRANCH   8  10
ENDBRANCH   4   5
ENDBRANCH   3   4
TORSDOF 6
ENDMDL
MODEL      286
REMARK 921   NORMALIZED FREE ENERGY PREDICTED BY IDOCK:   -2.93 KCAL/MOL
REMARK 922        TOTAL FREE ENERGY PREDICTED BY IDOCK:   -5.16 KCAL/MOL
REMARK 923 INTER-LIGAND FREE ENERGY PREDICTED BY IDOCK:   -4.39 KCAL/MOL
REMARK 924 INTRA-LIGAND FREE ENERGY PREDICTED BY IDOCK:   -0.77 KCAL/MOL
REMARK 927      BINDING AFFINITY PREDICTED BY RF-SCORE:    0.00 PKD
ROOT
HETATM    1 NA   UNL     1      -8.988   9.755  65.299  1.00  0.00    -0.134 Na 
HETATM    2  C   UNL     2     -11.784  11.925  64.165  1.00  0.00    -0.428 C  
HETATM    3  C   UNL     2     -12.002  12.356  65.608  1.00  0.00    -0.449 C  
ENDROOT
BRANCH   3   4
HETATM    4  C   UNL     2     -10.918  11.784  66.520  1.00  0.00    -0.342 C  
BRANCH   4   5
HETATM    5  C   UNL     2     -11.139  10.318  66.906  1.00  0.00    -0.038 C  
HETATM    6  C   UNL     2     -10.133   9.717  67.919  1.00  0.00    -0.212 C  
HETATM    7  C   UNL     2     -10.001  10.535  69.224  1.00  0.00    -0.233 C  
HETATM    8  C   UNL     2     -10.478   8.245  68.251  1.00  0.00    -0.211 C  
HETATM    9  C   UNL     2     -11.244  10.568  70.105  1.00  0.00    -0.389 C  
BRANCH   8  10
HETATM   10  C   UNL     2     -10.517   7.295  67.054  1.00  0.00    -0.398 C  
BRANCH  10  11
HETATM   11  C   UNL     2      -9.784   5.944  67.208  1.00  0.00    -0.127 C  
BRANCH  11  12
HETATM   12  C   UNL     2     -10.234   5.223  68.502  1.00  0.00    -0.214 C  
HETATM   13  C   UNL     2      -8.201   5.767  69.974  1.00  0.00    -0.115 C  
HETATM   14  C   UNL     2      -9.102   4.672  69.399  1.00  0.00    -0.159 C  
HETATM   15  C   UNL     2      -9.713   3.877  70.564  1.00  0.00    -0.247 C  
ENDBRANCH  11  12
BRANCH  11  16
HETATM   16  O   UNL     2     -10.103   5.111  66.097  1.00  0.00    -0.190 OA 
HETATM   17  O   UNL     2      -7.877   4.106  66.103  1.00  0.00    -0.093 OA 
HETATM   18  O   UNL     2      -9.545   3.416  64.443  1.00  0.00    -0.143 OA 
HETATM   19  S   UNL     2      -8.906   4.519  65.154  1.00  0.00    -0.148 S  
HETATM   20  O   UNL     2      -8.510   5.641  64.315  1.00  0.00    -0.122 OA 
ENDBRANCH  11  16
ENDBRANCH  10  11
ENDBRANCH   8  10
ENDBRANCH   4   5
ENDBRANCH   3   4
TORSDOF 6
ENDMDL
MODEL      287
REMARK 921   NORMALIZED FREE ENERGY PREDICTED BY IDOCK:   -2.93 KCAL/MOL
REMARK 922        TOTAL FREE ENERGY PREDICTED BY IDOCK:   -5.16 KCAL/MOL
REMARK 923 INTER-LIGAND FREE ENERGY PREDICTED BY IDOCK:   -4.43 KCAL/MOL
REMARK 924 INTRA-LIGAND FREE ENERGY PREDICTED BY IDOCK:   -0.73 KCAL/MOL
REMARK 927      BINDING AFFINITY PREDICTED BY RF-SCORE:    0.00 PKD
ROOT
HETATM    1 NA   UNL     1      -7.370   9.003  64.062  1.00  0.00    -0.091 Na 
HETATM    2  C   UNL     2      -8.735   6.046  65.854  1.00  0.00    -0.157 C  
HETATM    3  C   UNL     2      -7.858   6.397  67.048  1.00  0.00    -0.104 C  
ENDROOT
BRANCH   3   4
HETATM    4  C   UNL     2      -7.140   7.727  66.828  1.00  0.00    -0.080 C  
BRANCH   4   5
HETATM    5  C   UNL     2      -8.023   8.957  67.058  1.00  0.00    -0.102 C  
HETATM    6  C   UNL     2      -8.801   9.002  68.396  1.00  0.00    -0.134 C  
HETATM    7  C   UNL     2      -7.905   8.823  69.643  1.00  0.00    -0.090 C  
HETATM    8  C   UNL     2      -9.630  10.303  68.523  1.00  0.00    -0.165 C  
HETATM    9  C   UNL     2      -6.911   9.948  69.902  1.00  0.00    -0.096 C  
BRANCH   8  10
HETATM   10  C   UNL     2     -10.653  10.540  67.412  1.00  0.00    -0.313 C  
BRANCH  10  11
HETATM   11  C   UNL     2     -11.252  11.960  67.303  1.00  0.00    -0.317 C  
BRANCH  11  12
HETATM   12  C   UNL     2     -10.828  12.826  68.513  1.00  0.00    -0.279 C  
HETATM   13  C   UNL     2     -11.734  15.089  67.703  1.00  0.00    -0.281 C  
HETATM   14  C   UNL     2     -10.517  14.309  68.209  1.00  0.00    -0.247 C  
HETATM   15  C   UNL     2      -9.991  14.994  69.479  1.00  0.00    -0.152 C  
ENDBRANCH  11  12
BRANCH  11  16
HETATM   16  O   UNL     2     -10.765  12.581  66.116  1.00  0.00    -0.254 OA 
HETATM   17  O   UNL     2     -13.011  12.721  65.167  1.00  0.00    -0.768 OA 
HETATM   18  O   UNL     2     -11.080  13.559  63.910  1.00  0.00    -0.272 OA 
HETATM   19  S   UNL     2     -11.636  12.491  64.735  1.00  0.00    -0.354 S  
HETATM   20  O   UNL     2     -11.397  11.144  64.237  1.00  0.00    -0.177 OA 
ENDBRANCH  11  16
ENDBRANCH  10  11
ENDBRANCH   8  10
ENDBRANCH   4   5
ENDBRANCH   3   4
TORSDOF 6
ENDMDL
MODEL      288
REMARK 921   NORMALIZED FREE ENERGY PREDICTED BY IDOCK:   -2.92 KCAL/MOL
REMARK 922        TOTAL FREE ENERGY PREDICTED BY IDOCK:   -5.15 KCAL/MOL
REMARK 923 INTER-LIGAND FREE ENERGY PREDICTED BY IDOCK:   -4.27 KCAL/MOL
REMARK 924 INTRA-LIGAND FREE ENERGY PREDICTED BY IDOCK:   -0.88 KCAL/MOL
REMARK 927      BINDING AFFINITY PREDICTED BY RF-SCORE:    0.00 PKD
ROOT
HETATM    1 NA   UNL     1      -6.119   8.841  70.026  1.00  0.00    -0.033 Na 
HETATM    2  C   UNL     2      -7.745  11.250  67.709  1.00  0.00    -0.113 C  
HETATM    3  C   UNL     2      -8.076  10.093  66.778  1.00  0.00    -0.119 C  
ENDROOT
BRANCH   3   4
HETATM    4  C   UNL     2      -7.693   8.755  67.410  1.00  0.00    -0.097 C  
BRANCH   4   5
HETATM    5  C   UNL     2      -8.506   8.400  68.658  1.00  0.00    -0.128 C  
HETATM    6  C   UNL     2      -9.190   7.011  68.658  1.00  0.00    -0.131 C  
HETATM    7  C   UNL     2      -8.221   5.840  68.377  1.00  0.00    -0.108 C  
HETATM    8  C   UNL     2      -9.953   6.759  69.981  1.00  0.00    -0.189 C  
HETATM    9  C   UNL     2      -7.165   5.592  69.447  1.00  0.00    -0.066 C  
BRANCH   8  10
HETATM   10  C   UNL     2     -11.037   7.783  70.318  1.00  0.00    -0.242 C  
BRANCH  10  11
HETATM   11  C   UNL     2     -11.009   8.391  71.738  1.00  0.00    -0.291 C  
BRANCH  11  12
HETATM   12  C   UNL     2      -9.561   8.436  72.285  1.00  0.00    -0.374 C  
HETATM   13  C   UNL     2      -9.532   6.168  73.488  1.00  0.00    -0.144 C  
HETATM   14  C   UNL     2      -9.313   7.678  73.608  1.00  0.00    -0.344 C  
HETATM   15  C   UNL     2      -7.872   7.928  74.079  1.00  0.00    -0.248 C  
ENDBRANCH  11  12
BRANCH  11  16
HETATM   16  O   UNL     2     -11.508   9.724  71.684  1.00  0.00    -0.364 OA 
HETATM   17  O   UNL     2     -13.482   9.128  72.993  1.00  0.00    -0.270 OA 
HETATM   18  O   UNL     2     -13.169  11.427  72.200  1.00  0.00    -0.490 OA 
HETATM   19  S   UNL     2     -13.106  10.003  71.887  1.00  0.00    -0.449 S  
HETATM   20  O   UNL     2     -13.709   9.629  70.616  1.00  0.00    -0.072 OA 
ENDBRANCH  11  16
ENDBRANCH  10  11
ENDBRANCH   8  10
ENDBRANCH   4   5
ENDBRANCH   3   4
TORSDOF 6
ENDMDL
MODEL      289
REMARK 921   NORMALIZED FREE ENERGY PREDICTED BY IDOCK:   -2.92 KCAL/MOL
REMARK 922        TOTAL FREE ENERGY PREDICTED BY IDOCK:   -5.14 KCAL/MOL
REMARK 923 INTER-LIGAND FREE ENERGY PREDICTED BY IDOCK:   -4.50 KCAL/MOL
REMARK 924 INTRA-LIGAND FREE ENERGY PREDICTED BY IDOCK:   -0.64 KCAL/MOL
REMARK 927      BINDING AFFINITY PREDICTED BY RF-SCORE:    0.00 PKD
ROOT
HETATM    1 NA   UNL     1      -6.749   8.760  67.060  1.00  0.00    -0.056 Na 
HETATM    2  C   UNL     2      -9.288  11.428  66.564  1.00  0.00    -0.204 C  
HETATM    3  C   UNL     2     -10.116  10.452  65.741  1.00  0.00    -0.329 C  
ENDROOT
BRANCH   3   4
HETATM    4  C   UNL     2      -9.500   9.054  65.765  1.00  0.00    -0.305 C  
BRANCH   4   5
HETATM    5  C   UNL     2      -9.763   8.280  67.061  1.00  0.00    -0.274 C  
HETATM    6  C   UNL     2     -10.076   6.771  66.905  1.00  0.00    -0.268 C  
HETATM    7  C   UNL     2      -9.011   5.995  66.097  1.00  0.00    -0.160 C  
HETATM    8  C   UNL     2     -10.293   6.096  68.281  1.00  0.00    -0.239 C  
HETATM    9  C   UNL     2      -7.639   5.893  66.752  1.00  0.00    -0.099 C  
BRANCH   8  10
HETATM   10  C   UNL     2     -11.412   6.691  69.135  1.00  0.00    -0.199 C  
BRANCH  10  11
HETATM   11  C   UNL     2     -10.987   7.579  70.325  1.00  0.00    -0.250 C  
BRANCH  11  12
HETATM   12  C   UNL     2      -9.630   8.266  70.039  1.00  0.00    -0.168 C  
HETATM   13  C   UNL     2      -8.074   6.445  70.965  1.00  0.00    -0.121 C  
HETATM   14  C   UNL     2      -8.478   7.920  71.010  1.00  0.00    -0.125 C  
HETATM   15  C   UNL     2      -7.248   8.775  70.670  1.00  0.00    -0.066 C  
ENDBRANCH  11  12
BRANCH  11  16
HETATM   16  O   UNL     2     -11.968   8.594  70.523  1.00  0.00    -0.128 OA 
HETATM   17  O   UNL     2     -11.899   8.306  72.948  1.00  0.00    -0.337 OA 
HETATM   18  O   UNL     2     -13.402   9.960  71.938  1.00  0.00    -0.407 OA 
HETATM   19  S   UNL     2     -12.862   8.605  71.892  1.00  0.00    -0.391 S  
HETATM   20  O   UNL     2     -13.854   7.558  71.693  1.00  0.00    -0.377 OA 
ENDBRANCH  11  16
ENDBRANCH  10  11
ENDBRANCH   8  10
ENDBRANCH   4   5
ENDBRANCH   3   4
TORSDOF 6
ENDMDL
MODEL      290
REMARK 921   NORMALIZED FREE ENERGY PREDICTED BY IDOCK:   -2.86 KCAL/MOL
REMARK 922        TOTAL FREE ENERGY PREDICTED BY IDOCK:   -5.06 KCAL/MOL
REMARK 923 INTER-LIGAND FREE ENERGY PREDICTED BY IDOCK:   -4.76 KCAL/MOL
REMARK 924 INTRA-LIGAND FREE ENERGY PREDICTED BY IDOCK:   -0.31 KCAL/MOL
REMARK 927      BINDING AFFINITY PREDICTED BY RF-SCORE:    0.00 PKD
ROOT
HETATM    1 NA   UNL     1     -13.522   6.974  70.123  1.00  0.00    -0.642 Na 
HETATM    2  C   UNL     2     -10.899   9.202  71.525  1.00  0.00    -0.436 C  
HETATM    3  C   UNL     2      -9.947   8.723  70.438  1.00  0.00    -0.219 C  
ENDROOT
BRANCH   3   4
HETATM    4  C   UNL     2     -10.665   7.812  69.444  1.00  0.00    -0.177 C  
BRANCH   4   5
HETATM    5  C   UNL     2     -10.553   8.271  67.986  1.00  0.00    -0.188 C  
HETATM    6  C   UNL     2      -9.128   8.284  67.380  1.00  0.00    -0.155 C  
HETATM    7  C   UNL     2      -8.384   6.936  67.509  1.00  0.00    -0.123 C  
HETATM    8  C   UNL     2      -9.150   8.735  65.899  1.00  0.00    -0.271 C  
HETATM    9  C   UNL     2      -8.977   5.781  66.712  1.00  0.00    -0.118 C  
BRANCH   8  10
HETATM   10  C   UNL     2      -9.750  10.118  65.644  1.00  0.00    -0.322 C  
BRANCH  10  11
HETATM   11  C   UNL     2      -9.107  11.308  66.391  1.00  0.00    -0.192 C  
BRANCH  11  12
HETATM   12  C   UNL     2     -10.159  12.040  67.260  1.00  0.00    -0.208 C  
HETATM   13  C   UNL     2     -11.808  12.693  65.403  1.00  0.00    -0.473 C  
HETATM   14  C   UNL     2     -10.938  13.179  66.565  1.00  0.00    -0.303 C  
HETATM   15  C   UNL     2     -11.839  13.883  67.590  1.00  0.00    -0.422 C  
ENDBRANCH  11  12
BRANCH  11  16
HETATM   16  O   UNL     2      -8.080  10.819  67.249  1.00  0.00    -0.114 OA 
HETATM   17  O   UNL     2      -6.764  12.858  66.974  1.00  0.00    -0.100 OA 
HETATM   18  O   UNL     2      -5.939  11.032  68.387  1.00  0.00    -0.043 OA 
HETATM   19  S   UNL     2      -6.564  11.421  67.127  1.00  0.00    -0.131 S  
HETATM   20  O   UNL     2      -6.008  10.779  65.944  1.00  0.00    -0.120 OA 
ENDBRANCH  11  16
ENDBRANCH  10  11
ENDBRANCH   8  10
ENDBRANCH   4   5
ENDBRANCH   3   4
TORSDOF 6
ENDMDL
MODEL      291
REMARK 921   NORMALIZED FREE ENERGY PREDICTED BY IDOCK:   -2.86 KCAL/MOL
REMARK 922        TOTAL FREE ENERGY PREDICTED BY IDOCK:   -5.06 KCAL/MOL
REMARK 923 INTER-LIGAND FREE ENERGY PREDICTED BY IDOCK:   -4.15 KCAL/MOL
REMARK 924 INTRA-LIGAND FREE ENERGY PREDICTED BY IDOCK:   -0.91 KCAL/MOL
REMARK 927      BINDING AFFINITY PREDICTED BY RF-SCORE:    0.00 PKD
ROOT
HETATM    1 NA   UNL     1      -8.971   9.986  65.266  1.00  0.00    -0.139 Na 
HETATM    2  C   UNL     2     -11.797  11.971  63.891  1.00  0.00    -0.543 C  
HETATM    3  C   UNL     2     -12.056  12.521  65.286  1.00  0.00    -0.500 C  
ENDROOT
BRANCH   3   4
HETATM    4  C   UNL     2     -10.977  12.062  66.265  1.00  0.00    -0.340 C  
BRANCH   4   5
HETATM    5  C   UNL     2     -11.155  10.622  66.757  1.00  0.00    -0.103 C  
HETATM    6  C   UNL     2     -10.270  10.193  67.953  1.00  0.00    -0.217 C  
HETATM    7  C   UNL     2     -10.382  11.128  69.178  1.00  0.00    -0.186 C  
HETATM    8  C   UNL     2     -10.562   8.732  68.375  1.00  0.00    -0.185 C  
HETATM    9  C   UNL     2     -11.739  11.140  69.871  1.00  0.00    -0.433 C  
BRANCH   8  10
HETATM   10  C   UNL     2     -10.364   7.682  67.282  1.00  0.00    -0.367 C  
BRANCH  10  11
HETATM   11  C   UNL     2      -9.180   6.705  67.456  1.00  0.00    -0.114 C  
BRANCH  11  12
HETATM   12  C   UNL     2      -8.152   7.267  68.468  1.00  0.00    -0.125 C  
HETATM   13  C   UNL     2      -6.487   8.286  66.799  1.00  0.00    -0.056 C  
HETATM   14  C   UNL     2      -6.687   7.332  67.979  1.00  0.00    -0.058 C  
HETATM   15  C   UNL     2      -5.781   7.785  69.134  1.00  0.00    -0.030 C  
ENDBRANCH  11  12
BRANCH  11  16
HETATM   16  O   UNL     2      -9.671   5.465  67.959  1.00  0.00    -0.125 OA 
HETATM   17  O   UNL     2      -8.008   4.198  66.695  1.00  0.00    -0.096 OA 
HETATM   18  O   UNL     2      -9.637   3.036  68.113  1.00  0.00    -0.184 OA 
HETATM   19  S   UNL     2      -9.398   4.084  67.126  1.00  0.00    -0.195 S  
HETATM   20  O   UNL     2     -10.355   4.122  66.030  1.00  0.00    -0.155 OA 
ENDBRANCH  11  16
ENDBRANCH  10  11
ENDBRANCH   8  10
ENDBRANCH   4   5
ENDBRANCH   3   4
TORSDOF 6
ENDMDL
MODEL      292
REMARK 921   NORMALIZED FREE ENERGY PREDICTED BY IDOCK:   -2.86 KCAL/MOL
REMARK 922        TOTAL FREE ENERGY PREDICTED BY IDOCK:   -5.06 KCAL/MOL
REMARK 923 INTER-LIGAND FREE ENERGY PREDICTED BY IDOCK:   -4.79 KCAL/MOL
REMARK 924 INTRA-LIGAND FREE ENERGY PREDICTED BY IDOCK:   -0.28 KCAL/MOL
REMARK 927      BINDING AFFINITY PREDICTED BY RF-SCORE:    0.00 PKD
ROOT
HETATM    1 NA   UNL     1     -13.813   9.796  69.787  1.00  0.00    -0.555 Na 
HETATM    2  C   UNL     2     -10.130   9.883  70.280  1.00  0.00    -0.295 C  
HETATM    3  C   UNL     2      -9.976  10.377  68.849  1.00  0.00    -0.208 C  
ENDROOT
BRANCH   3   4
HETATM    4  C   UNL     2     -11.338  10.648  68.213  1.00  0.00    -0.357 C  
BRANCH   4   5
HETATM    5  C   UNL     2     -11.410  11.963  67.430  1.00  0.00    -0.389 C  
HETATM    6  C   UNL     2     -10.102  12.421  66.739  1.00  0.00    -0.226 C  
HETATM    7  C   UNL     2      -9.481  11.352  65.811  1.00  0.00    -0.256 C  
HETATM    8  C   UNL     2     -10.310  13.742  65.959  1.00  0.00    -0.311 C  
HETATM    9  C   UNL     2     -10.301  11.002  64.575  1.00  0.00    -0.420 C  
BRANCH   8  10
HETATM   10  C   UNL     2     -10.805  14.925  66.792  1.00  0.00    -0.320 C  
BRANCH  10  11
HETATM   11  C   UNL     2      -9.767  15.627  67.695  1.00  0.00    -0.225 C  
BRANCH  11  12
HETATM   12  C   UNL     2      -8.436  14.837  67.716  1.00  0.00    -0.169 C  
HETATM   13  C   UNL     2      -7.091  16.388  69.258  1.00  0.00    -0.222 C  
HETATM   14  C   UNL     2      -7.153  15.676  67.905  1.00  0.00    -0.153 C  
HETATM   15  C   UNL     2      -5.921  14.767  67.773  1.00  0.00    -0.124 C  
ENDBRANCH  11  12
BRANCH  11  16
HETATM   16  O   UNL     2      -9.505  16.929  67.178  1.00  0.00    -0.230 OA 
HETATM   17  O   UNL     2     -10.135  17.986  69.287  1.00  0.00    -0.282 OA 
HETATM   18  O   UNL     2      -9.418  19.353  67.382  1.00  0.00    -0.303 OA 
HETATM   19  S   UNL     2     -10.226  18.232  67.852  1.00  0.00    -0.400 S  
HETATM   20  O   UNL     2     -11.589  18.204  67.340  1.00  0.00     0.660 OA 
ENDBRANCH  11  16
ENDBRANCH  10  11
ENDBRANCH   8  10
ENDBRANCH   4   5
ENDBRANCH   3   4
TORSDOF 6
ENDMDL
MODEL      293
REMARK 921   NORMALIZED FREE ENERGY PREDICTED BY IDOCK:   -2.86 KCAL/MOL
REMARK 922        TOTAL FREE ENERGY PREDICTED BY IDOCK:   -5.06 KCAL/MOL
REMARK 923 INTER-LIGAND FREE ENERGY PREDICTED BY IDOCK:   -3.76 KCAL/MOL
REMARK 924 INTRA-LIGAND FREE ENERGY PREDICTED BY IDOCK:   -1.30 KCAL/MOL
REMARK 927      BINDING AFFINITY PREDICTED BY RF-SCORE:    0.00 PKD
ROOT
HETATM    1 NA   UNL     1      -6.766   6.169  73.545  1.00  0.00    -0.064 Na 
HETATM    2  C   UNL     2     -10.401   6.855  73.908  1.00  0.00    -0.398 C  
HETATM    3  C   UNL     2     -10.337   7.720  72.658  1.00  0.00    -0.352 C  
ENDROOT
BRANCH   3   4
HETATM    4  C   UNL     2      -8.956   7.643  72.008  1.00  0.00    -0.158 C  
BRANCH   4   5
HETATM    5  C   UNL     2      -8.940   6.904  70.666  1.00  0.00    -0.151 C  
HETATM    6  C   UNL     2      -8.140   5.579  70.624  1.00  0.00    -0.115 C  
HETATM    7  C   UNL     2      -8.555   4.566  71.715  1.00  0.00    -0.125 C  
HETATM    8  C   UNL     2      -8.224   4.914  69.228  1.00  0.00    -0.081 C  
HETATM    9  C   UNL     2      -9.965   4.005  71.586  1.00  0.00    -0.232 C  
BRANCH   8  10
HETATM   10  C   UNL     2      -7.721   5.768  68.064  1.00  0.00    -0.096 C  
BRANCH  10  11
HETATM   11  C   UNL     2      -8.759   6.176  66.995  1.00  0.00    -0.107 C  
BRANCH  11  12
HETATM   12  C   UNL     2      -8.548   7.647  66.561  1.00  0.00    -0.142 C  
HETATM   13  C   UNL     2     -10.460   8.720  67.899  1.00  0.00    -0.275 C  
HETATM   14  C   UNL     2      -9.816   8.529  66.523  1.00  0.00    -0.342 C  
HETATM   15  C   UNL     2      -9.462   9.911  65.952  1.00  0.00    -0.272 C  
ENDBRANCH  11  12
BRANCH  11  16
HETATM   16  O   UNL     2      -8.598   5.344  65.849  1.00  0.00    -0.122 OA 
HETATM   17  O   UNL     2     -10.999   4.913  65.722  1.00  0.00    -0.230 OA 
HETATM   18  O   UNL     2      -9.469   3.900  64.094  1.00  0.00    -0.143 OA 
HETATM   19  S   UNL     2      -9.734   4.223  65.493  1.00  0.00    -0.216 S  
HETATM   20  O   UNL     2      -9.484   3.136  66.429  1.00  0.00    -0.141 OA 
ENDBRANCH  11  16
ENDBRANCH  10  11
ENDBRANCH   8  10
ENDBRANCH   4   5
ENDBRANCH   3   4
TORSDOF 6
ENDMDL
MODEL      294
REMARK 921   NORMALIZED FREE ENERGY PREDICTED BY IDOCK:   -2.85 KCAL/MOL
REMARK 922        TOTAL FREE ENERGY PREDICTED BY IDOCK:   -5.06 KCAL/MOL
REMARK 923 INTER-LIGAND FREE ENERGY PREDICTED BY IDOCK:   -5.56 KCAL/MOL
REMARK 924 INTRA-LIGAND FREE ENERGY PREDICTED BY IDOCK:    0.50 KCAL/MOL
REMARK 927      BINDING AFFINITY PREDICTED BY RF-SCORE:    0.00 PKD
ROOT
HETATM    1 NA   UNL     1     -10.961  11.524  70.588  1.00  0.00    -0.455 Na 
HETATM    2  C   UNL     2      -8.196   9.132  71.253  1.00  0.00    -0.084 C  
HETATM    3  C   UNL     2      -9.119   7.991  70.852  1.00  0.00    -0.161 C  
ENDROOT
BRANCH   3   4
HETATM    4  C   UNL     2     -10.450   8.524  70.324  1.00  0.00    -0.233 C  
BRANCH   4   5
HETATM    5  C   UNL     2     -10.314   9.454  69.114  1.00  0.00    -0.221 C  
HETATM    6  C   UNL     2      -9.246   9.059  68.064  1.00  0.00    -0.143 C  
HETATM    7  C   UNL     2      -9.398   7.615  67.535  1.00  0.00    -0.159 C  
HETATM    8  C   UNL     2      -9.226  10.056  66.880  1.00  0.00    -0.169 C  
HETATM    9  C   UNL     2     -10.655   7.345  66.719  1.00  0.00    -0.281 C  
BRANCH   8  10
HETATM   10  C   UNL     2      -8.957  11.514  67.255  1.00  0.00    -0.162 C  
BRANCH  10  11
HETATM   11  C   UNL     2      -9.627  12.596  66.380  1.00  0.00    -0.248 C  
BRANCH  11  12
HETATM   12  C   UNL     2     -10.851  12.015  65.632  1.00  0.00    -0.325 C  
HETATM   13  C   UNL     2      -9.743  11.587  63.355  1.00  0.00    -0.379 C  
HETATM   14  C   UNL     2     -10.893  12.262  64.107  1.00  0.00    -0.412 C  
HETATM   15  C   UNL     2     -12.222  11.741  63.540  1.00  0.00    -0.489 C  
ENDBRANCH  11  12
BRANCH  11  16
HETATM   16  O   UNL     2     -10.077  13.658  67.217  1.00  0.00    -0.235 OA 
HETATM   17  O   UNL     2     -11.844  12.268  68.173  1.00  0.00    -0.343 OA 
HETATM   18  O   UNL     2     -11.570  14.596  68.895  1.00  0.00    -0.279 OA 
HETATM   19  S   UNL     2     -11.612  13.655  67.780  1.00  0.00    -0.359 S  
HETATM   20  O   UNL     2     -12.420  14.083  66.647  1.00  0.00    -0.420 OA 
ENDBRANCH  11  16
ENDBRANCH  10  11
ENDBRANCH   8  10
ENDBRANCH   4   5
ENDBRANCH   3   4
TORSDOF 6
ENDMDL
MODEL      295
REMARK 921   NORMALIZED FREE ENERGY PREDICTED BY IDOCK:   -2.85 KCAL/MOL
REMARK 922        TOTAL FREE ENERGY PREDICTED BY IDOCK:   -5.05 KCAL/MOL
REMARK 923 INTER-LIGAND FREE ENERGY PREDICTED BY IDOCK:   -4.43 KCAL/MOL
REMARK 924 INTRA-LIGAND FREE ENERGY PREDICTED BY IDOCK:   -0.62 KCAL/MOL
REMARK 927      BINDING AFFINITY PREDICTED BY RF-SCORE:    0.00 PKD
ROOT
HETATM    1 NA   UNL     1     -14.173  16.261  69.538  1.00  0.00    -0.187 Na 
HETATM    2  C   UNL     2     -12.264  15.999  72.717  1.00  0.00    -0.617 C  
HETATM    3  C   UNL     2     -11.168  15.255  71.968  1.00  0.00    -0.323 C  
ENDROOT
BRANCH   3   4
HETATM    4  C   UNL     2     -11.455  15.222  70.468  1.00  0.00    -0.342 C  
BRANCH   4   5
HETATM    5  C   UNL     2     -10.366  14.534  69.639  1.00  0.00     0.043 C  
HETATM    6  C   UNL     2     -10.854  13.575  68.526  1.00  0.00    -0.283 C  
HETATM    7  C   UNL     2     -11.857  14.223  67.543  1.00  0.00    -0.429 C  
HETATM    8  C   UNL     2      -9.665  12.967  67.743  1.00  0.00    -0.218 C  
HETATM    9  C   UNL     2     -11.292  15.340  66.674  1.00  0.00    -0.170 C  
BRANCH   8  10
HETATM   10  C   UNL     2      -8.657  12.185  68.586  1.00  0.00     0.003 C  
BRANCH  10  11
HETATM   11  C   UNL     2      -8.968  10.693  68.842  1.00  0.00    -0.168 C  
BRANCH  11  12
HETATM   12  C   UNL     2     -10.230  10.541  69.725  1.00  0.00    -0.168 C  
HETATM   13  C   UNL     2      -9.316   8.834  71.412  1.00  0.00    -0.328 C  
HETATM   14  C   UNL     2     -10.420   9.166  70.404  1.00  0.00    -0.268 C  
HETATM   15  C   UNL     2     -11.773   9.136  71.131  1.00  0.00    -0.380 C  
ENDBRANCH  11  12
BRANCH  11  16
HETATM   16  O   UNL     2      -9.214  10.048  67.595  1.00  0.00    -0.136 OA 
HETATM   17  O   UNL     2      -7.276   8.588  67.871  1.00  0.00    -0.084 OA 
HETATM   18  O   UNL     2      -8.678   8.422  65.865  1.00  0.00    -0.151 OA 
HETATM   19  S   UNL     2      -7.992   9.295  66.814  1.00  0.00    -0.108 S  
HETATM   20  O   UNL     2      -7.223  10.373  66.207  1.00  0.00    -0.113 OA 
ENDBRANCH  11  16
ENDBRANCH  10  11
ENDBRANCH   8  10
ENDBRANCH   4   5
ENDBRANCH   3   4
TORSDOF 6
ENDMDL
MODEL      296
REMARK 921   NORMALIZED FREE ENERGY PREDICTED BY IDOCK:   -2.84 KCAL/MOL
REMARK 922        TOTAL FREE ENERGY PREDICTED BY IDOCK:   -5.05 KCAL/MOL
REMARK 923 INTER-LIGAND FREE ENERGY PREDICTED BY IDOCK:   -5.47 KCAL/MOL
REMARK 924 INTRA-LIGAND FREE ENERGY PREDICTED BY IDOCK:    0.42 KCAL/MOL
REMARK 927      BINDING AFFINITY PREDICTED BY RF-SCORE:    0.00 PKD
ROOT
HETATM    1 NA   UNL     1     -10.012   2.932  68.544  1.00  0.00    -0.182 Na 
HETATM    2  C   UNL     2      -8.890   4.799  71.555  1.00  0.00    -0.151 C  
HETATM    3  C   UNL     2      -9.884   5.899  71.212  1.00  0.00    -0.215 C  
ENDROOT
BRANCH   3   4
HETATM    4  C   UNL     2     -10.754   5.500  70.022  1.00  0.00    -0.356 C  
BRANCH   4   5
HETATM    5  C   UNL     2     -10.970   6.623  69.003  1.00  0.00    -0.332 C  
HETATM    6  C   UNL     2      -9.854   6.811  67.945  1.00  0.00    -0.146 C  
HETATM    7  C   UNL     2      -9.514   5.522  67.163  1.00  0.00    -0.122 C  
HETATM    8  C   UNL     2     -10.201   7.952  66.958  1.00  0.00    -0.382 C  
HETATM    9  C   UNL     2     -10.621   4.993  66.260  1.00  0.00    -0.332 C  
BRANCH   8  10
HETATM   10  C   UNL     2     -10.438   9.321  67.595  1.00  0.00    -0.325 C  
BRANCH  10  11
HETATM   11  C   UNL     2      -9.738  10.530  66.937  1.00  0.00    -0.180 C  
BRANCH  11  12
HETATM   12  C   UNL     2     -10.414  10.888  65.591  1.00  0.00    -0.274 C  
HETATM   13  C   UNL     2      -8.857   9.583  64.020  1.00  0.00    -0.243 C  
HETATM   14  C   UNL     2      -9.483  10.938  64.358  1.00  0.00    -0.287 C  
HETATM   15  C   UNL     2     -10.276  11.430  63.138  1.00  0.00    -0.380 C  
ENDBRANCH  11  12
BRANCH  11  16
HETATM   16  O   UNL     2      -9.842  11.657  67.803  1.00  0.00    -0.173 OA 
HETATM   17  O   UNL     2     -12.283  11.601  67.720  1.00  0.00    -0.560 OA 
HETATM   18  O   UNL     2     -11.126  13.312  69.043  1.00  0.00    -0.255 OA 
HETATM   19  S   UNL     2     -11.196  12.573  67.786  1.00  0.00    -0.289 S  
HETATM   20  O   UNL     2     -11.072  13.391  66.588  1.00  0.00    -0.288 OA 
ENDBRANCH  11  16
ENDBRANCH  10  11
ENDBRANCH   8  10
ENDBRANCH   4   5
ENDBRANCH   3   4
TORSDOF 6
ENDMDL
MODEL      297
REMARK 921   NORMALIZED FREE ENERGY PREDICTED BY IDOCK:   -2.84 KCAL/MOL
REMARK 922        TOTAL FREE ENERGY PREDICTED BY IDOCK:   -5.05 KCAL/MOL
REMARK 923 INTER-LIGAND FREE ENERGY PREDICTED BY IDOCK:   -5.31 KCAL/MOL
REMARK 924 INTRA-LIGAND FREE ENERGY PREDICTED BY IDOCK:    0.26 KCAL/MOL
REMARK 927      BINDING AFFINITY PREDICTED BY RF-SCORE:    0.00 PKD
ROOT
HETATM    1 NA   UNL     1     -11.344  11.370  70.962  1.00  0.00    -0.357 Na 
HETATM    2  C   UNL     2      -8.377   9.140  70.770  1.00  0.00    -0.248 C  
HETATM    3  C   UNL     2      -9.012   8.440  69.577  1.00  0.00    -0.149 C  
ENDROOT
BRANCH   3   4
HETATM    4  C   UNL     2     -10.300   9.143  69.151  1.00  0.00    -0.223 C  
BRANCH   4   5
HETATM    5  C   UNL     2     -10.081  10.536  68.552  1.00  0.00    -0.187 C  
HETATM    6  C   UNL     2      -8.832  10.707  67.653  1.00  0.00    -0.131 C  
HETATM    7  C   UNL     2      -8.750   9.679  66.501  1.00  0.00    -0.147 C  
HETATM    8  C   UNL     2      -8.739  12.144  67.086  1.00  0.00    -0.190 C  
HETATM    9  C   UNL     2      -9.834   9.798  65.438  1.00  0.00    -0.365 C  
BRANCH   8  10
HETATM   10  C   UNL     2      -8.683  13.259  68.131  1.00  0.00    -0.179 C  
BRANCH  10  11
HETATM   11  C   UNL     2      -9.726  14.391  68.002  1.00  0.00    -0.221 C  
BRANCH  11  12
HETATM   12  C   UNL     2     -11.020  13.869  67.332  1.00  0.00    -0.299 C  
HETATM   13  C   UNL     2     -10.470  14.486  64.900  1.00  0.00    -0.435 C  
HETATM   14  C   UNL     2     -11.468  14.614  66.053  1.00  0.00    -0.332 C  
HETATM   15  C   UNL     2     -12.825  14.064  65.589  1.00  0.00    -0.442 C  
ENDBRANCH  11  12
BRANCH  11  16
HETATM   16  O   UNL     2     -10.058  14.869  69.303  1.00  0.00    -0.224 OA 
HETATM   17  O   UNL     2     -11.915  13.294  69.500  1.00  0.00    -0.307 OA 
HETATM   18  O   UNL     2     -11.417  14.857  71.323  1.00  0.00    -0.325 OA 
HETATM   19  S   UNL     2     -11.572  14.659  69.885  1.00  0.00    -0.298 S  
HETATM   20  O   UNL     2     -12.369  15.674  69.210  1.00  0.00    -0.246 OA 
ENDBRANCH  11  16
ENDBRANCH  10  11
ENDBRANCH   8  10
ENDBRANCH   4   5
ENDBRANCH   3   4
TORSDOF 6
ENDMDL
MODEL      298
REMARK 921   NORMALIZED FREE ENERGY PREDICTED BY IDOCK:   -2.83 KCAL/MOL
REMARK 922        TOTAL FREE ENERGY PREDICTED BY IDOCK:   -5.02 KCAL/MOL
REMARK 923 INTER-LIGAND FREE ENERGY PREDICTED BY IDOCK:   -5.12 KCAL/MOL
REMARK 924 INTRA-LIGAND FREE ENERGY PREDICTED BY IDOCK:    0.10 KCAL/MOL
REMARK 927      BINDING AFFINITY PREDICTED BY RF-SCORE:    0.00 PKD
ROOT
HETATM    1 NA   UNL     1      -9.172   8.411  74.563  1.00  0.00    -0.399 Na 
HETATM    2  C   UNL     2      -6.201   7.691  72.449  1.00  0.00    -0.043 C  
HETATM    3  C   UNL     2      -6.943   6.502  71.856  1.00  0.00    -0.072 C  
ENDROOT
BRANCH   3   4
HETATM    4  C   UNL     2      -8.386   6.451  72.356  1.00  0.00    -0.106 C  
BRANCH   4   5
HETATM    5  C   UNL     2      -9.350   7.346  71.571  1.00  0.00    -0.154 C  
HETATM    6  C   UNL     2      -9.114   7.432  70.043  1.00  0.00    -0.148 C  
HETATM    7  C   UNL     2      -9.071   6.055  69.342  1.00  0.00    -0.135 C  
HETATM    8  C   UNL     2     -10.167   8.339  69.361  1.00  0.00    -0.204 C  
HETATM    9  C   UNL     2     -10.382   5.278  69.345  1.00  0.00    -0.313 C  
BRANCH   8  10
HETATM   10  C   UNL     2     -10.226   9.777  69.878  1.00  0.00    -0.291 C  
BRANCH  10  11
HETATM   11  C   UNL     2     -11.319  10.690  69.280  1.00  0.00    -0.282 C  
BRANCH  11  12
HETATM   12  C   UNL     2     -12.438  10.955  70.316  1.00  0.00    -0.383 C  
HETATM   13  C   UNL     2     -12.502  13.518  70.169  1.00  0.00    -0.276 C  
HETATM   14  C   UNL     2     -12.352  12.296  71.079  1.00  0.00    -0.320 C  
HETATM   15  C   UNL     2     -13.450  12.347  72.152  1.00  0.00    -0.481 C  
ENDBRANCH  11  12
BRANCH  11  16
HETATM   16  O   UNL     2     -10.736  11.941  68.922  1.00  0.00    -0.221 OA 
HETATM   17  O   UNL     2     -12.034  12.051  66.856  1.00  0.00    -0.612 OA 
HETATM   18  O   UNL     2     -10.463  13.844  67.430  1.00  0.00    -0.260 OA 
HETATM   19  S   UNL     2     -10.710  12.408  67.356  1.00  0.00    -0.235 S  
HETATM   20  O   UNL     2      -9.633  11.632  66.759  1.00  0.00    -0.186 OA 
ENDBRANCH  11  16
ENDBRANCH  10  11
ENDBRANCH   8  10
ENDBRANCH   4   5
ENDBRANCH   3   4
TORSDOF 6
ENDMDL
MODEL      299
REMARK 921   NORMALIZED FREE ENERGY PREDICTED BY IDOCK:   -2.82 KCAL/MOL
REMARK 922        TOTAL FREE ENERGY PREDICTED BY IDOCK:   -5.02 KCAL/MOL
REMARK 923 INTER-LIGAND FREE ENERGY PREDICTED BY IDOCK:   -3.95 KCAL/MOL
REMARK 924 INTRA-LIGAND FREE ENERGY PREDICTED BY IDOCK:   -1.07 KCAL/MOL
REMARK 927      BINDING AFFINITY PREDICTED BY RF-SCORE:    0.00 PKD
ROOT
HETATM    1 NA   UNL     1      -7.030   6.814  71.334  1.00  0.00    -0.057 Na 
HETATM    2  C   UNL     2      -8.440   3.383  71.560  1.00  0.00    -0.091 C  
HETATM    3  C   UNL     2      -9.828   3.965  71.330  1.00  0.00    -0.243 C  
ENDROOT
BRANCH   3   4
HETATM    4  C   UNL     2      -9.750   5.460  71.024  1.00  0.00    -0.235 C  
BRANCH   4   5
HETATM    5  C   UNL     2     -10.125   5.821  69.584  1.00  0.00    -0.276 C  
HETATM    6  C   UNL     2      -9.016   6.488  68.734  1.00  0.00    -0.124 C  
HETATM    7  C   UNL     2      -7.697   5.683  68.691  1.00  0.00    -0.092 C  
HETATM    8  C   UNL     2      -9.505   6.776  67.294  1.00  0.00    -0.156 C  
HETATM    9  C   UNL     2      -7.773   4.337  67.981  1.00  0.00    -0.075 C  
BRANCH   8  10
HETATM   10  C   UNL     2     -10.738   7.674  67.188  1.00  0.00    -0.361 C  
BRANCH  10  11
HETATM   11  C   UNL     2     -10.495   9.159  66.843  1.00  0.00    -0.217 C  
BRANCH  11  12
HETATM   12  C   UNL     2     -10.981  10.075  67.992  1.00  0.00    -0.296 C  
HETATM   13  C   UNL     2     -11.781  12.069  66.585  1.00  0.00    -0.331 C  
HETATM   14  C   UNL     2     -10.886  11.596  67.733  1.00  0.00    -0.264 C  
HETATM   15  C   UNL     2     -11.280  12.358  69.007  1.00  0.00    -0.320 C  
ENDBRANCH  11  12
BRANCH  11  16
HETATM   16  O   UNL     2      -9.098   9.372  66.661  1.00  0.00    -0.141 OA 
HETATM   17  O   UNL     2      -9.478  10.738  64.673  1.00  0.00    -0.216 OA 
HETATM   18  O   UNL     2      -7.197  10.312  65.466  1.00  0.00    -0.139 OA 
HETATM   19  S   UNL     2      -8.520   9.763  65.183  1.00  0.00    -0.161 S  
HETATM   20  O   UNL     2      -8.516   8.508  64.446  1.00  0.00    -0.154 OA 
ENDBRANCH  11  16
ENDBRANCH  10  11
ENDBRANCH   8  10
ENDBRANCH   4   5
ENDBRANCH   3   4
TORSDOF 6
ENDMDL
MODEL      300
REMARK 921   NORMALIZED FREE ENERGY PREDICTED BY IDOCK:   -2.82 KCAL/MOL
REMARK 922        TOTAL FREE ENERGY PREDICTED BY IDOCK:   -5.01 KCAL/MOL
REMARK 923 INTER-LIGAND FREE ENERGY PREDICTED BY IDOCK:   -4.28 KCAL/MOL
REMARK 924 INTRA-LIGAND FREE ENERGY PREDICTED BY IDOCK:   -0.73 KCAL/MOL
REMARK 927      BINDING AFFINITY PREDICTED BY RF-SCORE:    0.00 PKD
ROOT
HETATM    1 NA   UNL     1      -7.822   5.478  70.720  1.00  0.00    -0.073 Na 
HETATM    2  C   UNL     2      -7.772   3.245  67.750  1.00  0.00    -0.068 C  
HETATM    3  C   UNL     2      -9.294   3.241  67.759  1.00  0.00    -0.246 C  
ENDROOT
BRANCH   3   4
HETATM    4  C   UNL     2      -9.838   4.207  68.810  1.00  0.00    -0.087 C  
BRANCH   4   5
HETATM    5  C   UNL     2      -9.632   5.685  68.465  1.00  0.00    -0.160 C  
HETATM    6  C   UNL     2     -10.893   6.583  68.521  1.00  0.00    -0.353 C  
HETATM    7  C   UNL     2     -11.648   6.513  69.867  1.00  0.00    -0.433 C  
HETATM    8  C   UNL     2     -10.551   8.055  68.182  1.00  0.00    -0.174 C  
HETATM    9  C   UNL     2     -10.897   7.072  71.069  1.00  0.00    -0.264 C  
BRANCH   8  10
HETATM   10  C   UNL     2      -9.910   8.281  66.813  1.00  0.00    -0.333 C  
BRANCH  10  11
HETATM   11  C   UNL     2      -9.495   9.727  66.465  1.00  0.00    -0.177 C  
BRANCH  11  12
HETATM   12  C   UNL     2      -9.836  10.055  64.991  1.00  0.00    -0.374 C  
HETATM   13  C   UNL     2      -7.745   9.060  63.881  1.00  0.00    -0.125 C  
HETATM   14  C   UNL     2      -8.630  10.296  64.055  1.00  0.00    -0.194 C  
HETATM   15  C   UNL     2      -9.136  10.735  62.671  1.00  0.00    -0.343 C  
ENDBRANCH  11  12
BRANCH  11  16
HETATM   16  O   UNL     2     -10.211  10.632  67.302  1.00  0.00    -0.190 OA 
HETATM   17  O   UNL     2      -8.364  12.230  67.300  1.00  0.00    -0.166 OA 
HETATM   18  O   UNL     2     -10.417  12.710  68.552  1.00  0.00    -0.235 OA 
HETATM   19  S   UNL     2      -9.396  11.727  68.201  1.00  0.00    -0.193 S  
HETATM   20  O   UNL     2      -8.870  10.963  69.323  1.00  0.00    -0.095 OA 
ENDBRANCH  11  16
ENDBRANCH  10  11
ENDBRANCH   8  10
ENDBRANCH   4   5
ENDBRANCH   3   4
TORSDOF 6
ENDMDL
MODEL      301
REMARK 921   NORMALIZED FREE ENERGY PREDICTED BY IDOCK:   -2.81 KCAL/MOL
REMARK 922        TOTAL FREE ENERGY PREDICTED BY IDOCK:   -5.00 KCAL/MOL
REMARK 923 INTER-LIGAND FREE ENERGY PREDICTED BY IDOCK:   -4.00 KCAL/MOL
REMARK 924 INTRA-LIGAND FREE ENERGY PREDICTED BY IDOCK:   -1.00 KCAL/MOL
REMARK 927      BINDING AFFINITY PREDICTED BY RF-SCORE:    0.00 PKD
ROOT
HETATM    1 NA   UNL     1      -8.435   6.690  71.441  1.00  0.00    -0.112 Na 
HETATM    2  C   UNL     2     -11.868   7.767  72.375  1.00  0.00    -0.371 C  
HETATM    3  C   UNL     2     -12.375   7.210  71.053  1.00  0.00    -0.376 C  
ENDROOT
BRANCH   3   4
HETATM    4  C   UNL     2     -11.262   6.481  70.303  1.00  0.00    -0.433 C  
BRANCH   4   5
HETATM    5  C   UNL     2     -10.461   7.376  69.352  1.00  0.00    -0.220 C  
HETATM    6  C   UNL     2      -9.311   6.692  68.573  1.00  0.00    -0.125 C  
HETATM    7  C   UNL     2      -9.753   5.439  67.783  1.00  0.00    -0.160 C  
HETATM    8  C   UNL     2      -8.599   7.689  67.628  1.00  0.00    -0.116 C  
HETATM    9  C   UNL     2     -10.710   5.699  66.626  1.00  0.00    -0.339 C  
BRANCH   8  10
HETATM   10  C   UNL     2      -7.999   8.921  68.306  1.00  0.00    -0.105 C  
BRANCH  10  11
HETATM   11  C   UNL     2      -7.991  10.234  67.491  1.00  0.00    -0.106 C  
BRANCH  11  12
HETATM   12  C   UNL     2      -9.335  10.423  66.745  1.00  0.00    -0.181 C  
HETATM   13  C   UNL     2      -8.594   9.642  64.414  1.00  0.00    -0.208 C  
HETATM   14  C   UNL     2      -9.232  10.761  65.241  1.00  0.00    -0.233 C  
HETATM   15  C   UNL     2     -10.635  11.044  64.682  1.00  0.00    -0.369 C  
ENDBRANCH  11  12
BRANCH  11  16
HETATM   16  O   UNL     2      -7.815  11.333  68.381  1.00  0.00    -0.120 OA 
HETATM   17  O   UNL     2      -6.226  12.410  66.871  1.00  0.00    -0.210 OA 
HETATM   18  O   UNL     2      -6.811  13.459  69.009  1.00  0.00    -0.108 OA 
HETATM   19  S   UNL     2      -6.453  12.234  68.302  1.00  0.00    -0.063 S  
HETATM   20  O   UNL     2      -5.438  11.422  68.958  1.00  0.00    -0.041 OA 
ENDBRANCH  11  16
ENDBRANCH  10  11
ENDBRANCH   8  10
ENDBRANCH   4   5
ENDBRANCH   3   4
TORSDOF 6
ENDMDL
MODEL      302
REMARK 921   NORMALIZED FREE ENERGY PREDICTED BY IDOCK:   -2.80 KCAL/MOL
REMARK 922        TOTAL FREE ENERGY PREDICTED BY IDOCK:   -4.99 KCAL/MOL
REMARK 923 INTER-LIGAND FREE ENERGY PREDICTED BY IDOCK:   -4.48 KCAL/MOL
REMARK 924 INTRA-LIGAND FREE ENERGY PREDICTED BY IDOCK:   -0.51 KCAL/MOL
REMARK 927      BINDING AFFINITY PREDICTED BY RF-SCORE:    0.00 PKD
ROOT
HETATM    1 NA   UNL     1     -12.448   9.355  72.917  1.00  0.00    -0.294 Na 
HETATM    2  C   UNL     2      -9.022   8.059  73.547  1.00  0.00    -0.327 C  
HETATM    3  C   UNL     2      -8.671   8.356  72.097  1.00  0.00    -0.272 C  
ENDROOT
BRANCH   3   4
HETATM    4  C   UNL     2      -9.815   9.084  71.393  1.00  0.00    -0.381 C  
BRANCH   4   5
HETATM    5  C   UNL     2     -10.394   8.325  70.195  1.00  0.00    -0.212 C  
HETATM    6  C   UNL     2     -10.671   6.817  70.409  1.00  0.00    -0.281 C  
HETATM    7  C   UNL     2     -11.563   6.516  71.635  1.00  0.00    -0.357 C  
HETATM    8  C   UNL     2     -11.280   6.170  69.141  1.00  0.00    -0.409 C  
HETATM    9  C   UNL     2     -12.999   7.017  71.538  1.00  0.00    -0.411 C  
BRANCH   8  10
HETATM   10  C   UNL     2     -10.432   6.286  67.874  1.00  0.00    -0.285 C  
BRANCH  10  11
HETATM   11  C   UNL     2      -8.899   6.221  68.051  1.00  0.00    -0.112 C  
BRANCH  11  12
HETATM   12  C   UNL     2      -8.422   4.752  68.161  1.00  0.00    -0.102 C  
HETATM   13  C   UNL     2      -9.303   3.891  65.907  1.00  0.00    -0.165 C  
HETATM   14  C   UNL     2      -9.287   3.703  67.426  1.00  0.00    -0.240 C  
HETATM   15  C   UNL     2      -8.760   2.294  67.739  1.00  0.00    -0.139 C  
ENDBRANCH  11  12
BRANCH  11  16
HETATM   16  O   UNL     2      -8.273   6.809  66.913  1.00  0.00    -0.111 OA 
HETATM   17  O   UNL     2      -7.320   8.608  68.262  1.00  0.00    -0.084 OA 
HETATM   18  O   UNL     2      -6.912   8.521  65.845  1.00  0.00    -0.069 OA 
HETATM   19  S   UNL     2      -7.879   8.396  66.931  1.00  0.00    -0.096 S  
HETATM   20  O   UNL     2      -9.140   9.090  66.711  1.00  0.00    -0.136 OA 
ENDBRANCH  11  16
ENDBRANCH  10  11
ENDBRANCH   8  10
ENDBRANCH   4   5
ENDBRANCH   3   4
TORSDOF 6
ENDMDL
MODEL      303
REMARK 921   NORMALIZED FREE ENERGY PREDICTED BY IDOCK:   -2.80 KCAL/MOL
REMARK 922        TOTAL FREE ENERGY PREDICTED BY IDOCK:   -4.99 KCAL/MOL
REMARK 923 INTER-LIGAND FREE ENERGY PREDICTED BY IDOCK:   -4.44 KCAL/MOL
REMARK 924 INTRA-LIGAND FREE ENERGY PREDICTED BY IDOCK:   -0.55 KCAL/MOL
REMARK 927      BINDING AFFINITY PREDICTED BY RF-SCORE:    0.00 PKD
ROOT
HETATM    1 NA   UNL     1     -10.149  15.374  67.192  1.00  0.00    -0.225 Na 
HETATM    2  C   UNL     2      -7.121  14.912  69.299  1.00  0.00    -0.160 C  
HETATM    3  C   UNL     2      -7.055  13.461  68.841  1.00  0.00    -0.084 C  
ENDROOT
BRANCH   3   4
HETATM    4  C   UNL     2      -8.107  13.177  67.770  1.00  0.00    -0.165 C  
BRANCH   4   5
HETATM    5  C   UNL     2      -8.858  11.857  67.969  1.00  0.00    -0.177 C  
HETATM    6  C   UNL     2     -10.282  11.963  68.570  1.00  0.00    -0.221 C  
HETATM    7  C   UNL     2     -11.213  12.925  67.797  1.00  0.00    -0.319 C  
HETATM    8  C   UNL     2     -10.946  10.571  68.694  1.00  0.00    -0.294 C  
HETATM    9  C   UNL     2     -11.576  12.490  66.383  1.00  0.00    -0.449 C  
BRANCH   8  10
HETATM   10  C   UNL     2     -10.185   9.554  69.545  1.00  0.00    -0.225 C  
BRANCH  10  11
HETATM   11  C   UNL     2     -10.698   8.098  69.521  1.00  0.00    -0.175 C  
BRANCH  11  12
HETATM   12  C   UNL     2      -9.948   7.270  68.450  1.00  0.00    -0.172 C  
HETATM   13  C   UNL     2      -7.542   7.891  69.100  1.00  0.00    -0.098 C  
HETATM   14  C   UNL     2      -8.589   7.839  67.984  1.00  0.00    -0.123 C  
HETATM   15  C   UNL     2      -8.039   6.978  66.837  1.00  0.00    -0.116 C  
ENDBRANCH  11  12
BRANCH  11  16
HETATM   16  O   UNL     2     -10.463   7.500  70.794  1.00  0.00    -0.210 OA 
HETATM   17  O   UNL     2     -12.802   6.828  71.005  1.00  0.00    -0.290 OA 
HETATM   18  O   UNL     2     -11.198   6.311  72.786  1.00  0.00    -0.257 OA 
HETATM   19  S   UNL     2     -11.704   7.301  71.841  1.00  0.00    -0.299 S  
HETATM   20  O   UNL     2     -11.927   8.626  72.402  1.00  0.00    -0.375 OA 
ENDBRANCH  11  16
ENDBRANCH  10  11
ENDBRANCH   8  10
ENDBRANCH   4   5
ENDBRANCH   3   4
TORSDOF 6
ENDMDL
MODEL      304
REMARK 921   NORMALIZED FREE ENERGY PREDICTED BY IDOCK:   -2.79 KCAL/MOL
REMARK 922        TOTAL FREE ENERGY PREDICTED BY IDOCK:   -4.98 KCAL/MOL
REMARK 923 INTER-LIGAND FREE ENERGY PREDICTED BY IDOCK:   -4.47 KCAL/MOL
REMARK 924 INTRA-LIGAND FREE ENERGY PREDICTED BY IDOCK:   -0.50 KCAL/MOL
REMARK 927      BINDING AFFINITY PREDICTED BY RF-SCORE:    0.00 PKD
ROOT
HETATM    1 NA   UNL     1     -10.773  16.588  69.907  1.00  0.00    -0.235 Na 
HETATM    2  C   UNL     2     -13.840  15.242  71.518  1.00  0.00    -0.617 C  
HETATM    3  C   UNL     2     -13.555  13.893  70.876  1.00  0.00     0.047 C  
ENDROOT
BRANCH   3   4
HETATM    4  C   UNL     2     -12.209  13.903  70.153  1.00  0.00    -0.425 C  
BRANCH   4   5
HETATM    5  C   UNL     2     -12.089  12.854  69.044  1.00  0.00    -0.198 C  
HETATM    6  C   UNL     2     -11.281  11.579  69.391  1.00  0.00    -0.324 C  
HETATM    7  C   UNL     2     -11.770  10.862  70.670  1.00  0.00    -0.418 C  
HETATM    8  C   UNL     2     -11.257  10.586  68.204  1.00  0.00    -0.357 C  
HETATM    9  C   UNL     2     -13.165  10.252  70.586  1.00  0.00    -0.202 C  
BRANCH   8  10
HETATM   10  C   UNL     2     -10.674  11.134  66.902  1.00  0.00    -0.322 C  
BRANCH  10  11
HETATM   11  C   UNL     2      -9.167  11.475  66.899  1.00  0.00    -0.176 C  
BRANCH  11  12
HETATM   12  C   UNL     2      -8.834  12.492  68.016  1.00  0.00    -0.187 C  
HETATM   13  C   UNL     2      -8.943  14.646  66.621  1.00  0.00    -0.267 C  
HETATM   14  C   UNL     2      -8.107  13.779  67.566  1.00  0.00    -0.192 C  
HETATM   15  C   UNL     2      -7.735  14.617  68.799  1.00  0.00    -0.137 C  
ENDBRANCH  11  12
BRANCH  11  16
HETATM   16  O   UNL     2      -8.421  10.285  67.140  1.00  0.00    -0.125 OA 
HETATM   17  O   UNL     2      -6.704  10.935  65.529  1.00  0.00    -0.040 OA 
HETATM   18  O   UNL     2      -6.522   8.813  66.746  1.00  0.00    -0.059 OA 
HETATM   19  S   UNL     2      -7.381   9.733  66.006  1.00  0.00    -0.106 S  
HETATM   20  O   UNL     2      -8.230   9.105  65.004  1.00  0.00    -0.132 OA 
ENDBRANCH  11  16
ENDBRANCH  10  11
ENDBRANCH   8  10
ENDBRANCH   4   5
ENDBRANCH   3   4
TORSDOF 6
ENDMDL
MODEL      305
REMARK 921   NORMALIZED FREE ENERGY PREDICTED BY IDOCK:   -2.77 KCAL/MOL
REMARK 922        TOTAL FREE ENERGY PREDICTED BY IDOCK:   -4.95 KCAL/MOL
REMARK 923 INTER-LIGAND FREE ENERGY PREDICTED BY IDOCK:   -3.87 KCAL/MOL
REMARK 924 INTRA-LIGAND FREE ENERGY PREDICTED BY IDOCK:   -1.08 KCAL/MOL
REMARK 927      BINDING AFFINITY PREDICTED BY RF-SCORE:    0.00 PKD
ROOT
HETATM    1 NA   UNL     1      -6.946   9.711  67.194  1.00  0.00    -0.073 Na 
HETATM    2  C   UNL     2     -10.317  10.173  68.690  1.00  0.00    -0.208 C  
HETATM    3  C   UNL     2     -10.908   9.357  67.549  1.00  0.00    -0.208 C  
ENDROOT
BRANCH   3   4
HETATM    4  C   UNL     2      -9.807   8.780  66.661  1.00  0.00    -0.335 C  
BRANCH   4   5
HETATM    5  C   UNL     2      -8.934   7.729  67.354  1.00  0.00    -0.128 C  
HETATM    6  C   UNL     2      -9.669   6.484  67.906  1.00  0.00    -0.126 C  
HETATM    7  C   UNL     2     -10.538   5.757  66.855  1.00  0.00    -0.377 C  
HETATM    8  C   UNL     2      -8.679   5.486  68.554  1.00  0.00    -0.105 C  
HETATM    9  C   UNL     2      -9.773   5.102  65.712  1.00  0.00    -0.124 C  
BRANCH   8  10
HETATM   10  C   UNL     2      -7.841   6.047  69.703  1.00  0.00    -0.102 C  
BRANCH  10  11
HETATM   11  C   UNL     2      -8.604   6.741  70.852  1.00  0.00    -0.137 C  
BRANCH  11  12
HETATM   12  C   UNL     2      -9.565   5.748  71.550  1.00  0.00    -0.181 C  
HETATM   13  C   UNL     2     -11.792   6.721  70.722  1.00  0.00    -0.446 C  
HETATM   14  C   UNL     2     -10.954   6.306  71.933  1.00  0.00    -0.302 C  
HETATM   15  C   UNL     2     -11.732   5.244  72.726  1.00  0.00    -0.214 C  
ENDBRANCH  11  12
BRANCH  11  16
HETATM   16  O   UNL     2      -7.666   7.209  71.819  1.00  0.00    -0.090 OA 
HETATM   17  O   UNL     2      -7.961   9.526  71.107  1.00  0.00    -0.315 OA 
HETATM   18  O   UNL     2      -6.402   8.974  72.917  1.00  0.00    -0.292 OA 
HETATM   19  S   UNL     2      -6.908   8.639  71.590  1.00  0.00    -0.076 S  
HETATM   20  O   UNL     2      -5.881   8.356  70.597  1.00  0.00    -0.031 OA 
ENDBRANCH  11  16
ENDBRANCH  10  11
ENDBRANCH   8  10
ENDBRANCH   4   5
ENDBRANCH   3   4
TORSDOF 6
ENDMDL
MODEL      306
REMARK 921   NORMALIZED FREE ENERGY PREDICTED BY IDOCK:   -2.77 KCAL/MOL
REMARK 922        TOTAL FREE ENERGY PREDICTED BY IDOCK:   -4.95 KCAL/MOL
REMARK 923 INTER-LIGAND FREE ENERGY PREDICTED BY IDOCK:   -4.73 KCAL/MOL
REMARK 924 INTRA-LIGAND FREE ENERGY PREDICTED BY IDOCK:   -0.22 KCAL/MOL
REMARK 927      BINDING AFFINITY PREDICTED BY RF-SCORE:    0.00 PKD
ROOT
HETATM    1 NA   UNL     1      -8.591   5.360  66.578  1.00  0.00    -0.111 Na 
HETATM    2  C   UNL     2     -10.769   5.646  69.576  1.00  0.00    -0.380 C  
HETATM    3  C   UNL     2     -10.880   7.142  69.321  1.00  0.00    -0.204 C  
ENDROOT
BRANCH   3   4
HETATM    4  C   UNL     2     -10.202   7.526  68.007  1.00  0.00    -0.239 C  
BRANCH   4   5
HETATM    5  C   UNL     2     -10.038   9.036  67.809  1.00  0.00    -0.260 C  
HETATM    6  C   UNL     2      -9.660   9.855  69.068  1.00  0.00    -0.188 C  
HETATM    7  C   UNL     2      -8.399   9.334  69.794  1.00  0.00    -0.143 C  
HETATM    8  C   UNL     2      -9.494  11.358  68.733  1.00  0.00    -0.128 C  
HETATM    9  C   UNL     2      -7.095   9.465  69.018  1.00  0.00    -0.066 C  
BRANCH   8  10
HETATM   10  C   UNL     2     -10.722  12.033  68.122  1.00  0.00    -0.246 C  
BRANCH  10  11
HETATM   11  C   UNL     2     -11.825  12.496  69.098  1.00  0.00    -0.296 C  
BRANCH  11  12
HETATM   12  C   UNL     2     -12.427  11.288  69.857  1.00  0.00    -0.220 C  
HETATM   13  C   UNL     2     -13.501  12.559  71.814  1.00  0.00    -0.280 C  
HETATM   14  C   UNL     2     -12.543  11.442  71.391  1.00  0.00    -0.439 C  
HETATM   15  C   UNL     2     -13.032  10.120  72.002  1.00  0.00    -0.508 C  
ENDBRANCH  11  12
BRANCH  11  16
HETATM   16  O   UNL     2     -11.256  13.387  70.055  1.00  0.00    -0.025 OA 
HETATM   17  O   UNL     2     -12.048  15.345  68.828  1.00  0.00    -0.281 OA 
HETATM   18  O   UNL     2     -10.768  15.616  70.902  1.00  0.00    -0.269 OA 
HETATM   19  S   UNL     2     -10.900  14.923  69.624  1.00  0.00    -0.230 S  
HETATM   20  O   UNL     2      -9.666  14.813  68.858  1.00  0.00    -0.217 OA 
ENDBRANCH  11  16
ENDBRANCH  10  11
ENDBRANCH   8  10
ENDBRANCH   4   5
ENDBRANCH   3   4
TORSDOF 6
ENDMDL
MODEL      307
REMARK 921   NORMALIZED FREE ENERGY PREDICTED BY IDOCK:   -2.77 KCAL/MOL
REMARK 922        TOTAL FREE ENERGY PREDICTED BY IDOCK:   -4.94 KCAL/MOL
REMARK 923 INTER-LIGAND FREE ENERGY PREDICTED BY IDOCK:   -4.81 KCAL/MOL
REMARK 924 INTRA-LIGAND FREE ENERGY PREDICTED BY IDOCK:   -0.13 KCAL/MOL
REMARK 927      BINDING AFFINITY PREDICTED BY RF-SCORE:    0.00 PKD
ROOT
HETATM    1 NA   UNL     1     -11.575  16.605  64.064  1.00  0.00    -0.518 Na 
HETATM    2  C   UNL     2      -8.701  16.472  66.417  1.00  0.00    -0.357 C  
HETATM    3  C   UNL     2      -9.606  15.806  67.444  1.00  0.00    -0.217 C  
ENDROOT
BRANCH   3   4
HETATM    4  C   UNL     2     -10.978  15.499  66.848  1.00  0.00    -0.268 C  
BRANCH   4   5
HETATM    5  C   UNL     2     -11.504  14.099  67.181  1.00  0.00    -0.373 C  
HETATM    6  C   UNL     2     -11.166  13.558  68.592  1.00  0.00    -0.311 C  
HETATM    7  C   UNL     2     -11.586  14.506  69.739  1.00  0.00    -0.345 C  
HETATM    8  C   UNL     2     -11.775  12.153  68.818  1.00  0.00    -0.374 C  
HETATM    9  C   UNL     2     -13.087  14.705  69.907  1.00  0.00     0.322 C  
BRANCH   8  10
HETATM   10  C   UNL     2     -11.337  11.081  67.820  1.00  0.00    -0.365 C  
BRANCH  10  11
HETATM   11  C   UNL     2      -9.957  10.428  68.054  1.00  0.00    -0.155 C  
BRANCH  11  12
HETATM   12  C   UNL     2     -10.103   8.901  68.267  1.00  0.00    -0.219 C  
HETATM   13  C   UNL     2      -9.255   8.111  65.975  1.00  0.00    -0.207 C  
HETATM   14  C   UNL     2     -10.392   8.066  66.999  1.00  0.00    -0.414 C  
HETATM   15  C   UNL     2     -10.636   6.602  67.395  1.00  0.00    -0.370 C  
ENDBRANCH  11  12
BRANCH  11  16
HETATM   16  O   UNL     2      -9.139  10.643  66.908  1.00  0.00    -0.153 OA 
HETATM   17  O   UNL     2      -7.101  10.623  68.254  1.00  0.00    -0.078 OA 
HETATM   18  O   UNL     2      -6.981  10.965  65.828  1.00  0.00    -0.093 OA 
HETATM   19  S   UNL     2      -7.650  11.298  67.082  1.00  0.00    -0.144 S  
HETATM   20  O   UNL     2      -7.895  12.718  67.287  1.00  0.00    -0.173 OA 
ENDBRANCH  11  16
ENDBRANCH  10  11
ENDBRANCH   8  10
ENDBRANCH   4   5
ENDBRANCH   3   4
TORSDOF 6
ENDMDL
MODEL      308
REMARK 921   NORMALIZED FREE ENERGY PREDICTED BY IDOCK:   -2.75 KCAL/MOL
REMARK 922        TOTAL FREE ENERGY PREDICTED BY IDOCK:   -4.93 KCAL/MOL
REMARK 923 INTER-LIGAND FREE ENERGY PREDICTED BY IDOCK:   -4.20 KCAL/MOL
REMARK 924 INTRA-LIGAND FREE ENERGY PREDICTED BY IDOCK:   -0.73 KCAL/MOL
REMARK 927      BINDING AFFINITY PREDICTED BY RF-SCORE:    0.00 PKD
ROOT
HETATM    1 NA   UNL     1     -10.787  15.848  65.542  1.00  0.00    -0.285 Na 
HETATM    2  C   UNL     2     -12.239  13.260  63.303  1.00  0.00    -0.387 C  
HETATM    3  C   UNL     2     -12.527  12.401  64.526  1.00  0.00    -0.519 C  
ENDROOT
BRANCH   3   4
HETATM    4  C   UNL     2     -12.200  13.153  65.814  1.00  0.00    -0.514 C  
BRANCH   4   5
HETATM    5  C   UNL     2     -11.577  12.278  66.906  1.00  0.00    -0.427 C  
HETATM    6  C   UNL     2     -10.341  12.865  67.631  1.00  0.00    -0.218 C  
HETATM    7  C   UNL     2     -10.579  14.270  68.230  1.00  0.00    -0.247 C  
HETATM    8  C   UNL     2      -9.823  11.903  68.729  1.00  0.00    -0.078 C  
HETATM    9  C   UNL     2     -11.585  14.332  69.373  1.00  0.00    -0.354 C  
BRANCH   8  10
HETATM   10  C   UNL     2      -9.428  10.508  68.245  1.00  0.00    -0.158 C  
BRANCH  10  11
HETATM   11  C   UNL     2      -7.922  10.244  68.025  1.00  0.00    -0.101 C  
BRANCH  11  12
HETATM   12  C   UNL     2      -7.707   9.196  66.906  1.00  0.00    -0.098 C  
HETATM   13  C   UNL     2      -7.454   7.107  68.377  1.00  0.00    -0.106 C  
HETATM   14  C   UNL     2      -6.836   7.975  67.279  1.00  0.00    -0.074 C  
HETATM   15  C   UNL     2      -6.614   7.105  66.032  1.00  0.00    -0.052 C  
ENDBRANCH  11  12
BRANCH  11  16
HETATM   16  O   UNL     2      -7.289  11.458  67.629  1.00  0.00    -0.093 OA 
HETATM   17  O   UNL     2      -5.132  10.718  68.503  1.00  0.00    -0.038 OA 
HETATM   18  O   UNL     2      -5.353  12.923  67.454  1.00  0.00    -0.277 OA 
HETATM   19  S   UNL     2      -5.917  11.941  68.375  1.00  0.00    -0.050 S  
HETATM   20  O   UNL     2      -6.364  12.484  69.650  1.00  0.00    -0.126 OA 
ENDBRANCH  11  16
ENDBRANCH  10  11
ENDBRANCH   8  10
ENDBRANCH   4   5
ENDBRANCH   3   4
TORSDOF 6
ENDMDL
MODEL      309
REMARK 921   NORMALIZED FREE ENERGY PREDICTED BY IDOCK:   -2.72 KCAL/MOL
REMARK 922        TOTAL FREE ENERGY PREDICTED BY IDOCK:   -4.88 KCAL/MOL
REMARK 923 INTER-LIGAND FREE ENERGY PREDICTED BY IDOCK:   -4.06 KCAL/MOL
REMARK 924 INTRA-LIGAND FREE ENERGY PREDICTED BY IDOCK:   -0.82 KCAL/MOL
REMARK 927      BINDING AFFINITY PREDICTED BY RF-SCORE:    0.00 PKD
ROOT
HETATM    1 NA   UNL     1      -8.099   5.671  65.493  1.00  0.00    -0.093 Na 
HETATM    2  C   UNL     2     -10.816   6.581  67.861  1.00  0.00    -0.383 C  
HETATM    3  C   UNL     2     -10.623   8.042  67.481  1.00  0.00    -0.302 C  
ENDROOT
BRANCH   3   4
HETATM    4  C   UNL     2      -9.615   8.184  66.342  1.00  0.00    -0.286 C  
BRANCH   4   5
HETATM    5  C   UNL     2      -9.055   9.600  66.178  1.00  0.00    -0.201 C  
HETATM    6  C   UNL     2      -8.269  10.170  67.385  1.00  0.00    -0.114 C  
HETATM    7  C   UNL     2      -7.116   9.258  67.863  1.00  0.00    -0.078 C  
HETATM    8  C   UNL     2      -7.730  11.590  67.086  1.00  0.00    -0.160 C  
HETATM    9  C   UNL     2      -5.965   9.088  66.879  1.00  0.00    -0.056 C  
BRANCH   8  10
HETATM   10  C   UNL     2      -8.790  12.630  66.722  1.00  0.00    -0.168 C  
BRANCH  10  11
HETATM   11  C   UNL     2      -8.888  13.877  67.628  1.00  0.00    -0.191 C  
BRANCH  11  12
HETATM   12  C   UNL     2     -10.033  13.717  68.657  1.00  0.00    -0.175 C  
HETATM   13  C   UNL     2     -11.971  14.589  67.216  1.00  0.00    -0.375 C  
HETATM   14  C   UNL     2     -11.201  14.721  68.532  1.00  0.00    -0.291 C  
HETATM   15  C   UNL     2     -12.182  14.514  69.696  1.00  0.00    -0.336 C  
ENDBRANCH  11  12
BRANCH  11  16
HETATM   16  O   UNL     2      -7.664  14.031  68.341  1.00  0.00    -0.122 OA 
HETATM   17  O   UNL     2      -8.014  16.435  68.591  1.00  0.00    -0.195 OA 
HETATM   18  O   UNL     2      -6.002  15.374  69.508  1.00  0.00    -0.114 OA 
HETATM   19  S   UNL     2      -6.924  15.489  68.382  1.00  0.00    -0.120 S  
HETATM   20  O   UNL     2      -6.285  15.613  67.079  1.00  0.00    -0.298 OA 
ENDBRANCH  11  16
ENDBRANCH  10  11
ENDBRANCH   8  10
ENDBRANCH   4   5
ENDBRANCH   3   4
TORSDOF 6
ENDMDL
MODEL      310
REMARK 921   NORMALIZED FREE ENERGY PREDICTED BY IDOCK:   -2.72 KCAL/MOL
REMARK 922        TOTAL FREE ENERGY PREDICTED BY IDOCK:   -4.88 KCAL/MOL
REMARK 923 INTER-LIGAND FREE ENERGY PREDICTED BY IDOCK:   -4.15 KCAL/MOL
REMARK 924 INTRA-LIGAND FREE ENERGY PREDICTED BY IDOCK:   -0.73 KCAL/MOL
REMARK 927      BINDING AFFINITY PREDICTED BY RF-SCORE:    0.00 PKD
ROOT
HETATM    1 NA   UNL     1     -12.352  10.177  68.102  1.00  0.00    -0.469 Na 
HETATM    2  C   UNL     2     -10.969   6.809  67.351  1.00  0.00    -0.407 C  
HETATM    3  C   UNL     2      -9.739   7.158  68.176  1.00  0.00    -0.147 C  
ENDROOT
BRANCH   3   4
HETATM    4  C   UNL     2      -9.906   8.512  68.864  1.00  0.00    -0.181 C  
BRANCH   4   5
HETATM    5  C   UNL     2      -9.337   9.691  68.067  1.00  0.00    -0.142 C  
HETATM    6  C   UNL     2      -8.182  10.476  68.735  1.00  0.00    -0.134 C  
HETATM    7  C   UNL     2      -6.997   9.586  69.175  1.00  0.00    -0.057 C  
HETATM    8  C   UNL     2      -7.675  11.619  67.822  1.00  0.00    -0.126 C  
HETATM    9  C   UNL     2      -6.220   8.925  68.043  1.00  0.00    -0.051 C  
BRANCH   8  10
HETATM   10  C   UNL     2      -8.728  12.649  67.415  1.00  0.00    -0.191 C  
BRANCH  10  11
HETATM   11  C   UNL     2      -8.559  14.080  67.970  1.00  0.00    -0.179 C  
BRANCH  11  12
HETATM   12  C   UNL     2      -7.440  14.833  67.211  1.00  0.00    -0.173 C  
HETATM   13  C   UNL     2      -7.315  16.929  68.689  1.00  0.00    -0.222 C  
HETATM   14  C   UNL     2      -7.499  16.376  67.274  1.00  0.00    -0.202 C  
HETATM   15  C   UNL     2      -6.405  16.967  66.371  1.00  0.00    -0.149 C  
ENDBRANCH  11  12
BRANCH  11  16
HETATM   16  O   UNL     2      -9.779  14.796  67.792  1.00  0.00    -0.211 OA 
HETATM   17  O   UNL     2      -9.849  15.429  70.150  1.00  0.00    -0.221 OA 
HETATM   18  O   UNL     2     -11.629  16.143  68.621  1.00  0.00    -0.376 OA 
HETATM   19  S   UNL     2     -10.761  15.059  69.073  1.00  0.00    -0.248 S  
HETATM   20  O   UNL     2     -11.434  13.786  69.288  1.00  0.00    -0.262 OA 
ENDBRANCH  11  16
ENDBRANCH  10  11
ENDBRANCH   8  10
ENDBRANCH   4   5
ENDBRANCH   3   4
TORSDOF 6
ENDMDL
MODEL      311
REMARK 921   NORMALIZED FREE ENERGY PREDICTED BY IDOCK:   -2.71 KCAL/MOL
REMARK 922        TOTAL FREE ENERGY PREDICTED BY IDOCK:   -4.86 KCAL/MOL
REMARK 923 INTER-LIGAND FREE ENERGY PREDICTED BY IDOCK:   -3.92 KCAL/MOL
REMARK 924 INTRA-LIGAND FREE ENERGY PREDICTED BY IDOCK:   -0.95 KCAL/MOL
REMARK 927      BINDING AFFINITY PREDICTED BY RF-SCORE:    0.00 PKD
ROOT
HETATM    1 NA   UNL     1     -12.054   5.601  73.694  1.00  0.00    -0.464 Na 
HETATM    2  C   UNL     2     -13.465   8.911  72.766  1.00  0.00    -0.264 C  
HETATM    3  C   UNL     2     -12.456   8.995  71.630  1.00  0.00    -0.418 C  
ENDROOT
BRANCH   3   4
HETATM    4  C   UNL     2     -11.662   7.696  71.506  1.00  0.00    -0.310 C  
BRANCH   4   5
HETATM    5  C   UNL     2     -10.673   7.679  70.336  1.00  0.00    -0.241 C  
HETATM    6  C   UNL     2      -9.387   8.524  70.513  1.00  0.00    -0.192 C  
HETATM    7  C   UNL     2      -8.600   8.196  71.802  1.00  0.00    -0.191 C  
HETATM    8  C   UNL     2      -8.458   8.401  69.281  1.00  0.00    -0.125 C  
HETATM    9  C   UNL     2      -7.986   6.802  71.858  1.00  0.00    -0.101 C  
BRANCH   8  10
HETATM   10  C   UNL     2      -9.079   8.819  67.948  1.00  0.00    -0.145 C  
BRANCH  10  11
HETATM   11  C   UNL     2      -8.783   7.922  66.726  1.00  0.00    -0.134 C  
BRANCH  11  12
HETATM   12  C   UNL     2      -9.459   6.539  66.886  1.00  0.00    -0.178 C  
HETATM   13  C   UNL     2      -7.348   5.076  66.879  1.00  0.00    -0.086 C  
HETATM   14  C   UNL     2      -8.716   5.344  66.247  1.00  0.00    -0.125 C  
HETATM   15  C   UNL     2      -9.574   4.076  66.380  1.00  0.00    -0.217 C  
ENDBRANCH  11  12
BRANCH  11  16
HETATM   16  O   UNL     2      -9.307   8.543  65.555  1.00  0.00    -0.117 OA 
HETATM   17  O   UNL     2      -7.185   8.293  64.371  1.00  0.00    -0.082 OA 
HETATM   18  O   UNL     2      -9.101   9.358  63.271  1.00  0.00    -0.204 OA 
HETATM   19  S   UNL     2      -8.291   9.239  64.479  1.00  0.00    -0.174 S  
HETATM   20  O   UNL     2      -7.918  10.505  65.094  1.00  0.00    -0.149 OA 
ENDBRANCH  11  16
ENDBRANCH  10  11
ENDBRANCH   8  10
ENDBRANCH   4   5
ENDBRANCH   3   4
TORSDOF 6
ENDMDL
MODEL      312
REMARK 921   NORMALIZED FREE ENERGY PREDICTED BY IDOCK:   -2.70 KCAL/MOL
REMARK 922        TOTAL FREE ENERGY PREDICTED BY IDOCK:   -4.85 KCAL/MOL
REMARK 923 INTER-LIGAND FREE ENERGY PREDICTED BY IDOCK:   -4.44 KCAL/MOL
REMARK 924 INTRA-LIGAND FREE ENERGY PREDICTED BY IDOCK:   -0.41 KCAL/MOL
REMARK 927      BINDING AFFINITY PREDICTED BY RF-SCORE:    0.00 PKD
ROOT
HETATM    1 NA   UNL     1     -13.998  10.325  69.671  1.00  0.00    -0.506 Na 
HETATM    2  C   UNL     2     -12.856   8.506  72.704  1.00  0.00    -0.224 C  
HETATM    3  C   UNL     2     -11.416   8.770  72.289  1.00  0.00    -0.376 C  
ENDROOT
BRANCH   3   4
HETATM    4  C   UNL     2     -11.357   9.678  71.062  1.00  0.00    -0.444 C  
BRANCH   4   5
HETATM    5  C   UNL     2     -10.333   9.239  70.011  1.00  0.00    -0.245 C  
HETATM    6  C   UNL     2     -10.782   9.341  68.532  1.00  0.00    -0.185 C  
HETATM    7  C   UNL     2     -11.298  10.743  68.134  1.00  0.00    -0.377 C  
HETATM    8  C   UNL     2      -9.654   8.899  67.569  1.00  0.00    -0.183 C  
HETATM    9  C   UNL     2     -10.254  11.853  68.149  1.00  0.00    -0.203 C  
BRANCH   8  10
HETATM   10  C   UNL     2      -9.138   7.475  67.774  1.00  0.00    -0.130 C  
BRANCH  10  11
HETATM   11  C   UNL     2     -10.134   6.446  68.351  1.00  0.00    -0.157 C  
BRANCH  11  12
HETATM   12  C   UNL     2     -10.920   5.748  67.215  1.00  0.00    -0.180 C  
HETATM   13  C   UNL     2      -9.218   3.914  66.637  1.00  0.00    -0.181 C  
HETATM   14  C   UNL     2     -10.068   5.075  66.115  1.00  0.00    -0.262 C  
HETATM   15  C   UNL     2     -10.989   4.548  65.004  1.00  0.00    -0.007 C  
ENDBRANCH  11  12
BRANCH  11  16
HETATM   16  O   UNL     2      -9.410   5.450  69.070  1.00  0.00    -0.119 OA 
HETATM   17  O   UNL     2     -10.829   5.721  71.040  1.00  0.00    -0.260 OA 
HETATM   18  O   UNL     2      -8.985   4.104  71.053  1.00  0.00    -0.100 OA 
HETATM   19  S   UNL     2      -9.435   5.449  70.705  1.00  0.00    -0.173 S  
HETATM   20  O   UNL     2      -8.523   6.517  71.087  1.00  0.00    -0.125 OA 
ENDBRANCH  11  16
ENDBRANCH  10  11
ENDBRANCH   8  10
ENDBRANCH   4   5
ENDBRANCH   3   4
TORSDOF 6
ENDMDL
MODEL      313
REMARK 921   NORMALIZED FREE ENERGY PREDICTED BY IDOCK:   -2.70 KCAL/MOL
REMARK 922        TOTAL FREE ENERGY PREDICTED BY IDOCK:   -4.85 KCAL/MOL
REMARK 923 INTER-LIGAND FREE ENERGY PREDICTED BY IDOCK:   -4.84 KCAL/MOL
REMARK 924 INTRA-LIGAND FREE ENERGY PREDICTED BY IDOCK:   -0.00 KCAL/MOL
REMARK 927      BINDING AFFINITY PREDICTED BY RF-SCORE:    0.00 PKD
ROOT
HETATM    1 NA   UNL     1     -14.410  16.154  69.825  1.00  0.00    -0.431 Na 
HETATM    2  C   UNL     2     -12.351  16.247  72.918  1.00  0.00    -0.553 C  
HETATM    3  C   UNL     2     -11.367  15.289  72.262  1.00  0.00    -0.393 C  
ENDROOT
BRANCH   3   4
HETATM    4  C   UNL     2     -11.741  15.035  70.802  1.00  0.00    -0.371 C  
BRANCH   4   5
HETATM    5  C   UNL     2     -10.803  14.064  70.079  1.00  0.00     0.255 C  
HETATM    6  C   UNL     2     -10.573  14.329  68.571  1.00  0.00    -0.260 C  
HETATM    7  C   UNL     2     -10.100  15.766  68.256  1.00  0.00    -0.222 C  
HETATM    8  C   UNL     2      -9.587  13.303  67.962  1.00  0.00    -0.220 C  
HETATM    9  C   UNL     2      -8.716  16.130  68.782  1.00  0.00    -0.240 C  
BRANCH   8  10
HETATM   10  C   UNL     2     -10.002  11.837  68.092  1.00  0.00    -0.196 C  
BRANCH  10  11
HETATM   11  C   UNL     2     -10.439  11.116  66.798  1.00  0.00    -0.252 C  
BRANCH  11  12
HETATM   12  C   UNL     2     -11.597  11.879  66.111  1.00  0.00    -0.299 C  
HETATM   13  C   UNL     2     -10.290  12.857  64.128  1.00  0.00    -0.385 C  
HETATM   14  C   UNL     2     -11.198  13.149  65.325  1.00  0.00    -0.315 C  
HETATM   15  C   UNL     2     -12.465  13.856  64.817  1.00  0.00    -0.386 C  
ENDBRANCH  11  12
BRANCH  11  16
HETATM   16  O   UNL     2      -9.336  11.069  65.896  1.00  0.00    -0.190 OA 
HETATM   17  O   UNL     2      -9.684   8.691  65.461  1.00  0.00    -0.015 OA 
HETATM   18  O   UNL     2      -7.853   9.897  64.363  1.00  0.00    -0.131 OA 
HETATM   19  S   UNL     2      -8.589   9.646  65.598  1.00  0.00    -0.143 S  
HETATM   20  O   UNL     2      -7.757   9.416  66.770  1.00  0.00    -0.097 OA 
ENDBRANCH  11  16
ENDBRANCH  10  11
ENDBRANCH   8  10
ENDBRANCH   4   5
ENDBRANCH   3   4
TORSDOF 6
ENDMDL
MODEL      314
REMARK 921   NORMALIZED FREE ENERGY PREDICTED BY IDOCK:   -2.69 KCAL/MOL
REMARK 922        TOTAL FREE ENERGY PREDICTED BY IDOCK:   -4.84 KCAL/MOL
REMARK 923 INTER-LIGAND FREE ENERGY PREDICTED BY IDOCK:   -5.31 KCAL/MOL
REMARK 924 INTRA-LIGAND FREE ENERGY PREDICTED BY IDOCK:    0.47 KCAL/MOL
REMARK 927      BINDING AFFINITY PREDICTED BY RF-SCORE:    0.00 PKD
ROOT
HETATM    1 NA   UNL     1      -9.968   3.416  68.644  1.00  0.00    -0.171 Na 
HETATM    2  C   UNL     2      -8.394   4.757  71.733  1.00  0.00    -0.114 C  
HETATM    3  C   UNL     2      -9.440   5.862  71.755  1.00  0.00    -0.168 C  
ENDROOT
BRANCH   3   4
HETATM    4  C   UNL     2     -10.486   5.649  70.663  1.00  0.00    -0.340 C  
BRANCH   4   5
HETATM    5  C   UNL     2     -10.886   6.930  69.924  1.00  0.00    -0.294 C  
HETATM    6  C   UNL     2      -9.973   7.355  68.747  1.00  0.00    -0.171 C  
HETATM    7  C   UNL     2      -9.763   6.246  67.691  1.00  0.00    -0.126 C  
HETATM    8  C   UNL     2     -10.496   8.642  68.064  1.00  0.00    -0.254 C  
HETATM    9  C   UNL     2     -11.006   5.846  66.905  1.00  0.00    -0.304 C  
BRANCH   8  10
HETATM   10  C   UNL     2     -10.631   9.860  68.978  1.00  0.00    -0.240 C  
BRANCH  10  11
HETATM   11  C   UNL     2     -11.846  10.783  68.739  1.00  0.00    -0.179 C  
BRANCH  11  12
HETATM   12  C   UNL     2     -11.966  11.834  69.870  1.00  0.00    -0.405 C  
HETATM   13  C   UNL     2     -12.842  10.297  71.732  1.00  0.00    -0.565 C  
HETATM   14  C   UNL     2     -13.070  11.574  70.921  1.00  0.00    -0.021 C  
HETATM   15  C   UNL     2     -13.143  12.764  71.891  1.00  0.00    -0.474 C  
ENDBRANCH  11  12
BRANCH  11  16
HETATM   16  O   UNL     2     -11.671  11.474  67.505  1.00  0.00    -0.555 OA 
HETATM   17  O   UNL     2      -9.411  12.169  68.118  1.00  0.00    -0.194 OA 
HETATM   18  O   UNL     2     -10.369  12.830  65.959  1.00  0.00    -0.265 OA 
HETATM   19  S   UNL     2     -10.573  12.680  67.397  1.00  0.00    -0.226 S  
HETATM   20  O   UNL     2     -11.210  13.817  68.047  1.00  0.00    -0.248 OA 
ENDBRANCH  11  16
ENDBRANCH  10  11
ENDBRANCH   8  10
ENDBRANCH   4   5
ENDBRANCH   3   4
TORSDOF 6
ENDMDL
MODEL      315
REMARK 921   NORMALIZED FREE ENERGY PREDICTED BY IDOCK:   -2.69 KCAL/MOL
REMARK 922        TOTAL FREE ENERGY PREDICTED BY IDOCK:   -4.84 KCAL/MOL
REMARK 923 INTER-LIGAND FREE ENERGY PREDICTED BY IDOCK:   -4.09 KCAL/MOL
REMARK 924 INTRA-LIGAND FREE ENERGY PREDICTED BY IDOCK:   -0.76 KCAL/MOL
REMARK 927      BINDING AFFINITY PREDICTED BY RF-SCORE:    0.00 PKD
ROOT
HETATM    1 NA   UNL     1      -8.435   5.711  71.624  1.00  0.00    -0.112 Na 
HETATM    2  C   UNL     2     -11.772   6.959  72.684  1.00  0.00    -0.122 C  
HETATM    3  C   UNL     2     -12.252   6.822  71.246  1.00  0.00    -0.415 C  
ENDROOT
BRANCH   3   4
HETATM    4  C   UNL     2     -11.184   6.165  70.372  1.00  0.00    -0.423 C  
BRANCH   4   5
HETATM    5  C   UNL     2     -10.347   7.158  69.560  1.00  0.00    -0.224 C  
HETATM    6  C   UNL     2      -9.302   6.544  68.596  1.00  0.00    -0.125 C  
HETATM    7  C   UNL     2      -9.895   5.509  67.612  1.00  0.00    -0.166 C  
HETATM    8  C   UNL     2      -8.543   7.643  67.813  1.00  0.00    -0.121 C  
HETATM    9  C   UNL     2     -10.875   6.068  66.587  1.00  0.00    -0.289 C  
BRANCH   8  10
HETATM   10  C   UNL     2      -7.800   8.666  68.673  1.00  0.00    -0.107 C  
BRANCH  10  11
HETATM   11  C   UNL     2      -8.460  10.053  68.837  1.00  0.00    -0.132 C  
BRANCH  11  12
HETATM   12  C   UNL     2      -9.659   9.976  69.813  1.00  0.00    -0.249 C  
HETATM   13  C   UNL     2     -11.517  10.710  68.199  1.00  0.00    -0.303 C  
HETATM   14  C   UNL     2     -10.819  10.959  69.538  1.00  0.00    -0.286 C  
HETATM   15  C   UNL     2     -11.862  10.848  70.662  1.00  0.00    -0.453 C  
ENDBRANCH  11  12
BRANCH  11  16
HETATM   16  O   UNL     2      -7.503  10.962  69.374  1.00  0.00    -0.132 OA 
HETATM   17  O   UNL     2      -8.284  12.769  67.927  1.00  0.00    -0.144 OA 
HETATM   18  O   UNL     2      -6.437  13.147  69.495  1.00  0.00    -0.112 OA 
HETATM   19  S   UNL     2      -7.041  12.265  68.501  1.00  0.00    -0.104 S  
HETATM   20  O   UNL     2      -6.114  11.734  67.511  1.00  0.00    -0.068 OA 
ENDBRANCH  11  16
ENDBRANCH  10  11
ENDBRANCH   8  10
ENDBRANCH   4   5
ENDBRANCH   3   4
TORSDOF 6
ENDMDL
MODEL      316
REMARK 921   NORMALIZED FREE ENERGY PREDICTED BY IDOCK:   -2.69 KCAL/MOL
REMARK 922        TOTAL FREE ENERGY PREDICTED BY IDOCK:   -4.84 KCAL/MOL
REMARK 923 INTER-LIGAND FREE ENERGY PREDICTED BY IDOCK:   -4.01 KCAL/MOL
REMARK 924 INTRA-LIGAND FREE ENERGY PREDICTED BY IDOCK:   -0.83 KCAL/MOL
REMARK 927      BINDING AFFINITY PREDICTED BY RF-SCORE:    0.00 PKD
ROOT
HETATM    1 NA   UNL     1      -9.657   8.779  65.773  1.00  0.00    -0.176 Na 
HETATM    2  C   UNL     2      -8.008   5.461  66.074  1.00  0.00    -0.105 C  
HETATM    3  C   UNL     2      -6.883   6.120  66.859  1.00  0.00    -0.062 C  
ENDROOT
BRANCH   3   4
HETATM    4  C   UNL     2      -7.196   7.589  67.136  1.00  0.00    -0.086 C  
BRANCH   4   5
HETATM    5  C   UNL     2      -8.201   7.809  68.271  1.00  0.00    -0.124 C  
HETATM    6  C   UNL     2      -7.747   7.366  69.684  1.00  0.00    -0.107 C  
HETATM    7  C   UNL     2      -6.397   7.975  70.124  1.00  0.00    -0.033 C  
HETATM    8  C   UNL     2      -8.833   7.667  70.745  1.00  0.00    -0.144 C  
HETATM    9  C   UNL     2      -6.396   9.485  70.330  1.00  0.00    -0.066 C  
BRANCH   8  10
HETATM   10  C   UNL     2     -10.193   7.014  70.495  1.00  0.00    -0.209 C  
BRANCH  10  11
HETATM   11  C   UNL     2     -11.045   6.674  71.737  1.00  0.00    -0.249 C  
BRANCH  11  12
HETATM   12  C   UNL     2     -12.512   7.127  71.535  1.00  0.00    -0.418 C  
HETATM   13  C   UNL     2     -12.120   9.662  71.416  1.00  0.00    -0.472 C  
HETATM   14  C   UNL     2     -12.875   8.519  72.099  1.00  0.00    -0.413 C  
HETATM   15  C   UNL     2     -14.384   8.761  71.934  1.00  0.00    -0.441 C  
ENDBRANCH  11  12
BRANCH  11  16
HETATM   16  O   UNL     2     -11.037   5.263  71.937  1.00  0.00    -0.163 OA 
HETATM   17  O   UNL     2     -10.417   5.515  74.286  1.00  0.00    -0.276 OA 
HETATM   18  O   UNL     2     -10.726   3.283  73.318  1.00  0.00    -0.171 OA 
HETATM   19  S   UNL     2     -10.164   4.621  73.161  1.00  0.00    -0.182 S  
HETATM   20  O   UNL     2      -8.787   4.654  72.688  1.00  0.00    -0.113 OA 
ENDBRANCH  11  16
ENDBRANCH  10  11
ENDBRANCH   8  10
ENDBRANCH   4   5
ENDBRANCH   3   4
TORSDOF 6
ENDMDL
MODEL      317
REMARK 921   NORMALIZED FREE ENERGY PREDICTED BY IDOCK:   -2.69 KCAL/MOL
REMARK 922        TOTAL FREE ENERGY PREDICTED BY IDOCK:   -4.83 KCAL/MOL
REMARK 923 INTER-LIGAND FREE ENERGY PREDICTED BY IDOCK:   -4.80 KCAL/MOL
REMARK 924 INTRA-LIGAND FREE ENERGY PREDICTED BY IDOCK:   -0.03 KCAL/MOL
REMARK 927      BINDING AFFINITY PREDICTED BY RF-SCORE:    0.00 PKD
ROOT
HETATM    1 NA   UNL     1     -11.425  19.875  66.299  1.00  0.00    -0.368 Na 
HETATM    2  C   UNL     2      -8.245  19.939  68.222  1.00  0.00    -0.256 C  
HETATM    3  C   UNL     2      -8.797  18.843  69.122  1.00  0.00    -0.060 C  
ENDROOT
BRANCH   3   4
HETATM    4  C   UNL     2     -10.146  18.342  68.611  1.00  0.00    -0.407 C  
BRANCH   4   5
HETATM    5  C   UNL     2     -10.147  16.867  68.196  1.00  0.00    -0.299 C  
HETATM    6  C   UNL     2      -9.810  15.843  69.307  1.00  0.00    -0.259 C  
HETATM    7  C   UNL     2     -10.693  15.980  70.568  1.00  0.00    -0.143 C  
HETATM    8  C   UNL     2      -9.873  14.391  68.774  1.00  0.00    -0.214 C  
HETATM    9  C   UNL     2     -12.169  15.652  70.373  1.00  0.00    -0.429 C  
BRANCH   8  10
HETATM   10  C   UNL     2      -8.946  14.085  67.597  1.00  0.00    -0.194 C  
BRANCH  10  11
HETATM   11  C   UNL     2      -9.096  12.699  66.931  1.00  0.00    -0.218 C  
BRANCH  11  12
HETATM   12  C   UNL     2     -10.098  12.764  65.753  1.00  0.00    -0.296 C  
HETATM   13  C   UNL     2      -9.992  10.305  65.021  1.00  0.00    -0.393 C  
HETATM   14  C   UNL     2      -9.850  11.769  64.597  1.00  0.00    -0.230 C  
HETATM   15  C   UNL     2     -10.844  12.048  63.459  1.00  0.00    -0.509 C  
ENDBRANCH  11  12
BRANCH  11  16
HETATM   16  O   UNL     2      -7.830  12.290  66.419  1.00  0.00     0.164 OA 
HETATM   17  O   UNL     2      -6.995  11.780  68.657  1.00  0.00    -0.079 OA 
HETATM   18  O   UNL     2      -5.561  11.455  66.694  1.00  0.00    -0.112 OA 
HETATM   19  S   UNL     2      -6.514  12.316  67.388  1.00  0.00    -0.155 S  
HETATM   20  O   UNL     2      -6.134  13.720  67.454  1.00  0.00    -0.344 OA 
ENDBRANCH  11  16
ENDBRANCH  10  11
ENDBRANCH   8  10
ENDBRANCH   4   5
ENDBRANCH   3   4
TORSDOF 6
ENDMDL
MODEL      318
REMARK 921   NORMALIZED FREE ENERGY PREDICTED BY IDOCK:   -2.68 KCAL/MOL
REMARK 922        TOTAL FREE ENERGY PREDICTED BY IDOCK:   -4.83 KCAL/MOL
REMARK 923 INTER-LIGAND FREE ENERGY PREDICTED BY IDOCK:   -4.21 KCAL/MOL
REMARK 924 INTRA-LIGAND FREE ENERGY PREDICTED BY IDOCK:   -0.62 KCAL/MOL
REMARK 927      BINDING AFFINITY PREDICTED BY RF-SCORE:    0.00 PKD
ROOT
HETATM    1 NA   UNL     1      -9.007  13.151  68.719  1.00  0.00    -0.168 Na 
HETATM    2  C   UNL     2      -6.984  10.599  66.928  1.00  0.00    -0.100 C  
HETATM    3  C   UNL     2      -6.801   9.856  68.244  1.00  0.00    -0.064 C  
ENDROOT
BRANCH   3   4
HETATM    4  C   UNL     2      -7.629  10.500  69.355  1.00  0.00    -0.145 C  
BRANCH   4   5
HETATM    5  C   UNL     2      -8.829   9.661  69.804  1.00  0.00    -0.224 C  
HETATM    6  C   UNL     2     -10.200  10.381  69.823  1.00  0.00    -0.228 C  
HETATM    7  C   UNL     2     -10.568  11.053  68.480  1.00  0.00    -0.218 C  
HETATM    8  C   UNL     2     -11.334   9.423  70.263  1.00  0.00    -0.261 C  
HETATM    9  C   UNL     2     -10.809  10.100  67.316  1.00  0.00    -0.295 C  
BRANCH   8  10
HETATM   10  C   UNL     2     -11.154   8.784  71.640  1.00  0.00    -0.398 C  
BRANCH  10  11
HETATM   11  C   UNL     2     -11.150   7.241  71.700  1.00  0.00    -0.233 C  
BRANCH  11  12
HETATM   12  C   UNL     2     -11.498   6.639  70.317  1.00  0.00    -0.449 C  
HETATM   13  C   UNL     2     -10.021   4.541  70.428  1.00  0.00    -0.284 C  
HETATM   14  C   UNL     2     -10.386   5.803  69.643  1.00  0.00    -0.330 C  
HETATM   15  C   UNL     2     -10.838   5.390  68.234  1.00  0.00     0.059 C  
ENDBRANCH  11  12
BRANCH  11  16
HETATM   16  O   UNL     2      -9.848   6.793  72.068  1.00  0.00    -0.159 OA 
HETATM   17  O   UNL     2     -10.752   5.294  73.771  1.00  0.00    -0.268 OA 
HETATM   18  O   UNL     2      -8.331   5.442  73.409  1.00  0.00    -0.113 OA 
HETATM   19  S   UNL     2      -9.596   6.157  73.553  1.00  0.00    -0.154 S  
HETATM   20  O   UNL     2      -9.550   7.308  74.443  1.00  0.00    -0.180 OA 
ENDBRANCH  11  16
ENDBRANCH  10  11
ENDBRANCH   8  10
ENDBRANCH   4   5
ENDBRANCH   3   4
TORSDOF 6
ENDMDL
MODEL      319
REMARK 921   NORMALIZED FREE ENERGY PREDICTED BY IDOCK:   -2.65 KCAL/MOL
REMARK 922        TOTAL FREE ENERGY PREDICTED BY IDOCK:   -4.79 KCAL/MOL
REMARK 923 INTER-LIGAND FREE ENERGY PREDICTED BY IDOCK:   -5.19 KCAL/MOL
REMARK 924 INTRA-LIGAND FREE ENERGY PREDICTED BY IDOCK:    0.40 KCAL/MOL
REMARK 927      BINDING AFFINITY PREDICTED BY RF-SCORE:    0.00 PKD
ROOT
HETATM    1 NA   UNL     1     -14.199  10.157  70.132  1.00  0.00    -0.441 Na 
HETATM    2  C   UNL     2     -12.907  13.592  70.718  1.00  0.00    -0.273 C  
HETATM    3  C   UNL     2     -11.739  13.284  69.791  1.00  0.00    -0.354 C  
ENDROOT
BRANCH   3   4
HETATM    4  C   UNL     2     -11.907  11.913  69.137  1.00  0.00    -0.371 C  
BRANCH   4   5
HETATM    5  C   UNL     2     -11.113  10.795  69.821  1.00  0.00    -0.346 C  
HETATM    6  C   UNL     2     -10.430   9.768  68.885  1.00  0.00    -0.233 C  
HETATM    7  C   UNL     2      -9.517  10.411  67.817  1.00  0.00    -0.159 C  
HETATM    8  C   UNL     2      -9.638   8.711  69.691  1.00  0.00    -0.170 C  
HETATM    9  C   UNL     2      -8.276  11.115  68.354  1.00  0.00    -0.144 C  
BRANCH   8  10
HETATM   10  C   UNL     2     -10.457   7.907  70.701  1.00  0.00    -0.216 C  
BRANCH  10  11
HETATM   11  C   UNL     2     -11.224   6.680  70.162  1.00  0.00    -0.360 C  
BRANCH  11  12
HETATM   12  C   UNL     2     -10.302   5.801  69.283  1.00  0.00    -0.326 C  
HETATM   13  C   UNL     2     -10.771   6.903  67.011  1.00  0.00    -0.432 C  
HETATM   14  C   UNL     2     -10.752   5.602  67.818  1.00  0.00    -0.250 C  
HETATM   15  C   UNL     2      -9.809   4.609  67.122  1.00  0.00    -0.227 C  
ENDBRANCH  11  12
BRANCH  11  16
HETATM   16  O   UNL     2     -11.677   5.894  71.261  1.00  0.00    -0.142 OA 
HETATM   17  O   UNL     2      -9.482   5.975  72.331  1.00  0.00    -0.147 OA 
HETATM   18  O   UNL     2     -11.330   4.754  73.384  1.00  0.00    -0.331 OA 
HETATM   19  S   UNL     2     -10.598   5.051  72.156  1.00  0.00    -0.157 S  
HETATM   20  O   UNL     2     -10.273   3.889  71.341  1.00  0.00    -0.110 OA 
ENDBRANCH  11  16
ENDBRANCH  10  11
ENDBRANCH   8  10
ENDBRANCH   4   5
ENDBRANCH   3   4
TORSDOF 6
ENDMDL
MODEL      320
REMARK 921   NORMALIZED FREE ENERGY PREDICTED BY IDOCK:   -2.65 KCAL/MOL
REMARK 922        TOTAL FREE ENERGY PREDICTED BY IDOCK:   -4.79 KCAL/MOL
REMARK 923 INTER-LIGAND FREE ENERGY PREDICTED BY IDOCK:   -4.45 KCAL/MOL
REMARK 924 INTRA-LIGAND FREE ENERGY PREDICTED BY IDOCK:   -0.33 KCAL/MOL
REMARK 927      BINDING AFFINITY PREDICTED BY RF-SCORE:    0.00 PKD
ROOT
HETATM    1 NA   UNL     1      -8.868  16.983  68.306  1.00  0.00    -0.194 Na 
HETATM    2  C   UNL     2     -12.031  15.838  69.886  1.00  0.00    -0.346 C  
HETATM    3  C   UNL     2     -11.822  14.469  69.255  1.00  0.00    -0.361 C  
ENDROOT
BRANCH   3   4
HETATM    4  C   UNL     2     -10.469  14.393  68.549  1.00  0.00    -0.254 C  
BRANCH   4   5
HETATM    5  C   UNL     2     -10.261  13.110  67.738  1.00  0.00    -0.231 C  
HETATM    6  C   UNL     2      -9.926  11.834  68.549  1.00  0.00    -0.203 C  
HETATM    7  C   UNL     2     -10.943  11.524  69.670  1.00  0.00    -0.129 C  
HETATM    8  C   UNL     2      -9.769  10.604  67.623  1.00  0.00    -0.186 C  
HETATM    9  C   UNL     2     -12.344  11.154  69.199  1.00  0.00    -0.107 C  
BRANCH   8  10
HETATM   10  C   UNL     2      -8.697  10.730  66.540  1.00  0.00    -0.154 C  
BRANCH  10  11
HETATM   11  C   UNL     2      -9.031  10.140  65.152  1.00  0.00    -0.192 C  
BRANCH  11  12
HETATM   12  C   UNL     2      -9.015   8.593  65.197  1.00  0.00    -0.111 C  
HETATM   13  C   UNL     2      -6.495   8.224  64.867  1.00  0.00    -0.056 C  
HETATM   14  C   UNL     2      -7.906   7.903  64.370  1.00  0.00    -0.139 C  
HETATM   15  C   UNL     2      -8.106   6.380  64.415  1.00  0.00    -0.076 C  
ENDBRANCH  11  12
BRANCH  11  16
HETATM   16  O   UNL     2     -10.337  10.562  64.769  1.00  0.00    -0.339 OA 
HETATM   17  O   UNL     2      -9.537  11.350  62.599  1.00  0.00    -0.320 OA 
HETATM   18  O   UNL     2     -11.906  11.563  63.200  1.00  0.00    -0.212 OA 
HETATM   19  S   UNL     2     -10.516  11.712  63.620  1.00  0.00    -0.467 S  
HETATM   20  O   UNL     2     -10.213  12.962  64.302  1.00  0.00    -0.378 OA 
ENDBRANCH  11  16
ENDBRANCH  10  11
ENDBRANCH   8  10
ENDBRANCH   4   5
ENDBRANCH   3   4
TORSDOF 6
ENDMDL
MODEL      321
REMARK 921   NORMALIZED FREE ENERGY PREDICTED BY IDOCK:   -2.65 KCAL/MOL
REMARK 922        TOTAL FREE ENERGY PREDICTED BY IDOCK:   -4.78 KCAL/MOL
REMARK 923 INTER-LIGAND FREE ENERGY PREDICTED BY IDOCK:   -4.76 KCAL/MOL
REMARK 924 INTRA-LIGAND FREE ENERGY PREDICTED BY IDOCK:   -0.02 KCAL/MOL
REMARK 927      BINDING AFFINITY PREDICTED BY RF-SCORE:    0.00 PKD
ROOT
HETATM    1 NA   UNL     1      -7.178   7.901  73.317  1.00  0.00    -0.073 Na 
HETATM    2  C   UNL     2     -10.859   8.023  72.821  1.00  0.00    -0.438 C  
HETATM    3  C   UNL     2     -10.634   8.799  71.531  1.00  0.00    -0.379 C  
ENDROOT
BRANCH   3   4
HETATM    4  C   UNL     2      -9.145   8.897  71.203  1.00  0.00    -0.315 C  
BRANCH   4   5
HETATM    5  C   UNL     2      -8.831   9.772  69.986  1.00  0.00    -0.245 C  
HETATM    6  C   UNL     2      -7.414  10.394  69.936  1.00  0.00    -0.134 C  
HETATM    7  C   UNL     2      -6.275   9.359  70.081  1.00  0.00    -0.055 C  
HETATM    8  C   UNL     2      -7.209  11.228  68.649  1.00  0.00    -0.098 C  
HETATM    9  C   UNL     2      -6.144   8.364  68.935  1.00  0.00    -0.044 C  
BRANCH   8  10
HETATM   10  C   UNL     2      -8.200  12.375  68.446  1.00  0.00    -0.144 C  
BRANCH  10  11
HETATM   11  C   UNL     2      -8.782  12.554  67.027  1.00  0.00    -0.205 C  
BRANCH  11  12
HETATM   12  C   UNL     2      -9.246  11.194  66.450  1.00  0.00    -0.199 C  
HETATM   13  C   UNL     2     -11.514  11.023  67.644  1.00  0.00    -0.303 C  
HETATM   14  C   UNL     2     -10.168  10.352  67.361  1.00  0.00    -0.259 C  
HETATM   15  C   UNL     2     -10.430   8.987  66.704  1.00  0.00    -0.235 C  
ENDBRANCH  11  12
BRANCH  11  16
HETATM   16  O   UNL     2      -9.912  13.420  67.092  1.00  0.00    -0.235 OA 
HETATM   17  O   UNL     2     -10.186  13.385  64.666  1.00  0.00    -0.376 OA 
HETATM   18  O   UNL     2     -11.711  14.700  66.067  1.00  0.00    -0.359 OA 
HETATM   19  S   UNL     2     -10.333  14.309  65.786  1.00  0.00    -0.344 S  
HETATM   20  O   UNL     2      -9.377  15.407  65.766  1.00  0.00    -0.325 OA 
ENDBRANCH  11  16
ENDBRANCH  10  11
ENDBRANCH   8  10
ENDBRANCH   4   5
ENDBRANCH   3   4
TORSDOF 6
ENDMDL
MODEL      322
REMARK 921   NORMALIZED FREE ENERGY PREDICTED BY IDOCK:   -2.63 KCAL/MOL
REMARK 922        TOTAL FREE ENERGY PREDICTED BY IDOCK:   -4.75 KCAL/MOL
REMARK 923 INTER-LIGAND FREE ENERGY PREDICTED BY IDOCK:   -4.71 KCAL/MOL
REMARK 924 INTRA-LIGAND FREE ENERGY PREDICTED BY IDOCK:   -0.04 KCAL/MOL
REMARK 927      BINDING AFFINITY PREDICTED BY RF-SCORE:    0.00 PKD
ROOT
HETATM    1 NA   UNL     1      -5.233   9.475  68.927  1.00  0.00    -0.035 Na 
HETATM    2  C   UNL     2      -8.458   8.168  70.231  1.00  0.00    -0.126 C  
HETATM    3  C   UNL     2      -9.036   9.573  70.140  1.00  0.00    -0.276 C  
ENDROOT
BRANCH   3   4
HETATM    4  C   UNL     2      -8.047  10.530  69.478  1.00  0.00    -0.105 C  
BRANCH   4   5
HETATM    5  C   UNL     2      -8.702  11.572  68.567  1.00  0.00    -0.138 C  
HETATM    6  C   UNL     2      -8.456  11.407  67.047  1.00  0.00    -0.159 C  
HETATM    7  C   UNL     2      -8.825  10.007  66.506  1.00  0.00    -0.154 C  
HETATM    8  C   UNL     2      -9.192  12.499  66.234  1.00  0.00    -0.133 C  
HETATM    9  C   UNL     2     -10.307   9.657  66.552  1.00  0.00    -0.264 C  
BRANCH   8  10
HETATM   10  C   UNL     2      -8.821  13.940  66.586  1.00  0.00    -0.105 C  
BRANCH  10  11
HETATM   11  C   UNL     2      -9.949  14.993  66.506  1.00  0.00    -0.263 C  
BRANCH  11  12
HETATM   12  C   UNL     2     -10.696  14.892  65.154  1.00  0.00    -0.429 C  
HETATM   13  C   UNL     2     -12.892  13.866  66.004  1.00  0.00    -0.302 C  
HETATM   14  C   UNL     2     -11.718  13.739  65.030  1.00  0.00    -0.356 C  
HETATM   15  C   UNL     2     -12.273  13.698  63.598  1.00  0.00    -0.376 C  
ENDBRANCH  11  12
BRANCH  11  16
HETATM   16  O   UNL     2     -10.884  14.753  67.554  1.00  0.00    -0.274 OA 
HETATM   17  O   UNL     2     -10.764  17.073  68.307  1.00  0.00    -0.358 OA 
HETATM   18  O   UNL     2     -12.211  15.467  69.465  1.00  0.00    -0.327 OA 
HETATM   19  S   UNL     2     -10.908  15.732  68.863  1.00  0.00    -0.280 S  
HETATM   20  O   UNL     2      -9.767  15.305  69.661  1.00  0.00    -0.249 OA 
ENDBRANCH  11  16
ENDBRANCH  10  11
ENDBRANCH   8  10
ENDBRANCH   4   5
ENDBRANCH   3   4
TORSDOF 6
ENDMDL
MODEL      323
REMARK 921   NORMALIZED FREE ENERGY PREDICTED BY IDOCK:   -2.62 KCAL/MOL
REMARK 922        TOTAL FREE ENERGY PREDICTED BY IDOCK:   -4.74 KCAL/MOL
REMARK 923 INTER-LIGAND FREE ENERGY PREDICTED BY IDOCK:   -5.46 KCAL/MOL
REMARK 924 INTRA-LIGAND FREE ENERGY PREDICTED BY IDOCK:    0.71 KCAL/MOL
REMARK 927      BINDING AFFINITY PREDICTED BY RF-SCORE:    0.00 PKD
ROOT
HETATM    1 NA   UNL     1      -6.380  14.740  67.076  1.00  0.00    -0.151 Na 
HETATM    2  C   UNL     2      -5.845  15.030  70.743  1.00  0.00    -0.062 C  
HETATM    3  C   UNL     2      -5.472  16.493  70.547  1.00  0.00    -0.153 C  
ENDROOT
BRANCH   3   4
HETATM    4  C   UNL     2      -5.684  16.923  69.096  1.00  0.00    -0.155 C  
BRANCH   4   5
HETATM    5  C   UNL     2      -7.129  16.777  68.608  1.00  0.00    -0.195 C  
HETATM    6  C   UNL     2      -7.975  18.074  68.578  1.00  0.00    -0.310 C  
HETATM    7  C   UNL     2      -7.321  19.226  67.782  1.00  0.00    -0.285 C  
HETATM    8  C   UNL     2      -9.401  17.803  68.040  1.00  0.00    -0.276 C  
HETATM    9  C   UNL     2      -7.182  18.990  66.283  1.00  0.00    -0.269 C  
BRANCH   8  10
HETATM   10  C   UNL     2     -10.211  16.767  68.821  1.00  0.00    -0.299 C  
BRANCH  10  11
HETATM   11  C   UNL     2     -11.227  15.924  68.019  1.00  0.00    -0.319 C  
BRANCH  11  12
HETATM   12  C   UNL     2     -10.649  14.523  67.706  1.00  0.00    -0.250 C  
HETATM   13  C   UNL     2     -10.288  14.810  65.180  1.00  0.00    -0.439 C  
HETATM   14  C   UNL     2     -10.932  13.974  66.289  1.00  0.00    -0.300 C  
HETATM   15  C   UNL     2     -10.408  12.534  66.183  1.00  0.00    -0.274 C  
ENDBRANCH  11  12
BRANCH  11  16
HETATM   16  O   UNL     2     -12.410  15.757  68.796  1.00  0.00    -0.089 OA 
HETATM   17  O   UNL     2     -11.175  16.027  70.886  1.00  0.00    -0.358 OA 
HETATM   18  O   UNL     2     -13.594  15.623  70.918  1.00  0.00    -0.568 OA 
HETATM   19  S   UNL     2     -12.298  15.264  70.351  1.00  0.00    -0.390 S  
HETATM   20  O   UNL     2     -12.042  13.833  70.265  1.00  0.00    -0.318 OA 
ENDBRANCH  11  16
ENDBRANCH  10  11
ENDBRANCH   8  10
ENDBRANCH   4   5
ENDBRANCH   3   4
TORSDOF 6
ENDMDL
MODEL      324
REMARK 921   NORMALIZED FREE ENERGY PREDICTED BY IDOCK:   -2.61 KCAL/MOL
REMARK 922        TOTAL FREE ENERGY PREDICTED BY IDOCK:   -4.74 KCAL/MOL
REMARK 923 INTER-LIGAND FREE ENERGY PREDICTED BY IDOCK:   -4.43 KCAL/MOL
REMARK 924 INTRA-LIGAND FREE ENERGY PREDICTED BY IDOCK:   -0.31 KCAL/MOL
REMARK 927      BINDING AFFINITY PREDICTED BY RF-SCORE:    0.00 PKD
ROOT
HETATM    1 NA   UNL     1     -11.700  11.953  70.399  1.00  0.00    -0.258 Na 
HETATM    2  C   UNL     2     -11.253  15.588  69.762  1.00  0.00    -0.307 C  
HETATM    3  C   UNL     2     -11.481  15.331  68.280  1.00  0.00    -0.359 C  
ENDROOT
BRANCH   3   4
HETATM    4  C   UNL     2     -11.870  13.874  68.030  1.00  0.00    -0.411 C  
BRANCH   4   5
HETATM    5  C   UNL     2     -10.803  13.063  67.289  1.00  0.00    -0.270 C  
HETATM    6  C   UNL     2     -11.321  12.020  66.268  1.00  0.00    -0.415 C  
HETATM    7  C   UNL     2     -12.285  12.608  65.213  1.00  0.00    -0.532 C  
HETATM    8  C   UNL     2     -10.151  11.289  65.566  1.00  0.00    -0.306 C  
HETATM    9  C   UNL     2     -11.666  13.609  64.246  1.00  0.00    -0.438 C  
BRANCH   8  10
HETATM   10  C   UNL     2      -9.186  10.552  66.495  1.00  0.00    -0.183 C  
BRANCH  10  11
HETATM   11  C   UNL     2      -7.677  10.723  66.214  1.00  0.00    -0.146 C  
BRANCH  11  12
HETATM   12  C   UNL     2      -6.871  10.729  67.536  1.00  0.00    -0.079 C  
HETATM   13  C   UNL     2      -6.290   8.230  67.644  1.00  0.00    -0.053 C  
HETATM   14  C   UNL     2      -6.919   9.425  68.364  1.00  0.00    -0.067 C  
HETATM   15  C   UNL     2      -6.184   9.637  69.697  1.00  0.00    -0.044 C  
ENDBRANCH  11  12
BRANCH  11  16
HETATM   16  O   UNL     2      -7.224   9.630  65.420  1.00  0.00    -0.095 OA 
HETATM   17  O   UNL     2      -5.405  10.958  64.477  1.00  0.00    -0.127 OA 
HETATM   18  O   UNL     2      -5.717   8.623  63.796  1.00  0.00    -0.069 OA 
HETATM   19  S   UNL     2      -6.340   9.913  64.074  1.00  0.00    -0.131 S  
HETATM   20  O   UNL     2      -7.312  10.350  63.082  1.00  0.00    -0.136 OA 
ENDBRANCH  11  16
ENDBRANCH  10  11
ENDBRANCH   8  10
ENDBRANCH   4   5
ENDBRANCH   3   4
TORSDOF 6
ENDMDL
MODEL      325
REMARK 921   NORMALIZED FREE ENERGY PREDICTED BY IDOCK:   -2.61 KCAL/MOL
REMARK 922        TOTAL FREE ENERGY PREDICTED BY IDOCK:   -4.73 KCAL/MOL
REMARK 923 INTER-LIGAND FREE ENERGY PREDICTED BY IDOCK:   -5.45 KCAL/MOL
REMARK 924 INTRA-LIGAND FREE ENERGY PREDICTED BY IDOCK:    0.72 KCAL/MOL
REMARK 927      BINDING AFFINITY PREDICTED BY RF-SCORE:    0.00 PKD
ROOT
HETATM    1 NA   UNL     1      -7.346  11.234  63.326  1.00  0.00    -0.348 Na 
HETATM    2  C   UNL     2      -8.107   8.111  65.193  1.00  0.00    -0.139 C  
HETATM    3  C   UNL     2      -9.066   8.901  66.073  1.00  0.00    -0.265 C  
ENDROOT
BRANCH   3   4
HETATM    4  C   UNL     2      -9.212  10.337  65.572  1.00  0.00    -0.232 C  
BRANCH   4   5
HETATM    5  C   UNL     2     -10.439  11.068  66.125  1.00  0.00    -0.301 C  
HETATM    6  C   UNL     2     -10.590  12.555  65.722  1.00  0.00    -0.299 C  
HETATM    7  C   UNL     2     -10.545  12.794  64.196  1.00  0.00    -0.441 C  
HETATM    8  C   UNL     2     -11.880  13.172  66.316  1.00  0.00    -0.455 C  
HETATM    9  C   UNL     2     -11.709  12.209  63.406  1.00  0.00    -0.533 C  
BRANCH   8  10
HETATM   10  C   UNL     2     -11.992  13.116  67.839  1.00  0.00    -0.347 C  
BRANCH  10  11
HETATM   11  C   UNL     2     -10.760  13.574  68.649  1.00  0.00    -0.253 C  
BRANCH  11  12
HETATM   12  C   UNL     2     -10.038  14.742  67.934  1.00  0.00    -0.221 C  
HETATM   13  C   UNL     2      -7.884  13.513  67.266  1.00  0.00    -0.106 C  
HETATM   14  C   UNL     2      -8.494  14.718  67.987  1.00  0.00    -0.151 C  
HETATM   15  C   UNL     2      -7.939  16.001  67.350  1.00  0.00    -0.184 C  
ENDBRANCH  11  12
BRANCH  11  16
HETATM   16  O   UNL     2     -11.187  14.030  69.930  1.00  0.00    -0.190 OA 
HETATM   17  O   UNL     2     -12.340  15.950  68.955  1.00  0.00    -0.152 OA 
HETATM   18  O   UNL     2     -12.347  15.601  71.383  1.00  0.00    -0.362 OA 
HETATM   19  S   UNL     2     -11.571  15.604  70.147  1.00  0.00    -0.384 S  
HETATM   20  O   UNL     2     -10.287  16.287  70.231  1.00  0.00    -0.092 OA 
ENDBRANCH  11  16
ENDBRANCH  10  11
ENDBRANCH   8  10
ENDBRANCH   4   5
ENDBRANCH   3   4
TORSDOF 6
ENDMDL
MODEL      326
REMARK 921   NORMALIZED FREE ENERGY PREDICTED BY IDOCK:   -2.60 KCAL/MOL
REMARK 922        TOTAL FREE ENERGY PREDICTED BY IDOCK:   -4.72 KCAL/MOL
REMARK 923 INTER-LIGAND FREE ENERGY PREDICTED BY IDOCK:   -5.29 KCAL/MOL
REMARK 924 INTRA-LIGAND FREE ENERGY PREDICTED BY IDOCK:    0.56 KCAL/MOL
REMARK 927      BINDING AFFINITY PREDICTED BY RF-SCORE:    0.00 PKD
ROOT
HETATM    1 NA   UNL     1      -7.635   4.541  71.914  1.00  0.00    -0.062 Na 
HETATM    2  C   UNL     2      -9.529   4.328  68.723  1.00  0.00    -0.230 C  
HETATM    3  C   UNL     2      -9.827   5.817  68.830  1.00  0.00    -0.181 C  
ENDROOT
BRANCH   3   4
HETATM    4  C   UNL     2      -9.087   6.440  70.012  1.00  0.00    -0.150 C  
BRANCH   4   5
HETATM    5  C   UNL     2      -9.408   7.921  70.238  1.00  0.00    -0.159 C  
HETATM    6  C   UNL     2     -10.906   8.281  70.397  1.00  0.00    -0.241 C  
HETATM    7  C   UNL     2     -11.628   7.468  71.495  1.00  0.00    -0.301 C  
HETATM    8  C   UNL     2     -11.097   9.796  70.648  1.00  0.00    -0.398 C  
HETATM    9  C   UNL     2     -11.160   7.734  72.921  1.00  0.00    -0.457 C  
BRANCH   8  10
HETATM   10  C   UNL     2     -10.537  10.717  69.564  1.00  0.00    -0.265 C  
BRANCH  10  11
HETATM   11  C   UNL     2     -11.336  10.813  68.246  1.00  0.00    -0.309 C  
BRANCH  11  12
HETATM   12  C   UNL     2     -10.939  12.084  67.457  1.00  0.00    -0.303 C  
HETATM   13  C   UNL     2     -11.975  13.844  69.014  1.00  0.00    -0.402 C  
HETATM   14  C   UNL     2     -11.896  13.290  67.589  1.00  0.00    -0.400 C  
HETATM   15  C   UNL     2     -11.435  14.416  66.651  1.00  0.00    -0.372 C  
ENDBRANCH  11  12
BRANCH  11  16
HETATM   16  O   UNL     2     -11.043   9.676  67.439  1.00  0.00    -0.183 OA 
HETATM   17  O   UNL     2      -8.694  10.316  67.243  1.00  0.00    -0.126 OA 
HETATM   18  O   UNL     2      -9.522   8.288  66.141  1.00  0.00    -0.209 OA 
HETATM   19  S   UNL     2      -9.746   9.698  66.443  1.00  0.00    -0.242 S  
HETATM   20  O   UNL     2     -10.168  10.508  65.309  1.00  0.00    -0.298 OA 
ENDBRANCH  11  16
ENDBRANCH  10  11
ENDBRANCH   8  10
ENDBRANCH   4   5
ENDBRANCH   3   4
TORSDOF 6
ENDMDL
MODEL      327
REMARK 921   NORMALIZED FREE ENERGY PREDICTED BY IDOCK:   -2.60 KCAL/MOL
REMARK 922        TOTAL FREE ENERGY PREDICTED BY IDOCK:   -4.72 KCAL/MOL
REMARK 923 INTER-LIGAND FREE ENERGY PREDICTED BY IDOCK:   -3.52 KCAL/MOL
REMARK 924 INTRA-LIGAND FREE ENERGY PREDICTED BY IDOCK:   -1.19 KCAL/MOL
REMARK 927      BINDING AFFINITY PREDICTED BY RF-SCORE:    0.00 PKD
ROOT
HETATM    1 NA   UNL     1      -8.799  11.254  69.885  1.00  0.00    -0.373 Na 
HETATM    2  C   UNL     2      -6.943   9.762  67.031  1.00  0.00    -0.085 C  
HETATM    3  C   UNL     2      -6.710   8.513  67.869  1.00  0.00    -0.066 C  
ENDROOT
BRANCH   3   4
HETATM    4  C   UNL     2      -7.460   8.596  69.197  1.00  0.00    -0.083 C  
BRANCH   4   5
HETATM    5  C   UNL     2      -8.487   7.479  69.404  1.00  0.00    -0.133 C  
HETATM    6  C   UNL     2      -9.974   7.914  69.437  1.00  0.00    -0.189 C  
HETATM    7  C   UNL     2     -10.410   8.734  68.202  1.00  0.00    -0.266 C  
HETATM    8  C   UNL     2     -10.912   6.696  69.621  1.00  0.00    -0.367 C  
HETATM    9  C   UNL     2     -10.405   7.978  66.879  1.00  0.00    -0.408 C  
BRANCH   8  10
HETATM   10  C   UNL     2     -10.669   5.866  70.881  1.00  0.00    -0.338 C  
BRANCH  10  11
HETATM   11  C   UNL     2     -10.039   4.469  70.688  1.00  0.00    -0.162 C  
BRANCH  11  12
HETATM   12  C   UNL     2      -9.665   4.238  69.203  1.00  0.00    -0.226 C  
HETATM   13  C   UNL     2      -9.577   1.672  69.223  1.00  0.00    -0.085 C  
HETATM   14  C   UNL     2      -8.833   2.971  68.903  1.00  0.00    -0.158 C  
HETATM   15  C   UNL     2      -8.438   2.957  67.419  1.00  0.00    -0.105 C  
ENDBRANCH  11  12
BRANCH  11  16
HETATM   16  O   UNL     2      -8.848   4.383  71.467  1.00  0.00    -0.113 OA 
HETATM   17  O   UNL     2      -9.679   2.430  72.675  1.00  0.00    -0.100 OA 
HETATM   18  O   UNL     2      -7.468   3.359  73.190  1.00  0.00    -0.053 OA 
HETATM   19  S   UNL     2      -8.877   3.625  72.915  1.00  0.00    -0.093 S  
HETATM   20  O   UNL     2      -9.506   4.580  73.817  1.00  0.00    -0.119 OA 
ENDBRANCH  11  16
ENDBRANCH  10  11
ENDBRANCH   8  10
ENDBRANCH   4   5
ENDBRANCH   3   4
TORSDOF 6
ENDMDL
MODEL      328
REMARK 921   NORMALIZED FREE ENERGY PREDICTED BY IDOCK:   -2.60 KCAL/MOL
REMARK 922        TOTAL FREE ENERGY PREDICTED BY IDOCK:   -4.71 KCAL/MOL
REMARK 923 INTER-LIGAND FREE ENERGY PREDICTED BY IDOCK:   -5.14 KCAL/MOL
REMARK 924 INTRA-LIGAND FREE ENERGY PREDICTED BY IDOCK:    0.42 KCAL/MOL
REMARK 927      BINDING AFFINITY PREDICTED BY RF-SCORE:    0.00 PKD
ROOT
HETATM    1 NA   UNL     1     -10.811  15.837  65.554  1.00  0.00    -0.280 Na 
HETATM    2  C   UNL     2     -12.285  13.271  63.305  1.00  0.00    -0.387 C  
HETATM    3  C   UNL     2     -12.696  12.469  64.531  1.00  0.00    -0.440 C  
ENDROOT
BRANCH   3   4
HETATM    4  C   UNL     2     -12.400  13.241  65.816  1.00  0.00    -0.505 C  
BRANCH   4   5
HETATM    5  C   UNL     2     -11.996  12.353  66.997  1.00  0.00    -0.257 C  
HETATM    6  C   UNL     2     -10.482  12.276  67.310  1.00  0.00    -0.236 C  
HETATM    7  C   UNL     2      -9.816  13.657  67.507  1.00  0.00    -0.227 C  
HETATM    8  C   UNL     2     -10.205  11.376  68.539  1.00  0.00    -0.216 C  
HETATM    9  C   UNL     2     -10.279  14.438  68.731  1.00  0.00    -0.239 C  
BRANCH   8  10
HETATM   10  C   UNL     2     -10.704   9.935  68.422  1.00  0.00    -0.271 C  
BRANCH  10  11
HETATM   11  C   UNL     2      -9.632   8.835  68.259  1.00  0.00    -0.146 C  
BRANCH  11  12
HETATM   12  C   UNL     2     -10.168   7.674  67.387  1.00  0.00    -0.320 C  
HETATM   13  C   UNL     2     -10.975   6.121  69.266  1.00  0.00    -0.450 C  
HETATM   14  C   UNL     2     -10.100   6.265  68.019  1.00  0.00    -0.174 C  
HETATM   15  C   UNL     2     -10.544   5.218  66.986  1.00  0.00    -0.255 C  
ENDBRANCH  11  12
BRANCH  11  16
HETATM   16  O   UNL     2      -8.489   9.390  67.612  1.00  0.00    -0.118 OA 
HETATM   17  O   UNL     2      -9.612   9.389  65.443  1.00  0.00    -0.273 OA 
HETATM   18  O   UNL     2      -7.308  10.204  65.646  1.00  0.00    -0.130 OA 
HETATM   19  S   UNL     2      -8.282   9.177  66.004  1.00  0.00    -0.118 S  
HETATM   20  O   UNL     2      -7.805   7.808  65.873  1.00  0.00    -0.093 OA 
ENDBRANCH  11  16
ENDBRANCH  10  11
ENDBRANCH   8  10
ENDBRANCH   4   5
ENDBRANCH   3   4
TORSDOF 6
ENDMDL
MODEL      329
REMARK 921   NORMALIZED FREE ENERGY PREDICTED BY IDOCK:   -2.58 KCAL/MOL
REMARK 922        TOTAL FREE ENERGY PREDICTED BY IDOCK:   -4.69 KCAL/MOL
REMARK 923 INTER-LIGAND FREE ENERGY PREDICTED BY IDOCK:   -4.35 KCAL/MOL
REMARK 924 INTRA-LIGAND FREE ENERGY PREDICTED BY IDOCK:   -0.34 KCAL/MOL
REMARK 927      BINDING AFFINITY PREDICTED BY RF-SCORE:    0.00 PKD
ROOT
HETATM    1 NA   UNL     1     -10.841  13.364  67.627  1.00  0.00    -0.232 Na 
HETATM    2  C   UNL     2     -10.598  11.449  64.450  1.00  0.00    -0.403 C  
HETATM    3  C   UNL     2      -9.986  10.291  65.225  1.00  0.00    -0.387 C  
ENDROOT
BRANCH   3   4
HETATM    4  C   UNL     2      -9.998  10.569  66.727  1.00  0.00    -0.252 C  
BRANCH   4   5
HETATM    5  C   UNL     2      -9.096   9.636  67.541  1.00  0.00    -0.142 C  
HETATM    6  C   UNL     2      -9.797   8.449  68.246  1.00  0.00    -0.189 C  
HETATM    7  C   UNL     2     -10.648   7.575  67.297  1.00  0.00    -0.394 C  
HETATM    8  C   UNL     2      -8.780   7.566  69.008  1.00  0.00    -0.136 C  
HETATM    9  C   UNL     2      -9.865   6.803  66.240  1.00  0.00    -0.011 C  
BRANCH   8  10
HETATM   10  C   UNL     2      -7.956   8.286  70.075  1.00  0.00    -0.104 C  
BRANCH  10  11
HETATM   11  C   UNL     2      -8.453   8.180  71.534  1.00  0.00    -0.127 C  
BRANCH  11  12
HETATM   12  C   UNL     2      -9.779   8.958  71.718  1.00  0.00    -0.365 C  
HETATM   13  C   UNL     2     -10.986   7.301  73.265  1.00  0.00    -0.355 C  
HETATM   14  C   UNL     2     -11.040   8.098  71.959  1.00  0.00    -0.370 C  
HETATM   15  C   UNL     2     -12.280   9.005  71.990  1.00  0.00    -0.446 C  
ENDBRANCH  11  12
BRANCH  11  16
HETATM   16  O   UNL     2      -8.691   6.810  71.846  1.00  0.00    -0.124 OA 
HETATM   17  O   UNL     2      -7.016   6.837  73.623  1.00  0.00    -0.076 OA 
HETATM   18  O   UNL     2      -8.262   4.784  73.125  1.00  0.00    -0.100 OA 
HETATM   19  S   UNL     2      -7.534   5.935  72.599  1.00  0.00    -0.096 S  
HETATM   20  O   UNL     2      -6.570   5.623  71.553  1.00  0.00    -0.046 OA 
ENDBRANCH  11  16
ENDBRANCH  10  11
ENDBRANCH   8  10
ENDBRANCH   4   5
ENDBRANCH   3   4
TORSDOF 6
ENDMDL
MODEL      330
REMARK 921   NORMALIZED FREE ENERGY PREDICTED BY IDOCK:   -2.57 KCAL/MOL
REMARK 922        TOTAL FREE ENERGY PREDICTED BY IDOCK:   -4.68 KCAL/MOL
REMARK 923 INTER-LIGAND FREE ENERGY PREDICTED BY IDOCK:   -4.84 KCAL/MOL
REMARK 924 INTRA-LIGAND FREE ENERGY PREDICTED BY IDOCK:    0.17 KCAL/MOL
REMARK 927      BINDING AFFINITY PREDICTED BY RF-SCORE:    0.00 PKD
ROOT
HETATM    1 NA   UNL     1     -12.585  10.171  70.437  1.00  0.00    -0.262 Na 
HETATM    2  C   UNL     2     -12.105  13.514  68.885  1.00  0.00    -0.315 C  
HETATM    3  C   UNL     2     -11.305  12.854  67.771  1.00  0.00    -0.343 C  
ENDROOT
BRANCH   3   4
HETATM    4  C   UNL     2     -11.332  11.333  67.904  1.00  0.00    -0.367 C  
BRANCH   4   5
HETATM    5  C   UNL     2     -10.509  10.795  69.080  1.00  0.00    -0.239 C  
HETATM    6  C   UNL     2      -9.287   9.918  68.715  1.00  0.00    -0.157 C  
HETATM    7  C   UNL     2      -8.311  10.591  67.723  1.00  0.00    -0.111 C  
HETATM    8  C   UNL     2      -8.522   9.462  69.982  1.00  0.00    -0.202 C  
HETATM    9  C   UNL     2      -7.581  11.818  68.254  1.00  0.00    -0.122 C  
BRANCH   8  10
HETATM   10  C   UNL     2      -9.347   8.668  70.995  1.00  0.00    -0.254 C  
BRANCH  10  11
HETATM   11  C   UNL     2     -10.233   7.532  70.439  1.00  0.00    -0.202 C  
BRANCH  11  12
HETATM   12  C   UNL     2      -9.972   6.211  71.204  1.00  0.00    -0.218 C  
HETATM   13  C   UNL     2      -8.260   5.168  69.599  1.00  0.00    -0.093 C  
HETATM   14  C   UNL     2      -9.589   4.991  70.337  1.00  0.00    -0.260 C  
HETATM   15  C   UNL     2      -9.493   3.741  71.226  1.00  0.00    -0.229 C  
ENDBRANCH  11  12
BRANCH  11  16
HETATM   16  O   UNL     2     -11.603   7.884  70.610  1.00  0.00    -0.275 OA 
HETATM   17  O   UNL     2     -11.320   8.161  73.020  1.00  0.00    -0.336 OA 
HETATM   18  O   UNL     2     -13.511   8.525  71.979  1.00  0.00    -0.350 OA 
HETATM   19  S   UNL     2     -12.318   7.687  72.066  1.00  0.00    -0.253 S  
HETATM   20  O   UNL     2     -12.580   6.257  72.157  1.00  0.00    -0.257 OA 
ENDBRANCH  11  16
ENDBRANCH  10  11
ENDBRANCH   8  10
ENDBRANCH   4   5
ENDBRANCH   3   4
TORSDOF 6
ENDMDL
MODEL      331
REMARK 921   NORMALIZED FREE ENERGY PREDICTED BY IDOCK:   -2.56 KCAL/MOL
REMARK 922        TOTAL FREE ENERGY PREDICTED BY IDOCK:   -4.67 KCAL/MOL
REMARK 923 INTER-LIGAND FREE ENERGY PREDICTED BY IDOCK:   -3.66 KCAL/MOL
REMARK 924 INTRA-LIGAND FREE ENERGY PREDICTED BY IDOCK:   -1.01 KCAL/MOL
REMARK 927      BINDING AFFINITY PREDICTED BY RF-SCORE:    0.00 PKD
ROOT
HETATM    1 NA   UNL     1      -9.965   5.367  64.434  1.00  0.00    -0.372 Na 
HETATM    2  C   UNL     2      -6.740   5.942  66.191  1.00  0.00    -0.060 C  
HETATM    3  C   UNL     2      -6.910   7.437  65.961  1.00  0.00    -0.057 C  
ENDROOT
BRANCH   3   4
HETATM    4  C   UNL     2      -8.270   7.743  65.335  1.00  0.00    -0.140 C  
BRANCH   4   5
HETATM    5  C   UNL     2      -9.453   7.546  66.288  1.00  0.00    -0.161 C  
HETATM    6  C   UNL     2      -9.461   8.428  67.562  1.00  0.00    -0.182 C  
HETATM    7  C   UNL     2      -9.334   9.941  67.272  1.00  0.00    -0.167 C  
HETATM    8  C   UNL     2     -10.718   8.159  68.425  1.00  0.00    -0.066 C  
HETATM    9  C   UNL     2     -10.511  10.567  66.534  1.00  0.00    -0.276 C  
BRANCH   8  10
HETATM   10  C   UNL     2     -10.896   6.713  68.890  1.00  0.00    -0.326 C  
BRANCH  10  11
HETATM   11  C   UNL     2     -10.073   6.266  70.118  1.00  0.00    -0.179 C  
BRANCH  11  12
HETATM   12  C   UNL     2      -8.790   5.522  69.676  1.00  0.00    -0.120 C  
HETATM   13  C   UNL     2      -9.745   4.288  67.636  1.00  0.00    -0.186 C  
HETATM   14  C   UNL     2      -9.005   4.164  68.970  1.00  0.00    -0.163 C  
HETATM   15  C   UNL     2      -7.644   3.499  68.714  1.00  0.00    -0.053 C  
ENDBRANCH  11  12
BRANCH  11  16
HETATM   16  O   UNL     2      -9.687   7.418  70.864  1.00  0.00    -0.170 OA 
HETATM   17  O   UNL     2     -10.144   6.300  72.987  1.00  0.00    -0.173 OA 
HETATM   18  O   UNL     2      -9.335   8.615  72.954  1.00  0.00    -0.241 OA 
HETATM   19  S   UNL     2     -10.246   7.626  72.387  1.00  0.00    -0.249 S  
HETATM   20  O   UNL     2     -11.617   8.084  72.215  1.00  0.00    -0.316 OA 
ENDBRANCH  11  16
ENDBRANCH  10  11
ENDBRANCH   8  10
ENDBRANCH   4   5
ENDBRANCH   3   4
TORSDOF 6
ENDMDL
MODEL      332
REMARK 921   NORMALIZED FREE ENERGY PREDICTED BY IDOCK:   -2.56 KCAL/MOL
REMARK 922        TOTAL FREE ENERGY PREDICTED BY IDOCK:   -4.67 KCAL/MOL
REMARK 923 INTER-LIGAND FREE ENERGY PREDICTED BY IDOCK:   -5.04 KCAL/MOL
REMARK 924 INTRA-LIGAND FREE ENERGY PREDICTED BY IDOCK:    0.38 KCAL/MOL
REMARK 927      BINDING AFFINITY PREDICTED BY RF-SCORE:    0.00 PKD
ROOT
HETATM    1 NA   UNL     1      -6.881   7.949  67.822  1.00  0.00    -0.053 Na 
HETATM    2  C   UNL     2     -10.156   6.428  66.945  1.00  0.00    -0.244 C  
HETATM    3  C   UNL     2     -10.696   7.820  66.653  1.00  0.00     0.075 C  
ENDROOT
BRANCH   3   4
HETATM    4  C   UNL     2      -9.590   8.869  66.752  1.00  0.00    -0.262 C  
BRANCH   4   5
HETATM    5  C   UNL     2     -10.005  10.145  67.492  1.00  0.00    -0.231 C  
HETATM    6  C   UNL     2     -11.044   9.972  68.627  1.00  0.00    -0.223 C  
HETATM    7  C   UNL     2     -10.638   8.922  69.686  1.00  0.00    -0.230 C  
HETATM    8  C   UNL     2     -11.357  11.323  69.314  1.00  0.00    -0.354 C  
HETATM    9  C   UNL     2      -9.417   9.277  70.525  1.00  0.00    -0.317 C  
BRANCH   8  10
HETATM   10  C   UNL     2     -11.892  12.419  68.392  1.00  0.00    -0.361 C  
BRANCH  10  11
HETATM   11  C   UNL     2     -10.872  13.109  67.460  1.00  0.00    -0.255 C  
BRANCH  11  12
HETATM   12  C   UNL     2     -10.968  12.537  66.024  1.00  0.00    -0.318 C  
HETATM   13  C   UNL     2     -12.971  13.914  65.196  1.00  0.00    -0.282 C  
HETATM   14  C   UNL     2     -12.381  12.516  65.398  1.00  0.00    -0.426 C  
HETATM   15  C   UNL     2     -12.327  11.806  64.036  1.00  0.00    -0.341 C  
ENDBRANCH  11  12
BRANCH  11  16
HETATM   16  O   UNL     2     -11.159  14.504  67.406  1.00  0.00    -0.294 OA 
HETATM   17  O   UNL     2      -8.817  15.086  67.785  1.00  0.00    -0.165 OA 
HETATM   18  O   UNL     2     -10.504  16.845  67.511  1.00  0.00    -0.318 OA 
HETATM   19  S   UNL     2     -10.151  15.570  68.127  1.00  0.00    -0.220 S  
HETATM   20  O   UNL     2     -10.463  15.468  69.546  1.00  0.00    -0.226 OA 
ENDBRANCH  11  16
ENDBRANCH  10  11
ENDBRANCH   8  10
ENDBRANCH   4   5
ENDBRANCH   3   4
TORSDOF 6
ENDMDL
MODEL      333
REMARK 921   NORMALIZED FREE ENERGY PREDICTED BY IDOCK:   -2.56 KCAL/MOL
REMARK 922        TOTAL FREE ENERGY PREDICTED BY IDOCK:   -4.66 KCAL/MOL
REMARK 923 INTER-LIGAND FREE ENERGY PREDICTED BY IDOCK:   -5.52 KCAL/MOL
REMARK 924 INTRA-LIGAND FREE ENERGY PREDICTED BY IDOCK:    0.86 KCAL/MOL
REMARK 927      BINDING AFFINITY PREDICTED BY RF-SCORE:    0.00 PKD
ROOT
HETATM    1 NA   UNL     1      -7.699   9.163  70.014  1.00  0.00    -0.052 Na 
HETATM    2  C   UNL     2      -5.702  11.156  67.595  1.00  0.00    -0.044 C  
HETATM    3  C   UNL     2      -6.941  11.990  67.298  1.00  0.00    -0.146 C  
ENDROOT
BRANCH   3   4
HETATM    4  C   UNL     2      -8.094  11.606  68.223  1.00  0.00    -0.150 C  
BRANCH   4   5
HETATM    5  C   UNL     2      -9.463  12.111  67.756  1.00  0.00    -0.192 C  
HETATM    6  C   UNL     2     -10.551  11.032  67.531  1.00  0.00    -0.266 C  
HETATM    7  C   UNL     2     -10.778  10.114  68.753  1.00  0.00    -0.247 C  
HETATM    8  C   UNL     2     -11.892  11.668  67.091  1.00  0.00    -0.090 C  
HETATM    9  C   UNL     2     -11.361  10.795  69.985  1.00  0.00    -0.397 C  
BRANCH   8  10
HETATM   10  C   UNL     2     -11.832  12.505  65.813  1.00  0.00    -0.494 C  
BRANCH  10  11
HETATM   11  C   UNL     2     -10.487  12.529  65.054  1.00  0.00    -0.297 C  
BRANCH  11  12
HETATM   12  C   UNL     2     -10.508  11.529  63.872  1.00  0.00    -0.439 C  
HETATM   13  C   UNL     2      -9.350   9.548  65.025  1.00  0.00    -0.294 C  
HETATM   14  C   UNL     2      -9.351  10.506  63.831  1.00  0.00    -0.314 C  
HETATM   15  C   UNL     2      -9.443   9.679  62.539  1.00  0.00     0.053 C  
ENDBRANCH  11  12
BRANCH  11  16
HETATM   16  O   UNL     2     -10.272  13.837  64.529  1.00  0.00    -0.414 OA 
HETATM   17  O   UNL     2     -11.195  14.885  66.533  1.00  0.00    -0.340 OA 
HETATM   18  O   UNL     2     -10.388  16.264  64.672  1.00  0.00    -0.429 OA 
HETATM   19  S   UNL     2     -11.155  15.094  65.089  1.00  0.00    -0.410 S  
HETATM   20  O   UNL     2     -12.451  14.949  64.442  1.00  0.00    -0.558 OA 
ENDBRANCH  11  16
ENDBRANCH  10  11
ENDBRANCH   8  10
ENDBRANCH   4   5
ENDBRANCH   3   4
TORSDOF 6
ENDMDL
MODEL      334
REMARK 921   NORMALIZED FREE ENERGY PREDICTED BY IDOCK:   -2.56 KCAL/MOL
REMARK 922        TOTAL FREE ENERGY PREDICTED BY IDOCK:   -4.66 KCAL/MOL
REMARK 923 INTER-LIGAND FREE ENERGY PREDICTED BY IDOCK:   -4.25 KCAL/MOL
REMARK 924 INTRA-LIGAND FREE ENERGY PREDICTED BY IDOCK:   -0.41 KCAL/MOL
REMARK 927      BINDING AFFINITY PREDICTED BY RF-SCORE:    0.00 PKD
ROOT
HETATM    1 NA   UNL     1     -12.311  10.216  70.850  1.00  0.00    -0.250 Na 
HETATM    2  C   UNL     2     -10.338   7.342  72.138  1.00  0.00    -0.220 C  
HETATM    3  C   UNL     2      -9.074   8.008  71.616  1.00  0.00    -0.194 C  
ENDROOT
BRANCH   3   4
HETATM    4  C   UNL     2      -9.375   9.402  71.068  1.00  0.00    -0.210 C  
BRANCH   4   5
HETATM    5  C   UNL     2      -9.892   9.407  69.626  1.00  0.00    -0.205 C  
HETATM    6  C   UNL     2      -9.124  10.305  68.626  1.00  0.00    -0.152 C  
HETATM    7  C   UNL     2      -7.604  10.029  68.582  1.00  0.00    -0.088 C  
HETATM    8  C   UNL     2      -9.721  10.202  67.202  1.00  0.00    -0.214 C  
HETATM    9  C   UNL     2      -7.202   8.662  68.041  1.00  0.00    -0.087 C  
BRANCH   8  10
HETATM   10  C   UNL     2     -11.199  10.574  67.082  1.00  0.00    -0.134 C  
BRANCH  10  11
HETATM   11  C   UNL     2     -11.528  11.921  66.401  1.00  0.00    -0.304 C  
BRANCH  11  12
HETATM   12  C   UNL     2     -11.543  13.070  67.439  1.00  0.00    -0.407 C  
HETATM   13  C   UNL     2      -9.658  14.507  66.451  1.00  0.00    -0.324 C  
HETATM   14  C   UNL     2     -10.191  13.777  67.686  1.00  0.00    -0.242 C  
HETATM   15  C   UNL     2     -10.347  14.794  68.827  1.00  0.00    -0.248 C  
ENDBRANCH  11  12
BRANCH  11  16
HETATM   16  O   UNL     2     -10.525  12.209  65.430  1.00  0.00    -0.254 OA 
HETATM   17  O   UNL     2     -12.197  12.862  63.773  1.00  0.00    -0.481 OA 
HETATM   18  O   UNL     2      -9.809  12.929  63.218  1.00  0.00     0.184 OA 
HETATM   19  S   UNL     2     -10.903  12.190  63.840  1.00  0.00    -0.452 S  
HETATM   20  O   UNL     2     -10.961  10.776  63.493  1.00  0.00     0.028 OA 
ENDBRANCH  11  16
ENDBRANCH  10  11
ENDBRANCH   8  10
ENDBRANCH   4   5
ENDBRANCH   3   4
TORSDOF 6
ENDMDL
MODEL      335
REMARK 921   NORMALIZED FREE ENERGY PREDICTED BY IDOCK:   -2.55 KCAL/MOL
REMARK 922        TOTAL FREE ENERGY PREDICTED BY IDOCK:   -4.65 KCAL/MOL
REMARK 923 INTER-LIGAND FREE ENERGY PREDICTED BY IDOCK:   -5.93 KCAL/MOL
REMARK 924 INTRA-LIGAND FREE ENERGY PREDICTED BY IDOCK:    1.28 KCAL/MOL
REMARK 927      BINDING AFFINITY PREDICTED BY RF-SCORE:    0.00 PKD
ROOT
HETATM    1 NA   UNL     1      -8.269   7.907  71.115  1.00  0.00    -0.090 Na 
HETATM    2  C   UNL     2     -11.730   6.561  71.281  1.00  0.00    -0.386 C  
HETATM    3  C   UNL     2     -12.145   7.794  72.069  1.00  0.00    -0.351 C  
ENDROOT
BRANCH   3   4
HETATM    4  C   UNL     2     -10.999   8.801  72.156  1.00  0.00    -0.404 C  
BRANCH   4   5
HETATM    5  C   UNL     2     -10.877   9.714  70.932  1.00  0.00    -0.409 C  
HETATM    6  C   UNL     2     -12.205  10.125  70.250  1.00  0.00    -0.248 C  
HETATM    7  C   UNL     2     -13.229  10.763  71.216  1.00  0.00    -0.326 C  
HETATM    8  C   UNL     2     -11.953  11.069  69.049  1.00  0.00    -0.364 C  
HETATM    9  C   UNL     2     -12.827  12.112  71.800  1.00  0.00    -0.367 C  
BRANCH   8  10
HETATM   10  C   UNL     2     -11.051  10.505  67.950  1.00  0.00    -0.367 C  
BRANCH  10  11
HETATM   11  C   UNL     2     -10.727  11.439  66.764  1.00  0.00    -0.271 C  
BRANCH  11  12
HETATM   12  C   UNL     2     -11.679  12.659  66.751  1.00  0.00    -0.460 C  
HETATM   13  C   UNL     2     -12.778  12.267  64.464  1.00  0.00    -0.336 C  
HETATM   14  C   UNL     2     -12.013  13.243  65.360  1.00  0.00    -0.432 C  
HETATM   15  C   UNL     2     -12.856  14.517  65.528  1.00  0.00    -0.134 C  
ENDBRANCH  11  12
BRANCH  11  16
HETATM   16  O   UNL     2      -9.391  11.916  66.899  1.00  0.00    -0.186 OA 
HETATM   17  O   UNL     2     -10.110  13.787  68.294  1.00  0.00    -0.227 OA 
HETATM   18  O   UNL     2      -7.740  13.497  67.736  1.00  0.00    -0.131 OA 
HETATM   19  S   UNL     2      -9.121  13.487  67.264  1.00  0.00    -0.234 S  
HETATM   20  O   UNL     2      -9.346  14.199  66.014  1.00  0.00    -0.203 OA 
ENDBRANCH  11  16
ENDBRANCH  10  11
ENDBRANCH   8  10
ENDBRANCH   4   5
ENDBRANCH   3   4
TORSDOF 6
ENDMDL
MODEL      336
REMARK 921   NORMALIZED FREE ENERGY PREDICTED BY IDOCK:   -2.55 KCAL/MOL
REMARK 922        TOTAL FREE ENERGY PREDICTED BY IDOCK:   -4.65 KCAL/MOL
REMARK 923 INTER-LIGAND FREE ENERGY PREDICTED BY IDOCK:   -4.71 KCAL/MOL
REMARK 924 INTRA-LIGAND FREE ENERGY PREDICTED BY IDOCK:    0.06 KCAL/MOL
REMARK 927      BINDING AFFINITY PREDICTED BY RF-SCORE:    0.00 PKD
ROOT
HETATM    1 NA   UNL     1     -10.348  14.919  72.701  1.00  0.00    -0.388 Na 
HETATM    2  C   UNL     2     -13.804  13.644  72.204  1.00  0.00    -0.642 C  
HETATM    3  C   UNL     2     -14.078  14.820  71.278  1.00  0.00    -0.427 C  
ENDROOT
BRANCH   3   4
HETATM    4  C   UNL     2     -12.808  15.635  71.037  1.00  0.00    -0.521 C  
BRANCH   4   5
HETATM    5  C   UNL     2     -11.656  14.829  70.427  1.00  0.00    -0.333 C  
HETATM    6  C   UNL     2     -11.578  14.810  68.881  1.00  0.00    -0.340 C  
HETATM    7  C   UNL     2     -11.562  16.216  68.240  1.00  0.00    -0.181 C  
HETATM    8  C   UNL     2     -10.360  13.991  68.389  1.00  0.00    -0.251 C  
HETATM    9  C   UNL     2     -10.326  17.057  68.537  1.00  0.00    -0.359 C  
BRANCH   8  10
HETATM   10  C   UNL     2     -10.319  12.534  68.850  1.00  0.00    -0.063 C  
BRANCH  10  11
HETATM   11  C   UNL     2      -8.924  11.892  69.018  1.00  0.00     0.313 C  
BRANCH  11  12
HETATM   12  C   UNL     2      -8.949  10.408  68.579  1.00  0.00    -0.139 C  
HETATM   13  C   UNL     2     -11.054  10.475  67.110  1.00  0.00    -0.232 C  
HETATM   14  C   UNL     2     -10.345   9.810  68.291  1.00  0.00    -0.231 C  
HETATM   15  C   UNL     2     -10.208   8.308  67.997  1.00  0.00    -0.265 C  
ENDBRANCH  11  12
BRANCH  11  16
HETATM   16  O   UNL     2      -7.990  12.586  68.196  1.00  0.00    -0.139 OA 
HETATM   17  O   UNL     2      -6.182  12.222  69.797  1.00  0.00    -0.129 OA 
HETATM   18  O   UNL     2      -5.768  13.458  67.720  1.00  0.00    -0.126 OA 
HETATM   19  S   UNL     2      -6.649  13.241  68.863  1.00  0.00    -0.111 S  
HETATM   20  O   UNL     2      -7.119  14.457  69.513  1.00  0.00    -0.143 OA 
ENDBRANCH  11  16
ENDBRANCH  10  11
ENDBRANCH   8  10
ENDBRANCH   4   5
ENDBRANCH   3   4
TORSDOF 6
ENDMDL
MODEL      337
REMARK 921   NORMALIZED FREE ENERGY PREDICTED BY IDOCK:   -2.53 KCAL/MOL
REMARK 922        TOTAL FREE ENERGY PREDICTED BY IDOCK:   -4.62 KCAL/MOL
REMARK 923 INTER-LIGAND FREE ENERGY PREDICTED BY IDOCK:   -4.79 KCAL/MOL
REMARK 924 INTRA-LIGAND FREE ENERGY PREDICTED BY IDOCK:    0.17 KCAL/MOL
REMARK 927      BINDING AFFINITY PREDICTED BY RF-SCORE:    0.00 PKD
ROOT
HETATM    1 NA   UNL     1      -7.779  16.429  65.636  1.00  0.00    -0.252 Na 
HETATM    2  C   UNL     2      -8.395  15.107  69.055  1.00  0.00    -0.209 C  
HETATM    3  C   UNL     2      -9.802  14.719  68.624  1.00  0.00    -0.225 C  
ENDROOT
BRANCH   3   4
HETATM    4  C   UNL     2     -10.004  14.962  67.129  1.00  0.00    -0.231 C  
BRANCH   4   5
HETATM    5  C   UNL     2      -9.669  13.753  66.250  1.00  0.00    -0.297 C  
HETATM    6  C   UNL     2     -10.468  12.457  66.534  1.00  0.00    -0.254 C  
HETATM    7  C   UNL     2     -12.001  12.653  66.504  1.00  0.00    -0.401 C  
HETATM    8  C   UNL     2     -10.062  11.321  65.565  1.00  0.00    -0.306 C  
HETATM    9  C   UNL     2     -12.590  13.010  65.145  1.00  0.00    -0.530 C  
BRANCH   8  10
HETATM   10  C   UNL     2      -8.582  10.938  65.587  1.00  0.00    -0.163 C  
BRANCH  10  11
HETATM   11  C   UNL     2      -8.227   9.549  66.162  1.00  0.00    -0.115 C  
BRANCH  11  12
HETATM   12  C   UNL     2      -9.445   8.597  66.083  1.00  0.00    -0.308 C  
HETATM   13  C   UNL     2     -10.378   8.967  68.447  1.00  0.00    -0.242 C  
HETATM   14  C   UNL     2      -9.886   7.949  67.415  1.00  0.00    -0.237 C  
HETATM   15  C   UNL     2     -11.013   6.941  67.146  1.00  0.00    -0.427 C  
ENDBRANCH  11  12
BRANCH  11  16
HETATM   16  O   UNL     2      -7.167   8.984  65.395  1.00  0.00    -0.083 OA 
HETATM   17  O   UNL     2      -8.519   8.998  63.361  1.00  0.00    -0.193 OA 
HETATM   18  O   UNL     2      -6.221   8.141  63.317  1.00  0.00    -0.071 OA 
HETATM   19  S   UNL     2      -7.504   8.177  64.014  1.00  0.00    -0.122 S  
HETATM   20  O   UNL     2      -7.996   6.881  64.456  1.00  0.00    -0.122 OA 
ENDBRANCH  11  16
ENDBRANCH  10  11
ENDBRANCH   8  10
ENDBRANCH   4   5
ENDBRANCH   3   4
TORSDOF 6
ENDMDL
MODEL      338
REMARK 921   NORMALIZED FREE ENERGY PREDICTED BY IDOCK:   -2.52 KCAL/MOL
REMARK 922        TOTAL FREE ENERGY PREDICTED BY IDOCK:   -4.61 KCAL/MOL
REMARK 923 INTER-LIGAND FREE ENERGY PREDICTED BY IDOCK:   -3.52 KCAL/MOL
REMARK 924 INTRA-LIGAND FREE ENERGY PREDICTED BY IDOCK:   -1.09 KCAL/MOL
REMARK 927      BINDING AFFINITY PREDICTED BY RF-SCORE:    0.00 PKD
ROOT
HETATM    1 NA   UNL     1      -6.694   6.847  74.288  1.00  0.00    -0.076 Na 
HETATM    2  C   UNL     2     -10.397   6.561  74.158  1.00  0.00    -0.351 C  
HETATM    3  C   UNL     2     -10.424   7.697  73.145  1.00  0.00    -0.433 C  
ENDROOT
BRANCH   3   4
HETATM    4  C   UNL     2      -9.008   8.103  72.740  1.00  0.00    -0.313 C  
BRANCH   4   5
HETATM    5  C   UNL     2      -8.662   7.786  71.282  1.00  0.00    -0.140 C  
HETATM    6  C   UNL     2      -7.571   6.711  71.055  1.00  0.00    -0.085 C  
HETATM    7  C   UNL     2      -7.857   5.373  71.775  1.00  0.00    -0.112 C  
HETATM    8  C   UNL     2      -7.334   6.459  69.546  1.00  0.00    -0.088 C  
HETATM    9  C   UNL     2      -9.069   4.602  71.267  1.00  0.00    -0.179 C  
BRANCH   8  10
HETATM   10  C   UNL     2      -6.917   7.685  68.734  1.00  0.00    -0.071 C  
BRANCH  10  11
HETATM   11  C   UNL     2      -7.763   8.017  67.485  1.00  0.00    -0.106 C  
BRANCH  11  12
HETATM   12  C   UNL     2      -6.963   7.731  66.191  1.00  0.00    -0.062 C  
HETATM   13  C   UNL     2      -6.045  10.093  65.775  1.00  0.00    -0.098 C  
HETATM   14  C   UNL     2      -6.830   8.911  65.202  1.00  0.00    -0.076 C  
HETATM   15  C   UNL     2      -6.128   8.430  63.922  1.00  0.00    -0.071 C  
ENDBRANCH  11  12
BRANCH  11  16
HETATM   16  O   UNL     2      -8.929   7.197  67.480  1.00  0.00    -0.122 OA 
HETATM   17  O   UNL     2     -10.195   8.859  66.215  1.00  0.00    -0.284 OA 
HETATM   18  O   UNL     2     -11.249   6.753  66.897  1.00  0.00    -0.375 OA 
HETATM   19  S   UNL     2     -10.401   7.878  67.276  1.00  0.00    -0.325 S  
HETATM   20  O   UNL     2     -10.713   8.473  68.568  1.00  0.00    -0.151 OA 
ENDBRANCH  11  16
ENDBRANCH  10  11
ENDBRANCH   8  10
ENDBRANCH   4   5
ENDBRANCH   3   4
TORSDOF 6
ENDMDL
MODEL      339
REMARK 921   NORMALIZED FREE ENERGY PREDICTED BY IDOCK:   -2.51 KCAL/MOL
REMARK 922        TOTAL FREE ENERGY PREDICTED BY IDOCK:   -4.60 KCAL/MOL
REMARK 923 INTER-LIGAND FREE ENERGY PREDICTED BY IDOCK:   -3.94 KCAL/MOL
REMARK 924 INTRA-LIGAND FREE ENERGY PREDICTED BY IDOCK:   -0.65 KCAL/MOL
REMARK 927      BINDING AFFINITY PREDICTED BY RF-SCORE:    0.00 PKD
ROOT
HETATM    1 NA   UNL     1     -10.388  18.682  69.753  1.00  0.00    -0.391 Na 
HETATM    2  C   UNL     2      -9.253  18.237  66.242  1.00  0.00    -0.216 C  
HETATM    3  C   UNL     2     -10.280  17.126  66.077  1.00  0.00    -0.332 C  
ENDROOT
BRANCH   3   4
HETATM    4  C   UNL     2     -11.164  17.009  67.317  1.00  0.00     0.260 C  
BRANCH   4   5
HETATM    5  C   UNL     2     -11.810  15.631  67.495  1.00  0.00     0.215 C  
HETATM    6  C   UNL     2     -11.199  14.724  68.591  1.00  0.00    -0.288 C  
HETATM    7  C   UNL     2     -11.124  15.394  69.982  1.00  0.00    -0.317 C  
HETATM    8  C   UNL     2     -11.954  13.377  68.693  1.00  0.00    -0.362 C  
HETATM    9  C   UNL     2     -12.467  15.697  70.636  1.00  0.00    -0.463 C  
BRANCH   8  10
HETATM   10  C   UNL     2     -11.993  12.548  67.409  1.00  0.00    -0.283 C  
BRANCH  10  11
HETATM   11  C   UNL     2     -11.356  11.142  67.464  1.00  0.00    -0.278 C  
BRANCH  11  12
HETATM   12  C   UNL     2     -11.020  10.638  66.039  1.00  0.00     0.050 C  
HETATM   13  C   UNL     2      -9.783  12.717  65.176  1.00  0.00    -0.018 C  
HETATM   14  C   UNL     2     -10.923  11.723  64.942  1.00  0.00    -0.358 C  
HETATM   15  C   UNL     2     -10.715  11.052  63.576  1.00  0.00    -0.230 C  
ENDBRANCH  11  12
BRANCH  11  16
HETATM   16  O   UNL     2     -10.144  11.209  68.211  1.00  0.00    -0.172 OA 
HETATM   17  O   UNL     2     -10.259   8.834  68.769  1.00  0.00    -0.197 OA 
HETATM   18  O   UNL     2      -8.403  10.212  69.589  1.00  0.00    -0.168 OA 
HETATM   19  S   UNL     2      -9.842  10.096  69.370  1.00  0.00    -0.231 S  
HETATM   20  O   UNL     2     -10.667  10.507  70.498  1.00  0.00    -0.166 OA 
ENDBRANCH  11  16
ENDBRANCH  10  11
ENDBRANCH   8  10
ENDBRANCH   4   5
ENDBRANCH   3   4
TORSDOF 6
ENDMDL
MODEL      340
REMARK 921   NORMALIZED FREE ENERGY PREDICTED BY IDOCK:   -2.50 KCAL/MOL
REMARK 922        TOTAL FREE ENERGY PREDICTED BY IDOCK:   -4.58 KCAL/MOL
REMARK 923 INTER-LIGAND FREE ENERGY PREDICTED BY IDOCK:   -3.58 KCAL/MOL
REMARK 924 INTRA-LIGAND FREE ENERGY PREDICTED BY IDOCK:   -1.00 KCAL/MOL
REMARK 927      BINDING AFFINITY PREDICTED BY RF-SCORE:    0.00 PKD
ROOT
HETATM    1 NA   UNL     1      -8.466  18.733  66.204  1.00  0.00    -0.256 Na 
HETATM    2  C   UNL     2      -5.962  16.680  68.028  1.00  0.00    -0.133 C  
HETATM    3  C   UNL     2      -7.079  16.151  68.916  1.00  0.00    -0.166 C  
ENDROOT
BRANCH   3   4
HETATM    4  C   UNL     2      -8.442  16.646  68.434  1.00  0.00    -0.216 C  
BRANCH   4   5
HETATM    5  C   UNL     2      -9.287  15.570  67.745  1.00  0.00    -0.195 C  
HETATM    6  C   UNL     2      -9.932  14.509  68.670  1.00  0.00    -0.237 C  
HETATM    7  C   UNL     2     -10.777  15.113  69.815  1.00  0.00    -0.288 C  
HETATM    8  C   UNL     2     -10.783  13.499  67.862  1.00  0.00    -0.258 C  
HETATM    9  C   UNL     2     -12.035  15.855  69.379  1.00  0.00    -0.268 C  
BRANCH   8  10
HETATM   10  C   UNL     2     -10.031  12.734  66.772  1.00  0.00    -0.237 C  
BRANCH  10  11
HETATM   11  C   UNL     2      -9.262  11.468  67.210  1.00  0.00    -0.167 C  
BRANCH  11  12
HETATM   12  C   UNL     2     -10.199  10.236  67.225  1.00  0.00    -0.267 C  
HETATM   13  C   UNL     2     -10.767  10.213  69.729  1.00  0.00    -0.317 C  
HETATM   14  C   UNL     2     -10.226   9.420  68.537  1.00  0.00    -0.223 C  
HETATM   15  C   UNL     2     -11.096   8.169  68.345  1.00  0.00     0.338 C  
ENDBRANCH  11  12
BRANCH  11  16
HETATM   16  O   UNL     2      -8.210  11.218  66.282  1.00  0.00    -0.169 OA 
HETATM   17  O   UNL     2      -6.765  10.319  68.034  1.00  0.00    -0.065 OA 
HETATM   18  O   UNL     2      -5.974  10.441  65.715  1.00  0.00    -0.093 OA 
HETATM   19  S   UNL     2      -6.667  11.111  66.812  1.00  0.00    -0.140 S  
HETATM   20  O   UNL     2      -6.260  12.490  67.041  1.00  0.00    -0.227 OA 
ENDBRANCH  11  16
ENDBRANCH  10  11
ENDBRANCH   8  10
ENDBRANCH   4   5
ENDBRANCH   3   4
TORSDOF 6
ENDMDL
MODEL      341
REMARK 921   NORMALIZED FREE ENERGY PREDICTED BY IDOCK:   -2.49 KCAL/MOL
REMARK 922        TOTAL FREE ENERGY PREDICTED BY IDOCK:   -4.57 KCAL/MOL
REMARK 923 INTER-LIGAND FREE ENERGY PREDICTED BY IDOCK:   -3.60 KCAL/MOL
REMARK 924 INTRA-LIGAND FREE ENERGY PREDICTED BY IDOCK:   -0.97 KCAL/MOL
REMARK 927      BINDING AFFINITY PREDICTED BY RF-SCORE:    0.00 PKD
ROOT
HETATM    1 NA   UNL     1      -9.797   9.252  64.073  1.00  0.00    -0.405 Na 
HETATM    2  C   UNL     2      -7.763   6.141  64.040  1.00  0.00    -0.106 C  
HETATM    3  C   UNL     2      -6.620   6.912  64.686  1.00  0.00    -0.042 C  
ENDROOT
BRANCH   3   4
HETATM    4  C   UNL     2      -7.053   8.331  65.050  1.00  0.00    -0.075 C  
BRANCH   4   5
HETATM    5  C   UNL     2      -8.015   8.403  66.240  1.00  0.00    -0.099 C  
HETATM    6  C   UNL     2      -7.458   7.918  67.601  1.00  0.00    -0.097 C  
HETATM    7  C   UNL     2      -6.139   8.610  68.016  1.00  0.00    -0.051 C  
HETATM    8  C   UNL     2      -8.510   8.068  68.726  1.00  0.00    -0.127 C  
HETATM    9  C   UNL     2      -6.247  10.100  68.314  1.00  0.00    -0.049 C  
BRANCH   8  10
HETATM   10  C   UNL     2      -9.825   7.322  68.498  1.00  0.00    -0.159 C  
BRANCH  10  11
HETATM   11  C   UNL     2     -10.297   6.376  69.625  1.00  0.00    -0.204 C  
BRANCH  11  12
HETATM   12  C   UNL     2     -11.774   6.659  69.993  1.00  0.00    -0.378 C  
HETATM   13  C   UNL     2     -11.393   8.535  71.704  1.00  0.00    -0.362 C  
HETATM   14  C   UNL     2     -12.028   7.170  71.429  1.00  0.00    -0.364 C  
HETATM   15  C   UNL     2     -13.541   7.276  71.675  1.00  0.00    -0.435 C  
ENDBRANCH  11  12
BRANCH  11  16
HETATM   16  O   UNL     2     -10.199   5.028  69.173  1.00  0.00    -0.207 OA 
HETATM   17  O   UNL     2      -8.905   4.375  71.139  1.00  0.00    -0.109 OA 
HETATM   18  O   UNL     2      -9.446   2.726  69.406  1.00  0.00    -0.142 OA 
HETATM   19  S   UNL     2      -8.985   4.076  69.713  1.00  0.00    -0.113 S  
HETATM   20  O   UNL     2      -7.816   4.509  68.960  1.00  0.00    -0.069 OA 
ENDBRANCH  11  16
ENDBRANCH  10  11
ENDBRANCH   8  10
ENDBRANCH   4   5
ENDBRANCH   3   4
TORSDOF 6
ENDMDL
MODEL      342
REMARK 921   NORMALIZED FREE ENERGY PREDICTED BY IDOCK:   -2.49 KCAL/MOL
REMARK 922        TOTAL FREE ENERGY PREDICTED BY IDOCK:   -4.56 KCAL/MOL
REMARK 923 INTER-LIGAND FREE ENERGY PREDICTED BY IDOCK:   -3.95 KCAL/MOL
REMARK 924 INTRA-LIGAND FREE ENERGY PREDICTED BY IDOCK:   -0.61 KCAL/MOL
REMARK 927      BINDING AFFINITY PREDICTED BY RF-SCORE:    0.00 PKD
ROOT
HETATM    1 NA   UNL     1      -9.809   9.305  72.472  1.00  0.00    -0.271 Na 
HETATM    2  C   UNL     2     -13.401   8.613  71.812  1.00  0.00    -0.410 C  
HETATM    3  C   UNL     2     -13.543  10.020  71.251  1.00  0.00    -0.236 C  
ENDROOT
BRANCH   3   4
HETATM    4  C   UNL     2     -12.187  10.721  71.179  1.00  0.00    -0.457 C  
BRANCH   4   5
HETATM    5  C   UNL     2     -11.235  10.132  70.133  1.00  0.00    -0.377 C  
HETATM    6  C   UNL     2     -11.606  10.383  68.651  1.00  0.00    -0.172 C  
HETATM    7  C   UNL     2     -11.821  11.874  68.307  1.00  0.00    -0.343 C  
HETATM    8  C   UNL     2     -10.556   9.766  67.695  1.00  0.00    -0.333 C  
HETATM    9  C   UNL     2     -10.580  12.753  68.401  1.00  0.00    -0.262 C  
BRANCH   8  10
HETATM   10  C   UNL     2     -10.337   8.260  67.845  1.00  0.00    -0.278 C  
BRANCH  10  11
HETATM   11  C   UNL     2      -8.882   7.781  68.039  1.00  0.00    -0.124 C  
BRANCH  11  12
HETATM   12  C   UNL     2      -8.825   6.237  68.147  1.00  0.00    -0.113 C  
HETATM   13  C   UNL     2     -10.014   5.652  65.947  1.00  0.00     0.050 C  
HETATM   14  C   UNL     2      -9.979   5.467  67.466  1.00  0.00    -0.189 C  
HETATM   15  C   UNL     2      -9.846   3.968  67.774  1.00  0.00    -0.088 C  
ENDBRANCH  11  12
BRANCH  11  16
HETATM   16  O   UNL     2      -8.106   8.179  66.911  1.00  0.00    -0.102 OA 
HETATM   17  O   UNL     2      -6.089   8.397  68.270  1.00  0.00    -0.044 OA 
HETATM   18  O   UNL     2      -6.023   8.882  65.867  1.00  0.00    -0.050 OA 
HETATM   19  S   UNL     2      -6.735   9.041  67.132  1.00  0.00    -0.066 S  
HETATM   20  O   UNL     2      -7.193  10.395  67.409  1.00  0.00    -0.089 OA 
ENDBRANCH  11  16
ENDBRANCH  10  11
ENDBRANCH   8  10
ENDBRANCH   4   5
ENDBRANCH   3   4
TORSDOF 6
ENDMDL
MODEL      343
REMARK 921   NORMALIZED FREE ENERGY PREDICTED BY IDOCK:   -2.48 KCAL/MOL
REMARK 922        TOTAL FREE ENERGY PREDICTED BY IDOCK:   -4.56 KCAL/MOL
REMARK 923 INTER-LIGAND FREE ENERGY PREDICTED BY IDOCK:   -4.58 KCAL/MOL
REMARK 924 INTRA-LIGAND FREE ENERGY PREDICTED BY IDOCK:    0.02 KCAL/MOL
REMARK 927      BINDING AFFINITY PREDICTED BY RF-SCORE:    0.00 PKD
ROOT
HETATM    1 NA   UNL     1      -6.120   5.570  71.144  1.00  0.00    -0.022 Na 
HETATM    2  C   UNL     2      -9.175   3.481  71.487  1.00  0.00    -0.193 C  
HETATM    3  C   UNL     2      -9.910   4.450  70.572  1.00  0.00    -0.285 C  
ENDROOT
BRANCH   3   4
HETATM    4  C   UNL     2      -8.957   5.505  70.013  1.00  0.00    -0.149 C  
BRANCH   4   5
HETATM    5  C   UNL     2      -9.652   6.786  69.542  1.00  0.00    -0.148 C  
HETATM    6  C   UNL     2      -9.257   7.304  68.138  1.00  0.00    -0.132 C  
HETATM    7  C   UNL     2      -9.407   6.248  67.020  1.00  0.00    -0.135 C  
HETATM    8  C   UNL     2     -10.046   8.583  67.766  1.00  0.00    -0.266 C  
HETATM    9  C   UNL     2     -10.835   5.806  66.724  1.00  0.00    -0.327 C  
BRANCH   8  10
HETATM   10  C   UNL     2      -9.882   9.758  68.730  1.00  0.00    -0.176 C  
BRANCH  10  11
HETATM   11  C   UNL     2     -10.830  10.962  68.533  1.00  0.00    -0.220 C  
BRANCH  11  12
HETATM   12  C   UNL     2     -11.943  10.964  69.608  1.00  0.00    -0.414 C  
HETATM   13  C   UNL     2     -10.821   9.421  71.327  1.00  0.00    -0.431 C  
HETATM   14  C   UNL     2     -12.059   9.683  70.465  1.00  0.00    -0.198 C  
HETATM   15  C   UNL     2     -13.283   9.792  71.387  1.00  0.00    -0.482 C  
ENDBRANCH  11  12
BRANCH  11  16
HETATM   16  O   UNL     2     -10.082  12.169  68.661  1.00  0.00    -0.212 OA 
HETATM   17  O   UNL     2     -10.330  12.675  66.285  1.00  0.00    -0.245 OA 
HETATM   18  O   UNL     2      -9.078  14.190  67.751  1.00  0.00    -0.177 OA 
HETATM   19  S   UNL     2      -9.344  12.812  67.352  1.00  0.00    -0.201 S  
HETATM   20  O   UNL     2      -8.157  11.990  67.159  1.00  0.00    -0.165 OA 
ENDBRANCH  11  16
ENDBRANCH  10  11
ENDBRANCH   8  10
ENDBRANCH   4   5
ENDBRANCH   3   4
TORSDOF 6
ENDMDL
MODEL      344
REMARK 921   NORMALIZED FREE ENERGY PREDICTED BY IDOCK:   -2.47 KCAL/MOL
REMARK 922        TOTAL FREE ENERGY PREDICTED BY IDOCK:   -4.55 KCAL/MOL
REMARK 923 INTER-LIGAND FREE ENERGY PREDICTED BY IDOCK:   -4.30 KCAL/MOL
REMARK 924 INTRA-LIGAND FREE ENERGY PREDICTED BY IDOCK:   -0.25 KCAL/MOL
REMARK 927      BINDING AFFINITY PREDICTED BY RF-SCORE:    0.00 PKD
ROOT
HETATM    1 NA   UNL     1      -8.464   7.508  66.595  1.00  0.00    -0.106 Na 
HETATM    2  C   UNL     2      -5.891   5.368  68.212  1.00  0.00    -0.017 C  
HETATM    3  C   UNL     2      -6.808   5.221  69.418  1.00  0.00    -0.054 C  
ENDROOT
BRANCH   3   4
HETATM    4  C   UNL     2      -8.165   5.871  69.157  1.00  0.00    -0.106 C  
BRANCH   4   5
HETATM    5  C   UNL     2      -8.318   7.264  69.776  1.00  0.00    -0.135 C  
HETATM    6  C   UNL     2      -9.690   7.581  70.420  1.00  0.00    -0.179 C  
HETATM    7  C   UNL     2     -10.137   6.543  71.474  1.00  0.00    -0.211 C  
HETATM    8  C   UNL     2      -9.710   9.001  71.035  1.00  0.00    -0.348 C  
HETATM    9  C   UNL     2      -9.284   6.482  72.735  1.00  0.00    -0.143 C  
BRANCH   8  10
HETATM   10  C   UNL     2      -9.407  10.141  70.062  1.00  0.00    -0.062 C  
BRANCH  10  11
HETATM   11  C   UNL     2     -10.538  10.555  69.095  1.00  0.00    -0.229 C  
BRANCH  11  12
HETATM   12  C   UNL     2     -11.896  10.616  69.835  1.00  0.00    -0.392 C  
HETATM   13  C   UNL     2     -12.009  13.151  70.225  1.00  0.00    -0.366 C  
HETATM   14  C   UNL     2     -12.057  11.760  70.861  1.00  0.00    -0.271 C  
HETATM   15  C   UNL     2     -13.397  11.604  71.596  1.00  0.00    -0.254 C  
ENDBRANCH  11  12
BRANCH  11  16
HETATM   16  O   UNL     2     -10.255  11.851  68.574  1.00  0.00    -0.213 OA 
HETATM   17  O   UNL     2     -11.827  11.546  66.730  1.00  0.00    -0.511 OA 
HETATM   18  O   UNL     2     -10.553  13.631  66.941  1.00  0.00    -0.269 OA 
HETATM   19  S   UNL     2     -10.536  12.172  66.996  1.00  0.00    -0.234 S  
HETATM   20  O   UNL     2      -9.427  11.546  66.290  1.00  0.00    -0.204 OA 
ENDBRANCH  11  16
ENDBRANCH  10  11
ENDBRANCH   8  10
ENDBRANCH   4   5
ENDBRANCH   3   4
TORSDOF 6
ENDMDL
MODEL      345
REMARK 921   NORMALIZED FREE ENERGY PREDICTED BY IDOCK:   -2.46 KCAL/MOL
REMARK 922        TOTAL FREE ENERGY PREDICTED BY IDOCK:   -4.53 KCAL/MOL
REMARK 923 INTER-LIGAND FREE ENERGY PREDICTED BY IDOCK:   -3.63 KCAL/MOL
REMARK 924 INTRA-LIGAND FREE ENERGY PREDICTED BY IDOCK:   -0.90 KCAL/MOL
REMARK 927      BINDING AFFINITY PREDICTED BY RF-SCORE:    0.00 PKD
ROOT
HETATM    1 NA   UNL     1      -9.355  14.499  71.783  1.00  0.00     0.746 Na 
HETATM    2  C   UNL     2     -13.044  14.694  71.376  1.00  0.00    -0.414 C  
HETATM    3  C   UNL     2     -12.838  15.093  69.922  1.00  0.00    -0.038 C  
ENDROOT
BRANCH   3   4
HETATM    4  C   UNL     2     -11.361  15.019  69.538  1.00  0.00    -0.308 C  
BRANCH   4   5
HETATM    5  C   UNL     2     -11.005  13.815  68.660  1.00  0.00    -0.287 C  
HETATM    6  C   UNL     2     -11.892  13.592  67.411  1.00  0.00    -0.429 C  
HETATM    7  C   UNL     2     -11.997  14.832  66.493  1.00  0.00    -0.193 C  
HETATM    8  C   UNL     2     -11.415  12.368  66.592  1.00  0.00    -0.429 C  
HETATM    9  C   UNL     2     -10.703  15.247  65.804  1.00  0.00    -0.357 C  
BRANCH   8  10
HETATM   10  C   UNL     2     -11.386  11.042  67.353  1.00  0.00    -0.306 C  
BRANCH  10  11
HETATM   11  C   UNL     2      -9.996  10.464  67.699  1.00  0.00    -0.174 C  
BRANCH  11  12
HETATM   12  C   UNL     2      -9.981   9.903  69.142  1.00  0.00    -0.205 C  
HETATM   13  C   UNL     2      -7.439   9.812  69.494  1.00  0.00    -0.101 C  
HETATM   14  C   UNL     2      -8.758   9.036  69.519  1.00  0.00    -0.144 C  
HETATM   15  C   UNL     2      -8.957   8.454  70.927  1.00  0.00    -0.188 C  
ENDBRANCH  11  12
BRANCH  11  16
HETATM   16  O   UNL     2      -9.698   9.398  66.802  1.00  0.00    -0.170 OA 
HETATM   17  O   UNL     2      -7.564  10.408  66.177  1.00  0.00    -0.118 OA 
HETATM   18  O   UNL     2      -8.273   8.287  65.171  1.00  0.00    -0.139 OA 
HETATM   19  S   UNL     2      -8.647   9.639  65.573  1.00  0.00    -0.156 S  
HETATM   20  O   UNL     2      -9.409  10.384  64.579  1.00  0.00    -0.216 OA 
ENDBRANCH  11  16
ENDBRANCH  10  11
ENDBRANCH   8  10
ENDBRANCH   4   5
ENDBRANCH   3   4
TORSDOF 6
ENDMDL
MODEL      346
REMARK 921   NORMALIZED FREE ENERGY PREDICTED BY IDOCK:   -2.46 KCAL/MOL
REMARK 922        TOTAL FREE ENERGY PREDICTED BY IDOCK:   -4.53 KCAL/MOL
REMARK 923 INTER-LIGAND FREE ENERGY PREDICTED BY IDOCK:   -3.32 KCAL/MOL
REMARK 924 INTRA-LIGAND FREE ENERGY PREDICTED BY IDOCK:   -1.21 KCAL/MOL
REMARK 927      BINDING AFFINITY PREDICTED BY RF-SCORE:    0.00 PKD
ROOT
HETATM    1 NA   UNL     1      -6.842   9.259  69.723  1.00  0.00    -0.042 Na 
HETATM    2  C   UNL     2     -10.252  10.697  69.382  1.00  0.00    -0.218 C  
HETATM    3  C   UNL     2     -10.427   9.912  68.090  1.00  0.00    -0.256 C  
ENDROOT
BRANCH   3   4
HETATM    4  C   UNL     2      -9.239   8.983  67.849  1.00  0.00    -0.151 C  
BRANCH   4   5
HETATM    5  C   UNL     2      -9.303   7.671  68.637  1.00  0.00    -0.147 C  
HETATM    6  C   UNL     2     -10.453   6.703  68.265  1.00  0.00    -0.249 C  
HETATM    7  C   UNL     2     -10.509   6.353  66.761  1.00  0.00    -0.304 C  
HETATM    8  C   UNL     2     -10.393   5.406  69.107  1.00  0.00    -0.300 C  
HETATM    9  C   UNL     2      -9.330   5.546  66.232  1.00  0.00    -0.166 C  
BRANCH   8  10
HETATM   10  C   UNL     2     -10.459   5.604  70.622  1.00  0.00    -0.340 C  
BRANCH  10  11
HETATM   11  C   UNL     2      -9.164   5.333  71.420  1.00  0.00    -0.146 C  
BRANCH  11  12
HETATM   12  C   UNL     2      -9.236   5.990  72.820  1.00  0.00    -0.142 C  
HETATM   13  C   UNL     2      -8.491   8.361  72.172  1.00  0.00    -0.245 C  
HETATM   14  C   UNL     2      -8.247   7.150  73.075  1.00  0.00    -0.123 C  
HETATM   15  C   UNL     2      -8.355   7.602  74.540  1.00  0.00    -0.245 C  
ENDBRANCH  11  12
BRANCH  11  16
HETATM   16  O   UNL     2      -9.009   3.927  71.593  1.00  0.00    -0.104 OA 
HETATM   17  O   UNL     2      -6.577   4.121  71.689  1.00  0.00    -0.021 OA 
HETATM   18  O   UNL     2      -7.654   1.927  71.885  1.00  0.00    -0.039 OA 
HETATM   19  S   UNL     2      -7.598   3.208  71.188  1.00  0.00    -0.040 S  
HETATM   20  O   UNL     2      -7.637   3.116  69.735  1.00  0.00    -0.044 OA 
ENDBRANCH  11  16
ENDBRANCH  10  11
ENDBRANCH   8  10
ENDBRANCH   4   5
ENDBRANCH   3   4
TORSDOF 6
ENDMDL
MODEL      347
REMARK 921   NORMALIZED FREE ENERGY PREDICTED BY IDOCK:   -2.46 KCAL/MOL
REMARK 922        TOTAL FREE ENERGY PREDICTED BY IDOCK:   -4.53 KCAL/MOL
REMARK 923 INTER-LIGAND FREE ENERGY PREDICTED BY IDOCK:   -4.09 KCAL/MOL
REMARK 924 INTRA-LIGAND FREE ENERGY PREDICTED BY IDOCK:   -0.44 KCAL/MOL
REMARK 927      BINDING AFFINITY PREDICTED BY RF-SCORE:    0.00 PKD
ROOT
HETATM    1 NA   UNL     1     -10.061   2.089  68.376  1.00  0.00    -0.206 Na 
HETATM    2  C   UNL     2      -8.136   4.175  70.776  1.00  0.00    -0.063 C  
HETATM    3  C   UNL     2      -9.099   5.323  70.510  1.00  0.00    -0.174 C  
ENDROOT
BRANCH   3   4
HETATM    4  C   UNL     2     -10.249   4.877  69.608  1.00  0.00    -0.265 C  
BRANCH   4   5
HETATM    5  C   UNL     2     -10.448   5.759  68.371  1.00  0.00    -0.283 C  
HETATM    6  C   UNL     2      -9.188   6.034  67.515  1.00  0.00    -0.111 C  
HETATM    7  C   UNL     2      -8.447   4.753  67.069  1.00  0.00    -0.105 C  
HETATM    8  C   UNL     2      -9.523   6.907  66.282  1.00  0.00    -0.122 C  
HETATM    9  C   UNL     2      -9.211   3.859  66.098  1.00  0.00    -0.161 C  
BRANCH   8  10
HETATM   10  C   UNL     2     -10.149   8.267  66.593  1.00  0.00    -0.351 C  
BRANCH  10  11
HETATM   11  C   UNL     2      -9.200   9.485  66.614  1.00  0.00    -0.152 C  
BRANCH  11  12
HETATM   12  C   UNL     2      -8.819   9.908  65.175  1.00  0.00    -0.209 C  
HETATM   13  C   UNL     2     -10.685  11.626  64.771  1.00  0.00    -0.365 C  
HETATM   14  C   UNL     2      -9.988  10.359  64.270  1.00  0.00    -0.368 C  
HETATM   15  C   UNL     2      -9.465  10.617  62.848  1.00  0.00    -0.367 C  
ENDBRANCH  11  12
BRANCH  11  16
HETATM   16  O   UNL     2      -9.862  10.581  67.242  1.00  0.00    -0.169 OA 
HETATM   17  O   UNL     2      -7.745  11.543  67.987  1.00  0.00    -0.107 OA 
HETATM   18  O   UNL     2      -9.867  12.647  68.527  1.00  0.00    -0.216 OA 
HETATM   19  S   UNL     2      -9.120  11.395  68.450  1.00  0.00    -0.172 S  
HETATM   20  O   UNL     2      -9.255  10.530  69.613  1.00  0.00    -0.120 OA 
ENDBRANCH  11  16
ENDBRANCH  10  11
ENDBRANCH   8  10
ENDBRANCH   4   5
ENDBRANCH   3   4
TORSDOF 6
ENDMDL
MODEL      348
REMARK 921   NORMALIZED FREE ENERGY PREDICTED BY IDOCK:   -2.46 KCAL/MOL
REMARK 922        TOTAL FREE ENERGY PREDICTED BY IDOCK:   -4.53 KCAL/MOL
REMARK 923 INTER-LIGAND FREE ENERGY PREDICTED BY IDOCK:   -3.69 KCAL/MOL
REMARK 924 INTRA-LIGAND FREE ENERGY PREDICTED BY IDOCK:   -0.83 KCAL/MOL
REMARK 927      BINDING AFFINITY PREDICTED BY RF-SCORE:    0.00 PKD
ROOT
HETATM    1 NA   UNL     1     -12.538   6.423  69.149  1.00  0.00    -0.476 Na 
HETATM    2  C   UNL     2     -11.084   9.789  69.758  1.00  0.00    -0.272 C  
HETATM    3  C   UNL     2     -11.273   9.573  71.252  1.00  0.00    -0.452 C  
ENDROOT
BRANCH   3   4
HETATM    4  C   UNL     2     -11.764   8.155  71.543  1.00  0.00    -0.325 C  
BRANCH   4   5
HETATM    5  C   UNL     2     -10.687   7.078  71.380  1.00  0.00    -0.241 C  
HETATM    6  C   UNL     2      -9.289   7.415  71.953  1.00  0.00    -0.157 C  
HETATM    7  C   UNL     2      -9.310   7.841  73.438  1.00  0.00    -0.346 C  
HETATM    8  C   UNL     2      -8.300   6.240  71.754  1.00  0.00    -0.121 C  
HETATM    9  C   UNL     2      -9.723   6.755  74.425  1.00  0.00    -0.309 C  
BRANCH   8  10
HETATM   10  C   UNL     2      -8.088   5.800  70.306  1.00  0.00    -0.105 C  
BRANCH  10  11
HETATM   11  C   UNL     2      -7.671   6.892  69.296  1.00  0.00    -0.105 C  
BRANCH  11  12
HETATM   12  C   UNL     2      -6.491   7.727  69.850  1.00  0.00    -0.034 C  
HETATM   13  C   UNL     2      -7.615  10.036  69.838  1.00  0.00    -0.177 C  
HETATM   14  C   UNL     2      -6.421   9.197  69.377  1.00  0.00    -0.044 C  
HETATM   15  C   UNL     2      -5.133   9.845  69.908  1.00  0.00    -0.037 C  
ENDBRANCH  11  12
BRANCH  11  16
HETATM   16  O   UNL     2      -7.248   6.270  68.085  1.00  0.00    -0.080 OA 
HETATM   17  O   UNL     2      -9.458   6.536  67.079  1.00  0.00    -0.129 OA 
HETATM   18  O   UNL     2      -7.646   5.460  65.825  1.00  0.00    -0.080 OA 
HETATM   19  S   UNL     2      -8.353   5.582  67.096  1.00  0.00    -0.103 S  
HETATM   20  O   UNL     2      -8.683   4.317  67.737  1.00  0.00    -0.102 OA 
ENDBRANCH  11  16
ENDBRANCH  10  11
ENDBRANCH   8  10
ENDBRANCH   4   5
ENDBRANCH   3   4
TORSDOF 6
ENDMDL
MODEL      349
REMARK 921   NORMALIZED FREE ENERGY PREDICTED BY IDOCK:   -2.46 KCAL/MOL
REMARK 922        TOTAL FREE ENERGY PREDICTED BY IDOCK:   -4.53 KCAL/MOL
REMARK 923 INTER-LIGAND FREE ENERGY PREDICTED BY IDOCK:   -4.99 KCAL/MOL
REMARK 924 INTRA-LIGAND FREE ENERGY PREDICTED BY IDOCK:    0.47 KCAL/MOL
REMARK 927      BINDING AFFINITY PREDICTED BY RF-SCORE:    0.00 PKD
ROOT
HETATM    1 NA   UNL     1     -13.480  10.146  69.451  1.00  0.00    -0.566 Na 
HETATM    2  C   UNL     2     -12.464  13.554  70.532  1.00  0.00    -0.373 C  
HETATM    3  C   UNL     2     -11.827  13.770  69.167  1.00  0.00    -0.398 C  
ENDROOT
BRANCH   3   4
HETATM    4  C   UNL     2     -12.119  12.595  68.234  1.00  0.00    -0.135 C  
BRANCH   4   5
HETATM    5  C   UNL     2     -11.079  11.472  68.303  1.00  0.00    -0.295 C  
HETATM    6  C   UNL     2     -10.281  11.198  67.004  1.00  0.00    -0.251 C  
HETATM    7  C   UNL     2      -9.586  12.451  66.424  1.00  0.00    -0.249 C  
HETATM    8  C   UNL     2      -9.245  10.066  67.208  1.00  0.00    -0.159 C  
HETATM    9  C   UNL     2      -8.468  13.034  67.280  1.00  0.00    -0.199 C  
BRANCH   8  10
HETATM   10  C   UNL     2      -9.821   8.724  67.662  1.00  0.00    -0.228 C  
BRANCH  10  11
HETATM   11  C   UNL     2      -9.220   8.102  68.942  1.00  0.00    -0.147 C  
BRANCH  11  12
HETATM   12  C   UNL     2     -10.036   8.522  70.189  1.00  0.00    -0.197 C  
HETATM   13  C   UNL     2      -8.111   8.651  71.884  1.00  0.00    -0.149 C  
HETATM   14  C   UNL     2      -9.480   8.052  71.552  1.00  0.00    -0.204 C  
HETATM   15  C   UNL     2     -10.465   8.434  72.667  1.00  0.00    -0.317 C  
ENDBRANCH  11  12
BRANCH  11  16
HETATM   16  O   UNL     2      -9.266   6.682  68.836  1.00  0.00    -0.132 OA 
HETATM   17  O   UNL     2     -11.199   6.771  67.346  1.00  0.00    -0.313 OA 
HETATM   18  O   UNL     2     -10.234   4.612  67.996  1.00  0.00    -0.061 OA 
HETATM   19  S   UNL     2     -10.663   5.942  68.420  1.00  0.00    -0.225 S  
HETATM   20  O   UNL     2     -11.467   5.967  69.634  1.00  0.00    -0.394 OA 
ENDBRANCH  11  16
ENDBRANCH  10  11
ENDBRANCH   8  10
ENDBRANCH   4   5
ENDBRANCH   3   4
TORSDOF 6
ENDMDL
MODEL      350
REMARK 921   NORMALIZED FREE ENERGY PREDICTED BY IDOCK:   -2.44 KCAL/MOL
REMARK 922        TOTAL FREE ENERGY PREDICTED BY IDOCK:   -4.50 KCAL/MOL
REMARK 923 INTER-LIGAND FREE ENERGY PREDICTED BY IDOCK:   -3.81 KCAL/MOL
REMARK 924 INTRA-LIGAND FREE ENERGY PREDICTED BY IDOCK:   -0.69 KCAL/MOL
REMARK 927      BINDING AFFINITY PREDICTED BY RF-SCORE:    0.00 PKD
ROOT
HETATM    1 NA   UNL     1      -6.314   6.463  74.357  1.00  0.00    -0.061 Na 
HETATM    2  C   UNL     2      -9.992   5.971  74.564  1.00  0.00    -0.321 C  
HETATM    3  C   UNL     2     -10.174   7.099  73.559  1.00  0.00    -0.394 C  
ENDROOT
BRANCH   3   4
HETATM    4  C   UNL     2      -8.826   7.582  73.027  1.00  0.00    -0.201 C  
BRANCH   4   5
HETATM    5  C   UNL     2      -8.671   7.448  71.509  1.00  0.00    -0.122 C  
HETATM    6  C   UNL     2      -7.220   7.406  70.969  1.00  0.00    -0.068 C  
HETATM    7  C   UNL     2      -6.341   6.320  71.632  1.00  0.00    -0.046 C  
HETATM    8  C   UNL     2      -7.195   7.240  69.431  1.00  0.00    -0.084 C  
HETATM    9  C   UNL     2      -6.751   4.881  71.344  1.00  0.00    -0.039 C  
BRANCH   8  10
HETATM   10  C   UNL     2      -7.926   8.327  68.642  1.00  0.00    -0.122 C  
BRANCH  10  11
HETATM   11  C   UNL     2      -9.469   8.260  68.624  1.00  0.00    -0.147 C  
BRANCH  11  12
HETATM   12  C   UNL     2     -10.075   9.677  68.475  1.00  0.00    -0.195 C  
HETATM   13  C   UNL     2     -11.046   9.930  70.839  1.00  0.00    -0.418 C  
HETATM   14  C   UNL     2     -11.325   9.972  69.335  1.00  0.00    -0.192 C  
HETATM   15  C   UNL     2     -11.877  11.361  68.977  1.00  0.00    -0.415 C  
ENDBRANCH  11  12
BRANCH  11  16
HETATM   16  O   UNL     2      -9.888   7.475  67.510  1.00  0.00    -0.145 OA 
HETATM   17  O   UNL     2     -11.519   6.267  68.869  1.00  0.00    -0.331 OA 
HETATM   18  O   UNL     2     -11.258   5.743  66.488  1.00  0.00    -0.119 OA 
HETATM   19  S   UNL     2     -10.601   6.026  67.760  1.00  0.00    -0.279 S  
HETATM   20  O   UNL     2      -9.504   5.129  68.095  1.00  0.00    -0.117 OA 
ENDBRANCH  11  16
ENDBRANCH  10  11
ENDBRANCH   8  10
ENDBRANCH   4   5
ENDBRANCH   3   4
TORSDOF 6
ENDMDL
MODEL      351
REMARK 921   NORMALIZED FREE ENERGY PREDICTED BY IDOCK:   -2.44 KCAL/MOL
REMARK 922        TOTAL FREE ENERGY PREDICTED BY IDOCK:   -4.50 KCAL/MOL
REMARK 923 INTER-LIGAND FREE ENERGY PREDICTED BY IDOCK:   -3.76 KCAL/MOL
REMARK 924 INTRA-LIGAND FREE ENERGY PREDICTED BY IDOCK:   -0.74 KCAL/MOL
REMARK 927      BINDING AFFINITY PREDICTED BY RF-SCORE:    0.00 PKD
ROOT
HETATM    1 NA   UNL     1      -9.758   9.652  64.249  1.00  0.00    -0.256 Na 
HETATM    2  C   UNL     2      -6.337   8.391  64.972  1.00  0.00    -0.052 C  
HETATM    3  C   UNL     2      -6.082   9.637  65.809  1.00  0.00    -0.062 C  
ENDROOT
BRANCH   3   4
HETATM    4  C   UNL     2      -7.350  10.479  65.937  1.00  0.00    -0.142 C  
BRANCH   4   5
HETATM    5  C   UNL     2      -8.374   9.919  66.930  1.00  0.00    -0.124 C  
HETATM    6  C   UNL     2      -8.669  10.791  68.175  1.00  0.00    -0.130 C  
HETATM    7  C   UNL     2      -9.085  12.240  67.835  1.00  0.00    -0.190 C  
HETATM    8  C   UNL     2      -9.738  10.134  69.082  1.00  0.00    -0.225 C  
HETATM    9  C   UNL     2     -10.419  12.387  67.112  1.00  0.00    -0.236 C  
BRANCH   8  10
HETATM   10  C   UNL     2      -9.391   8.736  69.596  1.00  0.00    -0.158 C  
BRANCH  10  11
HETATM   11  C   UNL     2     -10.573   7.792  69.907  1.00  0.00    -0.239 C  
BRANCH  11  12
HETATM   12  C   UNL     2     -10.886   6.888  68.690  1.00  0.00    -0.236 C  
HETATM   13  C   UNL     2      -8.722   5.505  68.672  1.00  0.00    -0.108 C  
HETATM   14  C   UNL     2      -9.666   6.407  67.873  1.00  0.00    -0.124 C  
HETATM   15  C   UNL     2     -10.150   5.635  66.635  1.00  0.00    -0.237 C  
ENDBRANCH  11  12
BRANCH  11  16
HETATM   16  O   UNL     2     -10.225   6.956  71.007  1.00  0.00    -0.197 OA 
HETATM   17  O   UNL     2     -12.382   7.335  72.088  1.00  0.00    -0.272 OA 
HETATM   18  O   UNL     2     -10.701   5.898  73.147  1.00  0.00    -0.232 OA 
HETATM   19  S   UNL     2     -10.980   7.147  72.445  1.00  0.00    -0.267 S  
HETATM   20  O   UNL     2     -10.363   8.329  73.030  1.00  0.00    -0.275 OA 
ENDBRANCH  11  16
ENDBRANCH  10  11
ENDBRANCH   8  10
ENDBRANCH   4   5
ENDBRANCH   3   4
TORSDOF 6
ENDMDL
MODEL      352
REMARK 921   NORMALIZED FREE ENERGY PREDICTED BY IDOCK:   -2.44 KCAL/MOL
REMARK 922        TOTAL FREE ENERGY PREDICTED BY IDOCK:   -4.50 KCAL/MOL
REMARK 923 INTER-LIGAND FREE ENERGY PREDICTED BY IDOCK:   -4.29 KCAL/MOL
REMARK 924 INTRA-LIGAND FREE ENERGY PREDICTED BY IDOCK:   -0.21 KCAL/MOL
REMARK 927      BINDING AFFINITY PREDICTED BY RF-SCORE:    0.00 PKD
ROOT
HETATM    1 NA   UNL     1      -7.508   6.366  66.585  1.00  0.00    -0.069 Na 
HETATM    2  C   UNL     2     -10.112   6.047  69.217  1.00  0.00    -0.235 C  
HETATM    3  C   UNL     2     -10.383   7.540  69.095  1.00  0.00    -0.215 C  
ENDROOT
BRANCH   3   4
HETATM    4  C   UNL     2      -9.580   8.150  67.948  1.00  0.00    -0.179 C  
BRANCH   4   5
HETATM    5  C   UNL     2      -9.774   9.661  67.786  1.00  0.00    -0.173 C  
HETATM    6  C   UNL     2      -9.315  10.541  68.975  1.00  0.00    -0.205 C  
HETATM    7  C   UNL     2      -7.851  10.295  69.404  1.00  0.00    -0.157 C  
HETATM    8  C   UNL     2      -9.534  12.045  68.680  1.00  0.00    -0.069 C  
HETATM    9  C   UNL     2      -6.794  10.695  68.382  1.00  0.00    -0.064 C  
BRANCH   8  10
HETATM   10  C   UNL     2     -10.975  12.448  68.364  1.00  0.00    -0.272 C  
BRANCH  10  11
HETATM   11  C   UNL     2     -11.374  13.909  68.666  1.00  0.00    -0.278 C  
BRANCH  11  12
HETATM   12  C   UNL     2     -11.628  14.106  70.181  1.00  0.00    -0.292 C  
HETATM   13  C   UNL     2     -12.532  11.765  70.726  1.00  0.00    -0.405 C  
HETATM   14  C   UNL     2     -12.780  13.274  70.788  1.00  0.00    -0.284 C  
HETATM   15  C   UNL     2     -12.985  13.677  72.256  1.00  0.00    -0.419 C  
ENDBRANCH  11  12
BRANCH  11  16
HETATM   16  O   UNL     2     -10.310  14.773  68.275  1.00  0.00    -0.230 OA 
HETATM   17  O   UNL     2     -11.611  15.673  66.414  1.00  0.00     0.057 OA 
HETATM   18  O   UNL     2      -9.328  16.465  66.828  1.00  0.00    -0.224 OA 
HETATM   19  S   UNL     2     -10.232  15.323  66.738  1.00  0.00    -0.280 S  
HETATM   20  O   UNL     2      -9.720  14.196  65.970  1.00  0.00    -0.301 OA 
ENDBRANCH  11  16
ENDBRANCH  10  11
ENDBRANCH   8  10
ENDBRANCH   4   5
ENDBRANCH   3   4
TORSDOF 6
ENDMDL
MODEL      353
REMARK 921   NORMALIZED FREE ENERGY PREDICTED BY IDOCK:   -2.41 KCAL/MOL
REMARK 922        TOTAL FREE ENERGY PREDICTED BY IDOCK:   -4.47 KCAL/MOL
REMARK 923 INTER-LIGAND FREE ENERGY PREDICTED BY IDOCK:   -3.22 KCAL/MOL
REMARK 924 INTRA-LIGAND FREE ENERGY PREDICTED BY IDOCK:   -1.24 KCAL/MOL
REMARK 927      BINDING AFFINITY PREDICTED BY RF-SCORE:    0.00 PKD
ROOT
HETATM    1 NA   UNL     1      -6.932   6.758  74.071  1.00  0.00    -0.075 Na 
HETATM    2  C   UNL     2     -10.635   6.883  73.778  1.00  0.00    -0.333 C  
HETATM    3  C   UNL     2     -10.489   7.949  72.702  1.00  0.00    -0.384 C  
ENDROOT
BRANCH   3   4
HETATM    4  C   UNL     2      -9.020   8.167  72.343  1.00  0.00    -0.265 C  
BRANCH   4   5
HETATM    5  C   UNL     2      -8.648   7.706  70.930  1.00  0.00    -0.129 C  
HETATM    6  C   UNL     2      -7.558   6.611  70.832  1.00  0.00    -0.089 C  
HETATM    7  C   UNL     2      -7.861   5.352  71.676  1.00  0.00    -0.111 C  
HETATM    8  C   UNL     2      -7.293   6.210  69.361  1.00  0.00    -0.091 C  
HETATM    9  C   UNL     2      -9.067   4.537  71.225  1.00  0.00    -0.178 C  
BRANCH   8  10
HETATM   10  C   UNL     2      -6.857   7.349  68.439  1.00  0.00    -0.063 C  
BRANCH  10  11
HETATM   11  C   UNL     2      -7.698   7.578  67.164  1.00  0.00    -0.112 C  
BRANCH  11  12
HETATM   12  C   UNL     2      -8.966   6.689  67.177  1.00  0.00    -0.118 C  
HETATM   13  C   UNL     2      -7.949   4.553  66.178  1.00  0.00    -0.099 C  
HETATM   14  C   UNL     2      -9.049   5.612  66.072  1.00  0.00    -0.164 C  
HETATM   15  C   UNL     2     -10.414   4.909  66.144  1.00  0.00    -0.346 C  
ENDBRANCH  11  12
BRANCH  11  16
HETATM   16  O   UNL     2      -8.109   8.942  67.116  1.00  0.00    -0.102 OA 
HETATM   17  O   UNL     2      -8.467   8.837  64.702  1.00  0.00    -0.169 OA 
HETATM   18  O   UNL     2      -8.875  10.922  65.926  1.00  0.00    -0.177 OA 
HETATM   19  S   UNL     2      -7.996   9.777  65.714  1.00  0.00    -0.120 S  
HETATM   20  O   UNL     2      -6.582  10.104  65.595  1.00  0.00    -0.096 OA 
ENDBRANCH  11  16
ENDBRANCH  10  11
ENDBRANCH   8  10
ENDBRANCH   4   5
ENDBRANCH   3   4
TORSDOF 6
ENDMDL
MODEL      354
REMARK 921   NORMALIZED FREE ENERGY PREDICTED BY IDOCK:   -2.41 KCAL/MOL
REMARK 922        TOTAL FREE ENERGY PREDICTED BY IDOCK:   -4.46 KCAL/MOL
REMARK 923 INTER-LIGAND FREE ENERGY PREDICTED BY IDOCK:   -5.16 KCAL/MOL
REMARK 924 INTRA-LIGAND FREE ENERGY PREDICTED BY IDOCK:    0.71 KCAL/MOL
REMARK 927      BINDING AFFINITY PREDICTED BY RF-SCORE:    0.00 PKD
ROOT
HETATM    1 NA   UNL     1      -7.906  12.544  65.924  1.00  0.00    -0.342 Na 
HETATM    2  C   UNL     2      -9.470  10.917  68.878  1.00  0.00    -0.182 C  
HETATM    3  C   UNL     2     -10.824  11.433  68.413  1.00  0.00    -0.248 C  
ENDROOT
BRANCH   3   4
HETATM    4  C   UNL     2     -10.713  12.113  67.050  1.00  0.00    -0.272 C  
BRANCH   4   5
HETATM    5  C   UNL     2     -10.079  13.506  67.098  1.00  0.00    -0.245 C  
HETATM    6  C   UNL     2     -11.059  14.703  67.177  1.00  0.00    -0.328 C  
HETATM    7  C   UNL     2     -12.070  14.603  68.343  1.00  0.00    -0.223 C  
HETATM    8  C   UNL     2     -10.300  16.050  67.251  1.00  0.00    -0.295 C  
HETATM    9  C   UNL     2     -11.468  14.686  69.740  1.00  0.00    -0.325 C  
BRANCH   8  10
HETATM   10  C   UNL     2      -9.354  16.333  66.083  1.00  0.00    -0.374 C  
BRANCH  10  11
HETATM   11  C   UNL     2      -8.014  17.024  66.420  1.00  0.00    -0.307 C  
BRANCH  11  12
HETATM   12  C   UNL     2      -8.086  17.712  67.805  1.00  0.00    -0.224 C  
HETATM   13  C   UNL     2      -8.689  20.084  67.026  1.00  0.00    -0.411 C  
HETATM   14  C   UNL     2      -7.723  19.214  67.835  1.00  0.00    -0.308 C  
HETATM   15  C   UNL     2      -7.717  19.711  69.289  1.00  0.00    -0.159 C  
ENDBRANCH  11  12
BRANCH  11  16
HETATM   16  O   UNL     2      -6.982  16.043  66.462  1.00  0.00    -0.171 OA 
HETATM   17  O   UNL     2      -7.599  15.367  68.726  1.00  0.00    -0.125 OA 
HETATM   18  O   UNL     2      -5.727  14.279  67.576  1.00  0.00    -0.346 OA 
HETATM   19  S   UNL     2      -6.405  15.529  67.903  1.00  0.00    -0.164 S  
HETATM   20  O   UNL     2      -5.529  16.602  68.351  1.00  0.00    -0.116 OA 
ENDBRANCH  11  16
ENDBRANCH  10  11
ENDBRANCH   8  10
ENDBRANCH   4   5
ENDBRANCH   3   4
TORSDOF 6
ENDMDL
MODEL      355
REMARK 921   NORMALIZED FREE ENERGY PREDICTED BY IDOCK:   -2.40 KCAL/MOL
REMARK 922        TOTAL FREE ENERGY PREDICTED BY IDOCK:   -4.45 KCAL/MOL
REMARK 923 INTER-LIGAND FREE ENERGY PREDICTED BY IDOCK:   -3.74 KCAL/MOL
REMARK 924 INTRA-LIGAND FREE ENERGY PREDICTED BY IDOCK:   -0.71 KCAL/MOL
REMARK 927      BINDING AFFINITY PREDICTED BY RF-SCORE:    0.00 PKD
ROOT
HETATM    1 NA   UNL     1      -5.593   8.552  69.028  1.00  0.00    -0.032 Na 
HETATM    2  C   UNL     2      -5.145  11.184  66.442  1.00  0.00    -0.116 C  
HETATM    3  C   UNL     2      -5.276  10.115  65.367  1.00  0.00    -0.067 C  
ENDROOT
BRANCH   3   4
HETATM    4  C   UNL     2      -5.634   8.762  65.981  1.00  0.00    -0.042 C  
BRANCH   4   5
HETATM    5  C   UNL     2      -6.975   8.749  66.722  1.00  0.00    -0.080 C  
HETATM    6  C   UNL     2      -8.074   7.831  66.133  1.00  0.00    -0.113 C  
HETATM    7  C   UNL     2      -7.625   6.365  65.943  1.00  0.00    -0.084 C  
HETATM    8  C   UNL     2      -9.366   7.882  66.984  1.00  0.00    -0.200 C  
HETATM    9  C   UNL     2      -7.329   5.599  67.227  1.00  0.00    -0.077 C  
BRANCH   8  10
HETATM   10  C   UNL     2      -9.991   9.268  67.146  1.00  0.00    -0.276 C  
BRANCH  10  11
HETATM   11  C   UNL     2     -10.091   9.827  68.582  1.00  0.00    -0.169 C  
BRANCH  11  12
HETATM   12  C   UNL     2      -8.847   9.430  69.413  1.00  0.00    -0.159 C  
HETATM   13  C   UNL     2      -9.874   7.487  70.741  1.00  0.00    -0.178 C  
HETATM   14  C   UNL     2      -9.128   8.821  70.805  1.00  0.00    -0.233 C  
HETATM   15  C   UNL     2      -7.799   8.605  71.547  1.00  0.00    -0.163 C  
ENDBRANCH  11  12
BRANCH  11  16
HETATM   16  O   UNL     2     -10.155  11.250  68.525  1.00  0.00    -0.190 OA 
HETATM   17  O   UNL     2     -12.528  11.251  69.102  1.00  0.00    -0.378 OA 
HETATM   18  O   UNL     2     -11.350  13.363  68.697  1.00  0.00    -0.249 OA 
HETATM   19  S   UNL     2     -11.589  11.990  68.264  1.00  0.00    -0.342 S  
HETATM   20  O   UNL     2     -11.830  11.831  66.837  1.00  0.00    -0.591 OA 
ENDBRANCH  11  16
ENDBRANCH  10  11
ENDBRANCH   8  10
ENDBRANCH   4   5
ENDBRANCH   3   4
TORSDOF 6
ENDMDL
MODEL      356
REMARK 921   NORMALIZED FREE ENERGY PREDICTED BY IDOCK:   -2.40 KCAL/MOL
REMARK 922        TOTAL FREE ENERGY PREDICTED BY IDOCK:   -4.44 KCAL/MOL
REMARK 923 INTER-LIGAND FREE ENERGY PREDICTED BY IDOCK:   -3.91 KCAL/MOL
REMARK 924 INTRA-LIGAND FREE ENERGY PREDICTED BY IDOCK:   -0.54 KCAL/MOL
REMARK 927      BINDING AFFINITY PREDICTED BY RF-SCORE:    0.00 PKD
ROOT
HETATM    1 NA   UNL     1     -10.080  15.071  72.311  1.00  0.00    -0.320 Na 
HETATM    2  C   UNL     2     -13.003  15.358  70.033  1.00  0.00     0.002 C  
HETATM    3  C   UNL     2     -12.139  14.827  68.898  1.00  0.00    -0.240 C  
ENDROOT
BRANCH   3   4
HETATM    4  C   UNL     2     -10.764  14.401  69.410  1.00  0.00    -0.184 C  
BRANCH   4   5
HETATM    5  C   UNL     2     -10.411  12.941  69.108  1.00  0.00     0.086 C  
HETATM    6  C   UNL     2     -10.178  12.586  67.619  1.00  0.00    -0.220 C  
HETATM    7  C   UNL     2      -9.126  13.479  66.924  1.00  0.00    -0.246 C  
HETATM    8  C   UNL     2      -9.801  11.094  67.448  1.00  0.00    -0.195 C  
HETATM    9  C   UNL     2      -7.699  13.331  67.437  1.00  0.00    -0.148 C  
BRANCH   8  10
HETATM   10  C   UNL     2     -10.825  10.093  67.984  1.00  0.00    -0.320 C  
BRANCH  10  11
HETATM   11  C   UNL     2     -10.672   9.656  69.457  1.00  0.00    -0.232 C  
BRANCH  11  12
HETATM   12  C   UNL     2     -11.951   9.990  70.263  1.00  0.00    -0.264 C  
HETATM   13  C   UNL     2     -11.300   8.893  72.491  1.00  0.00    -0.011 C  
HETATM   14  C   UNL     2     -12.336   8.982  71.369  1.00  0.00    -0.380 C  
HETATM   15  C   UNL     2     -13.687   9.384  71.981  1.00  0.00    -0.466 C  
ENDBRANCH  11  12
BRANCH  11  16
HETATM   16  O   UNL     2     -10.468   8.246  69.506  1.00  0.00    -0.223 OA 
HETATM   17  O   UNL     2      -8.441   8.501  70.845  1.00  0.00    -0.126 OA 
HETATM   18  O   UNL     2      -9.222   6.270  70.189  1.00  0.00    -0.154 OA 
HETATM   19  S   UNL     2      -8.971   7.650  69.784  1.00  0.00    -0.139 S  
HETATM   20  O   UNL     2      -8.274   7.799  68.514  1.00  0.00    -0.125 OA 
ENDBRANCH  11  16
ENDBRANCH  10  11
ENDBRANCH   8  10
ENDBRANCH   4   5
ENDBRANCH   3   4
TORSDOF 6
ENDMDL
MODEL      357
REMARK 921   NORMALIZED FREE ENERGY PREDICTED BY IDOCK:   -2.39 KCAL/MOL
REMARK 922        TOTAL FREE ENERGY PREDICTED BY IDOCK:   -4.43 KCAL/MOL
REMARK 923 INTER-LIGAND FREE ENERGY PREDICTED BY IDOCK:   -4.83 KCAL/MOL
REMARK 924 INTRA-LIGAND FREE ENERGY PREDICTED BY IDOCK:    0.40 KCAL/MOL
REMARK 927      BINDING AFFINITY PREDICTED BY RF-SCORE:    0.00 PKD
ROOT
HETATM    1 NA   UNL     1     -10.245  18.596  69.967  1.00  0.00    -0.230 Na 
HETATM    2  C   UNL     2      -9.498  18.039  66.369  1.00  0.00    -0.280 C  
HETATM    3  C   UNL     2     -10.503  16.896  66.363  1.00  0.00    -0.252 C  
ENDROOT
BRANCH   3   4
HETATM    4  C   UNL     2     -11.238  16.806  67.700  1.00  0.00     0.026 C  
BRANCH   4   5
HETATM    5  C   UNL     2     -11.828  15.423  67.995  1.00  0.00    -0.128 C  
HETATM    6  C   UNL     2     -11.042  14.544  68.999  1.00  0.00    -0.279 C  
HETATM    7  C   UNL     2     -10.765  15.239  70.351  1.00  0.00    -0.268 C  
HETATM    8  C   UNL     2     -11.752  13.189  69.236  1.00  0.00    -0.376 C  
HETATM    9  C   UNL     2     -11.996  15.536  71.199  1.00  0.00    -0.432 C  
BRANCH   8  10
HETATM   10  C   UNL     2     -11.974  12.337  67.986  1.00  0.00    -0.251 C  
BRANCH  10  11
HETATM   11  C   UNL     2     -10.730  12.007  67.133  1.00  0.00    -0.239 C  
BRANCH  11  12
HETATM   12  C   UNL     2     -11.122  11.799  65.650  1.00  0.00    -0.340 C  
HETATM   13  C   UNL     2     -12.558  13.905  65.332  1.00  0.00    -0.538 C  
HETATM   14  C   UNL     2     -12.489  12.380  65.223  1.00  0.00    -0.256 C  
HETATM   15  C   UNL     2     -12.785  11.979  63.770  1.00  0.00    -0.516 C  
ENDBRANCH  11  12
BRANCH  11  16
HETATM   16  O   UNL     2      -9.814  13.097  67.205  1.00  0.00    -0.226 OA 
HETATM   17  O   UNL     2      -7.981  11.722  66.358  1.00  0.00    -0.075 OA 
HETATM   18  O   UNL     2      -7.603  14.077  66.929  1.00  0.00     0.113 OA 
HETATM   19  S   UNL     2      -8.208  12.804  67.310  1.00  0.00    -0.159 S  
HETATM   20  O   UNL     2      -7.996  12.416  68.697  1.00  0.00    -0.122 OA 
ENDBRANCH  11  16
ENDBRANCH  10  11
ENDBRANCH   8  10
ENDBRANCH   4   5
ENDBRANCH   3   4
TORSDOF 6
ENDMDL
MODEL      358
REMARK 921   NORMALIZED FREE ENERGY PREDICTED BY IDOCK:   -2.38 KCAL/MOL
REMARK 922        TOTAL FREE ENERGY PREDICTED BY IDOCK:   -4.42 KCAL/MOL
REMARK 923 INTER-LIGAND FREE ENERGY PREDICTED BY IDOCK:   -3.55 KCAL/MOL
REMARK 924 INTRA-LIGAND FREE ENERGY PREDICTED BY IDOCK:   -0.87 KCAL/MOL
REMARK 927      BINDING AFFINITY PREDICTED BY RF-SCORE:    0.00 PKD
ROOT
HETATM    1 NA   UNL     1     -12.976  10.224  70.671  1.00  0.00    -0.288 Na 
HETATM    2  C   UNL     2     -11.865  13.389  69.071  1.00  0.00    -0.378 C  
HETATM    3  C   UNL     2     -11.092  12.571  68.047  1.00  0.00    -0.285 C  
ENDROOT
BRANCH   3   4
HETATM    4  C   UNL     2     -11.364  11.078  68.221  1.00  0.00    -0.366 C  
BRANCH   4   5
HETATM    5  C   UNL     2     -10.098  10.218  68.300  1.00  0.00    -0.176 C  
HETATM    6  C   UNL     2      -9.858   9.244  67.121  1.00  0.00    -0.251 C  
HETATM    7  C   UNL     2      -9.879   9.927  65.734  1.00  0.00    -0.356 C  
HETATM    8  C   UNL     2      -8.537   8.456  67.301  1.00  0.00    -0.123 C  
HETATM    9  C   UNL     2      -8.747  10.913  65.472  1.00  0.00    -0.178 C  
BRANCH   8  10
HETATM   10  C   UNL     2      -8.437   7.629  68.582  1.00  0.00    -0.129 C  
BRANCH  10  11
HETATM   11  C   UNL     2      -8.176   6.115  68.419  1.00  0.00    -0.115 C  
BRANCH  11  12
HETATM   12  C   UNL     2      -6.982   5.866  67.465  1.00  0.00    -0.069 C  
HETATM   13  C   UNL     2      -8.255   4.728  65.546  1.00  0.00    -0.117 C  
HETATM   14  C   UNL     2      -7.099   4.630  66.544  1.00  0.00    -0.075 C  
HETATM   15  C   UNL     2      -5.789   4.450  65.760  1.00  0.00    -0.022 C  
ENDBRANCH  11  12
BRANCH  11  16
HETATM   16  O   UNL     2      -7.855   5.558  69.691  1.00  0.00    -0.086 OA 
HETATM   17  O   UNL     2      -9.541   3.808  69.443  1.00  0.00    -0.183 OA 
HETATM   18  O   UNL     2      -8.166   3.926  71.470  1.00  0.00    -0.071 OA 
HETATM   19  S   UNL     2      -8.961   4.651  70.483  1.00  0.00    -0.114 S  
HETATM   20  O   UNL     2      -9.897   5.617  71.041  1.00  0.00    -0.167 OA 
ENDBRANCH  11  16
ENDBRANCH  10  11
ENDBRANCH   8  10
ENDBRANCH   4   5
ENDBRANCH   3   4
TORSDOF 6
ENDMDL
MODEL      359
REMARK 921   NORMALIZED FREE ENERGY PREDICTED BY IDOCK:   -2.37 KCAL/MOL
REMARK 922        TOTAL FREE ENERGY PREDICTED BY IDOCK:   -4.41 KCAL/MOL
REMARK 923 INTER-LIGAND FREE ENERGY PREDICTED BY IDOCK:   -4.76 KCAL/MOL
REMARK 924 INTRA-LIGAND FREE ENERGY PREDICTED BY IDOCK:    0.35 KCAL/MOL
REMARK 927      BINDING AFFINITY PREDICTED BY RF-SCORE:    0.00 PKD
ROOT
HETATM    1 NA   UNL     1     -13.945   9.925  69.948  1.00  0.00    -0.653 Na 
HETATM    2  C   UNL     2     -11.955   8.174  72.554  1.00  0.00    -0.410 C  
HETATM    3  C   UNL     2     -10.699   8.837  72.004  1.00  0.00    -0.417 C  
ENDROOT
BRANCH   3   4
HETATM    4  C   UNL     2     -11.046   9.843  70.909  1.00  0.00    -0.418 C  
BRANCH   4   5
HETATM    5  C   UNL     2     -10.509   9.467  69.524  1.00  0.00    -0.234 C  
HETATM    6  C   UNL     2     -11.291  10.027  68.310  1.00  0.00    -0.117 C  
HETATM    7  C   UNL     2     -11.478  11.561  68.344  1.00  0.00    -0.364 C  
HETATM    8  C   UNL     2     -10.635   9.604  66.974  1.00  0.00    -0.267 C  
HETATM    9  C   UNL     2     -10.199  12.380  68.210  1.00  0.00    -0.230 C  
BRANCH   8  10
HETATM   10  C   UNL     2     -10.505   8.097  66.755  1.00  0.00    -0.316 C  
BRANCH  10  11
HETATM   11  C   UNL     2      -9.080   7.502  66.811  1.00  0.00    -0.148 C  
BRANCH  11  12
HETATM   12  C   UNL     2      -8.867   6.714  68.126  1.00  0.00    -0.119 C  
HETATM   13  C   UNL     2      -7.232   8.324  69.278  1.00  0.00    -0.064 C  
HETATM   14  C   UNL     2      -7.491   6.892  68.806  1.00  0.00    -0.099 C  
HETATM   15  C   UNL     2      -7.393   5.951  70.017  1.00  0.00    -0.074 C  
ENDBRANCH  11  12
BRANCH  11  16
HETATM   16  O   UNL     2      -8.908   6.603  65.718  1.00  0.00    -0.148 OA 
HETATM   17  O   UNL     2     -10.467   4.992  66.689  1.00  0.00    -0.264 OA 
HETATM   18  O   UNL     2      -9.366   4.517  64.550  1.00  0.00    -0.155 OA 
HETATM   19  S   UNL     2      -9.229   5.012  65.916  1.00  0.00    -0.160 S  
HETATM   20  O   UNL     2      -8.079   4.493  66.643  1.00  0.00    -0.102 OA 
ENDBRANCH  11  16
ENDBRANCH  10  11
ENDBRANCH   8  10
ENDBRANCH   4   5
ENDBRANCH   3   4
TORSDOF 6
ENDMDL
MODEL      360
REMARK 921   NORMALIZED FREE ENERGY PREDICTED BY IDOCK:   -2.37 KCAL/MOL
REMARK 922        TOTAL FREE ENERGY PREDICTED BY IDOCK:   -4.41 KCAL/MOL
REMARK 923 INTER-LIGAND FREE ENERGY PREDICTED BY IDOCK:   -3.44 KCAL/MOL
REMARK 924 INTRA-LIGAND FREE ENERGY PREDICTED BY IDOCK:   -0.96 KCAL/MOL
REMARK 927      BINDING AFFINITY PREDICTED BY RF-SCORE:    0.00 PKD
ROOT
HETATM    1 NA   UNL     1      -7.417   4.690  71.514  1.00  0.00    -0.054 Na 
HETATM    2  C   UNL     2      -8.340   2.376  68.757  1.00  0.00    -0.080 C  
HETATM    3  C   UNL     2      -9.443   3.342  68.349  1.00  0.00    -0.209 C  
ENDROOT
BRANCH   3   4
HETATM    4  C   UNL     2      -9.380   4.626  69.174  1.00  0.00    -0.206 C  
BRANCH   4   5
HETATM    5  C   UNL     2      -9.731   5.891  68.386  1.00  0.00    -0.151 C  
HETATM    6  C   UNL     2      -8.550   6.832  68.039  1.00  0.00    -0.122 C  
HETATM    7  C   UNL     2      -7.387   6.125  67.306  1.00  0.00    -0.077 C  
HETATM    8  C   UNL     2      -9.026   8.055  67.219  1.00  0.00    -0.148 C  
HETATM    9  C   UNL     2      -7.710   5.612  65.908  1.00  0.00    -0.095 C  
BRANCH   8  10
HETATM   10  C   UNL     2     -10.094   8.919  67.891  1.00  0.00    -0.255 C  
BRANCH  10  11
HETATM   11  C   UNL     2      -9.611  10.206  68.596  1.00  0.00    -0.163 C  
BRANCH  11  12
HETATM   12  C   UNL     2     -10.799  10.948  69.254  1.00  0.00    -0.286 C  
HETATM   13  C   UNL     2     -11.374  12.543  67.325  1.00  0.00    -0.373 C  
HETATM   14  C   UNL     2     -11.014  12.412  68.807  1.00  0.00    -0.287 C  
HETATM   15  C   UNL     2     -12.140  13.042  69.641  1.00  0.00    -0.304 C  
ENDBRANCH  11  12
BRANCH  11  16
HETATM   16  O   UNL     2      -8.681   9.856  69.618  1.00  0.00    -0.177 OA 
HETATM   17  O   UNL     2      -7.477  11.965  69.362  1.00  0.00     0.065 OA 
HETATM   18  O   UNL     2      -6.736  10.307  71.010  1.00  0.00    -0.339 OA 
HETATM   19  S   UNL     2      -7.206  10.561  69.652  1.00  0.00    -0.138 S  
HETATM   20  O   UNL     2      -6.451   9.884  68.607  1.00  0.00    -0.046 OA 
ENDBRANCH  11  16
ENDBRANCH  10  11
ENDBRANCH   8  10
ENDBRANCH   4   5
ENDBRANCH   3   4
TORSDOF 6
ENDMDL
MODEL      361
REMARK 921   NORMALIZED FREE ENERGY PREDICTED BY IDOCK:   -2.37 KCAL/MOL
REMARK 922        TOTAL FREE ENERGY PREDICTED BY IDOCK:   -4.41 KCAL/MOL
REMARK 923 INTER-LIGAND FREE ENERGY PREDICTED BY IDOCK:   -3.91 KCAL/MOL
REMARK 924 INTRA-LIGAND FREE ENERGY PREDICTED BY IDOCK:   -0.49 KCAL/MOL
REMARK 927      BINDING AFFINITY PREDICTED BY RF-SCORE:    0.00 PKD
ROOT
HETATM    1 NA   UNL     1      -9.678   9.043  63.645  1.00  0.00    -0.399 Na 
HETATM    2  C   UNL     2      -7.120   6.486  64.500  1.00  0.00    -0.060 C  
HETATM    3  C   UNL     2      -6.365   7.543  65.293  1.00  0.00    -0.038 C  
ENDROOT
BRANCH   3   4
HETATM    4  C   UNL     2      -7.156   8.848  65.357  1.00  0.00    -0.080 C  
BRANCH   4   5
HETATM    5  C   UNL     2      -8.139   8.925  66.529  1.00  0.00    -0.107 C  
HETATM    6  C   UNL     2      -8.092  10.218  67.380  1.00  0.00    -0.110 C  
HETATM    7  C   UNL     2      -8.243  11.514  66.551  1.00  0.00    -0.129 C  
HETATM    8  C   UNL     2      -9.149  10.187  68.510  1.00  0.00    -0.134 C  
HETATM    9  C   UNL     2      -9.598  11.710  65.883  1.00  0.00    -0.250 C  
BRANCH   8  10
HETATM   10  C   UNL     2      -9.033   9.015  69.485  1.00  0.00    -0.147 C  
BRANCH  10  11
HETATM   11  C   UNL     2     -10.183   8.834  70.501  1.00  0.00    -0.202 C  
BRANCH  11  12
HETATM   12  C   UNL     2      -9.707   8.013  71.724  1.00  0.00    -0.233 C  
HETATM   13  C   UNL     2     -10.924   5.811  71.207  1.00  0.00    -0.299 C  
HETATM   14  C   UNL     2     -10.681   6.924  72.229  1.00  0.00    -0.253 C  
HETATM   15  C   UNL     2     -10.124   6.295  73.515  1.00  0.00    -0.227 C  
ENDBRANCH  11  12
BRANCH  11  16
HETATM   16  O   UNL     2     -10.605  10.115  70.959  1.00  0.00    -0.112 OA 
HETATM   17  O   UNL     2     -12.959   9.473  70.845  1.00  0.00    -0.243 OA 
HETATM   18  O   UNL     2     -12.323  11.725  71.578  1.00  0.00    -0.156 OA 
HETATM   19  S   UNL     2     -12.116  10.643  70.621  1.00  0.00    -0.395 S  
HETATM   20  O   UNL     2     -12.055  11.061  69.228  1.00  0.00    -0.339 OA 
ENDBRANCH  11  16
ENDBRANCH  10  11
ENDBRANCH   8  10
ENDBRANCH   4   5
ENDBRANCH   3   4
TORSDOF 6
ENDMDL
MODEL      362
REMARK 921   NORMALIZED FREE ENERGY PREDICTED BY IDOCK:   -2.36 KCAL/MOL
REMARK 922        TOTAL FREE ENERGY PREDICTED BY IDOCK:   -4.39 KCAL/MOL
REMARK 923 INTER-LIGAND FREE ENERGY PREDICTED BY IDOCK:   -4.76 KCAL/MOL
REMARK 924 INTRA-LIGAND FREE ENERGY PREDICTED BY IDOCK:    0.36 KCAL/MOL
REMARK 927      BINDING AFFINITY PREDICTED BY RF-SCORE:    0.00 PKD
ROOT
HETATM    1 NA   UNL     1     -14.410   9.725  69.603  1.00  0.00    -0.517 Na 
HETATM    2  C   UNL     2     -13.233   7.055  71.904  1.00  0.00    -0.252 C  
HETATM    3  C   UNL     2     -12.075   7.954  72.314  1.00  0.00    -0.363 C  
ENDROOT
BRANCH   3   4
HETATM    4  C   UNL     2     -12.206   9.338  71.681  1.00  0.00    -0.445 C  
BRANCH   4   5
HETATM    5  C   UNL     2     -10.909   9.863  71.058  1.00  0.00    -0.300 C  
HETATM    6  C   UNL     2     -10.972  10.234  69.556  1.00  0.00    -0.300 C  
HETATM    7  C   UNL     2     -12.101  11.231  69.208  1.00  0.00    -0.372 C  
HETATM    8  C   UNL     2      -9.613  10.778  69.052  1.00  0.00    -0.193 C  
HETATM    9  C   UNL     2     -11.947  12.627  69.798  1.00  0.00    -0.365 C  
BRANCH   8  10
HETATM   10  C   UNL     2      -8.424   9.832  69.222  1.00  0.00    -0.152 C  
BRANCH  10  11
HETATM   11  C   UNL     2      -8.734   8.400  69.709  1.00  0.00    -0.133 C  
BRANCH  11  12
HETATM   12  C   UNL     2      -9.008   7.460  68.510  1.00  0.00    -0.128 C  
HETATM   13  C   UNL     2      -9.091   5.229  69.778  1.00  0.00    -0.150 C  
HETATM   14  C   UNL     2      -8.454   6.023  68.634  1.00  0.00    -0.113 C  
HETATM   15  C   UNL     2      -8.694   5.265  67.319  1.00  0.00    -0.107 C  
ENDBRANCH  11  12
BRANCH  11  16
HETATM   16  O   UNL     2      -7.608   7.896  70.423  1.00  0.00    -0.079 OA 
HETATM   17  O   UNL     2      -8.507   8.671  72.557  1.00  0.00    -0.364 OA 
HETATM   18  O   UNL     2      -6.345   7.517  72.469  1.00  0.00    -0.050 OA 
HETATM   19  S   UNL     2      -7.222   8.526  71.882  1.00  0.00    -0.067 S  
HETATM   20  O   UNL     2      -6.576   9.794  71.575  1.00  0.00    -0.312 OA 
ENDBRANCH  11  16
ENDBRANCH  10  11
ENDBRANCH   8  10
ENDBRANCH   4   5
ENDBRANCH   3   4
TORSDOF 6
ENDMDL
MODEL      363
REMARK 921   NORMALIZED FREE ENERGY PREDICTED BY IDOCK:   -2.33 KCAL/MOL
REMARK 922        TOTAL FREE ENERGY PREDICTED BY IDOCK:   -4.35 KCAL/MOL
REMARK 923 INTER-LIGAND FREE ENERGY PREDICTED BY IDOCK:   -3.75 KCAL/MOL
REMARK 924 INTRA-LIGAND FREE ENERGY PREDICTED BY IDOCK:   -0.60 KCAL/MOL
REMARK 927      BINDING AFFINITY PREDICTED BY RF-SCORE:    0.00 PKD
ROOT
HETATM    1 NA   UNL     1      -9.963   9.089  63.962  1.00  0.00    -0.313 Na 
HETATM    2  C   UNL     2      -8.308   5.763  63.852  1.00  0.00    -0.027 C  
HETATM    3  C   UNL     2      -7.157   6.337  64.666  1.00  0.00    -0.057 C  
ENDROOT
BRANCH   3   4
HETATM    4  C   UNL     2      -7.459   7.768  65.108  1.00  0.00    -0.083 C  
BRANCH   4   5
HETATM    5  C   UNL     2      -8.398   7.862  66.314  1.00  0.00    -0.126 C  
HETATM    6  C   UNL     2      -8.159   9.050  67.278  1.00  0.00    -0.103 C  
HETATM    7  C   UNL     2      -8.150  10.428  66.577  1.00  0.00    -0.122 C  
HETATM    8  C   UNL     2      -9.187   9.053  68.436  1.00  0.00    -0.137 C  
HETATM    9  C   UNL     2      -9.480  10.865  65.976  1.00  0.00    -0.235 C  
BRANCH   8  10
HETATM   10  C   UNL     2      -9.211   7.788  69.294  1.00  0.00    -0.145 C  
BRANCH  10  11
HETATM   11  C   UNL     2      -9.580   7.961  70.784  1.00  0.00    -0.165 C  
BRANCH  11  12
HETATM   12  C   UNL     2     -11.115   8.066  70.958  1.00  0.00    -0.275 C  
HETATM   13  C   UNL     2     -11.379  10.585  70.531  1.00  0.00    -0.400 C  
HETATM   14  C   UNL     2     -11.645   9.419  71.486  1.00  0.00    -0.467 C  
HETATM   15  C   UNL     2     -13.160   9.317  71.725  1.00  0.00    -0.472 C  
ENDBRANCH  11  12
BRANCH  11  16
HETATM   16  O   UNL     2      -9.125   6.823  71.512  1.00  0.00    -0.145 OA 
HETATM   17  O   UNL     2      -8.276   8.219  73.327  1.00  0.00    -0.210 OA 
HETATM   18  O   UNL     2      -8.046   5.780  73.428  1.00  0.00    -0.112 OA 
HETATM   19  S   UNL     2      -7.934   6.990  72.619  1.00  0.00    -0.100 S  
HETATM   20  O   UNL     2      -6.712   7.089  71.833  1.00  0.00    -0.056 OA 
ENDBRANCH  11  16
ENDBRANCH  10  11
ENDBRANCH   8  10
ENDBRANCH   4   5
ENDBRANCH   3   4
TORSDOF 6
ENDMDL
MODEL      364
REMARK 921   NORMALIZED FREE ENERGY PREDICTED BY IDOCK:   -2.33 KCAL/MOL
REMARK 922        TOTAL FREE ENERGY PREDICTED BY IDOCK:   -4.35 KCAL/MOL
REMARK 923 INTER-LIGAND FREE ENERGY PREDICTED BY IDOCK:   -3.51 KCAL/MOL
REMARK 924 INTRA-LIGAND FREE ENERGY PREDICTED BY IDOCK:   -0.84 KCAL/MOL
REMARK 927      BINDING AFFINITY PREDICTED BY RF-SCORE:    0.00 PKD
ROOT
HETATM    1 NA   UNL     1      -9.297   8.696  64.082  1.00  0.00    -0.416 Na 
HETATM    2  C   UNL     2      -5.837   7.345  64.194  1.00  0.00    -0.037 C  
HETATM    3  C   UNL     2      -5.434   8.519  65.074  1.00  0.00    -0.043 C  
ENDROOT
BRANCH   3   4
HETATM    4  C   UNL     2      -6.649   9.364  65.451  1.00  0.00    -0.071 C  
BRANCH   4   5
HETATM    5  C   UNL     2      -7.248   9.020  66.818  1.00  0.00    -0.086 C  
HETATM    6  C   UNL     2      -7.816  10.206  67.635  1.00  0.00    -0.098 C  
HETATM    7  C   UNL     2      -8.855  11.052  66.864  1.00  0.00    -0.150 C  
HETATM    8  C   UNL     2      -8.417   9.728  68.980  1.00  0.00    -0.137 C  
HETATM    9  C   UNL     2     -10.159  10.340  66.528  1.00  0.00    -0.290 C  
BRANCH   8  10
HETATM   10  C   UNL     2      -7.452   8.982  69.901  1.00  0.00    -0.065 C  
BRANCH  10  11
HETATM   11  C   UNL     2      -8.022   8.467  71.241  1.00  0.00    -0.121 C  
BRANCH  11  12
HETATM   12  C   UNL     2      -9.127   7.411  70.996  1.00  0.00    -0.152 C  
HETATM   13  C   UNL     2     -11.174   8.860  71.547  1.00  0.00    -0.396 C  
HETATM   14  C   UNL     2     -10.411   7.566  71.842  1.00  0.00    -0.235 C  
HETATM   15  C   UNL     2     -11.346   6.375  71.577  1.00  0.00    -0.346 C  
ENDBRANCH  11  12
BRANCH  11  16
HETATM   16  O   UNL     2      -6.974   7.853  71.987  1.00  0.00    -0.059 OA 
HETATM   17  O   UNL     2      -7.740   8.878  74.067  1.00  0.00    -0.402 OA 
HETATM   18  O   UNL     2      -5.766   7.424  74.056  1.00  0.00    -0.057 OA 
HETATM   19  S   UNL     2      -6.493   8.509  73.405  1.00  0.00    -0.043 S  
HETATM   20  O   UNL     2      -5.675   9.651  73.023  1.00  0.00    -0.305 OA 
ENDBRANCH  11  16
ENDBRANCH  10  11
ENDBRANCH   8  10
ENDBRANCH   4   5
ENDBRANCH   3   4
TORSDOF 6
ENDMDL
MODEL      365
REMARK 921   NORMALIZED FREE ENERGY PREDICTED BY IDOCK:   -2.32 KCAL/MOL
REMARK 922        TOTAL FREE ENERGY PREDICTED BY IDOCK:   -4.34 KCAL/MOL
REMARK 923 INTER-LIGAND FREE ENERGY PREDICTED BY IDOCK:   -4.64 KCAL/MOL
REMARK 924 INTRA-LIGAND FREE ENERGY PREDICTED BY IDOCK:    0.31 KCAL/MOL
REMARK 927      BINDING AFFINITY PREDICTED BY RF-SCORE:    0.00 PKD
ROOT
HETATM    1 NA   UNL     1     -11.538  17.873  67.525  1.00  0.00    -0.248 Na 
HETATM    2  C   UNL     2      -7.919  18.209  66.748  1.00  0.00    -0.262 C  
HETATM    3  C   UNL     2      -7.919  16.772  66.247  1.00  0.00    -0.352 C  
ENDROOT
BRANCH   3   4
HETATM    4  C   UNL     2      -9.334  16.194  66.240  1.00  0.00    -0.351 C  
BRANCH   4   5
HETATM    5  C   UNL     2      -9.394  14.691  66.533  1.00  0.00    -0.313 C  
HETATM    6  C   UNL     2     -10.795  14.110  66.845  1.00  0.00    -0.296 C  
HETATM    7  C   UNL     2     -11.854  14.424  65.764  1.00  0.00    -0.365 C  
HETATM    8  C   UNL     2     -10.730  12.584  67.094  1.00  0.00    -0.263 C  
HETATM    9  C   UNL     2     -11.617  13.773  64.407  1.00  0.00    -0.418 C  
BRANCH   8  10
HETATM   10  C   UNL     2      -9.808  12.143  68.231  1.00  0.00    -0.212 C  
BRANCH  10  11
HETATM   11  C   UNL     2      -8.967  10.869  67.997  1.00  0.00    -0.145 C  
BRANCH  11  12
HETATM   12  C   UNL     2      -8.127  10.998  66.703  1.00  0.00    -0.155 C  
HETATM   13  C   UNL     2      -9.532   9.483  65.178  1.00  0.00    -0.305 C  
HETATM   14  C   UNL     2      -8.146   9.776  65.758  1.00  0.00    -0.119 C  
HETATM   15  C   UNL     2      -7.169  10.011  64.596  1.00  0.00    -0.140 C  
ENDBRANCH  11  12
BRANCH  11  16
HETATM   16  O   UNL     2      -8.075  10.692  69.093  1.00  0.00    -0.139 OA 
HETATM   17  O   UNL     2      -7.096  12.905  68.764  1.00  0.00    -0.100 OA 
HETATM   18  O   UNL     2      -6.289  11.448  70.564  1.00  0.00    -0.301 OA 
HETATM   19  S   UNL     2      -6.692  11.562  69.166  1.00  0.00    -0.116 S  
HETATM   20  O   UNL     2      -5.799  10.912  68.216  1.00  0.00    -0.043 OA 
ENDBRANCH  11  16
ENDBRANCH  10  11
ENDBRANCH   8  10
ENDBRANCH   4   5
ENDBRANCH   3   4
TORSDOF 6
ENDMDL
MODEL      366
REMARK 921   NORMALIZED FREE ENERGY PREDICTED BY IDOCK:   -2.26 KCAL/MOL
REMARK 922        TOTAL FREE ENERGY PREDICTED BY IDOCK:   -4.26 KCAL/MOL
REMARK 923 INTER-LIGAND FREE ENERGY PREDICTED BY IDOCK:   -4.70 KCAL/MOL
REMARK 924 INTRA-LIGAND FREE ENERGY PREDICTED BY IDOCK:    0.43 KCAL/MOL
REMARK 927      BINDING AFFINITY PREDICTED BY RF-SCORE:    0.00 PKD
ROOT
HETATM    1 NA   UNL     1      -9.349  14.714  68.084  1.00  0.00    -0.167 Na 
HETATM    2  C   UNL     2      -5.778  13.749  67.726  1.00  0.00    -0.085 C  
HETATM    3  C   UNL     2      -6.221  12.336  67.376  1.00  0.00    -0.153 C  
ENDROOT
BRANCH   3   4
HETATM    4  C   UNL     2      -7.741  12.252  67.254  1.00  0.00    -0.161 C  
BRANCH   4   5
HETATM    5  C   UNL     2      -8.304  10.838  67.429  1.00  0.00    -0.119 C  
HETATM    6  C   UNL     2      -9.842  10.727  67.578  1.00  0.00    -0.197 C  
HETATM    7  C   UNL     2     -10.628  11.411  66.437  1.00  0.00    -0.311 C  
HETATM    8  C   UNL     2     -10.288   9.251  67.717  1.00  0.00    -0.292 C  
HETATM    9  C   UNL     2     -10.469  10.777  65.060  1.00  0.00    -0.307 C  
BRANCH   8  10
HETATM   10  C   UNL     2      -9.677   8.489  68.893  1.00  0.00    -0.172 C  
BRANCH  10  11
HETATM   11  C   UNL     2      -9.929   9.062  70.305  1.00  0.00    -0.195 C  
BRANCH  11  12
HETATM   12  C   UNL     2     -11.404   8.856  70.725  1.00  0.00    -0.325 C  
HETATM   13  C   UNL     2     -12.171  11.305  70.656  1.00  0.00    -0.489 C  
HETATM   14  C   UNL     2     -12.061  10.027  71.490  1.00  0.00    -0.475 C  
HETATM   15  C   UNL     2     -13.470   9.616  71.944  1.00  0.00    -0.496 C  
ENDBRANCH  11  12
BRANCH  11  16
HETATM   16  O   UNL     2      -9.098   8.379  71.240  1.00  0.00    -0.149 OA 
HETATM   17  O   UNL     2      -9.269   6.287  69.991  1.00  0.00    -0.150 OA 
HETATM   18  O   UNL     2      -7.952   6.393  72.057  1.00  0.00    -0.106 OA 
HETATM   19  S   UNL     2      -9.190   6.752  71.372  1.00  0.00    -0.153 S  
HETATM   20  O   UNL     2     -10.405   6.513  72.139  1.00  0.00    -0.196 OA 
ENDBRANCH  11  16
ENDBRANCH  10  11
ENDBRANCH   8  10
ENDBRANCH   4   5
ENDBRANCH   3   4
TORSDOF 6
ENDMDL
MODEL      367
REMARK 921   NORMALIZED FREE ENERGY PREDICTED BY IDOCK:   -2.25 KCAL/MOL
REMARK 922        TOTAL FREE ENERGY PREDICTED BY IDOCK:   -4.24 KCAL/MOL
REMARK 923 INTER-LIGAND FREE ENERGY PREDICTED BY IDOCK:   -3.33 KCAL/MOL
REMARK 924 INTRA-LIGAND FREE ENERGY PREDICTED BY IDOCK:   -0.91 KCAL/MOL
REMARK 927      BINDING AFFINITY PREDICTED BY RF-SCORE:    0.00 PKD
ROOT
HETATM    1 NA   UNL     1     -11.190  15.485  65.165  1.00  0.00    -0.306 Na 
HETATM    2  C   UNL     2     -10.146  15.993  68.695  1.00  0.00    -0.220 C  
HETATM    3  C   UNL     2     -10.593  14.571  69.006  1.00  0.00    -0.250 C  
ENDROOT
BRANCH   3   4
HETATM    4  C   UNL     2     -11.015  13.840  67.733  1.00  0.00    -0.272 C  
BRANCH   4   5
HETATM    5  C   UNL     2     -10.614  12.362  67.701  1.00  0.00    -0.236 C  
HETATM    6  C   UNL     2     -11.560  11.411  66.928  1.00  0.00    -0.088 C  
HETATM    7  C   UNL     2     -11.838  11.857  65.474  1.00  0.00    -0.135 C  
HETATM    8  C   UNL     2     -11.033   9.956  66.943  1.00  0.00    -0.047 C  
HETATM    9  C   UNL     2     -10.637  11.820  64.537  1.00  0.00    -0.364 C  
BRANCH   8  10
HETATM   10  C   UNL     2     -10.834   9.345  68.330  1.00  0.00    -0.156 C  
BRANCH  10  11
HETATM   11  C   UNL     2      -9.559   8.501  68.547  1.00  0.00    -0.151 C  
BRANCH  11  12
HETATM   12  C   UNL     2      -8.537   8.752  67.411  1.00  0.00    -0.126 C  
HETATM   13  C   UNL     2      -7.938   6.311  66.885  1.00  0.00    -0.109 C  
HETATM   14  C   UNL     2      -7.416   7.699  67.264  1.00  0.00    -0.100 C  
HETATM   15  C   UNL     2      -6.419   8.158  66.188  1.00  0.00    -0.046 C  
ENDBRANCH  11  12
BRANCH  11  16
HETATM   16  O   UNL     2      -8.956   8.877  69.782  1.00  0.00    -0.140 OA 
HETATM   17  O   UNL     2      -8.593   6.545  70.411  1.00  0.00    -0.142 OA 
HETATM   18  O   UNL     2      -7.901   8.356  71.913  1.00  0.00    -0.111 OA 
HETATM   19  S   UNL     2      -8.934   7.821  71.031  1.00  0.00    -0.144 S  
HETATM   20  O   UNL     2     -10.285   7.865  71.572  1.00  0.00    -0.186 OA 
ENDBRANCH  11  16
ENDBRANCH  10  11
ENDBRANCH   8  10
ENDBRANCH   4   5
ENDBRANCH   3   4
TORSDOF 6
ENDMDL
MODEL      368
REMARK 921   NORMALIZED FREE ENERGY PREDICTED BY IDOCK:   -2.24 KCAL/MOL
REMARK 922        TOTAL FREE ENERGY PREDICTED BY IDOCK:   -4.24 KCAL/MOL
REMARK 923 INTER-LIGAND FREE ENERGY PREDICTED BY IDOCK:   -3.42 KCAL/MOL
REMARK 924 INTRA-LIGAND FREE ENERGY PREDICTED BY IDOCK:   -0.82 KCAL/MOL
REMARK 927      BINDING AFFINITY PREDICTED BY RF-SCORE:    0.00 PKD
ROOT
HETATM    1 NA   UNL     1      -9.296   6.033  70.472  1.00  0.00    -0.142 Na 
HETATM    2  C   UNL     2      -5.822   6.580  71.675  1.00  0.00    -0.036 C  
HETATM    3  C   UNL     2      -5.309   5.809  70.467  1.00  0.00    -0.009 C  
ENDROOT
BRANCH   3   4
HETATM    4  C   UNL     2      -6.452   5.456  69.517  1.00  0.00    -0.038 C  
BRANCH   4   5
HETATM    5  C   UNL     2      -7.397   6.624  69.218  1.00  0.00    -0.093 C  
HETATM    6  C   UNL     2      -7.066   7.469  67.963  1.00  0.00    -0.084 C  
HETATM    7  C   UNL     2      -6.922   6.633  66.670  1.00  0.00    -0.067 C  
HETATM    8  C   UNL     2      -8.106   8.596  67.751  1.00  0.00    -0.107 C  
HETATM    9  C   UNL     2      -8.199   5.960  66.181  1.00  0.00    -0.116 C  
BRANCH   8  10
HETATM   10  C   UNL     2      -8.256   9.576  68.914  1.00  0.00    -0.116 C  
BRANCH  10  11
HETATM   11  C   UNL     2      -9.679   9.783  69.477  1.00  0.00    -0.212 C  
BRANCH  11  12
HETATM   12  C   UNL     2     -10.598  10.434  68.415  1.00  0.00    -0.238 C  
HETATM   13  C   UNL     2      -9.430  12.714  68.240  1.00  0.00    -0.203 C  
HETATM   14  C   UNL     2     -10.743  11.970  68.495  1.00  0.00    -0.261 C  
HETATM   15  C   UNL     2     -11.781  12.442  67.465  1.00  0.00    -0.425 C  
ENDBRANCH  11  12
BRANCH  11  16
HETATM   16  O   UNL     2     -10.229   8.516  69.828  1.00  0.00    -0.196 OA 
HETATM   17  O   UNL     2     -11.486   9.481  71.686  1.00  0.00    -0.381 OA 
HETATM   18  O   UNL     2     -11.620   7.078  71.215  1.00  0.00    -0.272 OA 
HETATM   19  S   UNL     2     -10.769   8.256  71.349  1.00  0.00    -0.240 S  
HETATM   20  O   UNL     2      -9.561   8.052  72.137  1.00  0.00    -0.179 OA 
ENDBRANCH  11  16
ENDBRANCH  10  11
ENDBRANCH   8  10
ENDBRANCH   4   5
ENDBRANCH   3   4
TORSDOF 6
ENDMDL
MODEL      369
REMARK 921   NORMALIZED FREE ENERGY PREDICTED BY IDOCK:   -2.22 KCAL/MOL
REMARK 922        TOTAL FREE ENERGY PREDICTED BY IDOCK:   -4.20 KCAL/MOL
REMARK 923 INTER-LIGAND FREE ENERGY PREDICTED BY IDOCK:   -2.96 KCAL/MOL
REMARK 924 INTRA-LIGAND FREE ENERGY PREDICTED BY IDOCK:   -1.24 KCAL/MOL
REMARK 927      BINDING AFFINITY PREDICTED BY RF-SCORE:    0.00 PKD
ROOT
HETATM    1 NA   UNL     1      -6.745   6.890  74.313  1.00  0.00    -0.076 Na 
HETATM    2  C   UNL     2     -10.445   6.643  74.055  1.00  0.00    -0.309 C  
HETATM    3  C   UNL     2     -10.443   7.896  73.192  1.00  0.00    -0.348 C  
ENDROOT
BRANCH   3   4
HETATM    4  C   UNL     2      -9.016   8.342  72.876  1.00  0.00    -0.324 C  
BRANCH   4   5
HETATM    5  C   UNL     2      -8.626   8.186  71.403  1.00  0.00    -0.168 C  
HETATM    6  C   UNL     2      -7.477   7.193  71.099  1.00  0.00    -0.080 C  
HETATM    7  C   UNL     2      -7.708   5.779  71.679  1.00  0.00    -0.101 C  
HETATM    8  C   UNL     2      -7.198   7.102  69.580  1.00  0.00    -0.080 C  
HETATM    9  C   UNL     2      -8.869   5.003  71.070  1.00  0.00    -0.153 C  
BRANCH   8  10
HETATM   10  C   UNL     2      -6.829   8.422  68.900  1.00  0.00    -0.061 C  
BRANCH  10  11
HETATM   11  C   UNL     2      -7.476   8.706  67.527  1.00  0.00    -0.090 C  
BRANCH  11  12
HETATM   12  C   UNL     2      -8.231  10.058  67.547  1.00  0.00    -0.114 C  
HETATM   13  C   UNL     2     -10.606   9.167  67.948  1.00  0.00    -0.272 C  
HETATM   14  C   UNL     2      -9.698  10.021  67.061  1.00  0.00    -0.227 C  
HETATM   15  C   UNL     2     -10.259  11.451  67.019  1.00  0.00    -0.246 C  
ENDBRANCH  11  12
BRANCH  11  16
HETATM   16  O   UNL     2      -6.454   8.780  66.537  1.00  0.00    -0.061 OA 
HETATM   17  O   UNL     2      -7.921   7.831  64.830  1.00  0.00    -0.126 OA 
HETATM   18  O   UNL     2      -5.611   8.441  64.279  1.00  0.00    -0.057 OA 
HETATM   19  S   UNL     2      -6.517   7.802  65.228  1.00  0.00    -0.041 S  
HETATM   20  O   UNL     2      -6.076   6.504  65.717  1.00  0.00    -0.028 OA 
ENDBRANCH  11  16
ENDBRANCH  10  11
ENDBRANCH   8  10
ENDBRANCH   4   5
ENDBRANCH   3   4
TORSDOF 6
ENDMDL
MODEL      370
REMARK 921   NORMALIZED FREE ENERGY PREDICTED BY IDOCK:   -2.20 KCAL/MOL
REMARK 922        TOTAL FREE ENERGY PREDICTED BY IDOCK:   -4.18 KCAL/MOL
REMARK 923 INTER-LIGAND FREE ENERGY PREDICTED BY IDOCK:   -4.41 KCAL/MOL
REMARK 924 INTRA-LIGAND FREE ENERGY PREDICTED BY IDOCK:    0.23 KCAL/MOL
REMARK 927      BINDING AFFINITY PREDICTED BY RF-SCORE:    0.00 PKD
ROOT
HETATM    1 NA   UNL     1     -12.053  16.669  64.049  1.00  0.00    -0.473 Na 
HETATM    2  C   UNL     2      -9.030  16.664  66.211  1.00  0.00    -0.340 C  
HETATM    3  C   UNL     2      -9.741  15.711  67.160  1.00  0.00    -0.226 C  
ENDROOT
BRANCH   3   4
HETATM    4  C   UNL     2     -11.089  15.274  66.589  1.00  0.00    -0.276 C  
BRANCH   4   5
HETATM    5  C   UNL     2     -11.208  13.764  66.360  1.00  0.00    -0.321 C  
HETATM    6  C   UNL     2     -10.395  12.859  67.318  1.00  0.00    -0.234 C  
HETATM    7  C   UNL     2     -10.669  13.132  68.814  1.00  0.00    -0.253 C  
HETATM    8  C   UNL     2     -10.622  11.360  67.005  1.00  0.00    -0.286 C  
HETATM    9  C   UNL     2     -12.076  12.796  69.295  1.00  0.00    -0.224 C  
BRANCH   8  10
HETATM   10  C   UNL     2     -10.266  10.926  65.583  1.00  0.00    -0.323 C  
BRANCH  10  11
HETATM   11  C   UNL     2      -8.785  10.587  65.305  1.00  0.00    -0.188 C  
BRANCH  11  12
HETATM   12  C   UNL     2      -7.954  10.655  66.609  1.00  0.00    -0.134 C  
HETATM   13  C   UNL     2      -7.737   8.135  67.059  1.00  0.00    -0.096 C  
HETATM   14  C   UNL     2      -8.169   9.496  67.610  1.00  0.00    -0.121 C  
HETATM   15  C   UNL     2      -7.377   9.778  68.897  1.00  0.00    -0.073 C  
ENDBRANCH  11  12
BRANCH  11  16
HETATM   16  O   UNL     2      -8.699   9.261  64.789  1.00  0.00    -0.175 OA 
HETATM   17  O   UNL     2      -6.969   9.905  63.189  1.00  0.00    -0.115 OA 
HETATM   18  O   UNL     2      -7.779   7.592  63.275  1.00  0.00    -0.119 OA 
HETATM   19  S   UNL     2      -8.119   9.012  63.280  1.00  0.00    -0.179 S  
HETATM   20  O   UNL     2      -9.217   9.382  62.399  1.00  0.00    -0.258 OA 
ENDBRANCH  11  16
ENDBRANCH  10  11
ENDBRANCH   8  10
ENDBRANCH   4   5
ENDBRANCH   3   4
TORSDOF 6
ENDMDL
MODEL      371
REMARK 921   NORMALIZED FREE ENERGY PREDICTED BY IDOCK:   -2.18 KCAL/MOL
REMARK 922        TOTAL FREE ENERGY PREDICTED BY IDOCK:   -4.15 KCAL/MOL
REMARK 923 INTER-LIGAND FREE ENERGY PREDICTED BY IDOCK:   -3.40 KCAL/MOL
REMARK 924 INTRA-LIGAND FREE ENERGY PREDICTED BY IDOCK:   -0.75 KCAL/MOL
REMARK 927      BINDING AFFINITY PREDICTED BY RF-SCORE:    0.00 PKD
ROOT
HETATM    1 NA   UNL     1      -9.714   7.488  65.893  1.00  0.00    -0.262 Na 
HETATM    2  C   UNL     2     -10.661   4.060  64.812  1.00  0.00    -0.173 C  
HETATM    3  C   UNL     2      -9.199   3.651  64.916  1.00  0.00    -0.147 C  
ENDROOT
BRANCH   3   4
HETATM    4  C   UNL     2      -8.354   4.781  65.501  1.00  0.00    -0.120 C  
BRANCH   4   5
HETATM    5  C   UNL     2      -8.672   5.104  66.964  1.00  0.00    -0.103 C  
HETATM    6  C   UNL     2      -7.912   4.276  68.029  1.00  0.00    -0.086 C  
HETATM    7  C   UNL     2      -6.375   4.306  67.861  1.00  0.00    -0.037 C  
HETATM    8  C   UNL     2      -8.295   4.714  69.463  1.00  0.00    -0.080 C  
HETATM    9  C   UNL     2      -5.718   5.661  68.092  1.00  0.00    -0.012 C  
BRANCH   8  10
HETATM   10  C   UNL     2      -9.782   4.611  69.805  1.00  0.00    -0.280 C  
BRANCH  10  11
HETATM   11  C   UNL     2     -10.173   4.787  71.289  1.00  0.00    -0.158 C  
BRANCH  11  12
HETATM   12  C   UNL     2      -9.181   4.034  72.209  1.00  0.00    -0.163 C  
HETATM   13  C   UNL     2     -10.283   1.715  72.145  1.00  0.00    -0.229 C  
HETATM   14  C   UNL     2      -9.771   2.860  73.023  1.00  0.00    -0.165 C  
HETATM   15  C   UNL     2      -8.699   2.307  73.974  1.00  0.00    -0.066 C  
ENDBRANCH  11  12
BRANCH  11  16
HETATM   16  O   UNL     2     -10.127   6.172  71.621  1.00  0.00    -0.183 OA 
HETATM   17  O   UNL     2     -12.526   6.228  72.078  1.00  0.00    -0.306 OA 
HETATM   18  O   UNL     2     -11.171   8.258  72.317  1.00  0.00    -0.321 OA 
HETATM   19  S   UNL     2     -11.483   7.080  71.514  1.00  0.00    -0.288 S  
HETATM   20  O   UNL     2     -11.644   7.334  70.090  1.00  0.00    -0.219 OA 
ENDBRANCH  11  16
ENDBRANCH  10  11
ENDBRANCH   8  10
ENDBRANCH   4   5
ENDBRANCH   3   4
TORSDOF 6
ENDMDL
MODEL      372
REMARK 921   NORMALIZED FREE ENERGY PREDICTED BY IDOCK:   -2.18 KCAL/MOL
REMARK 922        TOTAL FREE ENERGY PREDICTED BY IDOCK:   -4.15 KCAL/MOL
REMARK 923 INTER-LIGAND FREE ENERGY PREDICTED BY IDOCK:   -3.83 KCAL/MOL
REMARK 924 INTRA-LIGAND FREE ENERGY PREDICTED BY IDOCK:   -0.31 KCAL/MOL
REMARK 927      BINDING AFFINITY PREDICTED BY RF-SCORE:    0.00 PKD
ROOT
HETATM    1 NA   UNL     1      -7.637   4.636  71.140  1.00  0.00    -0.059 Na 
HETATM    2  C   UNL     2      -8.169   2.056  68.518  1.00  0.00    -0.073 C  
HETATM    3  C   UNL     2      -9.226   2.951  67.887  1.00  0.00    -0.253 C  
ENDROOT
BRANCH   3   4
HETATM    4  C   UNL     2      -9.287   4.306  68.590  1.00  0.00    -0.213 C  
BRANCH   4   5
HETATM    5  C   UNL     2      -9.799   5.446  67.704  1.00  0.00    -0.176 C  
HETATM    6  C   UNL     2      -8.823   6.627  67.475  1.00  0.00    -0.116 C  
HETATM    7  C   UNL     2      -7.440   6.195  66.937  1.00  0.00    -0.087 C  
HETATM    8  C   UNL     2      -9.442   7.696  66.542  1.00  0.00    -0.250 C  
HETATM    9  C   UNL     2      -7.438   5.601  65.534  1.00  0.00    -0.074 C  
BRANCH   8  10
HETATM   10  C   UNL     2     -10.760   8.302  67.024  1.00  0.00    -0.225 C  
BRANCH  10  11
HETATM   11  C   UNL     2     -10.674   9.628  67.813  1.00  0.00    -0.257 C  
BRANCH  11  12
HETATM   12  C   UNL     2     -10.026   9.397  69.200  1.00  0.00    -0.184 C  
HETATM   13  C   UNL     2      -8.197  11.196  69.073  1.00  0.00    -0.066 C  
HETATM   14  C   UNL     2      -8.517   9.717  69.303  1.00  0.00    -0.150 C  
HETATM   15  C   UNL     2      -8.003   9.315  70.694  1.00  0.00    -0.189 C  
ENDBRANCH  11  12
BRANCH  11  16
HETATM   16  O   UNL     2      -9.864  10.549  67.088  1.00  0.00    -0.167 OA 
HETATM   17  O   UNL     2     -11.793  11.943  66.539  1.00  0.00    -0.579 OA 
HETATM   18  O   UNL     2      -9.554  12.557  65.749  1.00  0.00    -0.223 OA 
HETATM   19  S   UNL     2     -10.539  11.497  65.940  1.00  0.00    -0.268 S  
HETATM   20  O   UNL     2     -10.720  10.616  64.795  1.00  0.00    -0.225 OA 
ENDBRANCH  11  16
ENDBRANCH  10  11
ENDBRANCH   8  10
ENDBRANCH   4   5
ENDBRANCH   3   4
TORSDOF 6
ENDMDL
MODEL      373
REMARK 921   NORMALIZED FREE ENERGY PREDICTED BY IDOCK:   -2.17 KCAL/MOL
REMARK 922        TOTAL FREE ENERGY PREDICTED BY IDOCK:   -4.13 KCAL/MOL
REMARK 923 INTER-LIGAND FREE ENERGY PREDICTED BY IDOCK:   -2.95 KCAL/MOL
REMARK 924 INTRA-LIGAND FREE ENERGY PREDICTED BY IDOCK:   -1.19 KCAL/MOL
REMARK 927      BINDING AFFINITY PREDICTED BY RF-SCORE:    0.00 PKD
ROOT
HETATM    1 NA   UNL     1     -11.533   8.558  69.749  1.00  0.00    -0.310 Na 
HETATM    2  C   UNL     2      -8.934   7.692  72.262  1.00  0.00    -0.177 C  
HETATM    3  C   UNL     2      -7.866   8.129  71.270  1.00  0.00    -0.102 C  
ENDROOT
BRANCH   3   4
HETATM    4  C   UNL     2      -8.496   8.743  70.021  1.00  0.00    -0.133 C  
BRANCH   4   5
HETATM    5  C   UNL     2      -8.589   7.780  68.833  1.00  0.00    -0.132 C  
HETATM    6  C   UNL     2      -8.433   8.411  67.427  1.00  0.00    -0.124 C  
HETATM    7  C   UNL     2      -7.144   9.246  67.259  1.00  0.00    -0.082 C  
HETATM    8  C   UNL     2      -8.515   7.336  66.316  1.00  0.00    -0.135 C  
HETATM    9  C   UNL     2      -5.840   8.459  67.319  1.00  0.00    -0.043 C  
BRANCH   8  10
HETATM   10  C   UNL     2      -9.806   6.517  66.290  1.00  0.00    -0.032 C  
BRANCH  10  11
HETATM   11  C   UNL     2      -9.659   4.983  66.191  1.00  0.00    -0.168 C  
BRANCH  11  12
HETATM   12  C   UNL     2      -9.910   4.319  67.567  1.00  0.00    -0.162 C  
HETATM   13  C   UNL     2      -7.479   4.202  68.387  1.00  0.00    -0.059 C  
HETATM   14  C   UNL     2      -8.769   3.427  68.107  1.00  0.00    -0.136 C  
HETATM   15  C   UNL     2      -9.223   2.746  69.407  1.00  0.00    -0.208 C  
ENDBRANCH  11  12
BRANCH  11  16
HETATM   16  O   UNL     2     -10.624   4.481  65.270  1.00  0.00    -0.237 OA 
HETATM   17  O   UNL     2      -9.140   2.671  64.572  1.00  0.00    -0.116 OA 
HETATM   18  O   UNL     2     -11.367   2.904  63.571  1.00  0.00    -0.257 OA 
HETATM   19  S   UNL     2     -10.140   3.568  64.003  1.00  0.00    -0.222 S  
HETATM   20  O   UNL     2      -9.594   4.523  63.049  1.00  0.00    -0.108 OA 
ENDBRANCH  11  16
ENDBRANCH  10  11
ENDBRANCH   8  10
ENDBRANCH   4   5
ENDBRANCH   3   4
TORSDOF 6
ENDMDL
MODEL      374
REMARK 921   NORMALIZED FREE ENERGY PREDICTED BY IDOCK:   -2.17 KCAL/MOL
REMARK 922        TOTAL FREE ENERGY PREDICTED BY IDOCK:   -4.13 KCAL/MOL
REMARK 923 INTER-LIGAND FREE ENERGY PREDICTED BY IDOCK:   -3.49 KCAL/MOL
REMARK 924 INTRA-LIGAND FREE ENERGY PREDICTED BY IDOCK:   -0.64 KCAL/MOL
REMARK 927      BINDING AFFINITY PREDICTED BY RF-SCORE:    0.00 PKD
ROOT
HETATM    1 NA   UNL     1      -5.507   5.242  71.798  1.00  0.00    -0.006 Na 
HETATM    2  C   UNL     2      -6.661   4.670  68.312  1.00  0.00    -0.050 C  
HETATM    3  C   UNL     2      -6.520   6.162  68.047  1.00  0.00    -0.049 C  
ENDROOT
BRANCH   3   4
HETATM    4  C   UNL     2      -5.896   6.875  69.246  1.00  0.00    -0.018 C  
BRANCH   4   5
HETATM    5  C   UNL     2      -6.658   8.127  69.692  1.00  0.00    -0.037 C  
HETATM    6  C   UNL     2      -8.095   7.902  70.222  1.00  0.00    -0.115 C  
HETATM    7  C   UNL     2      -8.183   6.864  71.363  1.00  0.00    -0.110 C  
HETATM    8  C   UNL     2      -8.746   9.234  70.668  1.00  0.00    -0.282 C  
HETATM    9  C   UNL     2      -7.502   7.265  72.666  1.00  0.00    -0.080 C  
BRANCH   8  10
HETATM   10  C   UNL     2      -8.839  10.312  69.588  1.00  0.00    -0.124 C  
BRANCH  10  11
HETATM   11  C   UNL     2      -9.918  10.120  68.499  1.00  0.00    -0.163 C  
BRANCH  11  12
HETATM   12  C   UNL     2     -11.306   9.882  69.139  1.00  0.00    -0.088 C  
HETATM   13  C   UNL     2     -11.808  12.290  69.878  1.00  0.00    -0.383 C  
HETATM   14  C   UNL     2     -11.686  10.825  70.304  1.00  0.00    -0.442 C  
HETATM   15  C   UNL     2     -13.025  10.377  70.910  1.00  0.00    -0.475 C  
ENDBRANCH  11  12
BRANCH  11  16
HETATM   16  O   UNL     2      -9.989  11.299  67.701  1.00  0.00    -0.175 OA 
HETATM   17  O   UNL     2     -10.390  10.004  65.670  1.00  0.00    -0.233 OA 
HETATM   18  O   UNL     2     -10.271  12.451  65.576  1.00  0.00    -0.265 OA 
HETATM   19  S   UNL     2      -9.696  11.214  66.095  1.00  0.00    -0.228 S  
HETATM   20  O   UNL     2      -8.246  11.123  65.991  1.00  0.00    -0.161 OA 
ENDBRANCH  11  16
ENDBRANCH  10  11
ENDBRANCH   8  10
ENDBRANCH   4   5
ENDBRANCH   3   4
TORSDOF 6
ENDMDL
MODEL      375
REMARK 921   NORMALIZED FREE ENERGY PREDICTED BY IDOCK:   -2.12 KCAL/MOL
REMARK 922        TOTAL FREE ENERGY PREDICTED BY IDOCK:   -4.07 KCAL/MOL
REMARK 923 INTER-LIGAND FREE ENERGY PREDICTED BY IDOCK:   -3.79 KCAL/MOL
REMARK 924 INTRA-LIGAND FREE ENERGY PREDICTED BY IDOCK:   -0.28 KCAL/MOL
REMARK 927      BINDING AFFINITY PREDICTED BY RF-SCORE:    0.00 PKD
ROOT
HETATM    1 NA   UNL     1      -5.834   9.198  67.290  1.00  0.00    -0.040 Na 
HETATM    2  C   UNL     2      -9.356  10.170  67.971  1.00  0.00    -0.149 C  
HETATM    3  C   UNL     2      -9.813   8.873  67.319  1.00  0.00    -0.256 C  
ENDROOT
BRANCH   3   4
HETATM    4  C   UNL     2      -8.620   7.989  66.961  1.00  0.00    -0.127 C  
BRANCH   4   5
HETATM    5  C   UNL     2      -8.519   6.709  67.796  1.00  0.00    -0.122 C  
HETATM    6  C   UNL     2      -9.852   5.983  68.100  1.00  0.00    -0.148 C  
HETATM    7  C   UNL     2     -10.686   5.660  66.840  1.00  0.00    -0.350 C  
HETATM    8  C   UNL     2      -9.616   4.693  68.923  1.00  0.00    -0.233 C  
HETATM    9  C   UNL     2     -10.066   4.644  65.887  1.00  0.00    -0.280 C  
BRANCH   8  10
HETATM   10  C   UNL     2      -8.908   4.890  70.263  1.00  0.00    -0.134 C  
BRANCH  10  11
HETATM   11  C   UNL     2      -9.743   5.492  71.414  1.00  0.00    -0.158 C  
BRANCH  11  12
HETATM   12  C   UNL     2     -10.849   6.423  70.859  1.00  0.00    -0.316 C  
HETATM   13  C   UNL     2     -11.482   7.614  73.044  1.00  0.00    -0.265 C  
HETATM   14  C   UNL     2     -11.976   6.799  71.847  1.00  0.00    -0.374 C  
HETATM   15  C   UNL     2     -13.052   7.613  71.111  1.00  0.00    -0.198 C  
ENDBRANCH  11  12
BRANCH  11  16
HETATM   16  O   UNL     2     -10.370   4.435  72.137  1.00  0.00    -0.187 OA 
HETATM   17  O   UNL     2      -8.922   4.786  74.072  1.00  0.00    -0.113 OA 
HETATM   18  O   UNL     2     -10.624   3.021  74.101  1.00  0.00    -0.164 OA 
HETATM   19  S   UNL     2      -9.567   3.693  73.352  1.00  0.00    -0.109 S  
HETATM   20  O   UNL     2      -8.630   2.802  72.682  1.00  0.00    -0.070 OA 
ENDBRANCH  11  16
ENDBRANCH  10  11
ENDBRANCH   8  10
ENDBRANCH   4   5
ENDBRANCH   3   4
TORSDOF 6
ENDMDL
MODEL      376
REMARK 921   NORMALIZED FREE ENERGY PREDICTED BY IDOCK:   -2.12 KCAL/MOL
REMARK 922        TOTAL FREE ENERGY PREDICTED BY IDOCK:   -4.07 KCAL/MOL
REMARK 923 INTER-LIGAND FREE ENERGY PREDICTED BY IDOCK:   -3.25 KCAL/MOL
REMARK 924 INTRA-LIGAND FREE ENERGY PREDICTED BY IDOCK:   -0.82 KCAL/MOL
REMARK 927      BINDING AFFINITY PREDICTED BY RF-SCORE:    0.00 PKD
ROOT
HETATM    1 NA   UNL     1      -7.900   5.507  71.291  1.00  0.00    -0.085 Na 
HETATM    2  C   UNL     2      -8.668   3.674  68.151  1.00  0.00    -0.130 C  
HETATM    3  C   UNL     2      -9.596   4.810  67.744  1.00  0.00    -0.194 C  
ENDROOT
BRANCH   3   4
HETATM    4  C   UNL     2      -9.513   5.967  68.738  1.00  0.00    -0.143 C  
BRANCH   4   5
HETATM    5  C   UNL     2      -9.159   7.313  68.099  1.00  0.00    -0.134 C  
HETATM    6  C   UNL     2      -8.365   8.304  68.986  1.00  0.00    -0.120 C  
HETATM    7  C   UNL     2      -7.069   7.707  69.579  1.00  0.00    -0.064 C  
HETATM    8  C   UNL     2      -8.043   9.611  68.221  1.00  0.00    -0.105 C  
HETATM    9  C   UNL     2      -5.984   7.361  68.567  1.00  0.00    -0.027 C  
BRANCH   8  10
HETATM   10  C   UNL     2      -9.255  10.374  67.686  1.00  0.00    -0.157 C  
BRANCH  10  11
HETATM   11  C   UNL     2      -9.288  11.898  67.935  1.00  0.00    -0.187 C  
BRANCH  11  12
HETATM   12  C   UNL     2     -10.448  12.272  68.889  1.00  0.00    -0.131 C  
HETATM   13  C   UNL     2     -11.823  13.721  67.275  1.00  0.00    -0.436 C  
HETATM   14  C   UNL     2     -11.122  13.639  68.633  1.00  0.00    -0.299 C  
HETATM   15  C   UNL     2     -12.156  13.915  69.736  1.00  0.00    -0.404 C  
ENDBRANCH  11  12
BRANCH  11  16
HETATM   16  O   UNL     2      -8.063  12.297  68.543  1.00  0.00    -0.147 OA 
HETATM   17  O   UNL     2      -7.846  14.214  67.045  1.00  0.00    -0.102 OA 
HETATM   18  O   UNL     2      -6.137  13.771  68.747  1.00  0.00    -0.079 OA 
HETATM   19  S   UNL     2      -7.005  13.224  67.709  1.00  0.00    -0.166 S  
HETATM   20  O   UNL     2      -6.353  12.301  66.790  1.00  0.00    -0.143 OA 
ENDBRANCH  11  16
ENDBRANCH  10  11
ENDBRANCH   8  10
ENDBRANCH   4   5
ENDBRANCH   3   4
TORSDOF 6
ENDMDL
MODEL      377
REMARK 921   NORMALIZED FREE ENERGY PREDICTED BY IDOCK:   -2.11 KCAL/MOL
REMARK 922        TOTAL FREE ENERGY PREDICTED BY IDOCK:   -4.05 KCAL/MOL
REMARK 923 INTER-LIGAND FREE ENERGY PREDICTED BY IDOCK:   -4.03 KCAL/MOL
REMARK 924 INTRA-LIGAND FREE ENERGY PREDICTED BY IDOCK:   -0.03 KCAL/MOL
REMARK 927      BINDING AFFINITY PREDICTED BY RF-SCORE:    0.00 PKD
ROOT
HETATM    1 NA   UNL     1     -12.261   6.648  68.833  1.00  0.00    -0.582 Na 
HETATM    2  C   UNL     2     -12.680   9.531  71.141  1.00  0.00    -0.371 C  
HETATM    3  C   UNL     2     -11.782   8.825  72.146  1.00  0.00    -0.433 C  
ENDROOT
BRANCH   3   4
HETATM    4  C   UNL     2     -11.199   7.543  71.554  1.00  0.00    -0.271 C  
BRANCH   4   5
HETATM    5  C   UNL     2     -10.006   7.775  70.620  1.00  0.00    -0.186 C  
HETATM    6  C   UNL     2      -8.901   8.726  71.144  1.00  0.00    -0.275 C  
HETATM    7  C   UNL     2      -8.346   8.331  72.531  1.00  0.00    -0.235 C  
HETATM    8  C   UNL     2      -7.741   8.855  70.127  1.00  0.00    -0.084 C  
HETATM    9  C   UNL     2      -7.579   7.015  72.579  1.00  0.00    -0.089 C  
BRANCH   8  10
HETATM   10  C   UNL     2      -8.137   9.363  68.741  1.00  0.00    -0.103 C  
BRANCH  10  11
HETATM   11  C   UNL     2      -8.412  10.876  68.602  1.00  0.00    -0.152 C  
BRANCH  11  12
HETATM   12  C   UNL     2      -7.084  11.668  68.513  1.00  0.00    -0.089 C  
HETATM   13  C   UNL     2      -6.082  10.996  70.780  1.00  0.00     0.042 C  
HETATM   14  C   UNL     2      -6.490  12.147  69.857  1.00  0.00    -0.009 C  
HETATM   15  C   UNL     2      -5.255  13.020  69.588  1.00  0.00    -0.083 C  
ENDBRANCH  11  12
BRANCH  11  16
HETATM   16  O   UNL     2      -9.151  11.108  67.406  1.00  0.00    -0.142 OA 
HETATM   17  O   UNL     2     -11.032  12.047  68.650  1.00  0.00    -0.216 OA 
HETATM   18  O   UNL     2     -11.124  11.876  66.206  1.00  0.00    -0.290 OA 
HETATM   19  S   UNL     2     -10.781  11.229  67.468  1.00  0.00    -0.249 S  
HETATM   20  O   UNL     2     -11.247   9.856  67.598  1.00  0.00    -0.211 OA 
ENDBRANCH  11  16
ENDBRANCH  10  11
ENDBRANCH   8  10
ENDBRANCH   4   5
ENDBRANCH   3   4
TORSDOF 6
ENDMDL
MODEL      378
REMARK 921   NORMALIZED FREE ENERGY PREDICTED BY IDOCK:   -2.10 KCAL/MOL
REMARK 922        TOTAL FREE ENERGY PREDICTED BY IDOCK:   -4.04 KCAL/MOL
REMARK 923 INTER-LIGAND FREE ENERGY PREDICTED BY IDOCK:   -3.36 KCAL/MOL
REMARK 924 INTRA-LIGAND FREE ENERGY PREDICTED BY IDOCK:   -0.69 KCAL/MOL
REMARK 927      BINDING AFFINITY PREDICTED BY RF-SCORE:    0.00 PKD
ROOT
HETATM    1 NA   UNL     1     -11.259  18.729  69.203  1.00  0.00    -0.172 Na 
HETATM    2  C   UNL     2     -10.703  19.367  65.584  1.00  0.00    -0.377 C  
HETATM    3  C   UNL     2     -10.559  17.868  65.368  1.00  0.00     0.113 C  
ENDROOT
BRANCH   3   4
HETATM    4  C   UNL     2     -10.861  17.097  66.652  1.00  0.00     0.043 C  
BRANCH   4   5
HETATM    5  C   UNL     2     -10.288  15.677  66.677  1.00  0.00    -0.290 C  
HETATM    6  C   UNL     2     -11.319  14.523  66.712  1.00  0.00    -0.358 C  
HETATM    7  C   UNL     2     -12.367  14.590  65.577  1.00  0.00    -0.272 C  
HETATM    8  C   UNL     2     -10.620  13.142  66.704  1.00  0.00    -0.284 C  
HETATM    9  C   UNL     2     -11.822  14.387  64.169  1.00  0.00    -0.316 C  
BRANCH   8  10
HETATM   10  C   UNL     2      -9.644  12.894  67.854  1.00  0.00    -0.215 C  
BRANCH  10  11
HETATM   11  C   UNL     2     -10.251  12.752  69.268  1.00  0.00     0.415 C  
BRANCH  11  12
HETATM   12  C   UNL     2     -10.379  14.135  69.950  1.00  0.00     0.506 C  
HETATM   13  C   UNL     2     -12.463  13.670  71.376  1.00  0.00    -0.374 C  
HETATM   14  C   UNL     2     -11.812  14.574  70.327  1.00  0.00    -0.373 C  
HETATM   15  C   UNL     2     -11.782  16.011  70.870  1.00  0.00    -0.438 C  
ENDBRANCH  11  12
BRANCH  11  16
HETATM   16  O   UNL     2     -11.553  12.184  69.160  1.00  0.00    -0.273 OA 
HETATM   17  O   UNL     2     -10.967  10.345  70.657  1.00  0.00    -0.289 OA 
HETATM   18  O   UNL     2     -13.214  10.484  69.685  1.00  0.00     0.063 OA 
HETATM   19  S   UNL     2     -11.775  10.593  69.468  1.00  0.00    -0.270 S  
HETATM   20  O   UNL     2     -11.283   9.917  68.276  1.00  0.00    -0.195 OA 
ENDBRANCH  11  16
ENDBRANCH  10  11
ENDBRANCH   8  10
ENDBRANCH   4   5
ENDBRANCH   3   4
TORSDOF 6
ENDMDL
MODEL      379
REMARK 921   NORMALIZED FREE ENERGY PREDICTED BY IDOCK:   -2.06 KCAL/MOL
REMARK 922        TOTAL FREE ENERGY PREDICTED BY IDOCK:   -3.98 KCAL/MOL
REMARK 923 INTER-LIGAND FREE ENERGY PREDICTED BY IDOCK:   -3.56 KCAL/MOL
REMARK 924 INTRA-LIGAND FREE ENERGY PREDICTED BY IDOCK:   -0.42 KCAL/MOL
REMARK 927      BINDING AFFINITY PREDICTED BY RF-SCORE:    0.00 PKD
ROOT
HETATM    1 NA   UNL     1      -6.766   4.903  71.573  1.00  0.00    -0.028 Na 
HETATM    2  C   UNL     2      -8.135   1.513  70.903  1.00  0.00    -0.050 C  
HETATM    3  C   UNL     2      -9.302   2.157  70.168  1.00  0.00    -0.173 C  
ENDROOT
BRANCH   3   4
HETATM    4  C   UNL     2      -9.108   3.668  70.050  1.00  0.00    -0.197 C  
BRANCH   4   5
HETATM    5  C   UNL     2      -9.934   4.317  68.935  1.00  0.00    -0.032 C  
HETATM    6  C   UNL     2      -9.140   4.861  67.721  1.00  0.00    -0.128 C  
HETATM    7  C   UNL     2      -8.205   3.816  67.070  1.00  0.00    -0.095 C  
HETATM    8  C   UNL     2     -10.085   5.463  66.653  1.00  0.00    -0.250 C  
HETATM    9  C   UNL     2      -8.905   2.641  66.397  1.00  0.00    -0.136 C  
BRANCH   8  10
HETATM   10  C   UNL     2     -10.981   6.602  67.139  1.00  0.00    -0.478 C  
BRANCH  10  11
HETATM   11  C   UNL     2     -10.280   7.817  67.786  1.00  0.00    -0.212 C  
BRANCH  11  12
HETATM   12  C   UNL     2      -9.704   7.441  69.173  1.00  0.00    -0.165 C  
HETATM   13  C   UNL     2     -11.908   6.888  70.369  1.00  0.00    -0.351 C  
HETATM   14  C   UNL     2     -10.621   7.718  70.385  1.00  0.00    -0.227 C  
HETATM   15  C   UNL     2      -9.859   7.414  71.684  1.00  0.00    -0.181 C  
ENDBRANCH  11  12
BRANCH  11  16
HETATM   16  O   UNL     2      -9.202   8.232  66.951  1.00  0.00    -0.143 OA 
HETATM   17  O   UNL     2      -9.504  10.572  67.582  1.00  0.00    -0.148 OA 
HETATM   18  O   UNL     2      -7.747   9.932  65.995  1.00  0.00    -0.102 OA 
HETATM   19  S   UNL     2      -9.136   9.775  66.416  1.00  0.00    -0.161 S  
HETATM   20  O   UNL     2     -10.112   9.833  65.338  1.00  0.00    -0.305 OA 
ENDBRANCH  11  16
ENDBRANCH  10  11
ENDBRANCH   8  10
ENDBRANCH   4   5
ENDBRANCH   3   4
TORSDOF 6
ENDMDL
MODEL      380
REMARK 921   NORMALIZED FREE ENERGY PREDICTED BY IDOCK:   -2.04 KCAL/MOL
REMARK 922        TOTAL FREE ENERGY PREDICTED BY IDOCK:   -3.97 KCAL/MOL
REMARK 923 INTER-LIGAND FREE ENERGY PREDICTED BY IDOCK:   -3.35 KCAL/MOL
REMARK 924 INTRA-LIGAND FREE ENERGY PREDICTED BY IDOCK:   -0.61 KCAL/MOL
REMARK 927      BINDING AFFINITY PREDICTED BY RF-SCORE:    0.00 PKD
ROOT
HETATM    1 NA   UNL     1      -8.688   6.133  66.808  1.00  0.00    -0.110 Na 
HETATM    2  C   UNL     2      -6.520   3.359  65.617  1.00  0.00    -0.033 C  
HETATM    3  C   UNL     2      -7.254   2.415  66.557  1.00  0.00    -0.057 C  
ENDROOT
BRANCH   3   4
HETATM    4  C   UNL     2      -8.429   3.119  67.234  1.00  0.00    -0.105 C  
BRANCH   4   5
HETATM    5  C   UNL     2      -8.014   4.163  68.276  1.00  0.00    -0.077 C  
HETATM    6  C   UNL     2      -8.941   4.307  69.507  1.00  0.00    -0.154 C  
HETATM    7  C   UNL     2      -9.203   2.976  70.249  1.00  0.00    -0.213 C  
HETATM    8  C   UNL     2      -8.402   5.367  70.498  1.00  0.00    -0.111 C  
HETATM    9  C   UNL     2      -7.988   2.357  70.929  1.00  0.00    -0.055 C  
BRANCH   8  10
HETATM   10  C   UNL     2      -8.217   6.770  69.920  1.00  0.00    -0.127 C  
BRANCH  10  11
HETATM   11  C   UNL     2      -9.432   7.721  69.989  1.00  0.00    -0.161 C  
BRANCH  11  12
HETATM   12  C   UNL     2      -9.941   8.062  68.567  1.00  0.00    -0.206 C  
HETATM   13  C   UNL     2      -8.022   9.602  67.831  1.00  0.00    -0.098 C  
HETATM   14  C   UNL     2      -9.534   9.448  68.017  1.00  0.00    -0.148 C  
HETATM   15  C   UNL     2     -10.221   9.683  66.662  1.00  0.00    -0.302 C  
ENDBRANCH  11  12
BRANCH  11  16
HETATM   16  O   UNL     2     -10.487   7.078  70.699  1.00  0.00    -0.207 OA 
HETATM   17  O   UNL     2     -11.487   9.218  71.320  1.00  0.00    -0.290 OA 
HETATM   18  O   UNL     2     -12.511   7.112  72.050  1.00  0.00    -0.299 OA 
HETATM   19  S   UNL     2     -11.284   7.884  71.877  1.00  0.00    -0.290 S  
HETATM   20  O   UNL     2     -10.379   7.858  73.017  1.00  0.00    -0.314 OA 
ENDBRANCH  11  16
ENDBRANCH  10  11
ENDBRANCH   8  10
ENDBRANCH   4   5
ENDBRANCH   3   4
TORSDOF 6
ENDMDL
MODEL      381
REMARK 921   NORMALIZED FREE ENERGY PREDICTED BY IDOCK:   -2.04 KCAL/MOL
REMARK 922        TOTAL FREE ENERGY PREDICTED BY IDOCK:   -3.96 KCAL/MOL
REMARK 923 INTER-LIGAND FREE ENERGY PREDICTED BY IDOCK:   -4.11 KCAL/MOL
REMARK 924 INTRA-LIGAND FREE ENERGY PREDICTED BY IDOCK:    0.14 KCAL/MOL
REMARK 927      BINDING AFFINITY PREDICTED BY RF-SCORE:    0.00 PKD
ROOT
HETATM    1 NA   UNL     1      -8.988  12.690  65.431  1.00  0.00    -0.412 Na 
HETATM    2  C   UNL     2     -11.943  14.354  66.954  1.00  0.00    -0.425 C  
HETATM    3  C   UNL     2     -11.798  13.445  68.166  1.00  0.00    -0.396 C  
ENDROOT
BRANCH   3   4
HETATM    4  C   UNL     2     -10.534  12.593  68.064  1.00  0.00    -0.232 C  
BRANCH   4   5
HETATM    5  C   UNL     2     -10.793  11.142  67.645  1.00  0.00    -0.295 C  
HETATM    6  C   UNL     2     -10.255  10.047  68.600  1.00  0.00    -0.198 C  
HETATM    7  C   UNL     2     -10.729  10.209  70.062  1.00  0.00    -0.356 C  
HETATM    8  C   UNL     2     -10.605   8.630  68.085  1.00  0.00    -0.189 C  
HETATM    9  C   UNL     2     -12.224  10.020  70.290  1.00  0.00    -0.186 C  
BRANCH   8  10
HETATM   10  C   UNL     2     -10.081   8.292  66.689  1.00  0.00    -0.351 C  
BRANCH  10  11
HETATM   11  C   UNL     2      -8.618   7.807  66.589  1.00  0.00    -0.136 C  
BRANCH  11  12
HETATM   12  C   UNL     2      -8.292   7.344  65.148  1.00  0.00    -0.085 C  
HETATM   13  C   UNL     2      -8.328   4.807  65.542  1.00  0.00    -0.120 C  
HETATM   14  C   UNL     2      -7.530   6.005  65.024  1.00  0.00    -0.084 C  
HETATM   15  C   UNL     2      -7.171   5.755  63.550  1.00  0.00    -0.057 C  
ENDBRANCH  11  12
BRANCH  11  16
HETATM   16  O   UNL     2      -7.746   8.885  66.920  1.00  0.00    -0.096 OA 
HETATM   17  O   UNL     2      -8.569  10.233  65.057  1.00  0.00    -0.165 OA 
HETATM   18  O   UNL     2      -6.825  11.107  66.544  1.00  0.00    -0.135 OA 
HETATM   19  S   UNL     2      -7.325   9.972  65.773  1.00  0.00    -0.123 S  
HETATM   20  O   UNL     2      -6.322   9.288  64.970  1.00  0.00    -0.065 OA 
ENDBRANCH  11  16
ENDBRANCH  10  11
ENDBRANCH   8  10
ENDBRANCH   4   5
ENDBRANCH   3   4
TORSDOF 6
ENDMDL
MODEL      382
REMARK 921   NORMALIZED FREE ENERGY PREDICTED BY IDOCK:   -2.02 KCAL/MOL
REMARK 922        TOTAL FREE ENERGY PREDICTED BY IDOCK:   -3.94 KCAL/MOL
REMARK 923 INTER-LIGAND FREE ENERGY PREDICTED BY IDOCK:   -3.18 KCAL/MOL
REMARK 924 INTRA-LIGAND FREE ENERGY PREDICTED BY IDOCK:   -0.76 KCAL/MOL
REMARK 927      BINDING AFFINITY PREDICTED BY RF-SCORE:    0.00 PKD
ROOT
HETATM    1 NA   UNL     1      -7.828  10.005  63.710  1.00  0.00    -0.120 Na 
HETATM    2  C   UNL     2      -7.532   6.342  63.154  1.00  0.00    -0.071 C  
HETATM    3  C   UNL     2      -6.696   6.243  64.422  1.00  0.00    -0.038 C  
ENDROOT
BRANCH   3   4
HETATM    4  C   UNL     2      -6.640   7.586  65.148  1.00  0.00    -0.044 C  
BRANCH   4   5
HETATM    5  C   UNL     2      -7.592   7.689  66.343  1.00  0.00    -0.088 C  
HETATM    6  C   UNL     2      -7.100   8.543  67.538  1.00  0.00    -0.080 C  
HETATM    7  C   UNL     2      -6.676   9.976  67.147  1.00  0.00    -0.074 C  
HETATM    8  C   UNL     2      -8.159   8.594  68.667  1.00  0.00    -0.117 C  
HETATM    9  C   UNL     2      -7.799  10.878  66.648  1.00  0.00    -0.145 C  
BRANCH   8  10
HETATM   10  C   UNL     2      -8.576   7.239  69.237  1.00  0.00    -0.137 C  
BRANCH  10  11
HETATM   11  C   UNL     2     -10.092   6.957  69.333  1.00  0.00    -0.167 C  
BRANCH  11  12
HETATM   12  C   UNL     2     -10.560   6.074  68.150  1.00  0.00    -0.328 C  
HETATM   13  C   UNL     2      -8.751   4.257  68.285  1.00  0.00    -0.116 C  
HETATM   14  C   UNL     2      -9.452   5.295  67.406  1.00  0.00    -0.137 C  
HETATM   15  C   UNL     2     -10.058   4.578  66.190  1.00  0.00    -0.282 C  
ENDBRANCH  11  12
BRANCH  11  16
HETATM   16  O   UNL     2     -10.360   6.257  70.545  1.00  0.00    -0.190 OA 
HETATM   17  O   UNL     2     -12.556   7.304  70.763  1.00  0.00    -0.239 OA 
HETATM   18  O   UNL     2     -11.769   5.710  72.453  1.00  0.00    -0.277 OA 
HETATM   19  S   UNL     2     -11.452   6.855  71.605  1.00  0.00    -0.292 S  
HETATM   20  O   UNL     2     -10.753   7.941  72.279  1.00  0.00    -0.241 OA 
ENDBRANCH  11  16
ENDBRANCH  10  11
ENDBRANCH   8  10
ENDBRANCH   4   5
ENDBRANCH   3   4
TORSDOF 6
ENDMDL
MODEL      383
REMARK 921   NORMALIZED FREE ENERGY PREDICTED BY IDOCK:   -2.00 KCAL/MOL
REMARK 922        TOTAL FREE ENERGY PREDICTED BY IDOCK:   -3.91 KCAL/MOL
REMARK 923 INTER-LIGAND FREE ENERGY PREDICTED BY IDOCK:   -3.41 KCAL/MOL
REMARK 924 INTRA-LIGAND FREE ENERGY PREDICTED BY IDOCK:   -0.50 KCAL/MOL
REMARK 927      BINDING AFFINITY PREDICTED BY RF-SCORE:    0.00 PKD
ROOT
HETATM    1 NA   UNL     1      -9.277  13.450  69.245  1.00  0.00    -0.361 Na 
HETATM    2  C   UNL     2      -7.250  11.459  66.849  1.00  0.00    -0.144 C  
HETATM    3  C   UNL     2      -6.626  10.724  68.026  1.00  0.00    -0.063 C  
ENDROOT
BRANCH   3   4
HETATM    4  C   UNL     2      -7.288  11.133  69.341  1.00  0.00    -0.062 C  
BRANCH   4   5
HETATM    5  C   UNL     2      -7.856   9.959  70.144  1.00  0.00    -0.186 C  
HETATM    6  C   UNL     2      -9.399   9.829  70.169  1.00  0.00    -0.261 C  
HETATM    7  C   UNL     2     -10.044   9.796  68.765  1.00  0.00    -0.187 C  
HETATM    8  C   UNL     2      -9.847   8.592  70.985  1.00  0.00    -0.267 C  
HETATM    9  C   UNL     2      -9.709   8.573  67.919  1.00  0.00    -0.193 C  
BRANCH   8  10
HETATM   10  C   UNL     2      -9.380   8.562  72.441  1.00  0.00    -0.349 C  
BRANCH  10  11
HETATM   11  C   UNL     2      -8.387   7.447  72.834  1.00  0.00    -0.113 C  
BRANCH  11  12
HETATM   12  C   UNL     2      -9.119   6.293  73.560  1.00  0.00    -0.132 C  
HETATM   13  C   UNL     2      -9.834   4.934  71.502  1.00  0.00    -0.247 C  
HETATM   14  C   UNL     2     -10.284   5.636  72.785  1.00  0.00    -0.213 C  
HETATM   15  C   UNL     2     -10.983   4.607  73.686  1.00  0.00    -0.392 C  
ENDBRANCH  11  12
BRANCH  11  16
HETATM   16  O   UNL     2      -7.785   6.922  71.654  1.00  0.00    -0.093 OA 
HETATM   17  O   UNL     2      -6.079   5.744  72.946  1.00  0.00    -0.041 OA 
HETATM   18  O   UNL     2      -6.095   5.606  70.498  1.00  0.00    -0.024 OA 
HETATM   19  S   UNL     2      -6.218   6.454  71.679  1.00  0.00    -0.042 S  
HETATM   20  O   UNL     2      -5.463   7.698  71.620  1.00  0.00    -0.035 OA 
ENDBRANCH  11  16
ENDBRANCH  10  11
ENDBRANCH   8  10
ENDBRANCH   4   5
ENDBRANCH   3   4
TORSDOF 6
ENDMDL
MODEL      384
REMARK 921   NORMALIZED FREE ENERGY PREDICTED BY IDOCK:   -1.98 KCAL/MOL
REMARK 922        TOTAL FREE ENERGY PREDICTED BY IDOCK:   -3.88 KCAL/MOL
REMARK 923 INTER-LIGAND FREE ENERGY PREDICTED BY IDOCK:   -3.26 KCAL/MOL
REMARK 924 INTRA-LIGAND FREE ENERGY PREDICTED BY IDOCK:   -0.62 KCAL/MOL
REMARK 927      BINDING AFFINITY PREDICTED BY RF-SCORE:    0.00 PKD
ROOT
HETATM    1 NA   UNL     1      -9.400   9.595  64.542  1.00  0.00    -0.192 Na 
HETATM    2  C   UNL     2      -5.853   8.615  65.065  1.00  0.00    -0.048 C  
HETATM    3  C   UNL     2      -5.601   9.969  65.714  1.00  0.00    -0.061 C  
ENDROOT
BRANCH   3   4
HETATM    4  C   UNL     2      -6.902  10.755  65.865  1.00  0.00    -0.084 C  
BRANCH   4   5
HETATM    5  C   UNL     2      -7.597  10.556  67.215  1.00  0.00    -0.096 C  
HETATM    6  C   UNL     2      -6.752  10.871  68.474  1.00  0.00    -0.057 C  
HETATM    7  C   UNL     2      -6.128  12.286  68.466  1.00  0.00    -0.055 C  
HETATM    8  C   UNL     2      -7.571  10.662  69.770  1.00  0.00    -0.054 C  
HETATM    9  C   UNL     2      -7.120  13.439  68.544  1.00  0.00    -0.108 C  
BRANCH   8  10
HETATM   10  C   UNL     2      -8.142   9.257  69.965  1.00  0.00    -0.140 C  
BRANCH  10  11
HETATM   11  C   UNL     2      -9.475   9.145  70.738  1.00  0.00    -0.272 C  
BRANCH  11  12
HETATM   12  C   UNL     2     -10.559  10.041  70.092  1.00  0.00    -0.350 C  
HETATM   13  C   UNL     2     -10.864   8.752  67.892  1.00  0.00    -0.078 C  
HETATM   14  C   UNL     2     -10.557  10.100  68.547  1.00  0.00    -0.245 C  
HETATM   15  C   UNL     2     -11.599  11.124  68.072  1.00  0.00    -0.337 C  
ENDBRANCH  11  12
BRANCH  11  16
HETATM   16  O   UNL     2      -9.927   7.794  70.694  1.00  0.00    -0.186 OA 
HETATM   17  O   UNL     2     -10.623   7.862  73.034  1.00  0.00    -0.346 OA 
HETATM   18  O   UNL     2     -10.910   5.815  71.713  1.00  0.00    -0.241 OA 
HETATM   19  S   UNL     2     -10.039   6.928  72.076  1.00  0.00    -0.185 S  
HETATM   20  O   UNL     2      -8.666   6.555  72.388  1.00  0.00    -0.127 OA 
ENDBRANCH  11  16
ENDBRANCH  10  11
ENDBRANCH   8  10
ENDBRANCH   4   5
ENDBRANCH   3   4
TORSDOF 6
ENDMDL
MODEL      385
REMARK 921   NORMALIZED FREE ENERGY PREDICTED BY IDOCK:   -1.97 KCAL/MOL
REMARK 922        TOTAL FREE ENERGY PREDICTED BY IDOCK:   -3.87 KCAL/MOL
REMARK 923 INTER-LIGAND FREE ENERGY PREDICTED BY IDOCK:   -3.32 KCAL/MOL
REMARK 924 INTRA-LIGAND FREE ENERGY PREDICTED BY IDOCK:   -0.55 KCAL/MOL
REMARK 927      BINDING AFFINITY PREDICTED BY RF-SCORE:    0.00 PKD
ROOT
HETATM    1 NA   UNL     1      -9.306  14.680  67.980  1.00  0.00    -0.172 Na 
HETATM    2  C   UNL     2      -5.788  13.540  68.352  1.00  0.00    -0.092 C  
HETATM    3  C   UNL     2      -6.125  12.311  67.519  1.00  0.00    -0.140 C  
ENDROOT
BRANCH   3   4
HETATM    4  C   UNL     2      -7.548  12.394  66.972  1.00  0.00    -0.046 C  
BRANCH   4   5
HETATM    5  C   UNL     2      -8.084  11.067  66.425  1.00  0.00    -0.166 C  
HETATM    6  C   UNL     2      -9.604  10.821  66.590  1.00  0.00    -0.208 C  
HETATM    7  C   UNL     2     -10.483  11.957  66.019  1.00  0.00    -0.282 C  
HETATM    8  C   UNL     2     -10.026   9.465  65.973  1.00  0.00    -0.352 C  
HETATM    9  C   UNL     2     -10.427  12.131  64.507  1.00  0.00    -0.339 C  
BRANCH   8  10
HETATM   10  C   UNL     2      -9.317   8.237  66.544  1.00  0.00    -0.263 C  
BRANCH  10  11
HETATM   11  C   UNL     2      -8.606   7.308  65.536  1.00  0.00    -0.075 C  
BRANCH  11  12
HETATM   12  C   UNL     2      -7.379   8.015  64.911  1.00  0.00    -0.084 C  
HETATM   13  C   UNL     2      -8.552   9.131  62.918  1.00  0.00    -0.203 C  
HETATM   14  C   UNL     2      -7.419   8.212  63.379  1.00  0.00    -0.124 C  
HETATM   15  C   UNL     2      -6.084   8.805  62.904  1.00  0.00    -0.090 C  
ENDBRANCH  11  12
BRANCH  11  16
HETATM   16  O   UNL     2      -8.150   6.142  66.218  1.00  0.00    -0.107 OA 
HETATM   17  O   UNL     2     -10.321   5.049  65.977  1.00  0.00    -0.241 OA 
HETATM   18  O   UNL     2      -8.480   3.909  67.129  1.00  0.00    -0.098 OA 
HETATM   19  S   UNL     2      -9.229   5.148  66.940  1.00  0.00    -0.123 S  
HETATM   20  O   UNL     2      -9.596   5.835  68.170  1.00  0.00    -0.112 OA 
ENDBRANCH  11  16
ENDBRANCH  10  11
ENDBRANCH   8  10
ENDBRANCH   4   5
ENDBRANCH   3   4
TORSDOF 6
ENDMDL
MODEL      386
REMARK 921   NORMALIZED FREE ENERGY PREDICTED BY IDOCK:   -1.96 KCAL/MOL
REMARK 922        TOTAL FREE ENERGY PREDICTED BY IDOCK:   -3.85 KCAL/MOL
REMARK 923 INTER-LIGAND FREE ENERGY PREDICTED BY IDOCK:   -4.09 KCAL/MOL
REMARK 924 INTRA-LIGAND FREE ENERGY PREDICTED BY IDOCK:    0.24 KCAL/MOL
REMARK 927      BINDING AFFINITY PREDICTED BY RF-SCORE:    0.00 PKD
ROOT
HETATM    1 NA   UNL     1     -10.285  11.534  70.198  1.00  0.00    -0.419 Na 
HETATM    2  C   UNL     2      -6.905  10.082  70.727  1.00  0.00     0.016 C  
HETATM    3  C   UNL     2      -7.313   8.887  69.878  1.00  0.00    -0.054 C  
ENDROOT
BRANCH   3   4
HETATM    4  C   UNL     2      -8.697   9.096  69.266  1.00  0.00    -0.139 C  
BRANCH   4   5
HETATM    5  C   UNL     2      -8.839  10.402  68.478  1.00  0.00    -0.142 C  
HETATM    6  C   UNL     2      -8.009  10.510  67.175  1.00  0.00    -0.116 C  
HETATM    7  C   UNL     2      -8.237   9.338  66.194  1.00  0.00    -0.111 C  
HETATM    8  C   UNL     2      -8.260  11.857  66.457  1.00  0.00    -0.026 C  
HETATM    9  C   UNL     2      -9.632   9.253  65.588  1.00  0.00    -0.324 C  
BRANCH   8  10
HETATM   10  C   UNL     2      -7.949  13.107  67.280  1.00  0.00    -0.140 C  
BRANCH  10  11
HETATM   11  C   UNL     2      -9.004  14.236  67.265  1.00  0.00    -0.213 C  
BRANCH  11  12
HETATM   12  C   UNL     2      -9.957  14.110  68.478  1.00  0.00    -0.235 C  
HETATM   13  C   UNL     2     -11.734  12.590  67.416  1.00  0.00    -0.432 C  
HETATM   14  C   UNL     2     -11.453  13.906  68.145  1.00  0.00    -0.346 C  
HETATM   15  C   UNL     2     -12.274  13.931  69.444  1.00  0.00    -0.338 C  
ENDBRANCH  11  12
BRANCH  11  16
HETATM   16  O   UNL     2      -8.340  15.495  67.346  1.00  0.00    -0.158 OA 
HETATM   17  O   UNL     2      -8.088  15.300  69.767  1.00  0.00    -0.206 OA 
HETATM   18  O   UNL     2      -7.247  17.280  68.588  1.00  0.00    -0.210 OA 
HETATM   19  S   UNL     2      -8.337  16.322  68.756  1.00  0.00    -0.245 S  
HETATM   20  O   UNL     2      -9.664  16.914  68.838  1.00  0.00    -0.252 OA 
ENDBRANCH  11  16
ENDBRANCH  10  11
ENDBRANCH   8  10
ENDBRANCH   4   5
ENDBRANCH   3   4
TORSDOF 6
ENDMDL
MODEL      387
REMARK 921   NORMALIZED FREE ENERGY PREDICTED BY IDOCK:   -1.95 KCAL/MOL
REMARK 922        TOTAL FREE ENERGY PREDICTED BY IDOCK:   -3.84 KCAL/MOL
REMARK 923 INTER-LIGAND FREE ENERGY PREDICTED BY IDOCK:   -2.94 KCAL/MOL
REMARK 924 INTRA-LIGAND FREE ENERGY PREDICTED BY IDOCK:   -0.89 KCAL/MOL
REMARK 927      BINDING AFFINITY PREDICTED BY RF-SCORE:    0.00 PKD
ROOT
HETATM    1 NA   UNL     1     -11.013   9.250  72.928  1.00  0.00    -0.120 Na 
HETATM    2  C   UNL     2      -8.282   7.052  74.164  1.00  0.00    -0.162 C  
HETATM    3  C   UNL     2      -7.708   7.016  72.756  1.00  0.00    -0.092 C  
ENDROOT
BRANCH   3   4
HETATM    4  C   UNL     2      -8.473   7.958  71.828  1.00  0.00    -0.147 C  
BRANCH   4   5
HETATM    5  C   UNL     2      -8.637   7.429  70.400  1.00  0.00    -0.144 C  
HETATM    6  C   UNL     2      -9.102   5.958  70.263  1.00  0.00    -0.156 C  
HETATM    7  C   UNL     2     -10.403   5.643  71.036  1.00  0.00    -0.297 C  
HETATM    8  C   UNL     2      -9.259   5.552  68.778  1.00  0.00    -0.142 C  
HETATM    9  C   UNL     2     -11.655   6.344  70.524  1.00  0.00    -0.424 C  
BRANCH   8  10
HETATM   10  C   UNL     2      -8.000   5.695  67.923  1.00  0.00    -0.097 C  
BRANCH  10  11
HETATM   11  C   UNL     2      -8.190   6.203  66.476  1.00  0.00    -0.111 C  
BRANCH  11  12
HETATM   12  C   UNL     2      -9.311   5.410  65.761  1.00  0.00    -0.132 C  
HETATM   13  C   UNL     2      -7.938   3.361  65.046  1.00  0.00    -0.086 C  
HETATM   14  C   UNL     2      -8.859   4.498  64.598  1.00  0.00    -0.151 C  
HETATM   15  C   UNL     2     -10.094   3.888  63.916  1.00  0.00    -0.193 C  
ENDBRANCH  11  12
BRANCH  11  16
HETATM   16  O   UNL     2      -8.567   7.577  66.511  1.00  0.00    -0.120 OA 
HETATM   17  O   UNL     2      -7.312   8.059  64.471  1.00  0.00    -0.079 OA 
HETATM   18  O   UNL     2      -8.537   9.844  65.624  1.00  0.00    -0.136 OA 
HETATM   19  S   UNL     2      -7.649   8.691  65.743  1.00  0.00    -0.091 S  
HETATM   20  O   UNL     2      -6.503   8.890  66.618  1.00  0.00    -0.061 OA 
ENDBRANCH  11  16
ENDBRANCH  10  11
ENDBRANCH   8  10
ENDBRANCH   4   5
ENDBRANCH   3   4
TORSDOF 6
ENDMDL
MODEL      388
REMARK 921   NORMALIZED FREE ENERGY PREDICTED BY IDOCK:   -1.95 KCAL/MOL
REMARK 922        TOTAL FREE ENERGY PREDICTED BY IDOCK:   -3.83 KCAL/MOL
REMARK 923 INTER-LIGAND FREE ENERGY PREDICTED BY IDOCK:   -3.19 KCAL/MOL
REMARK 924 INTRA-LIGAND FREE ENERGY PREDICTED BY IDOCK:   -0.65 KCAL/MOL
REMARK 927      BINDING AFFINITY PREDICTED BY RF-SCORE:    0.00 PKD
ROOT
HETATM    1 NA   UNL     1      -9.455   9.045  63.543  1.00  0.00    -0.417 Na 
HETATM    2  C   UNL     2      -6.003   7.669  63.556  1.00  0.00    -0.054 C  
HETATM    3  C   UNL     2      -5.578   8.811  64.469  1.00  0.00    -0.063 C  
ENDROOT
BRANCH   3   4
HETATM    4  C   UNL     2      -6.783   9.650  64.893  1.00  0.00    -0.104 C  
BRANCH   4   5
HETATM    5  C   UNL     2      -7.373   9.252  66.249  1.00  0.00    -0.092 C  
HETATM    6  C   UNL     2      -7.900  10.410  67.133  1.00  0.00    -0.110 C  
HETATM    7  C   UNL     2      -8.925  11.321  66.419  1.00  0.00    -0.194 C  
HETATM    8  C   UNL     2      -8.497   9.880  68.459  1.00  0.00    -0.112 C  
HETATM    9  C   UNL     2     -10.252  10.660  66.065  1.00  0.00    -0.309 C  
BRANCH   8  10
HETATM   10  C   UNL     2      -7.540   9.064  69.328  1.00  0.00    -0.079 C  
BRANCH  10  11
HETATM   11  C   UNL     2      -8.108   8.494  70.647  1.00  0.00    -0.117 C  
BRANCH  11  12
HETATM   12  C   UNL     2      -7.073   8.628  71.791  1.00  0.00    -0.102 C  
HETATM   13  C   UNL     2      -6.339   6.171  71.936  1.00  0.00    -0.046 C  
HETATM   14  C   UNL     2      -6.892   7.383  72.689  1.00  0.00    -0.067 C  
HETATM   15  C   UNL     2      -5.935   7.720  73.844  1.00  0.00    -0.073 C  
ENDBRANCH  11  12
BRANCH  11  16
HETATM   16  O   UNL     2      -9.272   9.231  71.010  1.00  0.00    -0.246 OA 
HETATM   17  O   UNL     2     -10.415   7.211  71.772  1.00  0.00    -0.199 OA 
HETATM   18  O   UNL     2     -11.535   9.389  71.892  1.00  0.00    -0.373 OA 
HETATM   19  S   UNL     2     -10.718   8.472  71.104  1.00  0.00    -0.249 S  
HETATM   20  O   UNL     2     -11.139   8.313  69.719  1.00  0.00    -0.182 OA 
ENDBRANCH  11  16
ENDBRANCH  10  11
ENDBRANCH   8  10
ENDBRANCH   4   5
ENDBRANCH   3   4
TORSDOF 6
ENDMDL
MODEL      389
REMARK 921   NORMALIZED FREE ENERGY PREDICTED BY IDOCK:   -1.94 KCAL/MOL
REMARK 922        TOTAL FREE ENERGY PREDICTED BY IDOCK:   -3.82 KCAL/MOL
REMARK 923 INTER-LIGAND FREE ENERGY PREDICTED BY IDOCK:   -2.67 KCAL/MOL
REMARK 924 INTRA-LIGAND FREE ENERGY PREDICTED BY IDOCK:   -1.15 KCAL/MOL
REMARK 927      BINDING AFFINITY PREDICTED BY RF-SCORE:    0.00 PKD
ROOT
HETATM    1 NA   UNL     1      -7.924  10.341  70.660  1.00  0.00    -0.172 Na 
HETATM    2  C   UNL     2      -7.206  10.688  67.030  1.00  0.00    -0.101 C  
HETATM    3  C   UNL     2      -6.784   9.226  66.999  1.00  0.00    -0.076 C  
ENDROOT
BRANCH   3   4
HETATM    4  C   UNL     2      -7.047   8.552  68.345  1.00  0.00    -0.084 C  
BRANCH   4   5
HETATM    5  C   UNL     2      -8.011   7.363  68.269  1.00  0.00    -0.124 C  
HETATM    6  C   UNL     2      -9.410   7.575  68.899  1.00  0.00    -0.142 C  
HETATM    7  C   UNL     2     -10.152   8.820  68.363  1.00  0.00    -0.217 C  
HETATM    8  C   UNL     2     -10.298   6.318  68.732  1.00  0.00    -0.245 C  
HETATM    9  C   UNL     2     -10.552   8.762  66.894  1.00  0.00    -0.263 C  
BRANCH   8  10
HETATM   10  C   UNL     2      -9.734   5.031  69.336  1.00  0.00    -0.254 C  
BRANCH  10  11
HETATM   11  C   UNL     2      -9.255   3.946  68.347  1.00  0.00    -0.155 C  
BRANCH  11  12
HETATM   12  C   UNL     2      -9.896   4.154  66.954  1.00  0.00    -0.197 C  
HETATM   13  C   UNL     2      -9.003   2.041  65.799  1.00  0.00    -0.108 C  
HETATM   14  C   UNL     2      -9.117   3.567  65.755  1.00  0.00    -0.150 C  
HETATM   15  C   UNL     2      -9.812   3.968  64.445  1.00  0.00    -0.183 C  
ENDBRANCH  11  12
BRANCH  11  16
HETATM   16  O   UNL     2      -7.840   4.036  68.206  1.00  0.00    -0.069 OA 
HETATM   17  O   UNL     2      -7.543   1.696  68.838  1.00  0.00    -0.043 OA 
HETATM   18  O   UNL     2      -5.599   3.090  68.299  1.00  0.00    -0.017 OA 
HETATM   19  S   UNL     2      -6.874   2.983  69.001  1.00  0.00    -0.041 S  
HETATM   20  O   UNL     2      -6.859   3.463  70.375  1.00  0.00    -0.033 OA 
ENDBRANCH  11  16
ENDBRANCH  10  11
ENDBRANCH   8  10
ENDBRANCH   4   5
ENDBRANCH   3   4
TORSDOF 6
ENDMDL
MODEL      390
REMARK 921   NORMALIZED FREE ENERGY PREDICTED BY IDOCK:   -1.93 KCAL/MOL
REMARK 922        TOTAL FREE ENERGY PREDICTED BY IDOCK:   -3.82 KCAL/MOL
REMARK 923 INTER-LIGAND FREE ENERGY PREDICTED BY IDOCK:   -4.14 KCAL/MOL
REMARK 924 INTRA-LIGAND FREE ENERGY PREDICTED BY IDOCK:    0.32 KCAL/MOL
REMARK 927      BINDING AFFINITY PREDICTED BY RF-SCORE:    0.00 PKD
ROOT
HETATM    1 NA   UNL     1     -12.896  10.402  71.150  1.00  0.00    -0.261 Na 
HETATM    2  C   UNL     2     -12.649  14.107  70.997  1.00  0.00    -0.439 C  
HETATM    3  C   UNL     2     -12.021  13.983  69.616  1.00  0.00    -0.393 C  
ENDROOT
BRANCH   3   4
HETATM    4  C   UNL     2     -12.028  12.532  69.140  1.00  0.00    -0.287 C  
BRANCH   4   5
HETATM    5  C   UNL     2     -10.787  11.734  69.554  1.00  0.00    -0.050 C  
HETATM    6  C   UNL     2      -9.824  11.324  68.413  1.00  0.00    -0.200 C  
HETATM    7  C   UNL     2      -9.354  12.510  67.539  1.00  0.00    -0.187 C  
HETATM    8  C   UNL     2      -8.599  10.552  68.959  1.00  0.00    -0.160 C  
HETATM    9  C   UNL     2      -8.474  13.534  68.245  1.00  0.00    -0.168 C  
BRANCH   8  10
HETATM   10  C   UNL     2      -8.922   9.278  69.740  1.00  0.00    -0.180 C  
BRANCH  10  11
HETATM   11  C   UNL     2      -9.630   8.144  68.967  1.00  0.00    -0.156 C  
BRANCH  11  12
HETATM   12  C   UNL     2      -8.882   6.802  69.156  1.00  0.00    -0.134 C  
HETATM   13  C   UNL     2      -7.415   6.880  67.050  1.00  0.00    -0.087 C  
HETATM   14  C   UNL     2      -8.441   6.084  67.860  1.00  0.00    -0.115 C  
HETATM   15  C   UNL     2      -7.834   4.718  68.213  1.00  0.00    -0.081 C  
ENDBRANCH  11  12
BRANCH  11  16
HETATM   16  O   UNL     2     -10.954   7.992  69.473  1.00  0.00    -0.179 OA 
HETATM   17  O   UNL     2     -10.129   7.377  71.687  1.00  0.00    -0.184 OA 
HETATM   18  O   UNL     2     -12.539   7.472  71.245  1.00  0.00    -0.333 OA 
HETATM   19  S   UNL     2     -11.222   7.047  70.779  1.00  0.00    -0.301 S  
HETATM   20  O   UNL     2     -11.165   5.686  70.266  1.00  0.00    -0.243 OA 
ENDBRANCH  11  16
ENDBRANCH  10  11
ENDBRANCH   8  10
ENDBRANCH   4   5
ENDBRANCH   3   4
TORSDOF 6
ENDMDL
MODEL      391
REMARK 921   NORMALIZED FREE ENERGY PREDICTED BY IDOCK:   -1.88 KCAL/MOL
REMARK 922        TOTAL FREE ENERGY PREDICTED BY IDOCK:   -3.74 KCAL/MOL
REMARK 923 INTER-LIGAND FREE ENERGY PREDICTED BY IDOCK:   -3.68 KCAL/MOL
REMARK 924 INTRA-LIGAND FREE ENERGY PREDICTED BY IDOCK:   -0.07 KCAL/MOL
REMARK 927      BINDING AFFINITY PREDICTED BY RF-SCORE:    0.00 PKD
ROOT
HETATM    1 NA   UNL     1      -9.177  12.734  68.793  1.00  0.00    -0.176 Na 
HETATM    2  C   UNL     2      -9.603  10.449  65.892  1.00  0.00    -0.258 C  
HETATM    3  C   UNL     2      -9.105   9.300  66.756  1.00  0.00    -0.170 C  
ENDROOT
BRANCH   3   4
HETATM    4  C   UNL     2      -8.904   9.749  68.203  1.00  0.00    -0.119 C  
BRANCH   4   5
HETATM    5  C   UNL     2      -9.305   8.699  69.243  1.00  0.00    -0.153 C  
HETATM    6  C   UNL     2      -8.208   7.683  69.649  1.00  0.00    -0.128 C  
HETATM    7  C   UNL     2      -6.894   8.343  70.125  1.00  0.00    -0.042 C  
HETATM    8  C   UNL     2      -8.725   6.696  70.724  1.00  0.00    -0.143 C  
HETATM    9  C   UNL     2      -6.991   9.130  71.426  1.00  0.00    -0.031 C  
BRANCH   8  10
HETATM   10  C   UNL     2      -9.955   5.880  70.328  1.00  0.00    -0.247 C  
BRANCH  10  11
HETATM   11  C   UNL     2     -11.081   5.758  71.378  1.00  0.00    -0.204 C  
BRANCH  11  12
HETATM   12  C   UNL     2     -10.732   4.680  72.433  1.00  0.00    -0.186 C  
HETATM   13  C   UNL     2     -10.039   6.233  74.357  1.00  0.00    -0.355 C  
HETATM   14  C   UNL     2      -9.638   5.062  73.456  1.00  0.00    -0.141 C  
HETATM   15  C   UNL     2      -9.319   3.849  74.342  1.00  0.00    -0.121 C  
ENDBRANCH  11  12
BRANCH  11  16
HETATM   16  O   UNL     2     -11.230   7.007  72.049  1.00  0.00    -0.240 OA 
HETATM   17  O   UNL     2     -13.647   7.003  71.698  1.00  0.00    -0.358 OA 
HETATM   18  O   UNL     2     -12.568   8.866  72.873  1.00  0.00    -0.269 OA 
HETATM   19  S   UNL     2     -12.534   7.945  71.741  1.00  0.00    -0.331 S  
HETATM   20  O   UNL     2     -12.244   8.566  70.456  1.00  0.00    -0.002 OA 
ENDBRANCH  11  16
ENDBRANCH  10  11
ENDBRANCH   8  10
ENDBRANCH   4   5
ENDBRANCH   3   4
TORSDOF 6
ENDMDL
MODEL      392
REMARK 921   NORMALIZED FREE ENERGY PREDICTED BY IDOCK:   -1.87 KCAL/MOL
REMARK 922        TOTAL FREE ENERGY PREDICTED BY IDOCK:   -3.74 KCAL/MOL
REMARK 923 INTER-LIGAND FREE ENERGY PREDICTED BY IDOCK:   -2.92 KCAL/MOL
REMARK 924 INTRA-LIGAND FREE ENERGY PREDICTED BY IDOCK:   -0.82 KCAL/MOL
REMARK 927      BINDING AFFINITY PREDICTED BY RF-SCORE:    0.00 PKD
ROOT
HETATM    1 NA   UNL     1     -11.586  10.248  71.176  1.00  0.00    -0.253 Na 
HETATM    2  C   UNL     2      -9.217   8.260  73.237  1.00  0.00    -0.263 C  
HETATM    3  C   UNL     2      -8.343   8.071  72.006  1.00  0.00    -0.179 C  
ENDROOT
BRANCH   3   4
HETATM    4  C   UNL     2      -8.875   8.884  70.827  1.00  0.00    -0.250 C  
BRANCH   4   5
HETATM    5  C   UNL     2      -8.631   8.235  69.461  1.00  0.00    -0.134 C  
HETATM    6  C   UNL     2      -8.680   6.687  69.420  1.00  0.00    -0.135 C  
HETATM    7  C   UNL     2      -9.982   6.091  70.002  1.00  0.00    -0.227 C  
HETATM    8  C   UNL     2      -8.449   6.154  67.985  1.00  0.00    -0.116 C  
HETATM    9  C   UNL     2     -11.251   6.397  69.215  1.00  0.00    -0.440 C  
BRANCH   8  10
HETATM   10  C   UNL     2      -7.129   6.569  67.336  1.00  0.00    -0.080 C  
BRANCH  10  11
HETATM   11  C   UNL     2      -7.147   6.820  65.812  1.00  0.00    -0.072 C  
BRANCH  11  12
HETATM   12  C   UNL     2      -6.202   7.988  65.438  1.00  0.00    -0.045 C  
HETATM   13  C   UNL     2      -7.787   9.943  65.949  1.00  0.00    -0.116 C  
HETATM   14  C   UNL     2      -6.886   9.269  64.911  1.00  0.00    -0.086 C  
HETATM   15  C   UNL     2      -5.814  10.276  64.465  1.00  0.00    -0.136 C  
ENDBRANCH  11  12
BRANCH  11  16
HETATM   16  O   UNL     2      -6.694   5.646  65.142  1.00  0.00    -0.045 OA 
HETATM   17  O   UNL     2      -8.160   6.067  63.234  1.00  0.00    -0.119 OA 
HETATM   18  O   UNL     2      -6.706   4.092  63.269  1.00  0.00    -0.033 OA 
HETATM   19  S   UNL     2      -7.636   4.944  64.005  1.00  0.00    -0.069 S  
HETATM   20  O   UNL     2      -8.653   4.229  64.762  1.00  0.00    -0.118 OA 
ENDBRANCH  11  16
ENDBRANCH  10  11
ENDBRANCH   8  10
ENDBRANCH   4   5
ENDBRANCH   3   4
TORSDOF 6
ENDMDL
MODEL      393
REMARK 921   NORMALIZED FREE ENERGY PREDICTED BY IDOCK:   -1.87 KCAL/MOL
REMARK 922        TOTAL FREE ENERGY PREDICTED BY IDOCK:   -3.73 KCAL/MOL
REMARK 923 INTER-LIGAND FREE ENERGY PREDICTED BY IDOCK:   -2.95 KCAL/MOL
REMARK 924 INTRA-LIGAND FREE ENERGY PREDICTED BY IDOCK:   -0.77 KCAL/MOL
REMARK 927      BINDING AFFINITY PREDICTED BY RF-SCORE:    0.00 PKD
ROOT
HETATM    1 NA   UNL     1      -8.843   8.393  74.544  1.00  0.00    -0.309 Na 
HETATM    2  C   UNL     2      -5.503   6.990  73.710  1.00  0.00    -0.046 C  
HETATM    3  C   UNL     2      -6.190   5.919  72.875  1.00  0.00    -0.057 C  
ENDROOT
BRANCH   3   4
HETATM    4  C   UNL     2      -7.694   6.170  72.792  1.00  0.00    -0.105 C  
BRANCH   4   5
HETATM    5  C   UNL     2      -8.091   7.246  71.776  1.00  0.00    -0.100 C  
HETATM    6  C   UNL     2      -9.303   6.918  70.869  1.00  0.00    -0.157 C  
HETATM    7  C   UNL     2     -10.574   6.513  71.650  1.00  0.00    -0.250 C  
HETATM    8  C   UNL     2      -9.623   8.090  69.910  1.00  0.00    -0.171 C  
HETATM    9  C   UNL     2     -11.197   7.612  72.501  1.00  0.00    -0.399 C  
BRANCH   8  10
HETATM   10  C   UNL     2      -8.481   8.510  68.984  1.00  0.00    -0.126 C  
BRANCH  10  11
HETATM   11  C   UNL     2      -8.442   9.991  68.548  1.00  0.00    -0.115 C  
BRANCH  11  12
HETATM   12  C   UNL     2      -7.469  10.799  69.441  1.00  0.00    -0.124 C  
HETATM   13  C   UNL     2      -5.457   9.205  69.358  1.00  0.00    -0.035 C  
HETATM   14  C   UNL     2      -6.442   9.970  70.245  1.00  0.00    -0.117 C  
HETATM   15  C   UNL     2      -5.645  10.902  71.171  1.00  0.00     0.004 C  
ENDBRANCH  11  12
BRANCH  11  16
HETATM   16  O   UNL     2      -7.983  10.069  67.202  1.00  0.00    -0.108 OA 
HETATM   17  O   UNL     2      -9.937  11.364  66.520  1.00  0.00    -0.202 OA 
HETATM   18  O   UNL     2      -8.209  10.774  64.883  1.00  0.00    -0.105 OA 
HETATM   19  S   UNL     2      -9.050  10.333  65.992  1.00  0.00    -0.168 S  
HETATM   20  O   UNL     2      -9.703   9.048  65.791  1.00  0.00    -0.265 OA 
ENDBRANCH  11  16
ENDBRANCH  10  11
ENDBRANCH   8  10
ENDBRANCH   4   5
ENDBRANCH   3   4
TORSDOF 6
ENDMDL
MODEL      394
REMARK 921   NORMALIZED FREE ENERGY PREDICTED BY IDOCK:   -1.84 KCAL/MOL
REMARK 922        TOTAL FREE ENERGY PREDICTED BY IDOCK:   -3.69 KCAL/MOL
REMARK 923 INTER-LIGAND FREE ENERGY PREDICTED BY IDOCK:   -4.19 KCAL/MOL
REMARK 924 INTRA-LIGAND FREE ENERGY PREDICTED BY IDOCK:    0.50 KCAL/MOL
REMARK 927      BINDING AFFINITY PREDICTED BY RF-SCORE:    0.00 PKD
ROOT
HETATM    1 NA   UNL     1      -7.071   7.766  66.377  1.00  0.00    -0.058 Na 
HETATM    2  C   UNL     2      -5.364  10.976  67.151  1.00  0.00    -0.052 C  
HETATM    3  C   UNL     2      -6.443  11.272  68.183  1.00  0.00    -0.056 C  
ENDROOT
BRANCH   3   4
HETATM    4  C   UNL     2      -7.388  10.083  68.343  1.00  0.00    -0.077 C  
BRANCH   4   5
HETATM    5  C   UNL     2      -8.860  10.475  68.512  1.00  0.00    -0.144 C  
HETATM    6  C   UNL     2      -9.818  10.043  67.375  1.00  0.00    -0.226 C  
HETATM    7  C   UNL     2      -9.766   8.531  67.057  1.00  0.00    -0.266 C  
HETATM    8  C   UNL     2     -11.276  10.469  67.675  1.00  0.00    -0.338 C  
HETATM    9  C   UNL     2     -10.268   7.612  68.164  1.00  0.00    -0.236 C  
BRANCH   8  10
HETATM   10  C   UNL     2     -11.491  11.968  67.885  1.00  0.00    -0.396 C  
BRANCH  10  11
HETATM   11  C   UNL     2     -11.008  12.563  69.227  1.00  0.00    -0.080 C  
BRANCH  11  12
HETATM   12  C   UNL     2     -10.573  14.038  69.047  1.00  0.00    -0.205 C  
HETATM   13  C   UNL     2      -9.438  13.827  66.752  1.00  0.00    -0.281 C  
HETATM   14  C   UNL     2      -9.294  14.269  68.211  1.00  0.00    -0.208 C  
HETATM   15  C   UNL     2      -8.928  15.761  68.236  1.00  0.00    -0.182 C  
ENDBRANCH  11  12
BRANCH  11  16
HETATM   16  O   UNL     2     -12.080  12.525  70.165  1.00  0.00    -0.340 OA 
HETATM   17  O   UNL     2     -11.335  10.377  71.058  1.00  0.00    -0.306 OA 
HETATM   18  O   UNL     2     -13.334  11.470  71.965  1.00  0.00    -0.476 OA 
HETATM   19  S   UNL     2     -12.576  11.092  70.776  1.00  0.00    -0.358 S  
HETATM   20  O   UNL     2     -13.366  10.492  69.711  1.00  0.00     0.092 OA 
ENDBRANCH  11  16
ENDBRANCH  10  11
ENDBRANCH   8  10
ENDBRANCH   4   5
ENDBRANCH   3   4
TORSDOF 6
ENDMDL
MODEL      395
REMARK 921   NORMALIZED FREE ENERGY PREDICTED BY IDOCK:   -1.82 KCAL/MOL
REMARK 922        TOTAL FREE ENERGY PREDICTED BY IDOCK:   -3.67 KCAL/MOL
REMARK 923 INTER-LIGAND FREE ENERGY PREDICTED BY IDOCK:   -4.16 KCAL/MOL
REMARK 924 INTRA-LIGAND FREE ENERGY PREDICTED BY IDOCK:    0.49 KCAL/MOL
REMARK 927      BINDING AFFINITY PREDICTED BY RF-SCORE:    0.00 PKD
ROOT
HETATM    1 NA   UNL     1     -11.777  16.517  64.432  1.00  0.00    -0.430 Na 
HETATM    2  C   UNL     2      -8.586  16.055  66.280  1.00  0.00    -0.363 C  
HETATM    3  C   UNL     2      -9.387  15.688  67.521  1.00  0.00    -0.206 C  
ENDROOT
BRANCH   3   4
HETATM    4  C   UNL     2     -10.879  15.602  67.204  1.00  0.00    -0.297 C  
BRANCH   4   5
HETATM    5  C   UNL     2     -11.455  14.185  67.301  1.00  0.00    -0.371 C  
HETATM    6  C   UNL     2     -11.072  13.374  68.563  1.00  0.00    -0.299 C  
HETATM    7  C   UNL     2     -11.384  14.103  69.890  1.00  0.00    -0.232 C  
HETATM    8  C   UNL     2     -11.737  11.977  68.558  1.00  0.00    -0.387 C  
HETATM    9  C   UNL     2     -12.863  14.325  70.182  1.00  0.00    -0.128 C  
BRANCH   8  10
HETATM   10  C   UNL     2     -11.406  11.097  67.353  1.00  0.00    -0.329 C  
BRANCH  10  11
HETATM   11  C   UNL     2     -10.470   9.894  67.601  1.00  0.00    -0.244 C  
BRANCH  11  12
HETATM   12  C   UNL     2      -9.485  10.196  68.756  1.00  0.00    -0.171 C  
HETATM   13  C   UNL     2      -8.044  11.967  67.581  1.00  0.00    -0.155 C  
HETATM   14  C   UNL     2      -8.064  10.636  68.337  1.00  0.00    -0.123 C  
HETATM   15  C   UNL     2      -7.180  10.770  69.586  1.00  0.00    -0.127 C  
ENDBRANCH  11  12
BRANCH  11  16
HETATM   16  O   UNL     2     -11.254   8.761  67.966  1.00  0.00     0.185 OA 
HETATM   17  O   UNL     2      -9.857   8.319  69.920  1.00  0.00    -0.182 OA 
HETATM   18  O   UNL     2     -11.766   6.868  69.407  1.00  0.00    -0.059 OA 
HETATM   19  S   UNL     2     -10.602   7.588  68.900  1.00  0.00    -0.123 S  
HETATM   20  O   UNL     2      -9.756   6.824  67.994  1.00  0.00    -0.125 OA 
ENDBRANCH  11  16
ENDBRANCH  10  11
ENDBRANCH   8  10
ENDBRANCH   4   5
ENDBRANCH   3   4
TORSDOF 6
ENDMDL
MODEL      396
REMARK 921   NORMALIZED FREE ENERGY PREDICTED BY IDOCK:   -1.81 KCAL/MOL
REMARK 922        TOTAL FREE ENERGY PREDICTED BY IDOCK:   -3.65 KCAL/MOL
REMARK 923 INTER-LIGAND FREE ENERGY PREDICTED BY IDOCK:   -3.16 KCAL/MOL
REMARK 924 INTRA-LIGAND FREE ENERGY PREDICTED BY IDOCK:   -0.49 KCAL/MOL
REMARK 927      BINDING AFFINITY PREDICTED BY RF-SCORE:    0.00 PKD
ROOT
HETATM    1 NA   UNL     1      -5.781   9.216  67.290  1.00  0.00    -0.037 Na 
HETATM    2  C   UNL     2      -9.226   9.811  68.554  1.00  0.00    -0.134 C  
HETATM    3  C   UNL     2      -9.699   8.602  67.759  1.00  0.00    -0.202 C  
ENDROOT
BRANCH   3   4
HETATM    4  C   UNL     2      -8.520   7.874  67.115  1.00  0.00    -0.117 C  
BRANCH   4   5
HETATM    5  C   UNL     2      -8.281   6.465  67.665  1.00  0.00    -0.118 C  
HETATM    6  C   UNL     2      -9.543   5.668  68.078  1.00  0.00    -0.137 C  
HETATM    7  C   UNL     2     -10.607   5.566  66.961  1.00  0.00    -0.332 C  
HETATM    8  C   UNL     2      -9.175   4.253  68.588  1.00  0.00    -0.197 C  
HETATM    9  C   UNL     2     -10.196   4.756  65.737  1.00  0.00    -0.251 C  
BRANCH   8  10
HETATM   10  C   UNL     2      -8.221   4.215  69.782  1.00  0.00    -0.068 C  
BRANCH  10  11
HETATM   11  C   UNL     2      -8.824   4.529  71.169  1.00  0.00    -0.116 C  
BRANCH  11  12
HETATM   12  C   UNL     2      -9.802   3.412  71.606  1.00  0.00    -0.222 C  
HETATM   13  C   UNL     2     -10.888   4.611  73.601  1.00  0.00    -0.375 C  
HETATM   14  C   UNL     2     -10.146   3.365  73.112  1.00  0.00    -0.215 C  
HETATM   15  C   UNL     2     -11.016   2.132  73.401  1.00  0.00    -0.290 C  
ENDBRANCH  11  12
BRANCH  11  16
HETATM   16  O   UNL     2      -7.772   4.603  72.128  1.00  0.00    -0.087 OA 
HETATM   17  O   UNL     2      -7.923   7.039  72.231  1.00  0.00    -0.092 OA 
HETATM   18  O   UNL     2      -6.272   5.840  73.592  1.00  0.00    -0.059 OA 
HETATM   19  S   UNL     2      -6.914   5.986  72.289  1.00  0.00    -0.084 S  
HETATM   20  O   UNL     2      -6.002   5.987  71.154  1.00  0.00    -0.028 OA 
ENDBRANCH  11  16
ENDBRANCH  10  11
ENDBRANCH   8  10
ENDBRANCH   4   5
ENDBRANCH   3   4
TORSDOF 6
ENDMDL
MODEL      397
REMARK 921   NORMALIZED FREE ENERGY PREDICTED BY IDOCK:   -1.77 KCAL/MOL
REMARK 922        TOTAL FREE ENERGY PREDICTED BY IDOCK:   -3.60 KCAL/MOL
REMARK 923 INTER-LIGAND FREE ENERGY PREDICTED BY IDOCK:   -4.09 KCAL/MOL
REMARK 924 INTRA-LIGAND FREE ENERGY PREDICTED BY IDOCK:    0.49 KCAL/MOL
REMARK 927      BINDING AFFINITY PREDICTED BY RF-SCORE:    0.00 PKD
ROOT
HETATM    1 NA   UNL     1      -7.410   6.747  74.513  1.00  0.00    -0.095 Na 
HETATM    2  C   UNL     2      -5.310   4.915  72.055  1.00  0.00    -0.005 C  
HETATM    3  C   UNL     2      -5.988   3.620  72.478  1.00  0.00    -0.009 C  
ENDROOT
BRANCH   3   4
HETATM    4  C   UNL     2      -7.123   3.893  73.463  1.00  0.00    -0.063 C  
BRANCH   4   5
HETATM    5  C   UNL     2      -8.339   4.582  72.837  1.00  0.00    -0.103 C  
HETATM    6  C   UNL     2      -8.927   3.915  71.569  1.00  0.00    -0.156 C  
HETATM    7  C   UNL     2      -9.275   2.420  71.757  1.00  0.00    -0.165 C  
HETATM    8  C   UNL     2     -10.166   4.684  71.050  1.00  0.00    -0.207 C  
HETATM    9  C   UNL     2     -10.408   2.130  72.734  1.00  0.00    -0.233 C  
BRANCH   8  10
HETATM   10  C   UNL     2      -9.926   6.154  70.702  1.00  0.00    -0.229 C  
BRANCH  10  11
HETATM   11  C   UNL     2     -11.127   6.943  70.136  1.00  0.00    -0.299 C  
BRANCH  11  12
HETATM   12  C   UNL     2     -10.779   8.446  69.999  1.00  0.00    -0.236 C  
HETATM   13  C   UNL     2     -12.191   9.348  71.945  1.00  0.00    -0.440 C  
HETATM   14  C   UNL     2     -11.873   9.439  70.450  1.00  0.00    -0.140 C  
HETATM   15  C   UNL     2     -11.426  10.874  70.131  1.00  0.00    -0.405 C  
ENDBRANCH  11  12
BRANCH  11  16
HETATM   16  O   UNL     2     -11.448   6.439  68.843  1.00  0.00    -0.314 OA 
HETATM   17  O   UNL     2      -9.120   6.577  68.118  1.00  0.00    -0.117 OA 
HETATM   18  O   UNL     2     -10.850   5.764  66.582  1.00  0.00    -0.297 OA 
HETATM   19  S   UNL     2     -10.463   6.759  67.578  1.00  0.00    -0.278 S  
HETATM   20  O   UNL     2     -10.765   8.136  67.216  1.00  0.00    -0.298 OA 
ENDBRANCH  11  16
ENDBRANCH  10  11
ENDBRANCH   8  10
ENDBRANCH   4   5
ENDBRANCH   3   4
TORSDOF 6
ENDMDL
MODEL      398
REMARK 921   NORMALIZED FREE ENERGY PREDICTED BY IDOCK:   -1.75 KCAL/MOL
REMARK 922        TOTAL FREE ENERGY PREDICTED BY IDOCK:   -3.58 KCAL/MOL
REMARK 923 INTER-LIGAND FREE ENERGY PREDICTED BY IDOCK:   -4.81 KCAL/MOL
REMARK 924 INTRA-LIGAND FREE ENERGY PREDICTED BY IDOCK:    1.23 KCAL/MOL
REMARK 927      BINDING AFFINITY PREDICTED BY RF-SCORE:    0.00 PKD
ROOT
HETATM    1 NA   UNL     1      -9.810  14.009  66.143  1.00  0.00    -0.238 Na 
HETATM    2  C   UNL     2      -8.214  15.673  69.058  1.00  0.00    -0.233 C  
HETATM    3  C   UNL     2      -9.434  16.574  69.180  1.00  0.00    -0.212 C  
ENDROOT
BRANCH   3   4
HETATM    4  C   UNL     2     -10.525  16.154  68.197  1.00  0.00    -0.279 C  
BRANCH   4   5
HETATM    5  C   UNL     2     -11.041  14.727  68.409  1.00  0.00    -0.274 C  
HETATM    6  C   UNL     2     -11.010  14.197  69.864  1.00  0.00    -0.000 C  
HETATM    7  C   UNL     2     -11.730  15.116  70.877  1.00  0.00    -0.378 C  
HETATM    8  C   UNL     2     -11.582  12.761  69.953  1.00  0.00    -0.243 C  
HETATM    9  C   UNL     2     -13.238  15.237  70.693  1.00  0.00    -0.370 C  
BRANCH   8  10
HETATM   10  C   UNL     2     -10.872  11.718  69.089  1.00  0.00    -0.221 C  
BRANCH  10  11
HETATM   11  C   UNL     2     -11.616  10.387  68.847  1.00  0.00    -0.139 C  
BRANCH  11  12
HETATM   12  C   UNL     2     -10.641   9.301  68.331  1.00  0.00    -0.234 C  
HETATM   13  C   UNL     2     -10.013  10.381  66.087  1.00  0.00    -0.290 C  
HETATM   14  C   UNL     2     -10.558   9.139  66.796  1.00  0.00    -0.207 C  
HETATM   15  C   UNL     2      -9.655   7.944  66.455  1.00  0.00    -0.251 C  
ENDBRANCH  11  12
BRANCH  11  16
HETATM   16  O   UNL     2     -12.177   9.936  70.077  1.00  0.00    -0.061 OA 
HETATM   17  O   UNL     2      -9.978   9.353  70.964  1.00  0.00    -0.285 OA 
HETATM   18  O   UNL     2     -11.994   8.987  72.311  1.00  0.00    -0.338 OA 
HETATM   19  S   UNL     2     -11.354   8.870  71.004  1.00  0.00    -0.308 S  
HETATM   20  O   UNL     2     -11.542   7.587  70.343  1.00  0.00    -0.246 OA 
ENDBRANCH  11  16
ENDBRANCH  10  11
ENDBRANCH   8  10
ENDBRANCH   4   5
ENDBRANCH   3   4
TORSDOF 6
ENDMDL
MODEL      399
REMARK 921   NORMALIZED FREE ENERGY PREDICTED BY IDOCK:   -1.74 KCAL/MOL
REMARK 922        TOTAL FREE ENERGY PREDICTED BY IDOCK:   -3.56 KCAL/MOL
REMARK 923 INTER-LIGAND FREE ENERGY PREDICTED BY IDOCK:   -2.54 KCAL/MOL
REMARK 924 INTRA-LIGAND FREE ENERGY PREDICTED BY IDOCK:   -1.02 KCAL/MOL
REMARK 927      BINDING AFFINITY PREDICTED BY RF-SCORE:    0.00 PKD
ROOT
HETATM    1 NA   UNL     1      -5.822   4.731  71.727  1.00  0.00    -0.008 Na 
HETATM    2  C   UNL     2      -7.339   4.776  68.334  1.00  0.00    -0.065 C  
HETATM    3  C   UNL     2      -6.678   6.124  68.084  1.00  0.00    -0.064 C  
ENDROOT
BRANCH   3   4
HETATM    4  C   UNL     2      -5.756   6.505  69.241  1.00  0.00    -0.017 C  
BRANCH   4   5
HETATM    5  C   UNL     2      -5.823   7.985  69.629  1.00  0.00    -0.026 C  
HETATM    6  C   UNL     2      -7.235   8.559  69.903  1.00  0.00    -0.051 C  
HETATM    7  C   UNL     2      -8.039   7.758  70.952  1.00  0.00    -0.102 C  
HETATM    8  C   UNL     2      -7.168  10.050  70.314  1.00  0.00    -0.155 C  
HETATM    9  C   UNL     2      -7.482   7.793  72.370  1.00  0.00    -0.098 C  
BRANCH   8  10
HETATM   10  C   UNL     2      -6.504  10.980  69.298  1.00  0.00    -0.079 C  
BRANCH  10  11
HETATM   11  C   UNL     2      -7.436  11.902  68.481  1.00  0.00    -0.117 C  
BRANCH  11  12
HETATM   12  C   UNL     2      -8.904  11.419  68.575  1.00  0.00    -0.151 C  
HETATM   13  C   UNL     2      -8.785   9.497  66.875  1.00  0.00    -0.136 C  
HETATM   14  C   UNL     2      -9.492  10.789  67.292  1.00  0.00    -0.177 C  
HETATM   15  C   UNL     2     -10.983  10.484  67.509  1.00  0.00    -0.365 C  
ENDBRANCH  11  12
BRANCH  11  16
HETATM   16  O   UNL     2      -7.366  13.223  69.012  1.00  0.00    -0.069 OA 
HETATM   17  O   UNL     2      -8.475  14.161  67.048  1.00  0.00    -0.208 OA 
HETATM   18  O   UNL     2      -7.766  15.621  68.887  1.00  0.00    -0.153 OA 
HETATM   19  S   UNL     2      -7.428  14.509  68.003  1.00  0.00    -0.156 S  
HETATM   20  O   UNL     2      -6.099  14.577  67.414  1.00  0.00    -0.340 OA 
ENDBRANCH  11  16
ENDBRANCH  10  11
ENDBRANCH   8  10
ENDBRANCH   4   5
ENDBRANCH   3   4
TORSDOF 6
ENDMDL
MODEL      400
REMARK 921   NORMALIZED FREE ENERGY PREDICTED BY IDOCK:   -1.66 KCAL/MOL
REMARK 922        TOTAL FREE ENERGY PREDICTED BY IDOCK:   -3.45 KCAL/MOL
REMARK 923 INTER-LIGAND FREE ENERGY PREDICTED BY IDOCK:   -3.73 KCAL/MOL
REMARK 924 INTRA-LIGAND FREE ENERGY PREDICTED BY IDOCK:    0.27 KCAL/MOL
REMARK 927      BINDING AFFINITY PREDICTED BY RF-SCORE:    0.00 PKD
ROOT
HETATM    1 NA   UNL     1      -5.748   3.855  72.320  1.00  0.00    -0.005 Na 
HETATM    2  C   UNL     2      -7.749   3.348  69.229  1.00  0.00    -0.051 C  
HETATM    3  C   UNL     2      -7.639   4.839  68.943  1.00  0.00    -0.068 C  
ENDROOT
BRANCH   3   4
HETATM    4  C   UNL     2      -6.717   5.523  69.951  1.00  0.00    -0.051 C  
BRANCH   4   5
HETATM    5  C   UNL     2      -7.292   6.811  70.548  1.00  0.00    -0.081 C  
HETATM    6  C   UNL     2      -8.685   6.695  71.214  1.00  0.00    -0.129 C  
HETATM    7  C   UNL     2      -8.768   5.595  72.296  1.00  0.00    -0.132 C  
HETATM    8  C   UNL     2      -9.143   8.051  71.803  1.00  0.00    -0.207 C  
HETATM    9  C   UNL     2      -7.922   5.835  73.540  1.00  0.00    -0.108 C  
BRANCH   8  10
HETATM   10  C   UNL     2      -9.228   9.205  70.803  1.00  0.00    -0.321 C  
BRANCH  10  11
HETATM   11  C   UNL     2     -10.550   9.354  70.018  1.00  0.00    -0.235 C  
BRANCH  11  12
HETATM   12  C   UNL     2     -10.579  10.695  69.245  1.00  0.00    -0.263 C  
HETATM   13  C   UNL     2     -12.336  11.918  70.664  1.00  0.00    -0.405 C  
HETATM   14  C   UNL     2     -11.923  11.457  69.264  1.00  0.00    -0.400 C  
HETATM   15  C   UNL     2     -11.825  12.690  68.352  1.00  0.00    -0.347 C  
ENDBRANCH  11  12
BRANCH  11  16
HETATM   16  O   UNL     2     -10.652   8.291  69.073  1.00  0.00    -0.215 OA 
HETATM   17  O   UNL     2      -8.482   8.839  68.096  1.00  0.00    -0.128 OA 
HETATM   18  O   UNL     2      -9.804   6.973  67.211  1.00  0.00    -0.147 OA 
HETATM   19  S   UNL     2      -9.794   8.354  67.682  1.00  0.00    -0.186 S  
HETATM   20  O   UNL     2     -10.525   9.293  66.843  1.00  0.00    -0.248 OA 
ENDBRANCH  11  16
ENDBRANCH  10  11
ENDBRANCH   8  10
ENDBRANCH   4   5
ENDBRANCH   3   4
TORSDOF 6
ENDMDL
MODEL      401
REMARK 921   NORMALIZED FREE ENERGY PREDICTED BY IDOCK:   -1.65 KCAL/MOL
REMARK 922        TOTAL FREE ENERGY PREDICTED BY IDOCK:   -3.43 KCAL/MOL
REMARK 923 INTER-LIGAND FREE ENERGY PREDICTED BY IDOCK:   -4.86 KCAL/MOL
REMARK 924 INTRA-LIGAND FREE ENERGY PREDICTED BY IDOCK:    1.43 KCAL/MOL
REMARK 927      BINDING AFFINITY PREDICTED BY RF-SCORE:    0.00 PKD
ROOT
HETATM    1 NA   UNL     1     -12.020   9.427  67.543  1.00  0.00    -0.384 Na 
HETATM    2  C   UNL     2      -8.566   8.471  68.531  1.00  0.00    -0.138 C  
HETATM    3  C   UNL     2      -8.038   9.660  67.741  1.00  0.00    -0.113 C  
ENDROOT
BRANCH   3   4
HETATM    4  C   UNL     2      -9.185  10.516  67.208  1.00  0.00    -0.156 C  
BRANCH   4   5
HETATM    5  C   UNL     2      -9.343  11.862  67.923  1.00  0.00    -0.187 C  
HETATM    6  C   UNL     2     -10.791  12.389  68.080  1.00  0.00    -0.251 C  
HETATM    7  C   UNL     2     -11.750  11.381  68.752  1.00  0.00    -0.404 C  
HETATM    8  C   UNL     2     -10.821  13.736  68.841  1.00  0.00    -0.268 C  
HETATM    9  C   UNL     2     -11.447  11.061  70.211  1.00  0.00    -0.363 C  
BRANCH   8  10
HETATM   10  C   UNL     2     -10.008  14.865  68.208  1.00  0.00    -0.222 C  
BRANCH  10  11
HETATM   11  C   UNL     2      -8.991  15.590  69.117  1.00  0.00    -0.256 C  
BRANCH  11  12
HETATM   12  C   UNL     2      -7.561  15.046  68.881  1.00  0.00    -0.144 C  
HETATM   13  C   UNL     2      -6.242  17.179  69.432  1.00  0.00    -0.234 C  
HETATM   14  C   UNL     2      -6.515  16.079  68.404  1.00  0.00    -0.120 C  
HETATM   15  C   UNL     2      -5.192  15.361  68.093  1.00  0.00    -0.124 C  
ENDBRANCH  11  12
BRANCH  11  16
HETATM   16  O   UNL     2      -8.998  16.981  68.806  1.00  0.00    -0.266 OA 
HETATM   17  O   UNL     2     -11.402  16.961  68.380  1.00  0.00    -0.230 OA 
HETATM   18  O   UNL     2     -10.118  19.036  68.137  1.00  0.00    -0.356 OA 
HETATM   19  S   UNL     2     -10.192  17.602  67.877  1.00  0.00    -0.375 S  
HETATM   20  O   UNL     2      -9.843  17.207  66.520  1.00  0.00    -0.270 OA 
ENDBRANCH  11  16
ENDBRANCH  10  11
ENDBRANCH   8  10
ENDBRANCH   4   5
ENDBRANCH   3   4
TORSDOF 6
ENDMDL
MODEL      402
REMARK 921   NORMALIZED FREE ENERGY PREDICTED BY IDOCK:   -1.64 KCAL/MOL
REMARK 922        TOTAL FREE ENERGY PREDICTED BY IDOCK:   -3.43 KCAL/MOL
REMARK 923 INTER-LIGAND FREE ENERGY PREDICTED BY IDOCK:   -3.96 KCAL/MOL
REMARK 924 INTRA-LIGAND FREE ENERGY PREDICTED BY IDOCK:    0.53 KCAL/MOL
REMARK 927      BINDING AFFINITY PREDICTED BY RF-SCORE:    0.00 PKD
ROOT
HETATM    1 NA   UNL     1     -12.616  10.629  67.380  1.00  0.00     0.324 Na 
HETATM    2  C   UNL     2     -10.113   8.712  69.348  1.00  0.00    -0.204 C  
HETATM    3  C   UNL     2      -9.689  10.008  70.024  1.00  0.00    -0.224 C  
ENDROOT
BRANCH   3   4
HETATM    4  C   UNL     2     -10.595  11.165  69.607  1.00  0.00    -0.076 C  
BRANCH   4   5
HETATM    5  C   UNL     2      -9.927  12.173  68.666  1.00  0.00    -0.137 C  
HETATM    6  C   UNL     2      -8.782  11.626  67.778  1.00  0.00    -0.152 C  
HETATM    7  C   UNL     2      -9.181  10.390  66.940  1.00  0.00    -0.170 C  
HETATM    8  C   UNL     2      -8.210  12.728  66.854  1.00  0.00    -0.031 C  
HETATM    9  C   UNL     2     -10.229  10.639  65.862  1.00  0.00    -0.314 C  
BRANCH   8  10
HETATM   10  C   UNL     2      -7.661  13.963  67.569  1.00  0.00    -0.190 C  
BRANCH  10  11
HETATM   11  C   UNL     2      -8.333  15.315  67.246  1.00  0.00    -0.200 C  
BRANCH  11  12
HETATM   12  C   UNL     2      -9.765  15.368  67.833  1.00  0.00    -0.207 C  
HETATM   13  C   UNL     2      -9.780  17.822  68.590  1.00  0.00    -0.346 C  
HETATM   14  C   UNL     2      -9.983  16.361  68.997  1.00  0.00    -0.267 C  
HETATM   15  C   UNL     2     -11.408  16.199  69.548  1.00  0.00    -0.321 C  
ENDBRANCH  11  12
BRANCH  11  16
HETATM   16  O   UNL     2      -7.570  16.366  67.834  1.00  0.00    -0.142 OA 
HETATM   17  O   UNL     2      -7.671  17.696  65.788  1.00  0.00    -0.540 OA 
HETATM   18  O   UNL     2      -6.475  18.538  67.756  1.00  0.00    -0.204 OA 
HETATM   19  S   UNL     2      -6.745  17.405  66.877  1.00  0.00    -0.217 S  
HETATM   20  O   UNL     2      -5.566  16.660  66.458  1.00  0.00    -0.341 OA 
ENDBRANCH  11  16
ENDBRANCH  10  11
ENDBRANCH   8  10
ENDBRANCH   4   5
ENDBRANCH   3   4
TORSDOF 6
ENDMDL
MODEL      403
REMARK 921   NORMALIZED FREE ENERGY PREDICTED BY IDOCK:   -1.63 KCAL/MOL
REMARK 922        TOTAL FREE ENERGY PREDICTED BY IDOCK:   -3.41 KCAL/MOL
REMARK 923 INTER-LIGAND FREE ENERGY PREDICTED BY IDOCK:   -2.68 KCAL/MOL
REMARK 924 INTRA-LIGAND FREE ENERGY PREDICTED BY IDOCK:   -0.73 KCAL/MOL
REMARK 927      BINDING AFFINITY PREDICTED BY RF-SCORE:    0.00 PKD
ROOT
HETATM    1 NA   UNL     1      -6.267   4.561  70.750  1.00  0.00    -0.013 Na 
HETATM    2  C   UNL     2      -7.251   4.602  67.166  1.00  0.00    -0.073 C  
HETATM    3  C   UNL     2      -6.767   6.042  67.076  1.00  0.00    -0.058 C  
ENDROOT
BRANCH   3   4
HETATM    4  C   UNL     2      -6.095   6.477  68.377  1.00  0.00    -0.025 C  
BRANCH   4   5
HETATM    5  C   UNL     2      -6.598   7.818  68.920  1.00  0.00    -0.049 C  
HETATM    6  C   UNL     2      -8.134   7.994  68.994  1.00  0.00    -0.123 C  
HETATM    7  C   UNL     2      -8.853   6.869  69.773  1.00  0.00    -0.141 C  
HETATM    8  C   UNL     2      -8.515   9.373  69.585  1.00  0.00    -0.166 C  
HETATM    9  C   UNL     2      -8.543   6.804  71.264  1.00  0.00    -0.125 C  
BRANCH   8  10
HETATM   10  C   UNL     2      -7.970  10.585  68.829  1.00  0.00    -0.127 C  
BRANCH  10  11
HETATM   11  C   UNL     2      -8.918  11.793  68.666  1.00  0.00    -0.066 C  
BRANCH  11  12
HETATM   12  C   UNL     2      -8.243  12.909  67.832  1.00  0.00    -0.165 C  
HETATM   13  C   UNL     2      -6.726  13.889  69.658  1.00  0.00    -0.039 C  
HETATM   14  C   UNL     2      -7.809  14.170  68.615  1.00  0.00    -0.137 C  
HETATM   15  C   UNL     2      -7.281  15.226  67.632  1.00  0.00    -0.204 C  
ENDBRANCH  11  12
BRANCH  11  16
HETATM   16  O   UNL     2     -10.094  11.373  67.980  1.00  0.00    -0.171 OA 
HETATM   17  O   UNL     2     -11.313  13.373  68.670  1.00  0.00    -0.249 OA 
HETATM   18  O   UNL     2     -12.409  11.668  67.289  1.00  0.00    -0.130 OA 
HETATM   19  S   UNL     2     -11.553  11.953  68.436  1.00  0.00    -0.328 S  
HETATM   20  O   UNL     2     -11.882  11.209  69.645  1.00  0.00    -0.288 OA 
ENDBRANCH  11  16
ENDBRANCH  10  11
ENDBRANCH   8  10
ENDBRANCH   4   5
ENDBRANCH   3   4
TORSDOF 6
ENDMDL
MODEL      404
REMARK 921   NORMALIZED FREE ENERGY PREDICTED BY IDOCK:   -1.62 KCAL/MOL
REMARK 922        TOTAL FREE ENERGY PREDICTED BY IDOCK:   -3.39 KCAL/MOL
REMARK 923 INTER-LIGAND FREE ENERGY PREDICTED BY IDOCK:   -2.80 KCAL/MOL
REMARK 924 INTRA-LIGAND FREE ENERGY PREDICTED BY IDOCK:   -0.59 KCAL/MOL
REMARK 927      BINDING AFFINITY PREDICTED BY RF-SCORE:    0.00 PKD
ROOT
HETATM    1 NA   UNL     1      -9.701  12.658  67.952  1.00  0.00    -0.175 Na 
HETATM    2  C   UNL     2      -9.881  10.147  65.218  1.00  0.00    -0.388 C  
HETATM    3  C   UNL     2      -9.393   9.086  66.195  1.00  0.00    -0.294 C  
ENDROOT
BRANCH   3   4
HETATM    4  C   UNL     2      -9.291   9.651  67.611  1.00  0.00    -0.144 C  
BRANCH   4   5
HETATM    5  C   UNL     2      -9.683   8.656  68.708  1.00  0.00    -0.171 C  
HETATM    6  C   UNL     2      -8.585   7.658  69.151  1.00  0.00    -0.139 C  
HETATM    7  C   UNL     2      -7.263   8.336  69.578  1.00  0.00    -0.061 C  
HETATM    8  C   UNL     2      -9.091   6.729  70.281  1.00  0.00    -0.153 C  
HETATM    9  C   UNL     2      -7.341   9.189  70.838  1.00  0.00    -0.129 C  
BRANCH   8  10
HETATM   10  C   UNL     2     -10.329   5.898  69.943  1.00  0.00    -0.307 C  
BRANCH  10  11
HETATM   11  C   UNL     2     -10.092   4.550  69.228  1.00  0.00    -0.032 C  
BRANCH  11  12
HETATM   12  C   UNL     2     -10.104   4.735  67.691  1.00  0.00    -0.142 C  
HETATM   13  C   UNL     2      -7.711   3.951  67.190  1.00  0.00    -0.084 C  
HETATM   14  C   UNL     2      -8.743   5.071  67.039  1.00  0.00    -0.103 C  
HETATM   15  C   UNL     2      -8.948   5.350  65.542  1.00  0.00    -0.149 C  
ENDBRANCH  11  12
BRANCH  11  16
HETATM   16  O   UNL     2      -8.817   4.039  69.606  1.00  0.00    -0.075 OA 
HETATM   17  O   UNL     2      -9.756   1.846  70.130  1.00  0.00    -0.054 OA 
HETATM   18  O   UNL     2      -7.358   2.269  70.421  1.00  0.00    -0.033 OA 
HETATM   19  S   UNL     2      -8.721   2.755  70.614  1.00  0.00    -0.079 S  
HETATM   20  O   UNL     2      -8.995   3.302  71.935  1.00  0.00    -0.090 OA 
ENDBRANCH  11  16
ENDBRANCH  10  11
ENDBRANCH   8  10
ENDBRANCH   4   5
ENDBRANCH   3   4
TORSDOF 6
ENDMDL
MODEL      405
REMARK 921   NORMALIZED FREE ENERGY PREDICTED BY IDOCK:   -1.61 KCAL/MOL
REMARK 922        TOTAL FREE ENERGY PREDICTED BY IDOCK:   -3.38 KCAL/MOL
REMARK 923 INTER-LIGAND FREE ENERGY PREDICTED BY IDOCK:   -3.56 KCAL/MOL
REMARK 924 INTRA-LIGAND FREE ENERGY PREDICTED BY IDOCK:    0.18 KCAL/MOL
REMARK 927      BINDING AFFINITY PREDICTED BY RF-SCORE:    0.00 PKD
ROOT
HETATM    1 NA   UNL     1      -6.703  17.778  65.079  1.00  0.00    -0.219 Na 
HETATM    2  C   UNL     2      -7.663  20.607  67.290  1.00  0.00    -0.359 C  
HETATM    3  C   UNL     2      -7.076  19.849  68.472  1.00  0.00    -0.336 C  
ENDROOT
BRANCH   3   4
HETATM    4  C   UNL     2      -6.381  18.569  68.012  1.00  0.00    -0.198 C  
BRANCH   4   5
HETATM    5  C   UNL     2      -7.274  17.324  68.056  1.00  0.00    -0.192 C  
HETATM    6  C   UNL     2      -6.801  16.112  67.217  1.00  0.00    -0.236 C  
HETATM    7  C   UNL     2      -5.354  15.667  67.527  1.00  0.00    -0.033 C  
HETATM    8  C   UNL     2      -7.767  14.912  67.367  1.00  0.00    -0.231 C  
HETATM    9  C   UNL     2      -5.128  15.100  68.923  1.00  0.00    -0.096 C  
BRANCH   8  10
HETATM   10  C   UNL     2      -9.218  15.183  66.969  1.00  0.00    -0.239 C  
BRANCH  10  11
HETATM   11  C   UNL     2     -10.316  14.535  67.840  1.00  0.00    -0.231 C  
BRANCH  11  12
HETATM   12  C   UNL     2     -10.510  13.048  67.459  1.00  0.00    -0.229 C  
HETATM   13  C   UNL     2     -12.260  12.421  69.232  1.00  0.00    -0.088 C  
HETATM   14  C   UNL     2     -10.897  12.097  68.615  1.00  0.00    -0.268 C  
HETATM   15  C   UNL     2     -10.923  10.649  68.101  1.00  0.00    -0.321 C  
ENDBRANCH  11  12
BRANCH  11  16
HETATM   16  O   UNL     2      -9.922  14.598  69.209  1.00  0.00    -0.188 OA 
HETATM   17  O   UNL     2     -12.211  15.042  69.935  1.00  0.00    -0.313 OA 
HETATM   18  O   UNL     2     -10.394  14.908  71.576  1.00  0.00     0.722 OA 
HETATM   19  S   UNL     2     -10.844  15.415  70.283  1.00  0.00    -0.298 S  
HETATM   20  O   UNL     2     -10.541  16.818  70.037  1.00  0.00    -0.205 OA 
ENDBRANCH  11  16
ENDBRANCH  10  11
ENDBRANCH   8  10
ENDBRANCH   4   5
ENDBRANCH   3   4
TORSDOF 6
ENDMDL
MODEL      406
REMARK 921   NORMALIZED FREE ENERGY PREDICTED BY IDOCK:   -1.47 KCAL/MOL
REMARK 922        TOTAL FREE ENERGY PREDICTED BY IDOCK:   -3.20 KCAL/MOL
REMARK 923 INTER-LIGAND FREE ENERGY PREDICTED BY IDOCK:   -4.90 KCAL/MOL
REMARK 924 INTRA-LIGAND FREE ENERGY PREDICTED BY IDOCK:    1.70 KCAL/MOL
REMARK 927      BINDING AFFINITY PREDICTED BY RF-SCORE:    0.00 PKD
ROOT
HETATM    1 NA   UNL     1     -14.160  10.040  69.541  1.00  0.00    -0.507 Na 
HETATM    2  C   UNL     2     -10.916   9.625  71.308  1.00  0.00    -0.399 C  
HETATM    3  C   UNL     2     -10.226   9.501  69.957  1.00  0.00    -0.281 C  
ENDROOT
BRANCH   3   4
HETATM    4  C   UNL     2     -11.207   9.757  68.814  1.00  0.00    -0.070 C  
BRANCH   4   5
HETATM    5  C   UNL     2     -10.971  11.078  68.076  1.00  0.00    -0.312 C  
HETATM    6  C   UNL     2      -9.495  11.450  67.791  1.00  0.00    -0.167 C  
HETATM    7  C   UNL     2      -8.707  10.347  67.049  1.00  0.00    -0.132 C  
HETATM    8  C   UNL     2      -9.390  12.786  67.016  1.00  0.00    -0.229 C  
HETATM    9  C   UNL     2      -9.165  10.060  65.625  1.00  0.00    -0.234 C  
BRANCH   8  10
HETATM   10  C   UNL     2     -10.023  13.995  67.705  1.00  0.00    -0.236 C  
BRANCH  10  11
HETATM   11  C   UNL     2      -9.334  14.509  68.989  1.00  0.00    -0.070 C  
BRANCH  11  12
HETATM   12  C   UNL     2      -8.426  15.723  68.674  1.00  0.00    -0.193 C  
HETATM   13  C   UNL     2      -9.420  16.367  66.395  1.00  0.00    -0.320 C  
HETATM   14  C   UNL     2      -8.157  15.997  67.177  1.00  0.00    -0.232 C  
HETATM   15  C   UNL     2      -7.144  17.144  67.040  1.00  0.00    -0.225 C  
ENDBRANCH  11  12
BRANCH  11  16
HETATM   16  O   UNL     2     -10.331  14.926  69.918  1.00  0.00    -0.154 OA 
HETATM   17  O   UNL     2     -12.134  14.247  68.416  1.00  0.00    -0.335 OA 
HETATM   18  O   UNL     2     -12.647  15.241  70.599  1.00  0.00    -0.363 OA 
HETATM   19  S   UNL     2     -11.834  15.294  69.387  1.00  0.00    -0.337 S  
HETATM   20  O   UNL     2     -11.701  16.618  68.797  1.00  0.00    -0.101 OA 
ENDBRANCH  11  16
ENDBRANCH  10  11
ENDBRANCH   8  10
ENDBRANCH   4   5
ENDBRANCH   3   4
TORSDOF 6
ENDMDL
MODEL      407
REMARK 921   NORMALIZED FREE ENERGY PREDICTED BY IDOCK:   -1.45 KCAL/MOL
REMARK 922        TOTAL FREE ENERGY PREDICTED BY IDOCK:   -3.17 KCAL/MOL
REMARK 923 INTER-LIGAND FREE ENERGY PREDICTED BY IDOCK:   -5.22 KCAL/MOL
REMARK 924 INTRA-LIGAND FREE ENERGY PREDICTED BY IDOCK:    2.05 KCAL/MOL
REMARK 927      BINDING AFFINITY PREDICTED BY RF-SCORE:    0.00 PKD
ROOT
HETATM    1 NA   UNL     1      -7.389  11.076  67.006  1.00  0.00    -0.086 Na 
HETATM    2  C   UNL     2      -9.910   8.586  68.131  1.00  0.00    -0.192 C  
HETATM    3  C   UNL     2     -10.153   9.432  69.373  1.00  0.00    -0.204 C  
ENDROOT
BRANCH   3   4
HETATM    4  C   UNL     2      -9.377  10.746  69.302  1.00  0.00    -0.087 C  
BRANCH   4   5
HETATM    5  C   UNL     2      -9.989  11.781  68.354  1.00  0.00    -0.202 C  
HETATM    6  C   UNL     2     -11.519  11.995  68.468  1.00  0.00    -0.345 C  
HETATM    7  C   UNL     2     -11.996  12.325  69.901  1.00  0.00    -0.377 C  
HETATM    8  C   UNL     2     -12.011  13.083  67.484  1.00  0.00    -0.360 C  
HETATM    9  C   UNL     2     -11.520  13.661  70.458  1.00  0.00     0.118 C  
BRANCH   8  10
HETATM   10  C   UNL     2     -11.714  12.815  66.008  1.00  0.00    -0.470 C  
BRANCH  10  11
HETATM   11  C   UNL     2     -10.413  13.419  65.436  1.00  0.00    -0.302 C  
BRANCH  11  12
HETATM   12  C   UNL     2      -9.761  12.451  64.419  1.00  0.00     0.004 C  
HETATM   13  C   UNL     2     -11.879  11.220  63.648  1.00  0.00     0.228 C  
HETATM   14  C   UNL     2     -10.469  11.090  64.230  1.00  0.00    -0.427 C  
HETATM   15  C   UNL     2      -9.633  10.203  63.295  1.00  0.00    -0.231 C  
ENDBRANCH  11  12
BRANCH  11  16
HETATM   16  O   UNL     2     -10.722  14.635  64.760  1.00  0.00    -0.412 OA 
HETATM   17  O   UNL     2     -13.119  14.313  65.100  1.00  0.00    -0.704 OA 
HETATM   18  O   UNL     2     -12.291  16.288  63.904  1.00  0.00    -0.874 OA 
HETATM   19  S   UNL     2     -12.202  14.844  64.097  1.00  0.00    -0.038 S  
HETATM   20  O   UNL     2     -12.167  14.063  62.868  1.00  0.00    -0.261 OA 
ENDBRANCH  11  16
ENDBRANCH  10  11
ENDBRANCH   8  10
ENDBRANCH   4   5
ENDBRANCH   3   4
TORSDOF 6
ENDMDL
MODEL      408
REMARK 921   NORMALIZED FREE ENERGY PREDICTED BY IDOCK:   -1.41 KCAL/MOL
REMARK 922        TOTAL FREE ENERGY PREDICTED BY IDOCK:   -3.11 KCAL/MOL
REMARK 923 INTER-LIGAND FREE ENERGY PREDICTED BY IDOCK:   -3.06 KCAL/MOL
REMARK 924 INTRA-LIGAND FREE ENERGY PREDICTED BY IDOCK:   -0.05 KCAL/MOL
REMARK 927      BINDING AFFINITY PREDICTED BY RF-SCORE:    0.00 PKD
ROOT
HETATM    1 NA   UNL     1      -7.896   7.376  73.948  1.00  0.00    -0.097 Na 
HETATM    2  C   UNL     2      -5.429   5.026  72.464  1.00  0.00    -0.009 C  
HETATM    3  C   UNL     2      -6.262   3.863  72.984  1.00  0.00    -0.012 C  
ENDROOT
BRANCH   3   4
HETATM    4  C   UNL     2      -7.565   4.359  73.607  1.00  0.00    -0.078 C  
BRANCH   4   5
HETATM    5  C   UNL     2      -8.647   4.723  72.585  1.00  0.00    -0.115 C  
HETATM    6  C   UNL     2      -8.775   3.784  71.360  1.00  0.00    -0.130 C  
HETATM    7  C   UNL     2      -8.960   2.295  71.734  1.00  0.00    -0.128 C  
HETATM    8  C   UNL     2      -9.917   4.238  70.419  1.00  0.00    -0.213 C  
HETATM    9  C   UNL     2     -10.266   1.955  72.440  1.00  0.00    -0.230 C  
BRANCH   8  10
HETATM   10  C   UNL     2      -9.790   5.660  69.872  1.00  0.00    -0.250 C  
BRANCH  10  11
HETATM   11  C   UNL     2     -10.242   5.891  68.413  1.00  0.00    -0.191 C  
BRANCH  11  12
HETATM   12  C   UNL     2     -10.859   7.301  68.249  1.00  0.00    -0.114 C  
HETATM   13  C   UNL     2      -9.421   8.125  66.288  1.00  0.00    -0.259 C  
HETATM   14  C   UNL     2      -9.911   8.397  67.712  1.00  0.00    -0.236 C  
HETATM   15  C   UNL     2     -10.633   9.753  67.731  1.00  0.00    -0.320 C  
ENDBRANCH  11  12
BRANCH  11  16
HETATM   16  O   UNL     2      -9.109   5.796  67.554  1.00  0.00    -0.109 OA 
HETATM   17  O   UNL     2     -10.314   4.368  65.982  1.00  0.00    -0.249 OA 
HETATM   18  O   UNL     2      -7.980   4.986  65.555  1.00  0.00    -0.100 OA 
HETATM   19  S   UNL     2      -8.971   4.532  66.526  1.00  0.00    -0.119 S  
HETATM   20  O   UNL     2      -8.541   3.422  67.365  1.00  0.00    -0.097 OA 
ENDBRANCH  11  16
ENDBRANCH  10  11
ENDBRANCH   8  10
ENDBRANCH   4   5
ENDBRANCH   3   4
TORSDOF 6
ENDMDL
MODEL      409
REMARK 921   NORMALIZED FREE ENERGY PREDICTED BY IDOCK:   -1.34 KCAL/MOL
REMARK 922        TOTAL FREE ENERGY PREDICTED BY IDOCK:   -3.02 KCAL/MOL
REMARK 923 INTER-LIGAND FREE ENERGY PREDICTED BY IDOCK:   -3.63 KCAL/MOL
REMARK 924 INTRA-LIGAND FREE ENERGY PREDICTED BY IDOCK:    0.61 KCAL/MOL
REMARK 927      BINDING AFFINITY PREDICTED BY RF-SCORE:    0.00 PKD
ROOT
HETATM    1 NA   UNL     1      -7.991  13.323  69.753  1.00  0.00    -0.311 Na 
HETATM    2  C   UNL     2      -6.014  11.822  66.987  1.00  0.00    -0.153 C  
HETATM    3  C   UNL     2      -6.185  10.458  67.639  1.00  0.00    -0.056 C  
ENDROOT
BRANCH   3   4
HETATM    4  C   UNL     2      -7.118  10.540  68.845  1.00  0.00    -0.074 C  
BRANCH   4   5
HETATM    5  C   UNL     2      -8.249   9.507  68.829  1.00  0.00    -0.112 C  
HETATM    6  C   UNL     2      -9.685  10.061  69.001  1.00  0.00    -0.204 C  
HETATM    7  C   UNL     2     -10.048  11.173  67.991  1.00  0.00    -0.191 C  
HETATM    8  C   UNL     2     -10.738   8.927  68.938  1.00  0.00    -0.132 C  
HETATM    9  C   UNL     2     -10.127  10.735  66.534  1.00  0.00    -0.277 C  
BRANCH   8  10
HETATM   10  C   UNL     2     -10.568   7.817  69.975  1.00  0.00    -0.238 C  
BRANCH  10  11
HETATM   11  C   UNL     2     -10.496   6.368  69.444  1.00  0.00    -0.228 C  
BRANCH  11  12
HETATM   12  C   UNL     2      -9.073   6.044  68.928  1.00  0.00    -0.121 C  
HETATM   13  C   UNL     2      -9.593   3.837  67.723  1.00  0.00    -0.193 C  
HETATM   14  C   UNL     2      -8.734   4.544  68.774  1.00  0.00    -0.116 C  
HETATM   15  C   UNL     2      -7.256   4.391  68.382  1.00  0.00    -0.060 C  
ENDBRANCH  11  12
BRANCH  11  16
HETATM   16  O   UNL     2     -10.803   5.467  70.505  1.00  0.00    -0.269 OA 
HETATM   17  O   UNL     2     -11.538   7.291  71.954  1.00  0.00    -0.262 OA 
HETATM   18  O   UNL     2     -11.589   4.974  72.755  1.00  0.00    -0.220 OA 
HETATM   19  S   UNL     2     -10.845   6.011  72.046  1.00  0.00    -0.264 S  
HETATM   20  O   UNL     2      -9.445   6.131  72.431  1.00  0.00    -0.149 OA 
ENDBRANCH  11  16
ENDBRANCH  10  11
ENDBRANCH   8  10
ENDBRANCH   4   5
ENDBRANCH   3   4
TORSDOF 6
ENDMDL
MODEL      410
REMARK 921   NORMALIZED FREE ENERGY PREDICTED BY IDOCK:   -1.27 KCAL/MOL
REMARK 922        TOTAL FREE ENERGY PREDICTED BY IDOCK:   -2.93 KCAL/MOL
REMARK 923 INTER-LIGAND FREE ENERGY PREDICTED BY IDOCK:   -2.54 KCAL/MOL
REMARK 924 INTRA-LIGAND FREE ENERGY PREDICTED BY IDOCK:   -0.38 KCAL/MOL
REMARK 927      BINDING AFFINITY PREDICTED BY RF-SCORE:    0.00 PKD
ROOT
HETATM    1 NA   UNL     1      -7.312   7.401  73.072  1.00  0.00    -0.069 Na 
HETATM    2  C   UNL     2      -5.554   4.257  73.988  1.00  0.00    -0.008 C  
HETATM    3  C   UNL     2      -6.880   3.685  74.468  1.00  0.00    -0.050 C  
ENDROOT
BRANCH   3   4
HETATM    4  C   UNL     2      -8.033   4.637  74.153  1.00  0.00    -0.100 C  
BRANCH   4   5
HETATM    5  C   UNL     2      -8.316   4.800  72.656  1.00  0.00    -0.112 C  
HETATM    6  C   UNL     2      -8.006   3.573  71.763  1.00  0.00    -0.062 C  
HETATM    7  C   UNL     2      -8.693   2.271  72.234  1.00  0.00    -0.087 C  
HETATM    8  C   UNL     2      -8.361   3.851  70.282  1.00  0.00    -0.083 C  
HETATM    9  C   UNL     2     -10.214   2.263  72.143  1.00  0.00    -0.189 C  
BRANCH   8  10
HETATM   10  C   UNL     2      -7.647   5.046  69.650  1.00  0.00    -0.057 C  
BRANCH  10  11
HETATM   11  C   UNL     2      -8.325   6.426  69.799  1.00  0.00    -0.127 C  
BRANCH  11  12
HETATM   12  C   UNL     2      -9.742   6.276  70.405  1.00  0.00    -0.189 C  
HETATM   13  C   UNL     2     -11.091   6.221  68.221  1.00  0.00    -0.364 C  
HETATM   14  C   UNL     2     -10.898   6.890  69.584  1.00  0.00    -0.294 C  
HETATM   15  C   UNL     2     -12.209   6.773  70.377  1.00  0.00    -0.180 C  
ENDBRANCH  11  12
BRANCH  11  16
HETATM   16  O   UNL     2      -7.547   7.235  70.677  1.00  0.00    -0.088 OA 
HETATM   17  O   UNL     2      -8.342   9.290  69.623  1.00  0.00    -0.120 OA 
HETATM   18  O   UNL     2      -6.751   9.388  71.486  1.00  0.00    -0.277 OA 
HETATM   19  S   UNL     2      -7.129   8.751  70.229  1.00  0.00    -0.050 S  
HETATM   20  O   UNL     2      -6.036   8.566  69.284  1.00  0.00    -0.040 OA 
ENDBRANCH  11  16
ENDBRANCH  10  11
ENDBRANCH   8  10
ENDBRANCH   4   5
ENDBRANCH   3   4
TORSDOF 6
ENDMDL
MODEL      411
REMARK 921   NORMALIZED FREE ENERGY PREDICTED BY IDOCK:   -1.25 KCAL/MOL
REMARK 922        TOTAL FREE ENERGY PREDICTED BY IDOCK:   -2.90 KCAL/MOL
REMARK 923 INTER-LIGAND FREE ENERGY PREDICTED BY IDOCK:   -2.29 KCAL/MOL
REMARK 924 INTRA-LIGAND FREE ENERGY PREDICTED BY IDOCK:   -0.61 KCAL/MOL
REMARK 927      BINDING AFFINITY PREDICTED BY RF-SCORE:    0.00 PKD
ROOT
HETATM    1 NA   UNL     1      -7.626   9.998  63.645  1.00  0.00    -0.114 Na 
HETATM    2  C   UNL     2      -7.905   6.296  63.462  1.00  0.00    -0.113 C  
HETATM    3  C   UNL     2      -6.631   6.185  64.289  1.00  0.00    -0.034 C  
ENDROOT
BRANCH   3   4
HETATM    4  C   UNL     2      -6.164   7.560  64.762  1.00  0.00    -0.038 C  
BRANCH   4   5
HETATM    5  C   UNL     2      -6.748   7.986  66.113  1.00  0.00    -0.054 C  
HETATM    6  C   UNL     2      -5.798   8.765  67.055  1.00  0.00    -0.046 C  
HETATM    7  C   UNL     2      -5.159  10.011  66.403  1.00  0.00    -0.039 C  
HETATM    8  C   UNL     2      -6.511   9.163  68.370  1.00  0.00    -0.055 C  
HETATM    9  C   UNL     2      -6.127  11.134  66.049  1.00  0.00    -0.047 C  
BRANCH   8  10
HETATM   10  C   UNL     2      -7.083   8.002  69.184  1.00  0.00    -0.068 C  
BRANCH  10  11
HETATM   11  C   UNL     2      -8.606   7.764  69.088  1.00  0.00    -0.138 C  
BRANCH  11  12
HETATM   12  C   UNL     2      -9.192   8.466  67.840  1.00  0.00    -0.144 C  
HETATM   13  C   UNL     2      -9.601  10.787  68.860  1.00  0.00    -0.204 C  
HETATM   14  C   UNL     2     -10.209   9.597  68.114  1.00  0.00    -0.225 C  
HETATM   15  C   UNL     2     -10.789  10.098  66.782  1.00  0.00    -0.129 C  
ENDBRANCH  11  12
BRANCH  11  16
HETATM   16  O   UNL     2      -8.851   6.365  68.971  1.00  0.00    -0.129 OA 
HETATM   17  O   UNL     2     -10.500   6.417  70.772  1.00  0.00    -0.209 OA 
HETATM   18  O   UNL     2      -9.971   4.309  69.637  1.00  0.00    -0.214 OA 
HETATM   19  S   UNL     2      -9.464   5.537  70.241  1.00  0.00    -0.172 S  
HETATM   20  O   UNL     2      -8.334   5.356  71.141  1.00  0.00    -0.119 OA 
ENDBRANCH  11  16
ENDBRANCH  10  11
ENDBRANCH   8  10
ENDBRANCH   4   5
ENDBRANCH   3   4
TORSDOF 6
ENDMDL
MODEL      412
REMARK 921   NORMALIZED FREE ENERGY PREDICTED BY IDOCK:   -1.22 KCAL/MOL
REMARK 922        TOTAL FREE ENERGY PREDICTED BY IDOCK:   -2.86 KCAL/MOL
REMARK 923 INTER-LIGAND FREE ENERGY PREDICTED BY IDOCK:   -3.22 KCAL/MOL
REMARK 924 INTRA-LIGAND FREE ENERGY PREDICTED BY IDOCK:    0.36 KCAL/MOL
REMARK 927      BINDING AFFINITY PREDICTED BY RF-SCORE:    0.00 PKD
ROOT
HETATM    1 NA   UNL     1      -9.327  14.660  67.991  1.00  0.00    -0.172 Na 
HETATM    2  C   UNL     2      -5.842  13.392  68.225  1.00  0.00    -0.097 C  
HETATM    3  C   UNL     2      -6.321  12.049  67.691  1.00  0.00    -0.099 C  
ENDROOT
BRANCH   3   4
HETATM    4  C   UNL     2      -7.792  12.115  67.285  1.00  0.00    -0.176 C  
BRANCH   4   5
HETATM    5  C   UNL     2      -8.491  10.752  67.250  1.00  0.00    -0.124 C  
HETATM    6  C   UNL     2      -9.925  10.733  66.666  1.00  0.00    -0.251 C  
HETATM    7  C   UNL     2     -10.031  11.353  65.255  1.00  0.00    -0.303 C  
HETATM    8  C   UNL     2     -10.510   9.299  66.658  1.00  0.00    -0.237 C  
HETATM    9  C   UNL     2      -9.306  10.595  64.150  1.00  0.00    -0.297 C  
BRANCH   8  10
HETATM   10  C   UNL     2     -10.582   8.613  68.022  1.00  0.00    -0.205 C  
BRANCH  10  11
HETATM   11  C   UNL     2      -9.903   7.231  68.147  1.00  0.00    -0.149 C  
BRANCH  11  12
HETATM   12  C   UNL     2      -8.365   7.365  68.044  1.00  0.00    -0.124 C  
HETATM   13  C   UNL     2      -8.126   7.132  65.498  1.00  0.00    -0.135 C  
HETATM   14  C   UNL     2      -7.696   6.613  66.872  1.00  0.00    -0.106 C  
HETATM   15  C   UNL     2      -6.169   6.739  66.987  1.00  0.00    -0.037 C  
ENDBRANCH  11  12
BRANCH  11  16
HETATM   16  O   UNL     2     -10.219   6.669  69.418  1.00  0.00    -0.171 OA 
HETATM   17  O   UNL     2      -8.462   7.960  70.519  1.00  0.00    -0.122 OA 
HETATM   18  O   UNL     2      -9.869   6.424  71.814  1.00  0.00    -0.164 OA 
HETATM   19  S   UNL     2      -9.090   6.645  70.599  1.00  0.00    -0.155 S  
HETATM   20  O   UNL     2      -8.201   5.551  70.235  1.00  0.00    -0.099 OA 
ENDBRANCH  11  16
ENDBRANCH  10  11
ENDBRANCH   8  10
ENDBRANCH   4   5
ENDBRANCH   3   4
TORSDOF 6
ENDMDL
MODEL      413
REMARK 921   NORMALIZED FREE ENERGY PREDICTED BY IDOCK:   -1.03 KCAL/MOL
REMARK 922        TOTAL FREE ENERGY PREDICTED BY IDOCK:   -2.60 KCAL/MOL
REMARK 923 INTER-LIGAND FREE ENERGY PREDICTED BY IDOCK:   -2.34 KCAL/MOL
REMARK 924 INTRA-LIGAND FREE ENERGY PREDICTED BY IDOCK:   -0.26 KCAL/MOL
REMARK 927      BINDING AFFINITY PREDICTED BY RF-SCORE:    0.00 PKD
ROOT
HETATM    1 NA   UNL     1      -7.313   7.396  73.079  1.00  0.00    -0.069 Na 
HETATM    2  C   UNL     2      -5.456   4.313  74.008  1.00  0.00    -0.008 C  
HETATM    3  C   UNL     2      -6.754   3.721  74.536  1.00  0.00    -0.042 C  
ENDROOT
BRANCH   3   4
HETATM    4  C   UNL     2      -7.938   4.639  74.235  1.00  0.00    -0.100 C  
BRANCH   4   5
HETATM    5  C   UNL     2      -8.299   4.723  72.748  1.00  0.00    -0.111 C  
HETATM    6  C   UNL     2      -8.031   3.451  71.906  1.00  0.00    -0.062 C  
HETATM    7  C   UNL     2      -8.686   2.175  72.480  1.00  0.00    -0.074 C  
HETATM    8  C   UNL     2      -8.463   3.650  70.433  1.00  0.00    -0.091 C  
HETATM    9  C   UNL     2     -10.210   2.159  72.469  1.00  0.00    -0.227 C  
BRANCH   8  10
HETATM   10  C   UNL     2      -7.788   4.812  69.703  1.00  0.00    -0.066 C  
BRANCH  10  11
HETATM   11  C   UNL     2      -8.518   6.173  69.728  1.00  0.00    -0.128 C  
BRANCH  11  12
HETATM   12  C   UNL     2      -8.024   7.080  68.576  1.00  0.00    -0.123 C  
HETATM   13  C   UNL     2      -6.232   8.395  69.863  1.00  0.00    -0.032 C  
HETATM   14  C   UNL     2      -7.488   8.469  68.990  1.00  0.00    -0.089 C  
HETATM   15  C   UNL     2      -7.162   9.289  67.732  1.00  0.00    -0.083 C  
ENDBRANCH  11  12
BRANCH  11  16
HETATM   16  O   UNL     2      -9.916   5.955  69.557  1.00  0.00    -0.165 OA 
HETATM   17  O   UNL     2     -10.469   8.016  70.745  1.00  0.00    -0.203 OA 
HETATM   18  O   UNL     2     -12.249   6.579  69.861  1.00  0.00    -0.097 OA 
HETATM   19  S   UNL     2     -10.980   6.659  70.579  1.00  0.00    -0.310 S  
HETATM   20  O   UNL     2     -10.911   5.856  71.792  1.00  0.00    -0.255 OA 
ENDBRANCH  11  16
ENDBRANCH  10  11
ENDBRANCH   8  10
ENDBRANCH   4   5
ENDBRANCH   3   4
TORSDOF 6
ENDMDL
MODEL      414
REMARK 921   NORMALIZED FREE ENERGY PREDICTED BY IDOCK:   -1.02 KCAL/MOL
REMARK 922        TOTAL FREE ENERGY PREDICTED BY IDOCK:   -2.58 KCAL/MOL
REMARK 923 INTER-LIGAND FREE ENERGY PREDICTED BY IDOCK:   -5.30 KCAL/MOL
REMARK 924 INTRA-LIGAND FREE ENERGY PREDICTED BY IDOCK:    2.73 KCAL/MOL
REMARK 927      BINDING AFFINITY PREDICTED BY RF-SCORE:    0.00 PKD
ROOT
HETATM    1 NA   UNL     1     -13.694   9.643  69.904  1.00  0.00    -0.534 Na 
HETATM    2  C   UNL     2     -11.095   8.407  72.256  1.00  0.00    -0.438 C  
HETATM    3  C   UNL     2     -10.272   7.942  71.063  1.00  0.00    -0.217 C  
ENDROOT
BRANCH   3   4
HETATM    4  C   UNL     2     -10.917   8.380  69.749  1.00  0.00    -0.130 C  
BRANCH   4   5
HETATM    5  C   UNL     2     -10.034   9.298  68.898  1.00  0.00    -0.190 C  
HETATM    6  C   UNL     2      -9.055  10.216  69.670  1.00  0.00    -0.195 C  
HETATM    7  C   UNL     2      -8.136   9.457  70.655  1.00  0.00    -0.197 C  
HETATM    8  C   UNL     2      -8.201  11.071  68.703  1.00  0.00    -0.151 C  
HETATM    9  C   UNL     2      -7.129   8.511  70.013  1.00  0.00    -0.046 C  
BRANCH   8  10
HETATM   10  C   UNL     2      -8.991  11.971  67.753  1.00  0.00    -0.176 C  
BRANCH  10  11
HETATM   11  C   UNL     2     -10.282  12.613  68.308  1.00  0.00    -0.239 C  
BRANCH  11  12
HETATM   12  C   UNL     2     -10.135  14.152  68.392  1.00  0.00    -0.238 C  
HETATM   13  C   UNL     2      -7.661  14.340  67.729  1.00  0.00    -0.172 C  
HETATM   14  C   UNL     2      -8.732  14.679  68.769  1.00  0.00    -0.166 C  
HETATM   15  C   UNL     2      -8.786  16.205  68.938  1.00  0.00    -0.248 C  
ENDBRANCH  11  12
BRANCH  11  16
HETATM   16  O   UNL     2     -11.365  12.314  67.431  1.00  0.00    -0.283 OA 
HETATM   17  O   UNL     2     -10.302  13.500  65.579  1.00  0.00    -0.285 OA 
HETATM   18  O   UNL     2     -12.487  12.429  65.274  1.00  0.00    -0.611 OA 
HETATM   19  S   UNL     2     -11.634  13.256  66.122  1.00  0.00    -0.366 S  
HETATM   20  O   UNL     2     -12.275  14.450  66.654  1.00  0.00    -0.424 OA 
ENDBRANCH  11  16
ENDBRANCH  10  11
ENDBRANCH   8  10
ENDBRANCH   4   5
ENDBRANCH   3   4
TORSDOF 6
ENDMDL
MODEL      415
REMARK 921   NORMALIZED FREE ENERGY PREDICTED BY IDOCK:   -0.95 KCAL/MOL
REMARK 922        TOTAL FREE ENERGY PREDICTED BY IDOCK:   -2.49 KCAL/MOL
REMARK 923 INTER-LIGAND FREE ENERGY PREDICTED BY IDOCK:   -1.92 KCAL/MOL
REMARK 924 INTRA-LIGAND FREE ENERGY PREDICTED BY IDOCK:   -0.57 KCAL/MOL
REMARK 927      BINDING AFFINITY PREDICTED BY RF-SCORE:    0.00 PKD
ROOT
HETATM    1 NA   UNL     1      -7.612   9.906  63.617  1.00  0.00    -0.108 Na 
HETATM    2  C   UNL     2      -7.464   6.338  62.589  1.00  0.00    -0.065 C  
HETATM    3  C   UNL     2      -6.193   6.179  63.411  1.00  0.00    -0.022 C  
ENDROOT
BRANCH   3   4
HETATM    4  C   UNL     2      -5.890   7.451  64.201  1.00  0.00    -0.037 C  
BRANCH   4   5
HETATM    5  C   UNL     2      -6.473   7.459  65.617  1.00  0.00    -0.045 C  
HETATM    6  C   UNL     2      -5.638   8.189  66.698  1.00  0.00    -0.032 C  
HETATM    7  C   UNL     2      -5.276   9.645  66.328  1.00  0.00    -0.039 C  
HETATM    8  C   UNL     2      -6.344   8.154  68.075  1.00  0.00    -0.055 C  
HETATM    9  C   UNL     2      -6.453  10.609  66.237  1.00  0.00    -0.126 C  
BRANCH   8  10
HETATM   10  C   UNL     2      -6.647   6.758  68.621  1.00  0.00    -0.051 C  
BRANCH  10  11
HETATM   11  C   UNL     2      -8.117   6.287  68.562  1.00  0.00    -0.109 C  
BRANCH  11  12
HETATM   12  C   UNL     2      -8.194   4.743  68.480  1.00  0.00    -0.083 C  
HETATM   13  C   UNL     2      -7.168   4.429  66.147  1.00  0.00    -0.076 C  
HETATM   14  C   UNL     2      -8.361   4.148  67.064  1.00  0.00    -0.100 C  
HETATM   15  C   UNL     2      -8.551   2.627  67.167  1.00  0.00    -0.120 C  
ENDBRANCH  11  12
BRANCH  11  16
HETATM   16  O   UNL     2      -8.789   6.706  69.747  1.00  0.00    -0.142 OA 
HETATM   17  O   UNL     2     -10.676   7.582  68.469  1.00  0.00    -0.170 OA 
HETATM   18  O   UNL     2     -10.655   7.744  70.915  1.00  0.00    -0.210 OA 
HETATM   19  S   UNL     2      -9.909   7.895  69.670  1.00  0.00    -0.182 S  
HETATM   20  O   UNL     2      -9.135   9.123  69.565  1.00  0.00    -0.144 OA 
ENDBRANCH  11  16
ENDBRANCH  10  11
ENDBRANCH   8  10
ENDBRANCH   4   5
ENDBRANCH   3   4
TORSDOF 6
ENDMDL
MODEL      416
REMARK 921   NORMALIZED FREE ENERGY PREDICTED BY IDOCK:   -0.80 KCAL/MOL
REMARK 922        TOTAL FREE ENERGY PREDICTED BY IDOCK:   -2.28 KCAL/MOL
REMARK 923 INTER-LIGAND FREE ENERGY PREDICTED BY IDOCK:   -4.46 KCAL/MOL
REMARK 924 INTRA-LIGAND FREE ENERGY PREDICTED BY IDOCK:    2.18 KCAL/MOL
REMARK 927      BINDING AFFINITY PREDICTED BY RF-SCORE:    0.00 PKD
ROOT
HETATM    1 NA   UNL     1     -13.769   9.807  69.922  1.00  0.00    -0.592 Na 
HETATM    2  C   UNL     2     -10.776   8.898  71.929  1.00  0.00    -0.426 C  
HETATM    3  C   UNL     2     -10.110   8.389  70.658  1.00  0.00    -0.220 C  
ENDROOT
BRANCH   3   4
HETATM    4  C   UNL     2     -10.968   8.691  69.432  1.00  0.00    -0.034 C  
BRANCH   4   5
HETATM    5  C   UNL     2     -10.447   9.850  68.576  1.00  0.00    -0.232 C  
HETATM    6  C   UNL     2      -9.191  10.583  69.107  1.00  0.00    -0.183 C  
HETATM    7  C   UNL     2      -8.001   9.643  69.404  1.00  0.00    -0.111 C  
HETATM    8  C   UNL     2      -8.746  11.710  68.143  1.00  0.00    -0.159 C  
HETATM    9  C   UNL     2      -7.388   8.958  68.188  1.00  0.00    -0.084 C  
BRANCH   8  10
HETATM   10  C   UNL     2      -9.797  12.785  67.863  1.00  0.00    -0.223 C  
BRANCH  10  11
HETATM   11  C   UNL     2      -9.506  13.761  66.701  1.00  0.00    -0.279 C  
BRANCH  11  12
HETATM   12  C   UNL     2     -10.481  13.515  65.524  1.00  0.00    -0.304 C  
HETATM   13  C   UNL     2     -12.285  12.195  66.786  1.00  0.00     0.318 C  
HETATM   14  C   UNL     2     -11.321  12.220  65.599  1.00  0.00    -0.394 C  
HETATM   15  C   UNL     2     -12.133  12.061  64.304  1.00  0.00    -0.414 C  
ENDBRANCH  11  12
BRANCH  11  16
HETATM   16  O   UNL     2      -9.686  15.098  67.160  1.00  0.00    -0.223 OA 
HETATM   17  O   UNL     2     -10.396  14.334  69.369  1.00  0.00    -0.121 OA 
HETATM   18  O   UNL     2     -10.293  16.731  68.860  1.00  0.00    -0.276 OA 
HETATM   19  S   UNL     2     -10.690  15.399  68.415  1.00  0.00    -0.266 S  
HETATM   20  O   UNL     2     -12.027  15.317  67.844  1.00  0.00    -0.234 OA 
ENDBRANCH  11  16
ENDBRANCH  10  11
ENDBRANCH   8  10
ENDBRANCH   4   5
ENDBRANCH   3   4
TORSDOF 6
ENDMDL
MODEL      417
REMARK 921   NORMALIZED FREE ENERGY PREDICTED BY IDOCK:   -0.36 KCAL/MOL
REMARK 922        TOTAL FREE ENERGY PREDICTED BY IDOCK:   -1.69 KCAL/MOL
REMARK 923 INTER-LIGAND FREE ENERGY PREDICTED BY IDOCK:   -1.43 KCAL/MOL
REMARK 924 INTRA-LIGAND FREE ENERGY PREDICTED BY IDOCK:   -0.26 KCAL/MOL
REMARK 927      BINDING AFFINITY PREDICTED BY RF-SCORE:    0.00 PKD
ROOT
HETATM    1 NA   UNL     1      -7.303   7.435  73.106  1.00  0.00    -0.070 Na 
HETATM    2  C   UNL     2      -5.270   4.447  73.974  1.00  0.00    -0.008 C  
HETATM    3  C   UNL     2      -6.552   3.711  74.336  1.00  0.00    -0.040 C  
ENDROOT
BRANCH   3   4
HETATM    4  C   UNL     2      -7.781   4.552  73.996  1.00  0.00    -0.089 C  
BRANCH   4   5
HETATM    5  C   UNL     2      -7.933   4.858  72.502  1.00  0.00    -0.094 C  
HETATM    6  C   UNL     2      -7.435   3.764  71.525  1.00  0.00    -0.052 C  
HETATM    7  C   UNL     2      -8.047   2.370  71.787  1.00  0.00    -0.052 C  
HETATM    8  C   UNL     2      -7.669   4.176  70.052  1.00  0.00    -0.052 C  
HETATM    9  C   UNL     2      -9.546   2.256  71.537  1.00  0.00    -0.214 C  
BRANCH   8  10
HETATM   10  C   UNL     2      -7.005   5.485  69.623  1.00  0.00    -0.062 C  
BRANCH  10  11
HETATM   11  C   UNL     2      -7.080   5.850  68.124  1.00  0.00    -0.078 C  
BRANCH  11  12
HETATM   12  C   UNL     2      -6.058   6.960  67.779  1.00  0.00    -0.033 C  
HETATM   13  C   UNL     2      -7.131   8.892  69.087  1.00  0.00    -0.063 C  
HETATM   14  C   UNL     2      -6.614   8.401  67.732  1.00  0.00    -0.062 C  
HETATM   15  C   UNL     2      -5.512   9.360  67.253  1.00  0.00    -0.040 C  
ENDBRANCH  11  12
BRANCH  11  16
HETATM   16  O   UNL     2      -6.767   4.697  67.348  1.00  0.00    -0.049 OA 
HETATM   17  O   UNL     2      -8.128   5.483  65.478  1.00  0.00    -0.109 OA 
HETATM   18  O   UNL     2      -6.940   3.342  65.333  1.00  0.00    -0.054 OA 
HETATM   19  S   UNL     2      -7.768   4.233  66.140  1.00  0.00    -0.091 S  
HETATM   20  O   UNL     2      -8.884   3.587  66.816  1.00  0.00    -0.117 OA 
ENDBRANCH  11  16
ENDBRANCH  10  11
ENDBRANCH   8  10
ENDBRANCH   4   5
ENDBRANCH   3   4
TORSDOF 6
ENDMDL
MODEL      418
REMARK 921   NORMALIZED FREE ENERGY PREDICTED BY IDOCK:    0.32 KCAL/MOL
REMARK 922        TOTAL FREE ENERGY PREDICTED BY IDOCK:   -0.77 KCAL/MOL
REMARK 923 INTER-LIGAND FREE ENERGY PREDICTED BY IDOCK:   -0.51 KCAL/MOL
REMARK 924 INTRA-LIGAND FREE ENERGY PREDICTED BY IDOCK:   -0.26 KCAL/MOL
REMARK 927      BINDING AFFINITY PREDICTED BY RF-SCORE:    0.00 PKD
ROOT
HETATM    1 NA   UNL     1      -6.073  12.615  67.242  1.00  0.00    -0.087 Na 
HETATM    2  C   UNL     2      -8.834  10.133  67.417  1.00  0.00    -0.135 C  
HETATM    3  C   UNL     2      -9.681  11.052  66.548  1.00  0.00    -0.230 C  
ENDROOT
BRANCH   3   4
HETATM    4  C   UNL     2      -8.868  12.252  66.065  1.00  0.00     0.146 C  
BRANCH   4   5
HETATM    5  C   UNL     2      -9.351  13.596  66.619  1.00  0.00    -0.265 C  
HETATM    6  C   UNL     2      -9.901  14.607  65.583  1.00  0.00    -0.354 C  
HETATM    7  C   UNL     2     -11.023  14.033  64.689  1.00  0.00    -0.401 C  
HETATM    8  C   UNL     2     -10.383  15.909  66.267  1.00  0.00    -0.324 C  
HETATM    9  C   UNL     2     -12.322  13.690  65.408  1.00  0.00    -0.510 C  
BRANCH   8  10
HETATM   10  C   UNL     2      -9.326  16.650  67.086  1.00  0.00    -0.236 C  
BRANCH  10  11
HETATM   11  C   UNL     2      -9.591  18.142  67.384  1.00  0.00    -0.275 C  
BRANCH  11  12
HETATM   12  C   UNL     2     -10.235  18.315  68.781  1.00  0.00    -0.342 C  
HETATM   13  C   UNL     2     -10.376  20.879  68.825  1.00  0.00     0.567 C  
HETATM   14  C   UNL     2      -9.879  19.617  69.534  1.00  0.00    -0.122 C  
HETATM   15  C   UNL     2     -10.487  19.575  70.944  1.00  0.00     2.148 C  
ENDBRANCH  11  12
BRANCH  11  16
HETATM   16  O   UNL     2      -8.352  18.846  67.372  1.00  0.00    -0.271 OA 
HETATM   17  O   UNL     2      -8.535  19.298  64.979  1.00  0.00     0.874 OA 
HETATM   18  O   UNL     2      -6.591  20.093  66.245  1.00  0.00    -0.201 OA 
HETATM   19  S   UNL     2      -7.514  18.994  65.976  1.00  0.00    -0.221 S  
HETATM   20  O   UNL     2      -6.882  17.696  65.788  1.00  0.00    -0.274 OA 
ENDBRANCH  11  16
ENDBRANCH  10  11
ENDBRANCH   8  10
ENDBRANCH   4   5
ENDBRANCH   3   4
TORSDOF 6
ENDMDL
MODEL      419
REMARK 921   NORMALIZED FREE ENERGY PREDICTED BY IDOCK:    0.33 KCAL/MOL
REMARK 922        TOTAL FREE ENERGY PREDICTED BY IDOCK:   -0.76 KCAL/MOL
REMARK 923 INTER-LIGAND FREE ENERGY PREDICTED BY IDOCK:   -2.66 KCAL/MOL
REMARK 924 INTRA-LIGAND FREE ENERGY PREDICTED BY IDOCK:    1.90 KCAL/MOL
REMARK 927      BINDING AFFINITY PREDICTED BY RF-SCORE:    0.00 PKD
ROOT
HETATM    1 NA   UNL     1      -8.289  11.105  70.230  1.00  0.00    -0.308 Na 
HETATM    2  C   UNL     2     -11.716  11.801  68.969  1.00  0.00    -0.390 C  
HETATM    3  C   UNL     2     -11.725  10.427  68.313  1.00  0.00     0.047 C  
ENDROOT
BRANCH   3   4
HETATM    4  C   UNL     2     -10.475   9.633  68.687  1.00  0.00    -0.235 C  
BRANCH   4   5
HETATM    5  C   UNL     2      -9.809   8.925  67.502  1.00  0.00    -0.237 C  
HETATM    6  C   UNL     2      -8.384   8.371  67.749  1.00  0.00    -0.130 C  
HETATM    7  C   UNL     2      -8.284   7.436  68.976  1.00  0.00    -0.128 C  
HETATM    8  C   UNL     2      -7.833   7.655  66.492  1.00  0.00    -0.105 C  
HETATM    9  C   UNL     2      -9.042   6.119  68.859  1.00  0.00    -0.123 C  
BRANCH   8  10
HETATM   10  C   UNL     2      -7.759   8.512  65.229  1.00  0.00    -0.097 C  
BRANCH  10  11
HETATM   11  C   UNL     2      -7.749  10.045  65.423  1.00  0.00    -0.137 C  
BRANCH  11  12
HETATM   12  C   UNL     2      -9.026  10.680  64.823  1.00  0.00    -0.218 C  
HETATM   13  C   UNL     2      -8.407  10.516  62.336  1.00  0.00    -0.239 C  
HETATM   14  C   UNL     2      -8.845  11.430  63.483  1.00  0.00     0.164 C  
HETATM   15  C   UNL     2     -10.168  12.107  63.092  1.00  0.00    -0.190 C  
ENDBRANCH  11  12
BRANCH  11  16
HETATM   16  O   UNL     2      -7.716  10.337  66.817  1.00  0.00    -0.106 OA 
HETATM   17  O   UNL     2      -6.231  12.245  66.468  1.00  0.00    -0.026 OA 
HETATM   18  O   UNL     2      -6.973  11.648  68.728  1.00  0.00    -0.084 OA 
HETATM   19  S   UNL     2      -6.464  11.183  67.441  1.00  0.00    -0.079 S  
HETATM   20  O   UNL     2      -5.376  10.220  67.526  1.00  0.00    -0.041 OA 
ENDBRANCH  11  16
ENDBRANCH  10  11
ENDBRANCH   8  10
ENDBRANCH   4   5
ENDBRANCH   3   4
TORSDOF 6
ENDMDL
MODEL      420
REMARK 921   NORMALIZED FREE ENERGY PREDICTED BY IDOCK:    3.93 KCAL/MOL
REMARK 922        TOTAL FREE ENERGY PREDICTED BY IDOCK:    4.11 KCAL/MOL
REMARK 923 INTER-LIGAND FREE ENERGY PREDICTED BY IDOCK:    3.29 KCAL/MOL
REMARK 924 INTRA-LIGAND FREE ENERGY PREDICTED BY IDOCK:    0.82 KCAL/MOL
REMARK 927      BINDING AFFINITY PREDICTED BY RF-SCORE:    0.00 PKD
ROOT
HETATM    1 NA   UNL     1     -12.188  16.956  71.532  1.00  0.00    -0.594 Na 
HETATM    2  C   UNL     2      -8.632  15.876  71.560  1.00  0.00     5.914 C  
HETATM    3  C   UNL     2      -8.708  15.672  70.054  1.00  0.00     0.451 C  
ENDROOT
BRANCH   3   4
HETATM    4  C   UNL     2     -10.051  16.149  69.504  1.00  0.00    -0.241 C  
BRANCH   4   5
HETATM    5  C   UNL     2     -10.857  15.057  68.794  1.00  0.00    -0.249 C  
HETATM    6  C   UNL     2     -11.182  13.794  69.629  1.00  0.00    -0.175 C  
HETATM    7  C   UNL     2     -11.880  14.099  70.974  1.00  0.00    -0.255 C  
HETATM    8  C   UNL     2     -12.022  12.781  68.815  1.00  0.00    -0.278 C  
HETATM    9  C   UNL     2     -13.282  14.687  70.865  1.00  0.00    -0.392 C  
BRANCH   8  10
HETATM   10  C   UNL     2     -11.384  12.295  67.513  1.00  0.00    -0.388 C  
BRANCH  10  11
HETATM   11  C   UNL     2     -10.591  10.971  67.574  1.00  0.00    -0.227 C  
BRANCH  11  12
HETATM   12  C   UNL     2      -9.348  11.118  68.485  1.00  0.00    -0.190 C  
HETATM   13  C   UNL     2      -7.720  12.098  66.757  1.00  0.00     0.027 C  
HETATM   14  C   UNL     2      -7.977  10.992  67.784  1.00  0.00    -0.115 C  
HETATM   15  C   UNL     2      -6.858  11.031  68.836  1.00  0.00    -0.079 C  
ENDBRANCH  11  12
BRANCH  11  16
HETATM   16  O   UNL     2     -11.427   9.953  68.120  1.00  0.00    -0.072 OA 
HETATM   17  O   UNL     2      -9.929   9.625  70.021  1.00  0.00    -0.216 OA 
HETATM   18  O   UNL     2     -11.969   8.282  69.804  1.00  0.00     0.538 OA 
HETATM   19  S   UNL     2     -10.796   8.845  69.144  1.00  0.00     0.009 S  
HETATM   20  O   UNL     2     -10.074   7.919  68.283  1.00  0.00    -0.182 OA 
ENDBRANCH  11  16
ENDBRANCH  10  11
ENDBRANCH   8  10
ENDBRANCH   4   5
ENDBRANCH   3   4
TORSDOF 6
ENDMDL
MODEL      421
REMARK 921   NORMALIZED FREE ENERGY PREDICTED BY IDOCK:    5.57 KCAL/MOL
REMARK 922        TOTAL FREE ENERGY PREDICTED BY IDOCK:    6.32 KCAL/MOL
REMARK 923 INTER-LIGAND FREE ENERGY PREDICTED BY IDOCK:    6.39 KCAL/MOL
REMARK 924 INTRA-LIGAND FREE ENERGY PREDICTED BY IDOCK:   -0.07 KCAL/MOL
REMARK 927      BINDING AFFINITY PREDICTED BY RF-SCORE:    0.00 PKD
ROOT
HETATM    1 NA   UNL     1      -9.196   5.765  66.917  1.00  0.00    -0.119 Na 
HETATM    2  C   UNL     2     -12.373   7.221  68.182  1.00  0.00     4.323 C  
HETATM    3  C   UNL     2     -11.752   8.606  68.073  1.00  0.00     2.173 C  
ENDROOT
BRANCH   3   4
HETATM    4  C   UNL     2     -10.373   8.538  67.418  1.00  0.00    -0.356 C  
BRANCH   4   5
HETATM    5  C   UNL     2      -9.287   9.314  68.171  1.00  0.00    -0.143 C  
HETATM    6  C   UNL     2      -9.466   9.428  69.705  1.00  0.00    -0.200 C  
HETATM    7  C   UNL     2      -9.652   8.067  70.413  1.00  0.00    -0.174 C  
HETATM    8  C   UNL     2      -8.294  10.205  70.352  1.00  0.00     0.368 C  
HETATM    9  C   UNL     2      -8.443   7.139  70.376  1.00  0.00    -0.140 C  
BRANCH   8  10
HETATM   10  C   UNL     2      -8.079  11.625  69.828  1.00  0.00     1.246 C  
BRANCH  10  11
HETATM   11  C   UNL     2      -6.784  11.887  69.027  1.00  0.00    -0.099 C  
BRANCH  11  12
HETATM   12  C   UNL     2      -6.442  10.673  68.129  1.00  0.00    -0.062 C  
HETATM   13  C   UNL     2      -5.238  11.923  66.236  1.00  0.00     0.352 C  
HETATM   14  C   UNL     2      -6.362  10.955  66.612  1.00  0.00    -0.113 C  
HETATM   15  C   UNL     2      -6.145   9.635  65.856  1.00  0.00    -0.068 C  
ENDBRANCH  11  12
BRANCH  11  16
HETATM   16  O   UNL     2      -6.977  13.023  68.189  1.00  0.00    -0.082 OA 
HETATM   17  O   UNL     2      -5.341  14.332  69.444  1.00  0.00    -0.086 OA 
HETATM   18  O   UNL     2      -6.514  15.320  67.530  1.00  0.00    -0.170 OA 
HETATM   19  S   UNL     2      -6.609  14.516  68.745  1.00  0.00    -0.095 S  
HETATM   20  O   UNL     2      -7.715  14.863  69.625  1.00  0.00    -0.167 OA 
ENDBRANCH  11  16
ENDBRANCH  10  11
ENDBRANCH   8  10
ENDBRANCH   4   5
ENDBRANCH   3   4
TORSDOF 6
ENDMDL
MODEL      422
REMARK 921   NORMALIZED FREE ENERGY PREDICTED BY IDOCK:   16.12 KCAL/MOL
REMARK 922        TOTAL FREE ENERGY PREDICTED BY IDOCK:   20.57 KCAL/MOL
REMARK 923 INTER-LIGAND FREE ENERGY PREDICTED BY IDOCK:   14.76 KCAL/MOL
REMARK 924 INTRA-LIGAND FREE ENERGY PREDICTED BY IDOCK:    5.82 KCAL/MOL
REMARK 927      BINDING AFFINITY PREDICTED BY RF-SCORE:    0.00 PKD
ROOT
HETATM    1 NA   UNL     1     -12.603  16.389  72.379  1.00  0.00    -0.399 Na 
HETATM    2  C   UNL     2      -9.495  14.488  73.111  1.00  0.00     8.286 C  
HETATM    3  C   UNL     2      -8.998  14.809  71.709  1.00  0.00     5.133 C  
ENDROOT
BRANCH   3   4
HETATM    4  C   UNL     2      -9.953  15.764  70.995  1.00  0.00     1.363 C  
BRANCH   4   5
HETATM    5  C   UNL     2      -9.813  15.761  69.470  1.00  0.00    -0.283 C  
HETATM    6  C   UNL     2     -10.498  14.591  68.722  1.00  0.00    -0.246 C  
HETATM    7  C   UNL     2     -11.998  14.430  69.059  1.00  0.00    -0.342 C  
HETATM    8  C   UNL     2     -10.312  14.715  67.190  1.00  0.00    -0.265 C  
HETATM    9  C   UNL     2     -12.898  15.572  68.604  1.00  0.00     1.302 C  
BRANCH   8  10
HETATM   10  C   UNL     2      -8.862  14.756  66.707  1.00  0.00    -0.281 C  
BRANCH  10  11
HETATM   11  C   UNL     2      -7.835  15.442  67.635  1.00  0.00    -0.157 C  
BRANCH  11  12
HETATM   12  C   UNL     2      -8.235  16.913  67.901  1.00  0.00    -0.198 C  
HETATM   13  C   UNL     2      -8.685  17.635  65.478  1.00  0.00     0.956 C  
HETATM   14  C   UNL     2      -7.915  17.917  66.770  1.00  0.00    -0.259 C  
HETATM   15  C   UNL     2      -8.251  19.341  67.239  1.00  0.00    -0.304 C  
ENDBRANCH  11  12
BRANCH  11  16
HETATM   16  O   UNL     2      -7.803  14.754  68.883  1.00  0.00    -0.138 OA 
HETATM   17  O   UNL     2      -6.317  13.032  67.992  1.00  0.00    -0.086 OA 
HETATM   18  O   UNL     2      -7.076  12.931  70.322  1.00  0.00     0.738 OA 
HETATM   19  S   UNL     2      -7.431  13.163  68.925  1.00  0.00     0.082 S  
HETATM   20  O   UNL     2      -8.645  12.490  68.483  1.00  0.00    -0.146 OA 
ENDBRANCH  11  16
ENDBRANCH  10  11
ENDBRANCH   8  10
ENDBRANCH   4   5
ENDBRANCH   3   4
TORSDOF 6
ENDMDL
MODEL      423
REMARK 921   NORMALIZED FREE ENERGY PREDICTED BY IDOCK:   20.85 KCAL/MOL
REMARK 922        TOTAL FREE ENERGY PREDICTED BY IDOCK:   26.95 KCAL/MOL
REMARK 923 INTER-LIGAND FREE ENERGY PREDICTED BY IDOCK:    1.46 KCAL/MOL
REMARK 924 INTRA-LIGAND FREE ENERGY PREDICTED BY IDOCK:   25.49 KCAL/MOL
REMARK 927      BINDING AFFINITY PREDICTED BY RF-SCORE:    0.00 PKD
ROOT
HETATM    1 NA   UNL     1      -6.989  17.366  64.869  1.00  0.00     0.048 Na 
HETATM    2  C   UNL     2      -5.430  19.323  67.617  1.00  0.00    -0.171 C  
HETATM    3  C   UNL     2      -5.598  18.121  68.535  1.00  0.00    -0.171 C  
ENDROOT
BRANCH   3   4
HETATM    4  C   UNL     2      -6.124  16.912  67.763  1.00  0.00    -0.154 C  
BRANCH   4   5
HETATM    5  C   UNL     2      -7.652  16.802  67.740  1.00  0.00    -0.180 C  
HETATM    6  C   UNL     2      -8.263  15.989  66.574  1.00  0.00    -0.334 C  
HETATM    7  C   UNL     2      -7.685  14.561  66.440  1.00  0.00     1.422 C  
HETATM    8  C   UNL     2      -9.806  15.926  66.678  1.00  0.00    -0.267 C  
HETATM    9  C   UNL     2      -8.004  13.615  67.591  1.00  0.00    -0.180 C  
BRANCH   8  10
HETATM   10  C   UNL     2     -10.518  17.279  66.691  1.00  0.00    -0.257 C  
BRANCH  10  11
HETATM   11  C   UNL     2     -10.121  18.268  67.809  1.00  0.00    -0.356 C  
BRANCH  11  12
HETATM   12  C   UNL     2     -10.773  17.864  69.153  1.00  0.00     0.331 C  
HETATM   13  C   UNL     2      -9.624  15.589  69.470  1.00  0.00    -0.278 C  
HETATM   14  C   UNL     2     -10.951  16.347  69.391  1.00  0.00    -0.325 C  
HETATM   15  C   UNL     2     -11.723  16.121  70.700  1.00  0.00    -0.300 C  
ENDBRANCH  11  12
BRANCH  11  16
HETATM   16  O   UNL     2      -8.706  18.242  67.972  1.00  0.00    -0.263 OA 
HETATM   17  O   UNL     2      -8.902  17.503  70.292  1.00  0.00     2.216 OA 
HETATM   18  O   UNL     2      -6.694  17.872  69.292  1.00  0.00    -0.255 OA 
HETATM   19  S   UNL     2      -8.058  18.362  69.469  1.00  0.00     0.731 S  
HETATM   20  O   UNL     2      -8.162  19.776  69.802  1.00  0.00     0.200 OA 
ENDBRANCH  11  16
ENDBRANCH  10  11
ENDBRANCH   8  10
ENDBRANCH   4   5
ENDBRANCH   3   4
TORSDOF 6
ENDMDL
