MODEL        1
REMARK 921   NORMALIZED FREE ENERGY PREDICTED BY IDOCK:   -4.55 KCAL/MOL
REMARK 922        TOTAL FREE ENERGY PREDICTED BY IDOCK:   -5.25 KCAL/MOL
REMARK 923 INTER-LIGAND FREE ENERGY PREDICTED BY IDOCK:   -5.09 KCAL/MOL
REMARK 924 INTRA-LIGAND FREE ENERGY PREDICTED BY IDOCK:   -0.17 KCAL/MOL
REMARK 927      BINDING AFFINITY PREDICTED BY RF-SCORE:    0.00 PKD
ROOT
HETATM    1 NA   UNL     1     -12.597  15.002  63.046  1.00  0.00    -0.749 Na 
HETATM    2  O   UNL     2     -11.211  16.546  63.910  1.00  0.00    -1.440 OA 
HETATM    3  C   UNL     2     -10.886  15.920  65.162  1.00  0.00    -0.421 C  
HETATM    4  H   UNL     2     -11.489  17.439  64.077  1.00  0.00     0.000 HD 
ENDROOT
BRANCH   3   5
HETATM    5  C   UNL     2     -10.441  14.484  64.895  1.00  0.00    -0.435 C  
BRANCH   5   6
HETATM    6  C   UNL     2     -11.424  13.466  65.448  1.00  0.00    -0.322 C  
HETATM    7  C   UNL     2     -12.111  12.735  64.287  1.00  0.00    -0.425 C  
HETATM    8  O   UNL     2     -13.285  12.373  64.512  1.00  0.00    -0.834 OA 
HETATM    9  O   UNL     2     -11.405  12.676  63.223  1.00  0.00    -0.460 OA 
ENDBRANCH   5   6
ENDBRANCH   3   5
TORSDOF 2
ENDMDL
MODEL        2
REMARK 921   NORMALIZED FREE ENERGY PREDICTED BY IDOCK:   -4.46 KCAL/MOL
REMARK 922        TOTAL FREE ENERGY PREDICTED BY IDOCK:   -5.15 KCAL/MOL
REMARK 923 INTER-LIGAND FREE ENERGY PREDICTED BY IDOCK:   -4.71 KCAL/MOL
REMARK 924 INTRA-LIGAND FREE ENERGY PREDICTED BY IDOCK:   -0.44 KCAL/MOL
REMARK 927      BINDING AFFINITY PREDICTED BY RF-SCORE:    0.00 PKD
ROOT
HETATM    1 NA   UNL     1     -13.234  12.789  63.227  1.00  0.00    -0.642 Na 
HETATM    2  O   UNL     2     -12.768  12.607  65.418  1.00  0.00    -0.635 OA 
HETATM    3  C   UNL     2     -11.374  12.266  65.352  1.00  0.00    -0.343 C  
HETATM    4  H   UNL     2     -13.211  11.980  65.979  1.00  0.00     0.000 HD 
ENDROOT
BRANCH   3   5
HETATM    5  C   UNL     2     -10.663  13.273  64.450  1.00  0.00    -0.432 C  
BRANCH   5   6
HETATM    6  C   UNL     2     -10.604  14.658  65.072  1.00  0.00    -0.461 C  
HETATM    7  C   UNL     2     -11.583  15.589  64.344  1.00  0.00    -0.258 C  
HETATM    8  O   UNL     2     -11.233  16.787  64.291  1.00  0.00    -1.163 OA 
HETATM    9  O   UNL     2     -12.581  14.983  63.823  1.00  0.00    -0.776 OA 
ENDBRANCH   5   6
ENDBRANCH   3   5
TORSDOF 2
ENDMDL
MODEL        3
REMARK 921   NORMALIZED FREE ENERGY PREDICTED BY IDOCK:   -4.44 KCAL/MOL
REMARK 922        TOTAL FREE ENERGY PREDICTED BY IDOCK:   -5.12 KCAL/MOL
REMARK 923 INTER-LIGAND FREE ENERGY PREDICTED BY IDOCK:   -4.88 KCAL/MOL
REMARK 924 INTRA-LIGAND FREE ENERGY PREDICTED BY IDOCK:   -0.24 KCAL/MOL
REMARK 927      BINDING AFFINITY PREDICTED BY RF-SCORE:    0.00 PKD
ROOT
HETATM    1 NA   UNL     1     -13.275  14.826  63.384  1.00  0.00    -0.680 Na 
HETATM    2  O   UNL     2     -11.613  16.276  63.812  1.00  0.00    -1.539 OA 
HETATM    3  C   UNL     2     -10.953  15.593  64.890  1.00  0.00    -0.431 C  
HETATM    4  H   UNL     2     -11.779  17.174  64.074  1.00  0.00     0.000 HD 
ENDROOT
BRANCH   3   5
HETATM    5  C   UNL     2     -10.687  14.149  64.469  1.00  0.00    -0.323 C  
BRANCH   5   6
HETATM    6  C   UNL     2     -10.635  13.205  65.659  1.00  0.00    -0.289 C  
HETATM    7  C   UNL     2     -12.044  12.677  65.956  1.00  0.00    -0.364 C  
HETATM    8  O   UNL     2     -12.275  12.436  67.160  1.00  0.00    -0.492 OA 
HETATM    9  O   UNL     2     -12.808  12.639  64.932  1.00  0.00    -0.763 OA 
ENDBRANCH   5   6
ENDBRANCH   3   5
TORSDOF 2
ENDMDL
MODEL        4
REMARK 921   NORMALIZED FREE ENERGY PREDICTED BY IDOCK:   -4.36 KCAL/MOL
REMARK 922        TOTAL FREE ENERGY PREDICTED BY IDOCK:   -5.04 KCAL/MOL
REMARK 923 INTER-LIGAND FREE ENERGY PREDICTED BY IDOCK:   -4.69 KCAL/MOL
REMARK 924 INTRA-LIGAND FREE ENERGY PREDICTED BY IDOCK:   -0.35 KCAL/MOL
REMARK 927      BINDING AFFINITY PREDICTED BY RF-SCORE:    0.00 PKD
ROOT
HETATM    1 NA   UNL     1     -12.499  11.049  62.512  1.00  0.00    -0.886 Na 
HETATM    2  O   UNL     2     -10.339  10.434  62.437  1.00  0.00    -0.669 OA 
HETATM    3  C   UNL     2      -9.735  11.548  63.115  1.00  0.00    -0.390 C  
HETATM    4  H   UNL     2      -9.881  10.290  61.617  1.00  0.00     0.000 HD 
ENDROOT
BRANCH   3   5
HETATM    5  C   UNL     2     -10.471  11.779  64.433  1.00  0.00    -0.359 C  
BRANCH   5   6
HETATM    6  C   UNL     2     -10.835  13.241  64.637  1.00  0.00    -0.396 C  
HETATM    7  C   UNL     2     -12.327  13.443  64.344  1.00  0.00    -0.341 C  
HETATM    8  O   UNL     2     -12.627  14.561  63.876  1.00  0.00    -0.827 OA 
HETATM    9  O   UNL     2     -13.039  12.400  64.547  1.00  0.00    -0.823 OA 
ENDBRANCH   5   6
ENDBRANCH   3   5
TORSDOF 2
ENDMDL
MODEL        5
REMARK 921   NORMALIZED FREE ENERGY PREDICTED BY IDOCK:   -4.27 KCAL/MOL
REMARK 922        TOTAL FREE ENERGY PREDICTED BY IDOCK:   -4.94 KCAL/MOL
REMARK 923 INTER-LIGAND FREE ENERGY PREDICTED BY IDOCK:   -4.58 KCAL/MOL
REMARK 924 INTRA-LIGAND FREE ENERGY PREDICTED BY IDOCK:   -0.36 KCAL/MOL
REMARK 927      BINDING AFFINITY PREDICTED BY RF-SCORE:    0.00 PKD
ROOT
HETATM    1 NA   UNL     1     -12.448  14.142  62.381  1.00  0.00    -0.916 Na 
HETATM    2  O   UNL     2     -12.787  12.180  63.423  1.00  0.00    -0.765 OA 
HETATM    3  C   UNL     2     -12.226  12.478  64.712  1.00  0.00    -0.465 C  
HETATM    4  H   UNL     2     -12.413  11.367  63.106  1.00  0.00     0.000 HD 
ENDROOT
BRANCH   3   5
HETATM    5  C   UNL     2     -12.828  13.786  65.221  1.00  0.00    -0.430 C  
BRANCH   5   6
HETATM    6  C   UNL     2     -11.776  14.710  65.811  1.00  0.00    -0.302 C  
HETATM    7  C   UNL     2     -11.354  15.744  64.759  1.00  0.00    -0.314 C  
HETATM    8  O   UNL     2     -10.167  16.125  64.839  1.00  0.00    -0.502 OA 
HETATM    9  O   UNL     2     -12.262  16.005  63.898  1.00  0.00    -0.883 OA 
ENDBRANCH   5   6
ENDBRANCH   3   5
TORSDOF 2
ENDMDL
MODEL        6
REMARK 921   NORMALIZED FREE ENERGY PREDICTED BY IDOCK:   -4.23 KCAL/MOL
REMARK 922        TOTAL FREE ENERGY PREDICTED BY IDOCK:   -4.89 KCAL/MOL
REMARK 923 INTER-LIGAND FREE ENERGY PREDICTED BY IDOCK:   -4.44 KCAL/MOL
REMARK 924 INTRA-LIGAND FREE ENERGY PREDICTED BY IDOCK:   -0.45 KCAL/MOL
REMARK 927      BINDING AFFINITY PREDICTED BY RF-SCORE:    0.00 PKD
ROOT
HETATM    1 NA   UNL     1     -12.337  13.871  62.343  1.00  0.00    -0.874 Na 
HETATM    2  O   UNL     2     -12.330  11.740  63.057  1.00  0.00    -0.913 OA 
HETATM    3  C   UNL     2     -10.943  11.596  63.406  1.00  0.00    -0.362 C  
HETATM    4  H   UNL     2     -12.581  11.017  62.495  1.00  0.00     0.000 HD 
ENDROOT
BRANCH   3   5
HETATM    5  C   UNL     2     -10.539  12.759  64.309  1.00  0.00    -0.424 C  
BRANCH   5   6
HETATM    6  C   UNL     2     -11.112  12.623  65.710  1.00  0.00    -0.332 C  
HETATM    7  C   UNL     2     -12.240  13.645  65.903  1.00  0.00    -0.461 C  
HETATM    8  O   UNL     2     -12.369  14.076  67.069  1.00  0.00    -0.397 OA 
HETATM    9  O   UNL     2     -12.835  13.970  64.818  1.00  0.00    -0.681 OA 
ENDBRANCH   5   6
ENDBRANCH   3   5
TORSDOF 2
ENDMDL
MODEL        7
REMARK 921   NORMALIZED FREE ENERGY PREDICTED BY IDOCK:   -4.21 KCAL/MOL
REMARK 922        TOTAL FREE ENERGY PREDICTED BY IDOCK:   -4.87 KCAL/MOL
REMARK 923 INTER-LIGAND FREE ENERGY PREDICTED BY IDOCK:   -4.49 KCAL/MOL
REMARK 924 INTRA-LIGAND FREE ENERGY PREDICTED BY IDOCK:   -0.38 KCAL/MOL
REMARK 927      BINDING AFFINITY PREDICTED BY RF-SCORE:    0.00 PKD
ROOT
HETATM    1 NA   UNL     1     -13.374  15.258  63.523  1.00  0.00    -0.572 Na 
HETATM    2  O   UNL     2     -13.286  13.839  65.264  1.00  0.00    -0.755 OA 
HETATM    3  C   UNL     2     -12.094  13.107  64.932  1.00  0.00    -0.402 C  
HETATM    4  H   UNL     2     -13.983  13.221  65.449  1.00  0.00     0.000 HD 
ENDROOT
BRANCH   3   5
HETATM    5  C   UNL     2     -10.973  14.100  64.633  1.00  0.00    -0.393 C  
BRANCH   5   6
HETATM    6  C   UNL     2     -10.894  15.206  65.673  1.00  0.00    -0.367 C  
HETATM    7  C   UNL     2     -10.949  16.571  64.975  1.00  0.00    -0.210 C  
HETATM    8  O   UNL     2     -10.310  17.481  65.542  1.00  0.00    -0.620 OA 
HETATM    9  O   UNL     2     -11.579  16.556  63.861  1.00  0.00    -1.175 OA 
ENDBRANCH   5   6
ENDBRANCH   3   5
TORSDOF 2
ENDMDL
MODEL        8
REMARK 921   NORMALIZED FREE ENERGY PREDICTED BY IDOCK:   -4.01 KCAL/MOL
REMARK 922        TOTAL FREE ENERGY PREDICTED BY IDOCK:   -4.65 KCAL/MOL
REMARK 923 INTER-LIGAND FREE ENERGY PREDICTED BY IDOCK:   -4.15 KCAL/MOL
REMARK 924 INTRA-LIGAND FREE ENERGY PREDICTED BY IDOCK:   -0.50 KCAL/MOL
REMARK 927      BINDING AFFINITY PREDICTED BY RF-SCORE:    0.00 PKD
ROOT
HETATM    1 NA   UNL     1     -10.999  15.478  63.765  1.00  0.00    -0.608 Na 
HETATM    2  O   UNL     2     -12.643  13.994  63.382  1.00  0.00    -1.056 OA 
HETATM    3  C   UNL     2     -11.907  12.766  63.502  1.00  0.00    -0.546 C  
HETATM    4  H   UNL     2     -13.133  13.980  62.568  1.00  0.00     0.000 HD 
ENDROOT
BRANCH   3   5
HETATM    5  C   UNL     2     -11.119  12.789  64.810  1.00  0.00    -0.333 C  
BRANCH   5   6
HETATM    6  C   UNL     2     -12.027  12.745  66.028  1.00  0.00    -0.491 C  
HETATM    7  C   UNL     2     -11.857  14.034  66.841  1.00  0.00    -0.430 C  
HETATM    8  O   UNL     2     -12.013  13.905  68.074  1.00  0.00    -0.361 OA 
HETATM    9  O   UNL     2     -11.497  15.043  66.142  1.00  0.00    -0.321 OA 
ENDBRANCH   5   6
ENDBRANCH   3   5
TORSDOF 2
ENDMDL
MODEL        9
REMARK 921   NORMALIZED FREE ENERGY PREDICTED BY IDOCK:   -3.91 KCAL/MOL
REMARK 922        TOTAL FREE ENERGY PREDICTED BY IDOCK:   -4.53 KCAL/MOL
REMARK 923 INTER-LIGAND FREE ENERGY PREDICTED BY IDOCK:   -4.39 KCAL/MOL
REMARK 924 INTRA-LIGAND FREE ENERGY PREDICTED BY IDOCK:   -0.15 KCAL/MOL
REMARK 927      BINDING AFFINITY PREDICTED BY RF-SCORE:    0.00 PKD
ROOT
HETATM    1 NA   UNL     1      -9.507  13.827  64.513  1.00  0.00    -0.549 Na 
HETATM    2  O   UNL     2      -9.318  12.065  63.132  1.00  0.00    -0.664 OA 
HETATM    3  C   UNL     2     -10.520  11.352  63.465  1.00  0.00    -0.417 C  
HETATM    4  H   UNL     2      -8.583  11.463  63.175  1.00  0.00     0.000 HD 
ENDROOT
BRANCH   3   5
HETATM    5  C   UNL     2     -11.701  12.318  63.396  1.00  0.00    -0.542 C  
BRANCH   5   6
HETATM    6  C   UNL     2     -12.397  12.470  64.738  1.00  0.00    -0.544 C  
HETATM    7  C   UNL     2     -12.434  13.953  65.131  1.00  0.00    -0.453 C  
HETATM    8  O   UNL     2     -12.385  14.175  66.359  1.00  0.00    -0.460 OA 
HETATM    9  O   UNL     2     -12.427  14.753  64.133  1.00  0.00    -0.758 OA 
ENDBRANCH   5   6
ENDBRANCH   3   5
TORSDOF 2
ENDMDL
MODEL       10
REMARK 921   NORMALIZED FREE ENERGY PREDICTED BY IDOCK:   -3.89 KCAL/MOL
REMARK 922        TOTAL FREE ENERGY PREDICTED BY IDOCK:   -4.51 KCAL/MOL
REMARK 923 INTER-LIGAND FREE ENERGY PREDICTED BY IDOCK:   -4.28 KCAL/MOL
REMARK 924 INTRA-LIGAND FREE ENERGY PREDICTED BY IDOCK:   -0.24 KCAL/MOL
REMARK 927      BINDING AFFINITY PREDICTED BY RF-SCORE:    0.00 PKD
ROOT
HETATM    1 NA   UNL     1     -11.162  13.600  70.982  1.00  0.00    -0.504 Na 
HETATM    2  O   UNL     2     -12.913  12.279  71.468  1.00  0.00    -0.386 OA 
HETATM    3  C   UNL     2     -13.646  13.145  72.349  1.00  0.00    -0.567 C  
HETATM    4  H   UNL     2     -12.808  11.433  71.887  1.00  0.00     0.000 HD 
ENDROOT
BRANCH   3   5
HETATM    5  C   UNL     2     -13.815  14.505  71.676  1.00  0.00    -0.513 C  
BRANCH   5   6
HETATM    6  C   UNL     2     -13.897  15.639  72.684  1.00  0.00    -0.648 C  
HETATM    7  C   UNL     2     -12.496  15.944  73.229  1.00  0.00    -0.523 C  
HETATM    8  O   UNL     2     -12.464  16.348  74.410  1.00  0.00    -0.707 OA 
HETATM    9  O   UNL     2     -11.552  15.658  72.414  1.00  0.00    -0.428 OA 
ENDBRANCH   5   6
ENDBRANCH   3   5
TORSDOF 2
ENDMDL
MODEL       11
REMARK 921   NORMALIZED FREE ENERGY PREDICTED BY IDOCK:   -3.88 KCAL/MOL
REMARK 922        TOTAL FREE ENERGY PREDICTED BY IDOCK:   -4.50 KCAL/MOL
REMARK 923 INTER-LIGAND FREE ENERGY PREDICTED BY IDOCK:   -4.46 KCAL/MOL
REMARK 924 INTRA-LIGAND FREE ENERGY PREDICTED BY IDOCK:   -0.04 KCAL/MOL
REMARK 927      BINDING AFFINITY PREDICTED BY RF-SCORE:    0.00 PKD
ROOT
HETATM    1 NA   UNL     1      -9.520  12.656  63.691  1.00  0.00    -0.486 Na 
HETATM    2  O   UNL     2     -11.492  11.715  63.167  1.00  0.00    -0.768 OA 
HETATM    3  C   UNL     2     -12.359  12.429  64.064  1.00  0.00    -0.488 C  
HETATM    4  H   UNL     2     -11.651  10.783  63.265  1.00  0.00     0.000 HD 
ENDROOT
BRANCH   3   5
HETATM    5  C   UNL     2     -12.103  13.926  63.908  1.00  0.00    -0.387 C  
BRANCH   5   6
HETATM    6  C   UNL     2     -11.316  14.499  65.075  1.00  0.00    -0.377 C  
HETATM    7  C   UNL     2     -10.933  15.953  64.770  1.00  0.00    -0.375 C  
HETATM    8  O   UNL     2      -9.851  16.330  65.267  1.00  0.00    -0.470 OA 
HETATM    9  O   UNL     2     -11.744  16.546  63.979  1.00  0.00    -1.111 OA 
ENDBRANCH   5   6
ENDBRANCH   3   5
TORSDOF 2
ENDMDL
MODEL       12
REMARK 921   NORMALIZED FREE ENERGY PREDICTED BY IDOCK:   -3.87 KCAL/MOL
REMARK 922        TOTAL FREE ENERGY PREDICTED BY IDOCK:   -4.49 KCAL/MOL
REMARK 923 INTER-LIGAND FREE ENERGY PREDICTED BY IDOCK:   -4.40 KCAL/MOL
REMARK 924 INTRA-LIGAND FREE ENERGY PREDICTED BY IDOCK:   -0.09 KCAL/MOL
REMARK 927      BINDING AFFINITY PREDICTED BY RF-SCORE:    0.00 PKD
ROOT
HETATM    1 NA   UNL     1     -12.832  15.850  63.632  1.00  0.00    -0.773 Na 
HETATM    2  O   UNL     2     -12.471  13.777  62.845  1.00  0.00    -1.009 OA 
HETATM    3  C   UNL     2     -11.779  13.199  63.964  1.00  0.00    -0.439 C  
HETATM    4  H   UNL     2     -11.966  13.615  62.056  1.00  0.00     0.000 HD 
ENDROOT
BRANCH   3   5
HETATM    5  C   UNL     2     -12.589  13.459  65.232  1.00  0.00    -0.518 C  
BRANCH   5   6
HETATM    6  C   UNL     2     -11.745  14.074  66.336  1.00  0.00    -0.407 C  
HETATM    7  C   UNL     2     -11.885  13.237  67.614  1.00  0.00    -0.357 C  
HETATM    8  O   UNL     2     -11.798  13.882  68.680  1.00  0.00    -0.335 OA 
HETATM    9  O   UNL     2     -12.156  12.006  67.399  1.00  0.00    -0.566 OA 
ENDBRANCH   5   6
ENDBRANCH   3   5
TORSDOF 2
ENDMDL
MODEL       13
REMARK 921   NORMALIZED FREE ENERGY PREDICTED BY IDOCK:   -3.81 KCAL/MOL
REMARK 922        TOTAL FREE ENERGY PREDICTED BY IDOCK:   -4.43 KCAL/MOL
REMARK 923 INTER-LIGAND FREE ENERGY PREDICTED BY IDOCK:   -4.09 KCAL/MOL
REMARK 924 INTRA-LIGAND FREE ENERGY PREDICTED BY IDOCK:   -0.33 KCAL/MOL
REMARK 927      BINDING AFFINITY PREDICTED BY RF-SCORE:    0.00 PKD
ROOT
HETATM    1 NA   UNL     1     -13.752  11.355  72.781  1.00  0.00    -0.623 Na 
HETATM    2  O   UNL     2     -13.966   9.155  73.182  1.00  0.00    -1.101 OA 
HETATM    3  C   UNL     2     -13.285   8.622  72.035  1.00  0.00    -0.386 C  
HETATM    4  H   UNL     2     -14.814   8.734  73.258  1.00  0.00     0.000 HD 
ENDROOT
BRANCH   3   5
HETATM    5  C   UNL     2     -11.921   9.299  71.913  1.00  0.00    -0.433 C  
BRANCH   5   6
HETATM    6  C   UNL     2     -11.523   9.530  70.464  1.00  0.00    -0.337 C  
HETATM    7  C   UNL     2     -12.101  10.866  69.981  1.00  0.00    -0.355 C  
HETATM    8  O   UNL     2     -12.397  10.906  68.768  1.00  0.00    -0.495 OA 
HETATM    9  O   UNL     2     -12.272  11.723  70.915  1.00  0.00    -0.362 OA 
ENDBRANCH   5   6
ENDBRANCH   3   5
TORSDOF 2
ENDMDL
MODEL       14
REMARK 921   NORMALIZED FREE ENERGY PREDICTED BY IDOCK:   -3.79 KCAL/MOL
REMARK 922        TOTAL FREE ENERGY PREDICTED BY IDOCK:   -4.40 KCAL/MOL
REMARK 923 INTER-LIGAND FREE ENERGY PREDICTED BY IDOCK:   -3.89 KCAL/MOL
REMARK 924 INTRA-LIGAND FREE ENERGY PREDICTED BY IDOCK:   -0.51 KCAL/MOL
REMARK 927      BINDING AFFINITY PREDICTED BY RF-SCORE:    0.00 PKD
ROOT
HETATM    1 NA   UNL     1     -10.572  10.334  65.832  1.00  0.00    -0.229 Na 
HETATM    2  O   UNL     2      -9.375  11.811  64.633  1.00  0.00    -0.421 OA 
HETATM    3  C   UNL     2      -9.980  11.637  63.341  1.00  0.00    -0.425 C  
HETATM    4  H   UNL     2      -8.432  11.743  64.542  1.00  0.00     0.000 HD 
ENDROOT
BRANCH   3   5
HETATM    5  C   UNL     2     -11.496  11.745  63.488  1.00  0.00    -0.489 C  
BRANCH   5   6
HETATM    6  C   UNL     2     -11.938  13.155  63.847  1.00  0.00    -0.550 C  
HETATM    7  C   UNL     2     -12.539  13.160  65.258  1.00  0.00    -0.472 C  
HETATM    8  O   UNL     2     -13.447  13.997  65.443  1.00  0.00    -0.679 OA 
HETATM    9  O   UNL     2     -12.076  12.243  66.020  1.00  0.00    -0.623 OA 
ENDBRANCH   5   6
ENDBRANCH   3   5
TORSDOF 2
ENDMDL
MODEL       15
REMARK 921   NORMALIZED FREE ENERGY PREDICTED BY IDOCK:   -3.78 KCAL/MOL
REMARK 922        TOTAL FREE ENERGY PREDICTED BY IDOCK:   -4.39 KCAL/MOL
REMARK 923 INTER-LIGAND FREE ENERGY PREDICTED BY IDOCK:   -3.90 KCAL/MOL
REMARK 924 INTRA-LIGAND FREE ENERGY PREDICTED BY IDOCK:   -0.49 KCAL/MOL
REMARK 927      BINDING AFFINITY PREDICTED BY RF-SCORE:    0.00 PKD
ROOT
HETATM    1 NA   UNL     1     -13.550  12.240  63.219  1.00  0.00    -0.685 Na 
HETATM    2  O   UNL     2     -12.386  14.162  63.174  1.00  0.00    -1.125 OA 
HETATM    3  C   UNL     2     -12.401  14.499  64.570  1.00  0.00    -0.414 C  
HETATM    4  H   UNL     2     -12.673  14.917  62.673  1.00  0.00     0.000 HD 
ENDROOT
BRANCH   3   5
HETATM    5  C   UNL     2     -11.939  13.286  65.375  1.00  0.00    -0.432 C  
BRANCH   5   6
HETATM    6  C   UNL     2     -10.466  12.982  65.159  1.00  0.00    -0.335 C  
HETATM    7  C   UNL     2     -10.323  11.680  64.361  1.00  0.00    -0.313 C  
HETATM    8  O   UNL     2      -9.305  11.007  64.625  1.00  0.00    -0.212 OA 
HETATM    9  O   UNL     2     -11.316  11.432  63.594  1.00  0.00    -0.386 OA 
ENDBRANCH   5   6
ENDBRANCH   3   5
TORSDOF 2
ENDMDL
MODEL       16
REMARK 921   NORMALIZED FREE ENERGY PREDICTED BY IDOCK:   -3.72 KCAL/MOL
REMARK 922        TOTAL FREE ENERGY PREDICTED BY IDOCK:   -4.32 KCAL/MOL
REMARK 923 INTER-LIGAND FREE ENERGY PREDICTED BY IDOCK:   -4.28 KCAL/MOL
REMARK 924 INTRA-LIGAND FREE ENERGY PREDICTED BY IDOCK:   -0.04 KCAL/MOL
REMARK 927      BINDING AFFINITY PREDICTED BY RF-SCORE:    0.00 PKD
ROOT
HETATM    1 NA   UNL     1     -13.830  12.170  63.295  1.00  0.00    -0.650 Na 
HETATM    2  O   UNL     2     -12.289  13.796  63.114  1.00  0.00    -1.099 OA 
HETATM    3  C   UNL     2     -12.475  14.461  64.374  1.00  0.00    -0.312 C  
HETATM    4  H   UNL     2     -12.314  14.443  62.419  1.00  0.00     0.000 HD 
ENDROOT
BRANCH   3   5
HETATM    5  C   UNL     2     -12.434  13.421  65.491  1.00  0.00    -0.534 C  
BRANCH   5   6
HETATM    6  C   UNL     2     -11.713  13.934  66.727  1.00  0.00    -0.423 C  
HETATM    7  C   UNL     2     -11.867  12.921  67.868  1.00  0.00    -0.339 C  
HETATM    8  O   UNL     2     -11.899  13.417  69.014  1.00  0.00    -0.301 OA 
HETATM    9  O   UNL     2     -12.025  11.716  67.471  1.00  0.00    -0.622 OA 
ENDBRANCH   5   6
ENDBRANCH   3   5
TORSDOF 2
ENDMDL
MODEL       17
REMARK 921   NORMALIZED FREE ENERGY PREDICTED BY IDOCK:   -3.71 KCAL/MOL
REMARK 922        TOTAL FREE ENERGY PREDICTED BY IDOCK:   -4.31 KCAL/MOL
REMARK 923 INTER-LIGAND FREE ENERGY PREDICTED BY IDOCK:   -3.95 KCAL/MOL
REMARK 924 INTRA-LIGAND FREE ENERGY PREDICTED BY IDOCK:   -0.36 KCAL/MOL
REMARK 927      BINDING AFFINITY PREDICTED BY RF-SCORE:    0.00 PKD
ROOT
HETATM    1 NA   UNL     1     -11.385  15.445  63.828  1.00  0.00    -0.590 Na 
HETATM    2  O   UNL     2     -12.527  13.781  62.840  1.00  0.00    -1.009 OA 
HETATM    3  C   UNL     2     -12.282  12.717  63.774  1.00  0.00    -0.514 C  
HETATM    4  H   UNL     2     -12.320  13.474  61.965  1.00  0.00     0.000 HD 
ENDROOT
BRANCH   3   5
HETATM    5  C   UNL     2     -12.615  13.210  65.180  1.00  0.00    -0.525 C  
BRANCH   5   6
HETATM    6  C   UNL     2     -11.546  12.826  66.191  1.00  0.00    -0.431 C  
HETATM    7  C   UNL     2     -10.570  13.996  66.373  1.00  0.00    -0.280 C  
HETATM    8  O   UNL     2      -9.394  13.667  66.635  1.00  0.00    -0.262 OA 
HETATM    9  O   UNL     2     -11.089  15.143  66.147  1.00  0.00    -0.339 OA 
ENDBRANCH   5   6
ENDBRANCH   3   5
TORSDOF 2
ENDMDL
MODEL       18
REMARK 921   NORMALIZED FREE ENERGY PREDICTED BY IDOCK:   -3.68 KCAL/MOL
REMARK 922        TOTAL FREE ENERGY PREDICTED BY IDOCK:   -4.28 KCAL/MOL
REMARK 923 INTER-LIGAND FREE ENERGY PREDICTED BY IDOCK:   -3.99 KCAL/MOL
REMARK 924 INTRA-LIGAND FREE ENERGY PREDICTED BY IDOCK:   -0.29 KCAL/MOL
REMARK 927      BINDING AFFINITY PREDICTED BY RF-SCORE:    0.00 PKD
ROOT
HETATM    1 NA   UNL     1     -11.271  18.590  65.213  1.00  0.00    -0.435 Na 
HETATM    2  O   UNL     2     -10.702  17.928  67.284  1.00  0.00    -0.354 OA 
HETATM    3  C   UNL     2     -10.774  16.503  67.122  1.00  0.00    -0.220 C  
HETATM    4  H   UNL     2     -11.206  18.176  68.051  1.00  0.00     0.000 HD 
ENDROOT
BRANCH   3   5
HETATM    5  C   UNL     2      -9.965  16.105  65.890  1.00  0.00    -0.384 C  
BRANCH   5   6
HETATM    6  C   UNL     2     -10.595  14.944  65.139  1.00  0.00    -0.450 C  
HETATM    7  C   UNL     2     -11.750  15.461  64.272  1.00  0.00    -0.206 C  
HETATM    8  O   UNL     2     -12.692  14.657  64.112  1.00  0.00    -0.738 OA 
HETATM    9  O   UNL     2     -11.615  16.679  63.904  1.00  0.00    -1.204 OA 
ENDBRANCH   5   6
ENDBRANCH   3   5
TORSDOF 2
ENDMDL
MODEL       19
REMARK 921   NORMALIZED FREE ENERGY PREDICTED BY IDOCK:   -3.66 KCAL/MOL
REMARK 922        TOTAL FREE ENERGY PREDICTED BY IDOCK:   -4.26 KCAL/MOL
REMARK 923 INTER-LIGAND FREE ENERGY PREDICTED BY IDOCK:   -4.16 KCAL/MOL
REMARK 924 INTRA-LIGAND FREE ENERGY PREDICTED BY IDOCK:   -0.10 KCAL/MOL
REMARK 927      BINDING AFFINITY PREDICTED BY RF-SCORE:    0.00 PKD
ROOT
HETATM    1 NA   UNL     1     -12.929  13.862  62.669  1.00  0.00    -0.740 Na 
HETATM    2  O   UNL     2     -12.054  11.816  62.981  1.00  0.00    -0.857 OA 
HETATM    3  C   UNL     2     -10.757  12.170  63.488  1.00  0.00    -0.457 C  
HETATM    4  H   UNL     2     -11.945  11.197  62.267  1.00  0.00     0.000 HD 
ENDROOT
BRANCH   3   5
HETATM    5  C   UNL     2     -10.932  13.164  64.634  1.00  0.00    -0.374 C  
BRANCH   5   6
HETATM    6  C   UNL     2     -12.044  12.754  65.585  1.00  0.00    -0.514 C  
HETATM    7  C   UNL     2     -11.452  12.451  66.967  1.00  0.00    -0.358 C  
HETATM    8  O   UNL     2     -12.052  11.570  67.618  1.00  0.00    -0.623 OA 
HETATM    9  O   UNL     2     -10.373  13.091  67.219  1.00  0.00    -0.236 OA 
ENDBRANCH   5   6
ENDBRANCH   3   5
TORSDOF 2
ENDMDL
MODEL       20
REMARK 921   NORMALIZED FREE ENERGY PREDICTED BY IDOCK:   -3.66 KCAL/MOL
REMARK 922        TOTAL FREE ENERGY PREDICTED BY IDOCK:   -4.25 KCAL/MOL
REMARK 923 INTER-LIGAND FREE ENERGY PREDICTED BY IDOCK:   -4.19 KCAL/MOL
REMARK 924 INTRA-LIGAND FREE ENERGY PREDICTED BY IDOCK:   -0.06 KCAL/MOL
REMARK 927      BINDING AFFINITY PREDICTED BY RF-SCORE:    0.00 PKD
ROOT
HETATM    1 NA   UNL     1     -11.916  16.023  63.371  1.00  0.00    -0.907 Na 
HETATM    2  O   UNL     2     -12.505  13.881  63.028  1.00  0.00    -1.099 OA 
HETATM    3  C   UNL     2     -11.974  13.280  64.220  1.00  0.00    -0.421 C  
HETATM    4  H   UNL     2     -12.203  13.387  62.275  1.00  0.00     0.000 HD 
ENDROOT
BRANCH   3   5
HETATM    5  C   UNL     2     -12.459  14.074  65.431  1.00  0.00    -0.520 C  
BRANCH   5   6
HETATM    6  C   UNL     2     -11.361  14.939  66.027  1.00  0.00    -0.306 C  
HETATM    7  C   UNL     2     -11.283  14.699  67.540  1.00  0.00    -0.333 C  
HETATM    8  O   UNL     2     -10.928  15.689  68.215  1.00  0.00    -0.286 OA 
HETATM    9  O   UNL     2     -11.676  13.536  67.900  1.00  0.00    -0.316 OA 
ENDBRANCH   5   6
ENDBRANCH   3   5
TORSDOF 2
ENDMDL
MODEL       21
REMARK 921   NORMALIZED FREE ENERGY PREDICTED BY IDOCK:   -3.64 KCAL/MOL
REMARK 922        TOTAL FREE ENERGY PREDICTED BY IDOCK:   -4.24 KCAL/MOL
REMARK 923 INTER-LIGAND FREE ENERGY PREDICTED BY IDOCK:   -3.74 KCAL/MOL
REMARK 924 INTRA-LIGAND FREE ENERGY PREDICTED BY IDOCK:   -0.50 KCAL/MOL
REMARK 927      BINDING AFFINITY PREDICTED BY RF-SCORE:    0.00 PKD
ROOT
HETATM    1 NA   UNL     1     -12.912  14.561  67.538  1.00  0.00    -0.611 Na 
HETATM    2  O   UNL     2     -10.949  15.513  66.998  1.00  0.00    -0.321 OA 
HETATM    3  C   UNL     2     -10.084  14.369  67.079  1.00  0.00    -0.256 C  
HETATM    4  H   UNL     2     -10.571  16.219  67.509  1.00  0.00     0.000 HD 
ENDROOT
BRANCH   3   5
HETATM    5  C   UNL     2     -10.691  13.233  66.258  1.00  0.00    -0.293 C  
BRANCH   5   6
HETATM    6  C   UNL     2     -10.792  13.581  64.783  1.00  0.00    -0.392 C  
HETATM    7  C   UNL     2     -12.267  13.619  64.364  1.00  0.00    -0.390 C  
HETATM    8  O   UNL     2     -12.490  13.280  63.183  1.00  0.00    -0.696 OA 
HETATM    9  O   UNL     2     -13.067  13.914  65.317  1.00  0.00    -0.777 OA 
ENDBRANCH   5   6
ENDBRANCH   3   5
TORSDOF 2
ENDMDL
MODEL       22
REMARK 921   NORMALIZED FREE ENERGY PREDICTED BY IDOCK:   -3.59 KCAL/MOL
REMARK 922        TOTAL FREE ENERGY PREDICTED BY IDOCK:   -4.18 KCAL/MOL
REMARK 923 INTER-LIGAND FREE ENERGY PREDICTED BY IDOCK:   -3.69 KCAL/MOL
REMARK 924 INTRA-LIGAND FREE ENERGY PREDICTED BY IDOCK:   -0.49 KCAL/MOL
REMARK 927      BINDING AFFINITY PREDICTED BY RF-SCORE:    0.00 PKD
ROOT
HETATM    1 NA   UNL     1     -11.888  17.094  71.080  1.00  0.00    -0.599 Na 
HETATM    2  O   UNL     2     -12.230  16.225  73.124  1.00  0.00    -0.489 OA 
HETATM    3  C   UNL     2     -13.639  15.952  73.051  1.00  0.00    -0.536 C  
HETATM    4  H   UNL     2     -12.054  16.715  73.919  1.00  0.00     0.000 HD 
ENDROOT
BRANCH   3   5
HETATM    5  C   UNL     2     -13.922  15.165  71.773  1.00  0.00    -0.627 C  
BRANCH   5   6
HETATM    6  C   UNL     2     -13.222  13.816  71.763  1.00  0.00    -0.467 C  
HETATM    7  C   UNL     2     -12.245  13.755  70.582  1.00  0.00    -0.363 C  
HETATM    8  O   UNL     2     -12.086  12.619  70.086  1.00  0.00    -0.341 OA 
HETATM    9  O   UNL     2     -11.796  14.897  70.222  1.00  0.00    -0.270 OA 
ENDBRANCH   5   6
ENDBRANCH   3   5
TORSDOF 2
ENDMDL
MODEL       23
REMARK 921   NORMALIZED FREE ENERGY PREDICTED BY IDOCK:   -3.50 KCAL/MOL
REMARK 922        TOTAL FREE ENERGY PREDICTED BY IDOCK:   -4.07 KCAL/MOL
REMARK 923 INTER-LIGAND FREE ENERGY PREDICTED BY IDOCK:   -3.73 KCAL/MOL
REMARK 924 INTRA-LIGAND FREE ENERGY PREDICTED BY IDOCK:   -0.34 KCAL/MOL
REMARK 927      BINDING AFFINITY PREDICTED BY RF-SCORE:    0.00 PKD
ROOT
HETATM    1 NA   UNL     1      -9.052  12.975  65.371  1.00  0.00    -0.426 Na 
HETATM    2  O   UNL     2      -9.361  12.172  63.295  1.00  0.00    -0.668 OA 
HETATM    3  C   UNL     2     -10.764  11.866  63.349  1.00  0.00    -0.413 C  
HETATM    4  H   UNL     2      -8.894  11.411  62.971  1.00  0.00     0.000 HD 
ENDROOT
BRANCH   3   5
HETATM    5  C   UNL     2     -11.515  13.090  63.869  1.00  0.00    -0.490 C  
BRANCH   5   6
HETATM    6  C   UNL     2     -12.477  12.737  64.992  1.00  0.00    -0.572 C  
HETATM    7  C   UNL     2     -11.883  13.182  66.335  1.00  0.00    -0.400 C  
HETATM    8  O   UNL     2     -12.195  12.469  67.312  1.00  0.00    -0.454 OA 
HETATM    9  O   UNL     2     -11.084  14.176  66.242  1.00  0.00    -0.310 OA 
ENDBRANCH   5   6
ENDBRANCH   3   5
TORSDOF 2
ENDMDL
MODEL       24
REMARK 921   NORMALIZED FREE ENERGY PREDICTED BY IDOCK:   -3.47 KCAL/MOL
REMARK 922        TOTAL FREE ENERGY PREDICTED BY IDOCK:   -4.04 KCAL/MOL
REMARK 923 INTER-LIGAND FREE ENERGY PREDICTED BY IDOCK:   -3.74 KCAL/MOL
REMARK 924 INTRA-LIGAND FREE ENERGY PREDICTED BY IDOCK:   -0.30 KCAL/MOL
REMARK 927      BINDING AFFINITY PREDICTED BY RF-SCORE:    0.00 PKD
ROOT
HETATM    1 NA   UNL     1     -11.090  20.421  64.644  1.00  0.00    -0.488 Na 
HETATM    2  O   UNL     2      -9.178  20.396  65.823  1.00  0.00    -0.576 OA 
HETATM    3  C   UNL     2      -9.704  20.443  67.160  1.00  0.00    -0.460 C  
HETATM    4  H   UNL     2      -8.516  21.072  65.730  1.00  0.00     0.000 HD 
ENDROOT
BRANCH   3   5
HETATM    5  C   UNL     2     -10.767  19.358  67.309  1.00  0.00    -0.603 C  
BRANCH   5   6
HETATM    6  C   UNL     2     -10.162  18.006  67.652  1.00  0.00    -0.376 C  
HETATM    7  C   UNL     2     -10.394  17.032  66.490  1.00  0.00    -0.298 C  
HETATM    8  O   UNL     2     -10.531  15.835  66.823  1.00  0.00    -0.295 OA 
HETATM    9  O   UNL     2     -10.495  17.602  65.350  1.00  0.00    -0.648 OA 
ENDBRANCH   5   6
ENDBRANCH   3   5
TORSDOF 2
ENDMDL
MODEL       25
REMARK 921   NORMALIZED FREE ENERGY PREDICTED BY IDOCK:   -3.44 KCAL/MOL
REMARK 922        TOTAL FREE ENERGY PREDICTED BY IDOCK:   -4.00 KCAL/MOL
REMARK 923 INTER-LIGAND FREE ENERGY PREDICTED BY IDOCK:   -3.53 KCAL/MOL
REMARK 924 INTRA-LIGAND FREE ENERGY PREDICTED BY IDOCK:   -0.48 KCAL/MOL
REMARK 927      BINDING AFFINITY PREDICTED BY RF-SCORE:    0.00 PKD
ROOT
HETATM    1 NA   UNL     1      -9.776  11.764  65.749  1.00  0.00    -0.198 Na 
HETATM    2  O   UNL     2     -11.607  11.499  67.026  1.00  0.00    -0.510 OA 
HETATM    3  C   UNL     2     -11.667  12.791  67.651  1.00  0.00    -0.367 C  
HETATM    4  H   UNL     2     -11.663  10.830  67.698  1.00  0.00     0.000 HD 
ENDROOT
BRANCH   3   5
HETATM    5  C   UNL     2     -11.577  13.866  66.571  1.00  0.00    -0.385 C  
BRANCH   5   6
HETATM    6  C   UNL     2     -12.711  13.765  65.564  1.00  0.00    -0.530 C  
HETATM    7  C   UNL     2     -12.141  13.413  64.184  1.00  0.00    -0.433 C  
HETATM    8  O   UNL     2     -12.775  13.880  63.215  1.00  0.00    -0.775 OA 
HETATM    9  O   UNL     2     -11.044  12.756  64.230  1.00  0.00    -0.327 OA 
ENDBRANCH   5   6
ENDBRANCH   3   5
TORSDOF 2
ENDMDL
MODEL       26
REMARK 921   NORMALIZED FREE ENERGY PREDICTED BY IDOCK:   -3.43 KCAL/MOL
REMARK 922        TOTAL FREE ENERGY PREDICTED BY IDOCK:   -4.00 KCAL/MOL
REMARK 923 INTER-LIGAND FREE ENERGY PREDICTED BY IDOCK:   -3.95 KCAL/MOL
REMARK 924 INTRA-LIGAND FREE ENERGY PREDICTED BY IDOCK:   -0.06 KCAL/MOL
REMARK 927      BINDING AFFINITY PREDICTED BY RF-SCORE:    0.00 PKD
ROOT
HETATM    1 NA   UNL     1     -12.300  10.214  68.584  1.00  0.00    -0.520 Na 
HETATM    2  O   UNL     2     -10.903  11.843  69.250  1.00  0.00    -0.381 OA 
HETATM    3  C   UNL     2     -10.507  12.373  67.974  1.00  0.00    -0.217 C  
HETATM    4  H   UNL     2     -10.123  11.663  69.762  1.00  0.00     0.000 HD 
ENDROOT
BRANCH   3   5
HETATM    5  C   UNL     2     -11.761  12.661  67.151  1.00  0.00    -0.438 C  
BRANCH   5   6
HETATM    6  C   UNL     2     -11.603  12.239  65.699  1.00  0.00    -0.433 C  
HETATM    7  C   UNL     2     -12.668  12.937  64.844  1.00  0.00    -0.403 C  
HETATM    8  O   UNL     2     -13.064  12.284  63.856  1.00  0.00    -0.772 OA 
HETATM    9  O   UNL     2     -13.057  14.060  65.318  1.00  0.00    -0.782 OA 
ENDBRANCH   5   6
ENDBRANCH   3   5
TORSDOF 2
ENDMDL
MODEL       27
REMARK 921   NORMALIZED FREE ENERGY PREDICTED BY IDOCK:   -3.41 KCAL/MOL
REMARK 922        TOTAL FREE ENERGY PREDICTED BY IDOCK:   -3.98 KCAL/MOL
REMARK 923 INTER-LIGAND FREE ENERGY PREDICTED BY IDOCK:   -3.92 KCAL/MOL
REMARK 924 INTRA-LIGAND FREE ENERGY PREDICTED BY IDOCK:   -0.06 KCAL/MOL
REMARK 927      BINDING AFFINITY PREDICTED BY RF-SCORE:    0.00 PKD
ROOT
HETATM    1 NA   UNL     1     -12.104  14.359  62.896  1.00  0.00    -0.833 Na 
HETATM    2  O   UNL     2     -11.618  16.404  63.688  1.00  0.00    -1.514 OA 
HETATM    3  C   UNL     2     -11.390  16.092  65.072  1.00  0.00    -0.156 C  
HETATM    4  H   UNL     2     -12.232  17.128  63.634  1.00  0.00     0.000 HD 
ENDROOT
BRANCH   3   5
HETATM    5  C   UNL     2     -10.403  14.929  65.158  1.00  0.00    -0.431 C  
BRANCH   5   6
HETATM    6  C   UNL     2      -9.292  15.193  66.161  1.00  0.00    -0.346 C  
HETATM    7  C   UNL     2      -9.734  14.722  67.552  1.00  0.00    -0.213 C  
HETATM    8  O   UNL     2      -9.269  15.380  68.506  1.00  0.00    -0.185 OA 
HETATM    9  O   UNL     2     -10.587  13.768  67.528  1.00  0.00    -0.243 OA 
ENDBRANCH   5   6
ENDBRANCH   3   5
TORSDOF 2
ENDMDL
MODEL       28
REMARK 921   NORMALIZED FREE ENERGY PREDICTED BY IDOCK:   -3.41 KCAL/MOL
REMARK 922        TOTAL FREE ENERGY PREDICTED BY IDOCK:   -3.98 KCAL/MOL
REMARK 923 INTER-LIGAND FREE ENERGY PREDICTED BY IDOCK:   -3.70 KCAL/MOL
REMARK 924 INTRA-LIGAND FREE ENERGY PREDICTED BY IDOCK:   -0.28 KCAL/MOL
REMARK 927      BINDING AFFINITY PREDICTED BY RF-SCORE:    0.00 PKD
ROOT
HETATM    1 NA   UNL     1     -11.865  16.944  73.158  1.00  0.00    -0.440 Na 
HETATM    2  O   UNL     2     -13.926  16.100  73.456  1.00  0.00    -0.825 OA 
HETATM    3  C   UNL     2     -14.062  15.335  72.247  1.00  0.00    -0.554 C  
HETATM    4  H   UNL     2     -14.691  16.654  73.556  1.00  0.00     0.000 HD 
ENDROOT
BRANCH   3   5
HETATM    5  C   UNL     2     -12.833  14.444  72.086  1.00  0.00    -0.418 C  
BRANCH   5   6
HETATM    6  C   UNL     2     -12.459  14.241  70.627  1.00  0.00    -0.428 C  
HETATM    7  C   UNL     2     -11.727  15.484  70.107  1.00  0.00    -0.347 C  
HETATM    8  O   UNL     2     -11.906  15.736  68.897  1.00  0.00    -0.393 OA 
HETATM    9  O   UNL     2     -11.102  16.134  71.015  1.00  0.00    -0.295 OA 
ENDBRANCH   5   6
ENDBRANCH   3   5
TORSDOF 2
ENDMDL
MODEL       29
REMARK 921   NORMALIZED FREE ENERGY PREDICTED BY IDOCK:   -3.38 KCAL/MOL
REMARK 922        TOTAL FREE ENERGY PREDICTED BY IDOCK:   -3.95 KCAL/MOL
REMARK 923 INTER-LIGAND FREE ENERGY PREDICTED BY IDOCK:   -3.55 KCAL/MOL
REMARK 924 INTRA-LIGAND FREE ENERGY PREDICTED BY IDOCK:   -0.39 KCAL/MOL
REMARK 927      BINDING AFFINITY PREDICTED BY RF-SCORE:    0.00 PKD
ROOT
HETATM    1 NA   UNL     1     -14.345   9.745  69.764  1.00  0.00    -0.638 Na 
HETATM    2  O   UNL     2     -12.478  10.661  68.911  1.00  0.00    -0.791 OA 
HETATM    3  C   UNL     2     -12.211  11.662  69.907  1.00  0.00    -0.239 C  
HETATM    4  H   UNL     2     -12.460  11.069  68.053  1.00  0.00     0.000 HD 
ENDROOT
BRANCH   3   5
HETATM    5  C   UNL     2     -12.240  11.007  71.285  1.00  0.00    -0.365 C  
BRANCH   5   6
HETATM    6  C   UNL     2     -11.638   9.611  71.270  1.00  0.00    -0.466 C  
HETATM    7  C   UNL     2     -12.559   8.647  72.027  1.00  0.00    -0.378 C  
HETATM    8  O   UNL     2     -11.977   7.711  72.614  1.00  0.00    -0.264 OA 
HETATM    9  O   UNL     2     -13.791   8.992  72.014  1.00  0.00    -0.412 OA 
ENDBRANCH   5   6
ENDBRANCH   3   5
TORSDOF 2
ENDMDL
MODEL       30
REMARK 921   NORMALIZED FREE ENERGY PREDICTED BY IDOCK:   -3.38 KCAL/MOL
REMARK 922        TOTAL FREE ENERGY PREDICTED BY IDOCK:   -3.95 KCAL/MOL
REMARK 923 INTER-LIGAND FREE ENERGY PREDICTED BY IDOCK:   -3.72 KCAL/MOL
REMARK 924 INTRA-LIGAND FREE ENERGY PREDICTED BY IDOCK:   -0.22 KCAL/MOL
REMARK 927      BINDING AFFINITY PREDICTED BY RF-SCORE:    0.00 PKD
ROOT
HETATM    1 NA   UNL     1     -11.988  13.220  68.284  1.00  0.00    -0.248 Na 
HETATM    2  O   UNL     2     -10.614  12.504  66.656  1.00  0.00    -0.234 OA 
HETATM    3  C   UNL     2     -11.571  12.241  65.617  1.00  0.00    -0.380 C  
HETATM    4  H   UNL     2     -10.059  11.740  66.762  1.00  0.00     0.000 HD 
ENDROOT
BRANCH   3   5
HETATM    5  C   UNL     2     -12.464  13.468  65.447  1.00  0.00    -0.540 C  
BRANCH   5   6
HETATM    6  C   UNL     2     -12.089  14.285  64.221  1.00  0.00    -0.467 C  
HETATM    7  C   UNL     2     -11.379  15.572  64.661  1.00  0.00    -0.357 C  
HETATM    8  O   UNL     2     -11.564  16.558  63.917  1.00  0.00    -1.175 OA 
HETATM    9  O   UNL     2     -10.764  15.467  65.777  1.00  0.00    -0.321 OA 
ENDBRANCH   5   6
ENDBRANCH   3   5
TORSDOF 2
ENDMDL
MODEL       31
REMARK 921   NORMALIZED FREE ENERGY PREDICTED BY IDOCK:   -3.37 KCAL/MOL
REMARK 922        TOTAL FREE ENERGY PREDICTED BY IDOCK:   -3.93 KCAL/MOL
REMARK 923 INTER-LIGAND FREE ENERGY PREDICTED BY IDOCK:   -3.87 KCAL/MOL
REMARK 924 INTRA-LIGAND FREE ENERGY PREDICTED BY IDOCK:   -0.05 KCAL/MOL
REMARK 927      BINDING AFFINITY PREDICTED BY RF-SCORE:    0.00 PKD
ROOT
HETATM    1 NA   UNL     1     -10.674  15.393  64.064  1.00  0.00    -0.591 Na 
HETATM    2  O   UNL     2     -12.566  14.345  63.455  1.00  0.00    -1.054 OA 
HETATM    3  C   UNL     2     -12.199  12.983  63.728  1.00  0.00    -0.460 C  
HETATM    4  H   UNL     2     -12.912  14.398  62.572  1.00  0.00     0.000 HD 
ENDROOT
BRANCH   3   5
HETATM    5  C   UNL     2     -11.641  12.898  65.147  1.00  0.00    -0.367 C  
BRANCH   5   6
HETATM    6  C   UNL     2     -10.775  11.666  65.351  1.00  0.00    -0.341 C  
HETATM    7  C   UNL     2     -10.871  11.207  66.811  1.00  0.00    -0.268 C  
HETATM    8  O   UNL     2      -9.839  10.671  67.266  1.00  0.00    -0.169 OA 
HETATM    9  O   UNL     2     -11.974  11.517  67.379  1.00  0.00    -0.623 OA 
ENDBRANCH   5   6
ENDBRANCH   3   5
TORSDOF 2
ENDMDL
MODEL       32
REMARK 921   NORMALIZED FREE ENERGY PREDICTED BY IDOCK:   -3.36 KCAL/MOL
REMARK 922        TOTAL FREE ENERGY PREDICTED BY IDOCK:   -3.92 KCAL/MOL
REMARK 923 INTER-LIGAND FREE ENERGY PREDICTED BY IDOCK:   -3.43 KCAL/MOL
REMARK 924 INTRA-LIGAND FREE ENERGY PREDICTED BY IDOCK:   -0.49 KCAL/MOL
REMARK 927      BINDING AFFINITY PREDICTED BY RF-SCORE:    0.00 PKD
ROOT
HETATM    1 NA   UNL     1      -9.620  11.576  65.340  1.00  0.00    -0.193 Na 
HETATM    2  O   UNL     2     -10.224  13.003  63.713  1.00  0.00    -0.642 OA 
HETATM    3  C   UNL     2     -11.573  12.567  63.482  1.00  0.00    -0.508 C  
HETATM    4  H   UNL     2      -9.768  13.044  62.880  1.00  0.00     0.000 HD 
ENDROOT
BRANCH   3   5
HETATM    5  C   UNL     2     -12.306  12.501  64.820  1.00  0.00    -0.544 C  
BRANCH   5   6
HETATM    6  C   UNL     2     -12.446  13.870  65.465  1.00  0.00    -0.541 C  
HETATM    7  C   UNL     2     -11.586  13.930  66.734  1.00  0.00    -0.378 C  
HETATM    8  O   UNL     2     -12.035  14.659  67.643  1.00  0.00    -0.362 OA 
HETATM    9  O   UNL     2     -10.570  13.154  66.706  1.00  0.00    -0.261 OA 
ENDBRANCH   5   6
ENDBRANCH   3   5
TORSDOF 2
ENDMDL
MODEL       33
REMARK 921   NORMALIZED FREE ENERGY PREDICTED BY IDOCK:   -3.31 KCAL/MOL
REMARK 922        TOTAL FREE ENERGY PREDICTED BY IDOCK:   -3.86 KCAL/MOL
REMARK 923 INTER-LIGAND FREE ENERGY PREDICTED BY IDOCK:   -3.36 KCAL/MOL
REMARK 924 INTRA-LIGAND FREE ENERGY PREDICTED BY IDOCK:   -0.51 KCAL/MOL
REMARK 927      BINDING AFFINITY PREDICTED BY RF-SCORE:    0.00 PKD
ROOT
HETATM    1 NA   UNL     1     -10.784  15.265  64.030  1.00  0.00    -0.585 Na 
HETATM    2  O   UNL     2     -12.846  14.448  64.388  1.00  0.00    -0.615 OA 
HETATM    3  C   UNL     2     -12.518  13.120  64.830  1.00  0.00    -0.433 C  
HETATM    4  H   UNL     2     -13.495  14.388  63.697  1.00  0.00     0.000 HD 
ENDROOT
BRANCH   3   5
HETATM    5  C   UNL     2     -11.475  13.215  65.942  1.00  0.00    -0.366 C  
BRANCH   5   6
HETATM    6  C   UNL     2     -12.028  13.878  67.193  1.00  0.00    -0.455 C  
HETATM    7  C   UNL     2     -11.265  15.181  67.463  1.00  0.00    -0.330 C  
HETATM    8  O   UNL     2     -11.151  15.486  68.669  1.00  0.00    -0.264 OA 
HETATM    9  O   UNL     2     -10.782  15.725  66.411  1.00  0.00    -0.309 OA 
ENDBRANCH   5   6
ENDBRANCH   3   5
TORSDOF 2
ENDMDL
MODEL       34
REMARK 921   NORMALIZED FREE ENERGY PREDICTED BY IDOCK:   -3.30 KCAL/MOL
REMARK 922        TOTAL FREE ENERGY PREDICTED BY IDOCK:   -3.85 KCAL/MOL
REMARK 923 INTER-LIGAND FREE ENERGY PREDICTED BY IDOCK:   -3.52 KCAL/MOL
REMARK 924 INTRA-LIGAND FREE ENERGY PREDICTED BY IDOCK:   -0.34 KCAL/MOL
REMARK 927      BINDING AFFINITY PREDICTED BY RF-SCORE:    0.00 PKD
ROOT
HETATM    1 NA   UNL     1      -9.403  13.398  64.003  1.00  0.00    -0.573 Na 
HETATM    2  O   UNL     2     -10.685  15.124  64.656  1.00  0.00    -0.589 OA 
HETATM    3  C   UNL     2     -11.952  14.716  64.116  1.00  0.00    -0.292 C  
HETATM    4  H   UNL     2     -10.509  16.017  64.384  1.00  0.00     0.000 HD 
ENDROOT
BRANCH   3   5
HETATM    5  C   UNL     2     -12.235  13.280  64.554  1.00  0.00    -0.456 C  
BRANCH   5   6
HETATM    6  C   UNL     2     -12.002  13.078  66.042  1.00  0.00    -0.498 C  
HETATM    7  C   UNL     2     -11.270  11.749  66.270  1.00  0.00    -0.312 C  
HETATM    8  O   UNL     2     -11.546  11.171  67.342  1.00  0.00    -0.522 OA 
HETATM    9  O   UNL     2     -10.540  11.386  65.285  1.00  0.00    -0.273 OA 
ENDBRANCH   5   6
ENDBRANCH   3   5
TORSDOF 2
ENDMDL
MODEL       35
REMARK 921   NORMALIZED FREE ENERGY PREDICTED BY IDOCK:   -3.27 KCAL/MOL
REMARK 922        TOTAL FREE ENERGY PREDICTED BY IDOCK:   -3.82 KCAL/MOL
REMARK 923 INTER-LIGAND FREE ENERGY PREDICTED BY IDOCK:   -3.75 KCAL/MOL
REMARK 924 INTRA-LIGAND FREE ENERGY PREDICTED BY IDOCK:   -0.06 KCAL/MOL
REMARK 927      BINDING AFFINITY PREDICTED BY RF-SCORE:    0.00 PKD
ROOT
HETATM    1 NA   UNL     1     -13.436  12.365  64.181  1.00  0.00    -0.649 Na 
HETATM    2  O   UNL     2     -12.581  14.186  63.181  1.00  0.00    -1.058 OA 
HETATM    3  C   UNL     2     -12.314  15.004  64.332  1.00  0.00    -0.266 C  
HETATM    4  H   UNL     2     -13.076  14.697  62.550  1.00  0.00     0.000 HD 
ENDROOT
BRANCH   3   5
HETATM    5  C   UNL     2     -11.520  14.184  65.345  1.00  0.00    -0.325 C  
BRANCH   5   6
HETATM    6  C   UNL     2     -12.372  13.751  66.527  1.00  0.00    -0.432 C  
HETATM    7  C   UNL     2     -11.771  14.308  67.824  1.00  0.00    -0.374 C  
HETATM    8  O   UNL     2     -11.941  13.594  68.834  1.00  0.00    -0.340 OA 
HETATM    9  O   UNL     2     -11.109  15.390  67.663  1.00  0.00    -0.306 OA 
ENDBRANCH   5   6
ENDBRANCH   3   5
TORSDOF 2
ENDMDL
MODEL       36
REMARK 921   NORMALIZED FREE ENERGY PREDICTED BY IDOCK:   -3.27 KCAL/MOL
REMARK 922        TOTAL FREE ENERGY PREDICTED BY IDOCK:   -3.81 KCAL/MOL
REMARK 923 INTER-LIGAND FREE ENERGY PREDICTED BY IDOCK:   -3.74 KCAL/MOL
REMARK 924 INTRA-LIGAND FREE ENERGY PREDICTED BY IDOCK:   -0.07 KCAL/MOL
REMARK 927      BINDING AFFINITY PREDICTED BY RF-SCORE:    0.00 PKD
ROOT
HETATM    1 NA   UNL     1     -12.464  12.745  68.957  1.00  0.00    -0.278 Na 
HETATM    2  O   UNL     2     -12.237  14.884  68.307  1.00  0.00    -0.570 OA 
HETATM    3  C   UNL     2     -11.573  14.696  67.047  1.00  0.00    -0.371 C  
HETATM    4  H   UNL     2     -11.749  15.520  68.818  1.00  0.00     0.000 HD 
ENDROOT
BRANCH   3   5
HETATM    5  C   UNL     2     -12.357  13.674  66.226  1.00  0.00    -0.464 C  
BRANCH   5   6
HETATM    6  C   UNL     2     -11.451  12.832  65.342  1.00  0.00    -0.363 C  
HETATM    7  C   UNL     2     -11.935  12.911  63.889  1.00  0.00    -0.480 C  
HETATM    8  O   UNL     2     -11.735  11.883  63.208  1.00  0.00    -0.400 OA 
HETATM    9  O   UNL     2     -12.550  13.996  63.607  1.00  0.00    -0.818 OA 
ENDBRANCH   5   6
ENDBRANCH   3   5
TORSDOF 2
ENDMDL
MODEL       37
REMARK 921   NORMALIZED FREE ENERGY PREDICTED BY IDOCK:   -3.26 KCAL/MOL
REMARK 922        TOTAL FREE ENERGY PREDICTED BY IDOCK:   -3.81 KCAL/MOL
REMARK 923 INTER-LIGAND FREE ENERGY PREDICTED BY IDOCK:   -3.75 KCAL/MOL
REMARK 924 INTRA-LIGAND FREE ENERGY PREDICTED BY IDOCK:   -0.06 KCAL/MOL
REMARK 927      BINDING AFFINITY PREDICTED BY RF-SCORE:    0.00 PKD
ROOT
HETATM    1 NA   UNL     1     -10.936  17.696  67.060  1.00  0.00    -0.334 Na 
HETATM    2  O   UNL     2     -10.071  16.727  65.226  1.00  0.00    -0.577 OA 
HETATM    3  C   UNL     2      -9.717  15.442  65.762  1.00  0.00    -0.350 C  
HETATM    4  H   UNL     2      -9.319  17.087  64.770  1.00  0.00     0.000 HD 
ENDROOT
BRANCH   3   5
HETATM    5  C   UNL     2     -10.925  14.864  66.495  1.00  0.00    -0.327 C  
BRANCH   5   6
HETATM    6  C   UNL     2     -11.316  13.495  65.965  1.00  0.00    -0.327 C  
HETATM    7  C   UNL     2     -12.462  13.644  64.956  1.00  0.00    -0.414 C  
HETATM    8  O   UNL     2     -13.260  12.684  64.917  1.00  0.00    -0.819 OA 
HETATM    9  O   UNL     2     -12.480  14.773  64.357  1.00  0.00    -0.599 OA 
ENDBRANCH   5   6
ENDBRANCH   3   5
TORSDOF 2
ENDMDL
MODEL       38
REMARK 921   NORMALIZED FREE ENERGY PREDICTED BY IDOCK:   -3.26 KCAL/MOL
REMARK 922        TOTAL FREE ENERGY PREDICTED BY IDOCK:   -3.81 KCAL/MOL
REMARK 923 INTER-LIGAND FREE ENERGY PREDICTED BY IDOCK:   -3.73 KCAL/MOL
REMARK 924 INTRA-LIGAND FREE ENERGY PREDICTED BY IDOCK:   -0.08 KCAL/MOL
REMARK 927      BINDING AFFINITY PREDICTED BY RF-SCORE:    0.00 PKD
ROOT
HETATM    1 NA   UNL     1     -14.053  11.156  72.685  1.00  0.00    -0.551 Na 
HETATM    2  O   UNL     2     -14.389   9.003  73.235  1.00  0.00    -1.131 OA 
HETATM    3  C   UNL     2     -14.211   8.383  71.951  1.00  0.00    -0.460 C  
HETATM    4  H   UNL     2     -15.207   8.698  73.612  1.00  0.00     0.000 HD 
ENDROOT
BRANCH   3   5
HETATM    5  C   UNL     2     -12.898   8.874  71.346  1.00  0.00    -0.335 C  
BRANCH   5   6
HETATM    6  C   UNL     2     -11.726   8.696  72.297  1.00  0.00    -0.428 C  
HETATM    7  C   UNL     2     -11.220   7.249  72.223  1.00  0.00    -0.267 C  
HETATM    8  O   UNL     2     -10.747   6.799  73.287  1.00  0.00    -0.273 OA 
HETATM    9  O   UNL     2     -11.435   6.684  71.095  1.00  0.00    -0.286 OA 
ENDBRANCH   5   6
ENDBRANCH   3   5
TORSDOF 2
ENDMDL
MODEL       39
REMARK 921   NORMALIZED FREE ENERGY PREDICTED BY IDOCK:   -3.25 KCAL/MOL
REMARK 922        TOTAL FREE ENERGY PREDICTED BY IDOCK:   -3.80 KCAL/MOL
REMARK 923 INTER-LIGAND FREE ENERGY PREDICTED BY IDOCK:   -3.38 KCAL/MOL
REMARK 924 INTRA-LIGAND FREE ENERGY PREDICTED BY IDOCK:   -0.42 KCAL/MOL
REMARK 927      BINDING AFFINITY PREDICTED BY RF-SCORE:    0.00 PKD
ROOT
HETATM    1 NA   UNL     1     -10.236  12.370  65.584  1.00  0.00    -0.228 Na 
HETATM    2  O   UNL     2     -10.854  13.622  67.345  1.00  0.00    -0.268 OA 
HETATM    3  C   UNL     2      -9.693  14.458  67.480  1.00  0.00    -0.215 C  
HETATM    4  H   UNL     2     -11.057  13.241  68.191  1.00  0.00     0.000 HD 
ENDROOT
BRANCH   3   5
HETATM    5  C   UNL     2      -9.365  15.070  66.120  1.00  0.00    -0.327 C  
BRANCH   5   6
HETATM    6  C   UNL     2     -10.296  16.220  65.770  1.00  0.00    -0.393 C  
HETATM    7  C   UNL     2     -11.271  15.774  64.673  1.00  0.00    -0.363 C  
HETATM    8  O   UNL     2     -11.632  16.676  63.888  1.00  0.00    -1.204 OA 
HETATM    9  O   UNL     2     -11.509  14.517  64.672  1.00  0.00    -0.385 OA 
ENDBRANCH   5   6
ENDBRANCH   3   5
TORSDOF 2
ENDMDL
MODEL       40
REMARK 921   NORMALIZED FREE ENERGY PREDICTED BY IDOCK:   -3.25 KCAL/MOL
REMARK 922        TOTAL FREE ENERGY PREDICTED BY IDOCK:   -3.80 KCAL/MOL
REMARK 923 INTER-LIGAND FREE ENERGY PREDICTED BY IDOCK:   -3.31 KCAL/MOL
REMARK 924 INTRA-LIGAND FREE ENERGY PREDICTED BY IDOCK:   -0.49 KCAL/MOL
REMARK 927      BINDING AFFINITY PREDICTED BY RF-SCORE:    0.00 PKD
ROOT
HETATM    1 NA   UNL     1     -10.226   8.131  70.244  1.00  0.00    -0.184 Na 
HETATM    2  O   UNL     2     -12.240   7.136  70.190  1.00  0.00    -0.586 OA 
HETATM    3  C   UNL     2     -12.410   6.835  71.584  1.00  0.00    -0.362 C  
HETATM    4  H   UNL     2     -12.402   6.348  69.684  1.00  0.00     0.000 HD 
ENDROOT
BRANCH   3   5
HETATM    5  C   UNL     2     -12.149   8.101  72.397  1.00  0.00    -0.406 C  
BRANCH   5   6
HETATM    6  C   UNL     2     -13.263   9.123  72.240  1.00  0.00    -0.528 C  
HETATM    7  C   UNL     2     -12.713  10.380  71.554  1.00  0.00    -0.459 C  
HETATM    8  O   UNL     2     -13.258  11.450  71.896  1.00  0.00    -0.484 OA 
HETATM    9  O   UNL     2     -11.713  10.155  70.789  1.00  0.00    -0.302 OA 
ENDBRANCH   5   6
ENDBRANCH   3   5
TORSDOF 2
ENDMDL
MODEL       41
REMARK 921   NORMALIZED FREE ENERGY PREDICTED BY IDOCK:   -3.24 KCAL/MOL
REMARK 922        TOTAL FREE ENERGY PREDICTED BY IDOCK:   -3.79 KCAL/MOL
REMARK 923 INTER-LIGAND FREE ENERGY PREDICTED BY IDOCK:   -3.70 KCAL/MOL
REMARK 924 INTRA-LIGAND FREE ENERGY PREDICTED BY IDOCK:   -0.09 KCAL/MOL
REMARK 927      BINDING AFFINITY PREDICTED BY RF-SCORE:    0.00 PKD
ROOT
HETATM    1 NA   UNL     1     -13.747  11.323  72.890  1.00  0.00    -0.604 Na 
HETATM    2  O   UNL     2     -14.188   9.125  73.044  1.00  0.00    -1.082 OA 
HETATM    3  C   UNL     2     -13.477   8.643  71.892  1.00  0.00    -0.397 C  
HETATM    4  H   UNL     2     -15.075   8.783  73.022  1.00  0.00     0.000 HD 
ENDROOT
BRANCH   3   5
HETATM    5  C   UNL     2     -12.053   9.193  71.927  1.00  0.00    -0.448 C  
BRANCH   5   6
HETATM    6  C   UNL     2     -11.811  10.230  70.843  1.00  0.00    -0.473 C  
HETATM    7  C   UNL     2     -10.661   9.768  69.939  1.00  0.00    -0.268 C  
HETATM    8  O   UNL     2      -9.969  10.687  69.453  1.00  0.00    -0.216 OA 
HETATM    9  O   UNL     2     -10.528   8.498  69.881  1.00  0.00    -0.210 OA 
ENDBRANCH   5   6
ENDBRANCH   3   5
TORSDOF 2
ENDMDL
MODEL       42
REMARK 921   NORMALIZED FREE ENERGY PREDICTED BY IDOCK:   -3.24 KCAL/MOL
REMARK 922        TOTAL FREE ENERGY PREDICTED BY IDOCK:   -3.78 KCAL/MOL
REMARK 923 INTER-LIGAND FREE ENERGY PREDICTED BY IDOCK:   -3.31 KCAL/MOL
REMARK 924 INTRA-LIGAND FREE ENERGY PREDICTED BY IDOCK:   -0.48 KCAL/MOL
REMARK 927      BINDING AFFINITY PREDICTED BY RF-SCORE:    0.00 PKD
ROOT
HETATM    1 NA   UNL     1     -10.294  14.853  68.379  1.00  0.00    -0.205 Na 
HETATM    2  O   UNL     2     -10.701  16.484  66.887  1.00  0.00    -0.279 OA 
HETATM    3  C   UNL     2      -9.794  16.100  65.841  1.00  0.00    -0.353 C  
HETATM    4  H   UNL     2     -10.564  17.402  67.090  1.00  0.00     0.000 HD 
ENDROOT
BRANCH   3   5
HETATM    5  C   UNL     2     -10.013  14.625  65.515  1.00  0.00    -0.384 C  
BRANCH   5   6
HETATM    6  C   UNL     2     -11.293  14.395  64.728  1.00  0.00    -0.388 C  
HETATM    7  C   UNL     2     -12.306  13.646  65.604  1.00  0.00    -0.478 C  
HETATM    8  O   UNL     2     -13.076  12.882  64.986  1.00  0.00    -0.794 OA 
HETATM    9  O   UNL     2     -12.157  13.853  66.858  1.00  0.00    -0.424 OA 
ENDBRANCH   5   6
ENDBRANCH   3   5
TORSDOF 2
ENDMDL
MODEL       43
REMARK 921   NORMALIZED FREE ENERGY PREDICTED BY IDOCK:   -3.22 KCAL/MOL
REMARK 922        TOTAL FREE ENERGY PREDICTED BY IDOCK:   -3.77 KCAL/MOL
REMARK 923 INTER-LIGAND FREE ENERGY PREDICTED BY IDOCK:   -3.43 KCAL/MOL
REMARK 924 INTRA-LIGAND FREE ENERGY PREDICTED BY IDOCK:   -0.33 KCAL/MOL
REMARK 927      BINDING AFFINITY PREDICTED BY RF-SCORE:    0.00 PKD
ROOT
HETATM    1 NA   UNL     1     -13.568   6.933  70.221  1.00  0.00    -0.601 Na 
HETATM    2  O   UNL     2     -14.177   8.941  71.024  1.00  0.00    -0.578 OA 
HETATM    3  C   UNL     2     -13.368   8.995  72.211  1.00  0.00    -0.467 C  
HETATM    4  H   UNL     2     -15.076   9.143  71.256  1.00  0.00     0.000 HD 
ENDROOT
BRANCH   3   5
HETATM    5  C   UNL     2     -11.923   8.670  71.837  1.00  0.00    -0.424 C  
BRANCH   5   6
HETATM    6  C   UNL     2     -11.311   7.632  72.764  1.00  0.00    -0.419 C  
HETATM    7  C   UNL     2     -11.431   6.242  72.127  1.00  0.00    -0.307 C  
HETATM    8  O   UNL     2     -11.561   5.299  72.935  1.00  0.00    -0.310 OA 
HETATM    9  O   UNL     2     -11.463   6.261  70.848  1.00  0.00    -0.327 OA 
ENDBRANCH   5   6
ENDBRANCH   3   5
TORSDOF 2
ENDMDL
MODEL       44
REMARK 921   NORMALIZED FREE ENERGY PREDICTED BY IDOCK:   -3.21 KCAL/MOL
REMARK 922        TOTAL FREE ENERGY PREDICTED BY IDOCK:   -3.76 KCAL/MOL
REMARK 923 INTER-LIGAND FREE ENERGY PREDICTED BY IDOCK:   -3.70 KCAL/MOL
REMARK 924 INTRA-LIGAND FREE ENERGY PREDICTED BY IDOCK:   -0.06 KCAL/MOL
REMARK 927      BINDING AFFINITY PREDICTED BY RF-SCORE:    0.00 PKD
ROOT
HETATM    1 NA   UNL     1      -9.183  12.639  69.178  1.00  0.00    -0.345 Na 
HETATM    2  O   UNL     2     -11.354  12.579  69.754  1.00  0.00    -0.463 OA 
HETATM    3  C   UNL     2     -11.861  13.648  68.938  1.00  0.00    -0.364 C  
HETATM    4  H   UNL     2     -11.645  12.713  70.649  1.00  0.00     0.000 HD 
ENDROOT
BRANCH   3   5
HETATM    5  C   UNL     2     -11.394  13.433  67.500  1.00  0.00    -0.327 C  
BRANCH   5   6
HETATM    6  C   UNL     2     -12.147  14.312  66.515  1.00  0.00    -0.454 C  
HETATM    7  C   UNL     2     -12.414  13.524  65.226  1.00  0.00    -0.482 C  
HETATM    8  O   UNL     2     -12.437  14.210  64.182  1.00  0.00    -0.668 OA 
HETATM    9  O   UNL     2     -12.493  12.259  65.400  1.00  0.00    -0.596 OA 
ENDBRANCH   5   6
ENDBRANCH   3   5
TORSDOF 2
ENDMDL
MODEL       45
REMARK 921   NORMALIZED FREE ENERGY PREDICTED BY IDOCK:   -3.21 KCAL/MOL
REMARK 922        TOTAL FREE ENERGY PREDICTED BY IDOCK:   -3.75 KCAL/MOL
REMARK 923 INTER-LIGAND FREE ENERGY PREDICTED BY IDOCK:   -3.28 KCAL/MOL
REMARK 924 INTRA-LIGAND FREE ENERGY PREDICTED BY IDOCK:   -0.47 KCAL/MOL
REMARK 927      BINDING AFFINITY PREDICTED BY RF-SCORE:    0.00 PKD
ROOT
HETATM    1 NA   UNL     1      -9.505  13.735  64.117  1.00  0.00    -0.570 Na 
HETATM    2  O   UNL     2      -9.267  12.847  66.167  1.00  0.00    -0.431 OA 
HETATM    3  C   UNL     2      -9.269  14.043  66.963  1.00  0.00    -0.254 C  
HETATM    4  H   UNL     2      -8.512  12.321  66.407  1.00  0.00     0.000 HD 
ENDROOT
BRANCH   3   5
HETATM    5  C   UNL     2     -10.481  14.889  66.577  1.00  0.00    -0.297 C  
BRANCH   5   6
HETATM    6  C   UNL     2     -11.789  14.139  66.773  1.00  0.00    -0.449 C  
HETATM    7  C   UNL     2     -12.492  13.974  65.420  1.00  0.00    -0.498 C  
HETATM    8  O   UNL     2     -13.740  13.966  65.470  1.00  0.00    -0.389 OA 
HETATM    9  O   UNL     2     -11.693  13.951  64.421  1.00  0.00    -0.388 OA 
ENDBRANCH   5   6
ENDBRANCH   3   5
TORSDOF 2
ENDMDL
MODEL       46
REMARK 921   NORMALIZED FREE ENERGY PREDICTED BY IDOCK:   -3.18 KCAL/MOL
REMARK 922        TOTAL FREE ENERGY PREDICTED BY IDOCK:   -3.71 KCAL/MOL
REMARK 923 INTER-LIGAND FREE ENERGY PREDICTED BY IDOCK:   -3.21 KCAL/MOL
REMARK 924 INTRA-LIGAND FREE ENERGY PREDICTED BY IDOCK:   -0.50 KCAL/MOL
REMARK 927      BINDING AFFINITY PREDICTED BY RF-SCORE:    0.00 PKD
ROOT
HETATM    1 NA   UNL     1     -12.667   6.401  72.598  1.00  0.00    -0.454 Na 
HETATM    2  O   UNL     2     -13.891   7.446  71.031  1.00  0.00    -0.625 OA 
HETATM    3  C   UNL     2     -14.217   8.657  71.732  1.00  0.00    -0.412 C  
HETATM    4  H   UNL     2     -14.691   7.071  70.679  1.00  0.00     0.000 HD 
ENDROOT
BRANCH   3   5
HETATM    5  C   UNL     2     -12.933   9.260  72.298  1.00  0.00    -0.488 C  
BRANCH   5   6
HETATM    6  C   UNL     2     -12.018   9.790  71.206  1.00  0.00    -0.471 C  
HETATM    7  C   UNL     2     -10.763   8.913  71.118  1.00  0.00    -0.263 C  
HETATM    8  O   UNL     2      -9.723   9.511  70.771  1.00  0.00    -0.269 OA 
HETATM    9  O   UNL     2     -10.949   7.705  71.497  1.00  0.00    -0.231 OA 
ENDBRANCH   5   6
ENDBRANCH   3   5
TORSDOF 2
ENDMDL
MODEL       47
REMARK 921   NORMALIZED FREE ENERGY PREDICTED BY IDOCK:   -3.17 KCAL/MOL
REMARK 922        TOTAL FREE ENERGY PREDICTED BY IDOCK:   -3.71 KCAL/MOL
REMARK 923 INTER-LIGAND FREE ENERGY PREDICTED BY IDOCK:   -3.65 KCAL/MOL
REMARK 924 INTRA-LIGAND FREE ENERGY PREDICTED BY IDOCK:   -0.06 KCAL/MOL
REMARK 927      BINDING AFFINITY PREDICTED BY RF-SCORE:    0.00 PKD
ROOT
HETATM    1 NA   UNL     1     -10.661  10.087  64.846  1.00  0.00    -0.328 Na 
HETATM    2  O   UNL     2     -11.179  11.171  62.947  1.00  0.00    -0.802 OA 
HETATM    3  C   UNL     2     -12.084  12.162  63.461  1.00  0.00    -0.550 C  
HETATM    4  H   UNL     2     -11.590  10.734  62.210  1.00  0.00     0.000 HD 
ENDROOT
BRANCH   3   5
HETATM    5  C   UNL     2     -11.424  12.864  64.646  1.00  0.00    -0.369 C  
BRANCH   5   6
HETATM    6  C   UNL     2     -12.380  13.039  65.814  1.00  0.00    -0.477 C  
HETATM    7  C   UNL     2     -11.825  14.096  66.778  1.00  0.00    -0.425 C  
HETATM    8  O   UNL     2     -12.111  13.918  67.980  1.00  0.00    -0.367 OA 
HETATM    9  O   UNL     2     -11.075  14.966  66.214  1.00  0.00    -0.335 OA 
ENDBRANCH   5   6
ENDBRANCH   3   5
TORSDOF 2
ENDMDL
MODEL       48
REMARK 921   NORMALIZED FREE ENERGY PREDICTED BY IDOCK:   -3.17 KCAL/MOL
REMARK 922        TOTAL FREE ENERGY PREDICTED BY IDOCK:   -3.71 KCAL/MOL
REMARK 923 INTER-LIGAND FREE ENERGY PREDICTED BY IDOCK:   -3.42 KCAL/MOL
REMARK 924 INTRA-LIGAND FREE ENERGY PREDICTED BY IDOCK:   -0.29 KCAL/MOL
REMARK 927      BINDING AFFINITY PREDICTED BY RF-SCORE:    0.00 PKD
ROOT
HETATM    1 NA   UNL     1     -10.846  13.341  70.131  1.00  0.00    -0.445 Na 
HETATM    2  O   UNL     2     -12.553  14.695  69.580  1.00  0.00    -0.563 OA 
HETATM    3  C   UNL     2     -11.884  15.592  68.679  1.00  0.00    -0.300 C  
HETATM    4  H   UNL     2     -13.024  15.206  70.228  1.00  0.00     0.000 HD 
ENDROOT
BRANCH   3   5
HETATM    5  C   UNL     2     -11.127  14.771  67.638  1.00  0.00    -0.311 C  
BRANCH   5   6
HETATM    6  C   UNL     2     -12.012  14.370  66.469  1.00  0.00    -0.406 C  
HETATM    7  C   UNL     2     -12.158  12.844  66.436  1.00  0.00    -0.329 C  
HETATM    8  O   UNL     2     -12.292  12.350  65.297  1.00  0.00    -0.563 OA 
HETATM    9  O   UNL     2     -12.038  12.288  67.582  1.00  0.00    -0.502 OA 
ENDBRANCH   5   6
ENDBRANCH   3   5
TORSDOF 2
ENDMDL
MODEL       49
REMARK 921   NORMALIZED FREE ENERGY PREDICTED BY IDOCK:   -3.17 KCAL/MOL
REMARK 922        TOTAL FREE ENERGY PREDICTED BY IDOCK:   -3.71 KCAL/MOL
REMARK 923 INTER-LIGAND FREE ENERGY PREDICTED BY IDOCK:   -3.40 KCAL/MOL
REMARK 924 INTRA-LIGAND FREE ENERGY PREDICTED BY IDOCK:   -0.30 KCAL/MOL
REMARK 927      BINDING AFFINITY PREDICTED BY RF-SCORE:    0.00 PKD
ROOT
HETATM    1 NA   UNL     1      -8.417  18.304  69.027  1.00  0.00    -0.282 Na 
HETATM    2  O   UNL     2      -7.323  20.067  68.166  1.00  0.00    -0.294 OA 
HETATM    3  C   UNL     2      -8.081  20.271  66.962  1.00  0.00    -0.321 C  
HETATM    4  H   UNL     2      -6.400  20.032  67.945  1.00  0.00     0.000 HD 
ENDROOT
BRANCH   3   5
HETATM    5  C   UNL     2      -9.565  20.327  67.318  1.00  0.00    -0.581 C  
BRANCH   5   6
HETATM    6  C   UNL     2     -10.443  19.782  66.203  1.00  0.00    -0.613 C  
HETATM    7  C   UNL     2     -10.575  18.261  66.352  1.00  0.00    -0.293 C  
HETATM    8  O   UNL     2     -10.701  17.634  65.279  1.00  0.00    -0.649 OA 
HETATM    9  O   UNL     2     -10.453  17.847  67.556  1.00  0.00    -0.368 OA 
ENDBRANCH   5   6
ENDBRANCH   3   5
TORSDOF 2
ENDMDL
MODEL       50
REMARK 921   NORMALIZED FREE ENERGY PREDICTED BY IDOCK:   -3.14 KCAL/MOL
REMARK 922        TOTAL FREE ENERGY PREDICTED BY IDOCK:   -3.67 KCAL/MOL
REMARK 923 INTER-LIGAND FREE ENERGY PREDICTED BY IDOCK:   -3.32 KCAL/MOL
REMARK 924 INTRA-LIGAND FREE ENERGY PREDICTED BY IDOCK:   -0.35 KCAL/MOL
REMARK 927      BINDING AFFINITY PREDICTED BY RF-SCORE:    0.00 PKD
ROOT
HETATM    1 NA   UNL     1     -11.723  13.678  67.316  1.00  0.00    -0.267 Na 
HETATM    2  O   UNL     2      -9.596  13.064  66.934  1.00  0.00    -0.228 OA 
HETATM    3  C   UNL     2      -9.790  11.684  66.586  1.00  0.00    -0.200 C  
HETATM    4  H   UNL     2      -8.924  13.119  67.604  1.00  0.00     0.000 HD 
ENDROOT
BRANCH   3   5
HETATM    5  C   UNL     2     -10.869  11.595  65.509  1.00  0.00    -0.334 C  
BRANCH   5   6
HETATM    6  C   UNL     2     -10.835  12.783  64.562  1.00  0.00    -0.373 C  
HETATM    7  C   UNL     2     -12.267  13.245  64.266  1.00  0.00    -0.392 C  
HETATM    8  O   UNL     2     -12.441  13.730  63.128  1.00  0.00    -0.786 OA 
HETATM    9  O   UNL     2     -13.098  12.987  65.204  1.00  0.00    -0.740 OA 
ENDBRANCH   5   6
ENDBRANCH   3   5
TORSDOF 2
ENDMDL
MODEL       51
REMARK 921   NORMALIZED FREE ENERGY PREDICTED BY IDOCK:   -3.11 KCAL/MOL
REMARK 922        TOTAL FREE ENERGY PREDICTED BY IDOCK:   -3.64 KCAL/MOL
REMARK 923 INTER-LIGAND FREE ENERGY PREDICTED BY IDOCK:   -3.58 KCAL/MOL
REMARK 924 INTRA-LIGAND FREE ENERGY PREDICTED BY IDOCK:   -0.07 KCAL/MOL
REMARK 927      BINDING AFFINITY PREDICTED BY RF-SCORE:    0.00 PKD
ROOT
HETATM    1 NA   UNL     1     -13.505   7.271  70.553  1.00  0.00    -0.564 Na 
HETATM    2  O   UNL     2     -12.467   7.326  72.546  1.00  0.00    -0.498 OA 
HETATM    3  C   UNL     2     -11.434   8.284  72.266  1.00  0.00    -0.384 C  
HETATM    4  H   UNL     2     -12.072   6.553  72.933  1.00  0.00     0.000 HD 
ENDROOT
BRANCH   3   5
HETATM    5  C   UNL     2     -12.070   9.526  71.644  1.00  0.00    -0.474 C  
BRANCH   5   6
HETATM    6  C   UNL     2     -11.480   9.851  70.282  1.00  0.00    -0.349 C  
HETATM    7  C   UNL     2     -12.046  11.186  69.783  1.00  0.00    -0.344 C  
HETATM    8  O   UNL     2     -12.167  11.279  68.543  1.00  0.00    -0.588 OA 
HETATM    9  O   UNL     2     -12.391  11.984  70.721  1.00  0.00    -0.375 OA 
ENDBRANCH   5   6
ENDBRANCH   3   5
TORSDOF 2
ENDMDL
MODEL       52
REMARK 921   NORMALIZED FREE ENERGY PREDICTED BY IDOCK:   -3.09 KCAL/MOL
REMARK 922        TOTAL FREE ENERGY PREDICTED BY IDOCK:   -3.61 KCAL/MOL
REMARK 923 INTER-LIGAND FREE ENERGY PREDICTED BY IDOCK:   -3.10 KCAL/MOL
REMARK 924 INTRA-LIGAND FREE ENERGY PREDICTED BY IDOCK:   -0.51 KCAL/MOL
REMARK 927      BINDING AFFINITY PREDICTED BY RF-SCORE:    0.00 PKD
ROOT
HETATM    1 NA   UNL     1     -13.958   7.974  72.907  1.00  0.00    -0.521 Na 
HETATM    2  O   UNL     2     -13.589   9.209  71.066  1.00  0.00    -0.567 OA 
HETATM    3  C   UNL     2     -12.363   9.859  71.439  1.00  0.00    -0.404 C  
HETATM    4  H   UNL     2     -14.205   9.866  70.765  1.00  0.00     0.000 HD 
ENDROOT
BRANCH   3   5
HETATM    5  C   UNL     2     -11.373   8.802  71.923  1.00  0.00    -0.431 C  
BRANCH   5   6
HETATM    6  C   UNL     2     -10.972   7.841  70.816  1.00  0.00    -0.259 C  
HETATM    7  C   UNL     2     -11.451   6.426  71.166  1.00  0.00    -0.323 C  
HETATM    8  O   UNL     2     -10.725   5.503  70.742  1.00  0.00    -0.261 OA 
HETATM    9  O   UNL     2     -12.486   6.402  71.917  1.00  0.00    -0.337 OA 
ENDBRANCH   5   6
ENDBRANCH   3   5
TORSDOF 2
ENDMDL
MODEL       53
REMARK 921   NORMALIZED FREE ENERGY PREDICTED BY IDOCK:   -3.06 KCAL/MOL
REMARK 922        TOTAL FREE ENERGY PREDICTED BY IDOCK:   -3.59 KCAL/MOL
REMARK 923 INTER-LIGAND FREE ENERGY PREDICTED BY IDOCK:   -3.14 KCAL/MOL
REMARK 924 INTRA-LIGAND FREE ENERGY PREDICTED BY IDOCK:   -0.45 KCAL/MOL
REMARK 927      BINDING AFFINITY PREDICTED BY RF-SCORE:    0.00 PKD
ROOT
HETATM    1 NA   UNL     1     -10.825  19.752  69.389  1.00  0.00    -0.546 Na 
HETATM    2  O   UNL     2     -10.868  18.516  67.513  1.00  0.00    -0.422 OA 
HETATM    3  C   UNL     2     -10.771  19.554  66.525  1.00  0.00    -0.432 C  
HETATM    4  H   UNL     2     -11.601  17.952  67.294  1.00  0.00     0.000 HD 
ENDROOT
BRANCH   3   5
HETATM    5  C   UNL     2      -9.593  20.460  66.876  1.00  0.00    -0.546 C  
BRANCH   5   6
HETATM    6  C   UNL     2      -8.256  19.765  66.679  1.00  0.00    -0.353 C  
HETATM    7  C   UNL     2      -7.645  19.432  68.047  1.00  0.00    -0.289 C  
HETATM    8  O   UNL     2      -6.397  19.451  68.087  1.00  0.00    -0.220 OA 
HETATM    9  O   UNL     2      -8.512  19.262  68.972  1.00  0.00    -0.334 OA 
ENDBRANCH   5   6
ENDBRANCH   3   5
TORSDOF 2
ENDMDL
MODEL       54
REMARK 921   NORMALIZED FREE ENERGY PREDICTED BY IDOCK:   -3.06 KCAL/MOL
REMARK 922        TOTAL FREE ENERGY PREDICTED BY IDOCK:   -3.59 KCAL/MOL
REMARK 923 INTER-LIGAND FREE ENERGY PREDICTED BY IDOCK:   -3.55 KCAL/MOL
REMARK 924 INTRA-LIGAND FREE ENERGY PREDICTED BY IDOCK:   -0.04 KCAL/MOL
REMARK 927      BINDING AFFINITY PREDICTED BY RF-SCORE:    0.00 PKD
ROOT
HETATM    1 NA   UNL     1      -9.980  10.851  70.300  1.00  0.00    -0.401 Na 
HETATM    2  O   UNL     2     -11.971   9.870  69.953  1.00  0.00    -0.453 OA 
HETATM    3  C   UNL     2     -12.699  10.369  71.087  1.00  0.00    -0.415 C  
HETATM    4  H   UNL     2     -12.071   8.926  69.916  1.00  0.00     0.000 HD 
ENDROOT
BRANCH   3   5
HETATM    5  C   UNL     2     -12.539  11.886  71.147  1.00  0.00    -0.390 C  
BRANCH   5   6
HETATM    6  C   UNL     2     -13.454  12.520  72.182  1.00  0.00    -0.523 C  
HETATM    7  C   UNL     2     -13.243  14.039  72.191  1.00  0.00    -0.435 C  
HETATM    8  O   UNL     2     -13.408  14.589  73.300  1.00  0.00    -0.611 OA 
HETATM    9  O   UNL     2     -12.845  14.513  71.071  1.00  0.00    -0.318 OA 
ENDBRANCH   5   6
ENDBRANCH   3   5
TORSDOF 2
ENDMDL
MODEL       55
REMARK 921   NORMALIZED FREE ENERGY PREDICTED BY IDOCK:   -3.02 KCAL/MOL
REMARK 922        TOTAL FREE ENERGY PREDICTED BY IDOCK:   -3.54 KCAL/MOL
REMARK 923 INTER-LIGAND FREE ENERGY PREDICTED BY IDOCK:   -3.27 KCAL/MOL
REMARK 924 INTRA-LIGAND FREE ENERGY PREDICTED BY IDOCK:   -0.27 KCAL/MOL
REMARK 927      BINDING AFFINITY PREDICTED BY RF-SCORE:    0.00 PKD
ROOT
HETATM    1 NA   UNL     1     -11.097  16.684  69.502  1.00  0.00    -0.251 Na 
HETATM    2  O   UNL     2     -12.395  15.244  68.367  1.00  0.00    -0.541 OA 
HETATM    3  C   UNL     2     -11.734  14.007  68.681  1.00  0.00    -0.354 C  
HETATM    4  H   UNL     2     -12.510  15.299  67.425  1.00  0.00     0.000 HD 
ENDROOT
BRANCH   3   5
HETATM    5  C   UNL     2     -11.549  13.918  70.194  1.00  0.00    -0.249 C  
BRANCH   5   6
HETATM    6  C   UNL     2     -12.751  13.292  70.883  1.00  0.00    -0.332 C  
HETATM    7  C   UNL     2     -13.545  14.380  71.617  1.00  0.00    -0.384 C  
HETATM    8  O   UNL     2     -14.122  14.002  72.657  1.00  0.00    -0.651 OA 
HETATM    9  O   UNL     2     -13.431  15.543  71.096  1.00  0.00    -0.510 OA 
ENDBRANCH   5   6
ENDBRANCH   3   5
TORSDOF 2
ENDMDL
MODEL       56
REMARK 921   NORMALIZED FREE ENERGY PREDICTED BY IDOCK:   -3.01 KCAL/MOL
REMARK 922        TOTAL FREE ENERGY PREDICTED BY IDOCK:   -3.53 KCAL/MOL
REMARK 923 INTER-LIGAND FREE ENERGY PREDICTED BY IDOCK:   -3.49 KCAL/MOL
REMARK 924 INTRA-LIGAND FREE ENERGY PREDICTED BY IDOCK:   -0.04 KCAL/MOL
REMARK 927      BINDING AFFINITY PREDICTED BY RF-SCORE:    0.00 PKD
ROOT
HETATM    1 NA   UNL     1      -7.795  13.365  66.336  1.00  0.00    -0.375 Na 
HETATM    2  O   UNL     2      -9.284  11.689  66.185  1.00  0.00    -0.215 OA 
HETATM    3  C   UNL     2     -10.497  12.442  66.030  1.00  0.00    -0.254 C  
HETATM    4  H   UNL     2      -9.404  11.054  66.882  1.00  0.00     0.000 HD 
ENDROOT
BRANCH   3   5
HETATM    5  C   UNL     2     -10.304  13.463  64.911  1.00  0.00    -0.382 C  
BRANCH   5   6
HETATM    6  C   UNL     2     -11.016  14.774  65.201  1.00  0.00    -0.403 C  
HETATM    7  C   UNL     2     -12.185  14.949  64.223  1.00  0.00    -0.344 C  
HETATM    8  O   UNL     2     -12.447  16.132  63.918  1.00  0.00    -0.824 OA 
HETATM    9  O   UNL     2     -12.672  13.846  63.797  1.00  0.00    -0.693 OA 
ENDBRANCH   5   6
ENDBRANCH   3   5
TORSDOF 2
ENDMDL
MODEL       57
REMARK 921   NORMALIZED FREE ENERGY PREDICTED BY IDOCK:   -3.00 KCAL/MOL
REMARK 922        TOTAL FREE ENERGY PREDICTED BY IDOCK:   -3.52 KCAL/MOL
REMARK 923 INTER-LIGAND FREE ENERGY PREDICTED BY IDOCK:   -3.41 KCAL/MOL
REMARK 924 INTRA-LIGAND FREE ENERGY PREDICTED BY IDOCK:   -0.11 KCAL/MOL
REMARK 927      BINDING AFFINITY PREDICTED BY RF-SCORE:    0.00 PKD
ROOT
HETATM    1 NA   UNL     1      -8.449  13.090  65.858  1.00  0.00    -0.389 Na 
HETATM    2  O   UNL     2     -10.497  13.176  66.777  1.00  0.00    -0.257 OA 
HETATM    3  C   UNL     2     -10.962  14.426  66.241  1.00  0.00    -0.318 C  
HETATM    4  H   UNL     2     -10.631  13.178  67.718  1.00  0.00     0.000 HD 
ENDROOT
BRANCH   3   5
HETATM    5  C   UNL     2     -10.748  14.423  64.729  1.00  0.00    -0.423 C  
BRANCH   5   6
HETATM    6  C   UNL     2     -10.842  13.026  64.139  1.00  0.00    -0.433 C  
HETATM    7  C   UNL     2     -12.204  12.850  63.455  1.00  0.00    -0.512 C  
HETATM    8  O   UNL     2     -12.665  11.689  63.485  1.00  0.00    -0.445 OA 
HETATM    9  O   UNL     2     -12.711  13.942  63.024  1.00  0.00    -0.634 OA 
ENDBRANCH   5   6
ENDBRANCH   3   5
TORSDOF 2
ENDMDL
MODEL       58
REMARK 921   NORMALIZED FREE ENERGY PREDICTED BY IDOCK:   -3.00 KCAL/MOL
REMARK 922        TOTAL FREE ENERGY PREDICTED BY IDOCK:   -3.52 KCAL/MOL
REMARK 923 INTER-LIGAND FREE ENERGY PREDICTED BY IDOCK:   -3.22 KCAL/MOL
REMARK 924 INTRA-LIGAND FREE ENERGY PREDICTED BY IDOCK:   -0.30 KCAL/MOL
REMARK 927      BINDING AFFINITY PREDICTED BY RF-SCORE:    0.00 PKD
ROOT
HETATM    1 NA   UNL     1     -13.162   7.196  70.019  1.00  0.00    -0.592 Na 
HETATM    2  O   UNL     2     -14.190   8.952  70.972  1.00  0.00    -0.578 OA 
HETATM    3  C   UNL     2     -13.426   9.064  72.184  1.00  0.00    -0.459 C  
HETATM    4  H   UNL     2     -15.114   8.940  71.192  1.00  0.00     0.000 HD 
ENDROOT
BRANCH   3   5
HETATM    5  C   UNL     2     -11.941   9.083  71.831  1.00  0.00    -0.445 C  
BRANCH   5   6
HETATM    6  C   UNL     2     -11.581  10.252  70.929  1.00  0.00    -0.454 C  
HETATM    7  C   UNL     2     -10.687   9.759  69.784  1.00  0.00    -0.256 C  
HETATM    8  O   UNL     2      -9.853  10.591  69.368  1.00  0.00    -0.221 OA 
HETATM    9  O   UNL     2     -10.871   8.531  69.476  1.00  0.00    -0.215 OA 
ENDBRANCH   5   6
ENDBRANCH   3   5
TORSDOF 2
ENDMDL
MODEL       59
REMARK 921   NORMALIZED FREE ENERGY PREDICTED BY IDOCK:   -3.00 KCAL/MOL
REMARK 922        TOTAL FREE ENERGY PREDICTED BY IDOCK:   -3.51 KCAL/MOL
REMARK 923 INTER-LIGAND FREE ENERGY PREDICTED BY IDOCK:   -3.45 KCAL/MOL
REMARK 924 INTRA-LIGAND FREE ENERGY PREDICTED BY IDOCK:   -0.07 KCAL/MOL
REMARK 927      BINDING AFFINITY PREDICTED BY RF-SCORE:    0.00 PKD
ROOT
HETATM    1 NA   UNL     1     -12.089  13.495  62.456  1.00  0.00    -0.721 Na 
HETATM    2  O   UNL     2     -11.154  11.524  62.995  1.00  0.00    -0.750 OA 
HETATM    3  C   UNL     2     -10.145  11.968  63.917  1.00  0.00    -0.369 C  
HETATM    4  H   UNL     2     -10.750  10.961  62.346  1.00  0.00     0.000 HD 
ENDROOT
BRANCH   3   5
HETATM    5  C   UNL     2     -10.795  12.874  64.961  1.00  0.00    -0.323 C  
BRANCH   5   6
HETATM    6  C   UNL     2     -10.447  14.337  64.746  1.00  0.00    -0.421 C  
HETATM    7  C   UNL     2     -10.014  14.962  66.079  1.00  0.00    -0.313 C  
HETATM    8  O   UNL     2     -10.291  16.172  66.210  1.00  0.00    -0.303 OA 
HETATM    9  O   UNL     2      -9.503  14.125  66.900  1.00  0.00    -0.246 OA 
ENDBRANCH   5   6
ENDBRANCH   3   5
TORSDOF 2
ENDMDL
MODEL       60
REMARK 921   NORMALIZED FREE ENERGY PREDICTED BY IDOCK:   -2.98 KCAL/MOL
REMARK 922        TOTAL FREE ENERGY PREDICTED BY IDOCK:   -3.49 KCAL/MOL
REMARK 923 INTER-LIGAND FREE ENERGY PREDICTED BY IDOCK:   -3.06 KCAL/MOL
REMARK 924 INTRA-LIGAND FREE ENERGY PREDICTED BY IDOCK:   -0.44 KCAL/MOL
REMARK 927      BINDING AFFINITY PREDICTED BY RF-SCORE:    0.00 PKD
ROOT
HETATM    1 NA   UNL     1      -8.466  20.701  65.046  1.00  0.00    -0.503 Na 
HETATM    2  O   UNL     2      -9.907  20.927  66.756  1.00  0.00    -0.608 OA 
HETATM    3  C   UNL     2     -10.107  19.547  67.101  1.00  0.00    -0.400 C  
HETATM    4  H   UNL     2     -10.755  21.343  66.652  1.00  0.00     0.000 HD 
ENDROOT
BRANCH   3   5
HETATM    5  C   UNL     2      -8.744  18.878  67.268  1.00  0.00    -0.294 C  
BRANCH   5   6
HETATM    6  C   UNL     2      -8.000  19.389  68.490  1.00  0.00    -0.395 C  
HETATM    7  C   UNL     2      -6.848  20.300  68.045  1.00  0.00    -0.300 C  
HETATM    8  O   UNL     2      -5.845  20.284  68.789  1.00  0.00    -0.258 OA 
HETATM    9  O   UNL     2      -7.053  20.883  66.925  1.00  0.00    -0.299 OA 
ENDBRANCH   5   6
ENDBRANCH   3   5
TORSDOF 2
ENDMDL
MODEL       61
REMARK 921   NORMALIZED FREE ENERGY PREDICTED BY IDOCK:   -2.96 KCAL/MOL
REMARK 922        TOTAL FREE ENERGY PREDICTED BY IDOCK:   -3.48 KCAL/MOL
REMARK 923 INTER-LIGAND FREE ENERGY PREDICTED BY IDOCK:   -3.37 KCAL/MOL
REMARK 924 INTRA-LIGAND FREE ENERGY PREDICTED BY IDOCK:   -0.11 KCAL/MOL
REMARK 927      BINDING AFFINITY PREDICTED BY RF-SCORE:    0.00 PKD
ROOT
HETATM    1 NA   UNL     1     -13.492  12.346  64.221  1.00  0.00    -0.649 Na 
HETATM    2  O   UNL     2     -12.382  14.191  63.579  1.00  0.00    -1.065 OA 
HETATM    3  C   UNL     2     -12.410  14.942  64.804  1.00  0.00    -0.233 C  
HETATM    4  H   UNL     2     -12.689  14.747  62.872  1.00  0.00     0.000 HD 
ENDROOT
BRANCH   3   5
HETATM    5  C   UNL     2     -11.917  14.048  65.941  1.00  0.00    -0.424 C  
BRANCH   5   6
HETATM    6  C   UNL     2     -10.523  14.433  66.409  1.00  0.00    -0.295 C  
HETATM    7  C   UNL     2      -9.598  13.213  66.320  1.00  0.00    -0.234 C  
HETATM    8  O   UNL     2      -8.693  13.172  67.181  1.00  0.00    -0.205 OA 
HETATM    9  O   UNL     2      -9.941  12.368  65.423  1.00  0.00    -0.267 OA 
ENDBRANCH   5   6
ENDBRANCH   3   5
TORSDOF 2
ENDMDL
MODEL       62
REMARK 921   NORMALIZED FREE ENERGY PREDICTED BY IDOCK:   -2.94 KCAL/MOL
REMARK 922        TOTAL FREE ENERGY PREDICTED BY IDOCK:   -3.45 KCAL/MOL
REMARK 923 INTER-LIGAND FREE ENERGY PREDICTED BY IDOCK:   -3.39 KCAL/MOL
REMARK 924 INTRA-LIGAND FREE ENERGY PREDICTED BY IDOCK:   -0.06 KCAL/MOL
REMARK 927      BINDING AFFINITY PREDICTED BY RF-SCORE:    0.00 PKD
ROOT
HETATM    1 NA   UNL     1     -11.557  13.036  64.890  1.00  0.00    -0.300 Na 
HETATM    2  O   UNL     2     -12.874  14.067  66.391  1.00  0.00    -0.474 OA 
HETATM    3  C   UNL     2     -11.876  14.613  67.269  1.00  0.00    -0.351 C  
HETATM    4  H   UNL     2     -13.514  13.595  66.911  1.00  0.00     0.000 HD 
ENDROOT
BRANCH   3   5
HETATM    5  C   UNL     2     -10.846  15.370  66.433  1.00  0.00    -0.303 C  
BRANCH   5   6
HETATM    6  C   UNL     2     -10.631  16.789  66.934  1.00  0.00    -0.219 C  
HETATM    7  C   UNL     2     -10.465  17.736  65.738  1.00  0.00    -0.198 C  
HETATM    8  O   UNL     2      -9.713  18.713  65.938  1.00  0.00    -0.498 OA 
HETATM    9  O   UNL     2     -11.061  17.338  64.678  1.00  0.00    -1.052 OA 
ENDBRANCH   5   6
ENDBRANCH   3   5
TORSDOF 2
ENDMDL
MODEL       63
REMARK 921   NORMALIZED FREE ENERGY PREDICTED BY IDOCK:   -2.94 KCAL/MOL
REMARK 922        TOTAL FREE ENERGY PREDICTED BY IDOCK:   -3.45 KCAL/MOL
REMARK 923 INTER-LIGAND FREE ENERGY PREDICTED BY IDOCK:   -3.40 KCAL/MOL
REMARK 924 INTRA-LIGAND FREE ENERGY PREDICTED BY IDOCK:   -0.05 KCAL/MOL
REMARK 927      BINDING AFFINITY PREDICTED BY RF-SCORE:    0.00 PKD
ROOT
HETATM    1 NA   UNL     1     -13.939  13.393  65.245  1.00  0.00    -0.643 Na 
HETATM    2  O   UNL     2     -12.221  12.221  66.098  1.00  0.00    -0.647 OA 
HETATM    3  C   UNL     2     -11.198  13.230  66.089  1.00  0.00    -0.296 C  
HETATM    4  H   UNL     2     -11.883  11.439  65.678  1.00  0.00     0.000 HD 
ENDROOT
BRANCH   3   5
HETATM    5  C   UNL     2     -11.741  14.488  66.764  1.00  0.00    -0.393 C  
BRANCH   5   6
HETATM    6  C   UNL     2     -10.634  15.451  67.158  1.00  0.00    -0.305 C  
HETATM    7  C   UNL     2     -11.097  16.308  68.344  1.00  0.00    -0.362 C  
HETATM    8  O   UNL     2     -10.626  17.464  68.376  1.00  0.00    -0.367 OA 
HETATM    9  O   UNL     2     -11.968  15.735  69.086  1.00  0.00    -0.387 OA 
ENDBRANCH   5   6
ENDBRANCH   3   5
TORSDOF 2
ENDMDL
MODEL       64
REMARK 921   NORMALIZED FREE ENERGY PREDICTED BY IDOCK:   -2.93 KCAL/MOL
REMARK 922        TOTAL FREE ENERGY PREDICTED BY IDOCK:   -3.43 KCAL/MOL
REMARK 923 INTER-LIGAND FREE ENERGY PREDICTED BY IDOCK:   -3.59 KCAL/MOL
REMARK 924 INTRA-LIGAND FREE ENERGY PREDICTED BY IDOCK:    0.15 KCAL/MOL
REMARK 927      BINDING AFFINITY PREDICTED BY RF-SCORE:    0.00 PKD
ROOT
HETATM    1 NA   UNL     1     -10.447  14.793  63.865  1.00  0.00    -0.553 Na 
HETATM    2  O   UNL     2     -12.452  14.139  63.089  1.00  0.00    -1.126 OA 
HETATM    3  C   UNL     2     -12.443  12.761  63.497  1.00  0.00    -0.379 C  
HETATM    4  H   UNL     2     -12.677  14.184  62.167  1.00  0.00     0.000 HD 
ENDROOT
BRANCH   3   5
HETATM    5  C   UNL     2     -12.080  12.689  64.979  1.00  0.00    -0.497 C  
BRANCH   5   6
HETATM    6  C   UNL     2     -11.224  11.475  65.302  1.00  0.00    -0.203 C  
HETATM    7  C   UNL     2     -10.078  11.373  64.288  1.00  0.00    -0.297 C  
HETATM    8  O   UNL     2      -9.704  10.210  64.028  1.00  0.00    -0.306 OA 
HETATM    9  O   UNL     2      -9.725  12.497  63.792  1.00  0.00    -0.225 OA 
ENDBRANCH   5   6
ENDBRANCH   3   5
TORSDOF 2
ENDMDL
MODEL       65
REMARK 921   NORMALIZED FREE ENERGY PREDICTED BY IDOCK:   -2.92 KCAL/MOL
REMARK 922        TOTAL FREE ENERGY PREDICTED BY IDOCK:   -3.43 KCAL/MOL
REMARK 923 INTER-LIGAND FREE ENERGY PREDICTED BY IDOCK:   -3.39 KCAL/MOL
REMARK 924 INTRA-LIGAND FREE ENERGY PREDICTED BY IDOCK:   -0.04 KCAL/MOL
REMARK 927      BINDING AFFINITY PREDICTED BY RF-SCORE:    0.00 PKD
ROOT
HETATM    1 NA   UNL     1     -12.935  14.229  67.697  1.00  0.00    -0.555 Na 
HETATM    2  O   UNL     2     -12.742  15.710  69.376  1.00  0.00    -0.555 OA 
HETATM    3  C   UNL     2     -11.350  16.047  69.257  1.00  0.00    -0.356 C  
HETATM    4  H   UNL     2     -12.925  15.478  70.280  1.00  0.00     0.000 HD 
ENDROOT
BRANCH   3   5
HETATM    5  C   UNL     2     -11.056  16.419  67.806  1.00  0.00    -0.199 C  
BRANCH   5   6
HETATM    6  C   UNL     2     -10.088  17.585  67.698  1.00  0.00    -0.328 C  
HETATM    7  C   UNL     2      -9.728  17.818  66.225  1.00  0.00    -0.267 C  
HETATM    8  O   UNL     2      -8.575  18.255  66.025  1.00  0.00    -0.494 OA 
HETATM    9  O   UNL     2     -10.639  17.449  65.406  1.00  0.00    -0.638 OA 
ENDBRANCH   5   6
ENDBRANCH   3   5
TORSDOF 2
ENDMDL
MODEL       66
REMARK 921   NORMALIZED FREE ENERGY PREDICTED BY IDOCK:   -2.91 KCAL/MOL
REMARK 922        TOTAL FREE ENERGY PREDICTED BY IDOCK:   -3.42 KCAL/MOL
REMARK 923 INTER-LIGAND FREE ENERGY PREDICTED BY IDOCK:   -3.35 KCAL/MOL
REMARK 924 INTRA-LIGAND FREE ENERGY PREDICTED BY IDOCK:   -0.07 KCAL/MOL
REMARK 927      BINDING AFFINITY PREDICTED BY RF-SCORE:    0.00 PKD
ROOT
HETATM    1 NA   UNL     1     -13.294  11.193  72.709  1.00  0.00    -0.599 Na 
HETATM    2  O   UNL     2     -13.811   9.070  73.233  1.00  0.00    -1.159 OA 
HETATM    3  C   UNL     2     -13.096   8.374  72.199  1.00  0.00    -0.328 C  
HETATM    4  H   UNL     2     -14.708   8.757  73.251  1.00  0.00     0.000 HD 
ENDROOT
BRANCH   3   5
HETATM    5  C   UNL     2     -11.655   8.878  72.171  1.00  0.00    -0.400 C  
BRANCH   5   6
HETATM    6  C   UNL     2     -10.663   7.763  71.885  1.00  0.00    -0.272 C  
HETATM    7  C   UNL     2     -10.340   7.737  70.385  1.00  0.00    -0.212 C  
HETATM    8  O   UNL     2     -10.084   6.606  69.920  1.00  0.00    -0.173 OA 
HETATM    9  O   UNL     2     -10.462   8.872  69.810  1.00  0.00    -0.203 OA 
ENDBRANCH   5   6
ENDBRANCH   3   5
TORSDOF 2
ENDMDL
MODEL       67
REMARK 921   NORMALIZED FREE ENERGY PREDICTED BY IDOCK:   -2.91 KCAL/MOL
REMARK 922        TOTAL FREE ENERGY PREDICTED BY IDOCK:   -3.42 KCAL/MOL
REMARK 923 INTER-LIGAND FREE ENERGY PREDICTED BY IDOCK:   -3.35 KCAL/MOL
REMARK 924 INTRA-LIGAND FREE ENERGY PREDICTED BY IDOCK:   -0.07 KCAL/MOL
REMARK 927      BINDING AFFINITY PREDICTED BY RF-SCORE:    0.00 PKD
ROOT
HETATM    1 NA   UNL     1      -7.817  13.670  66.207  1.00  0.00    -0.357 Na 
HETATM    2  O   UNL     2      -9.740  12.545  65.911  1.00  0.00    -0.261 OA 
HETATM    3  C   UNL     2     -10.687  13.574  66.239  1.00  0.00    -0.288 C  
HETATM    4  H   UNL     2      -9.951  11.763  66.409  1.00  0.00     0.000 HD 
ENDROOT
BRANCH   3   5
HETATM    5  C   UNL     2     -10.347  14.830  65.440  1.00  0.00    -0.410 C  
BRANCH   5   6
HETATM    6  C   UNL     2     -10.308  16.073  66.314  1.00  0.00    -0.330 C  
HETATM    7  C   UNL     2     -10.513  17.318  65.443  1.00  0.00    -0.035 C  
HETATM    8  O   UNL     2      -9.924  18.345  65.842  1.00  0.00    -0.526 OA 
HETATM    9  O   UNL     2     -11.194  17.101  64.382  1.00  0.00    -1.143 OA 
ENDBRANCH   5   6
ENDBRANCH   3   5
TORSDOF 2
ENDMDL
MODEL       68
REMARK 921   NORMALIZED FREE ENERGY PREDICTED BY IDOCK:   -2.86 KCAL/MOL
REMARK 922        TOTAL FREE ENERGY PREDICTED BY IDOCK:   -3.37 KCAL/MOL
REMARK 923 INTER-LIGAND FREE ENERGY PREDICTED BY IDOCK:   -3.31 KCAL/MOL
REMARK 924 INTRA-LIGAND FREE ENERGY PREDICTED BY IDOCK:   -0.05 KCAL/MOL
REMARK 927      BINDING AFFINITY PREDICTED BY RF-SCORE:    0.00 PKD
ROOT
HETATM    1 NA   UNL     1     -11.503  12.458  70.900  1.00  0.00    -0.472 Na 
HETATM    2  O   UNL     2     -10.582  13.443  69.102  1.00  0.00    -0.415 OA 
HETATM    3  C   UNL     2     -11.430  14.597  68.985  1.00  0.00    -0.291 C  
HETATM    4  H   UNL     2     -10.534  13.011  68.257  1.00  0.00     0.000 HD 
ENDROOT
BRANCH   3   5
HETATM    5  C   UNL     2     -11.507  15.291  70.343  1.00  0.00    -0.330 C  
BRANCH   5   6
HETATM    6  C   UNL     2     -12.933  15.660  70.718  1.00  0.00    -0.413 C  
HETATM    7  C   UNL     2     -13.058  15.736  72.245  1.00  0.00    -0.447 C  
HETATM    8  O   UNL     2     -14.176  15.417  72.700  1.00  0.00    -0.488 OA 
HETATM    9  O   UNL     2     -11.966  16.038  72.839  1.00  0.00    -0.458 OA 
ENDBRANCH   5   6
ENDBRANCH   3   5
TORSDOF 2
ENDMDL
MODEL       69
REMARK 921   NORMALIZED FREE ENERGY PREDICTED BY IDOCK:   -2.85 KCAL/MOL
REMARK 922        TOTAL FREE ENERGY PREDICTED BY IDOCK:   -3.35 KCAL/MOL
REMARK 923 INTER-LIGAND FREE ENERGY PREDICTED BY IDOCK:   -3.30 KCAL/MOL
REMARK 924 INTRA-LIGAND FREE ENERGY PREDICTED BY IDOCK:   -0.05 KCAL/MOL
REMARK 927      BINDING AFFINITY PREDICTED BY RF-SCORE:    0.00 PKD
ROOT
HETATM    1 NA   UNL     1      -8.820  14.450  68.282  1.00  0.00    -0.141 Na 
HETATM    2  O   UNL     2     -10.407  12.895  68.617  1.00  0.00    -0.286 OA 
HETATM    3  C   UNL     2     -11.584  13.717  68.554  1.00  0.00    -0.335 C  
HETATM    4  H   UNL     2     -10.442  12.369  69.408  1.00  0.00     0.000 HD 
ENDROOT
BRANCH   3   5
HETATM    5  C   UNL     2     -11.527  14.561  67.283  1.00  0.00    -0.381 C  
BRANCH   5   6
HETATM    6  C   UNL     2     -12.299  13.927  66.138  1.00  0.00    -0.504 C  
HETATM    7  C   UNL     2     -11.735  14.426  64.801  1.00  0.00    -0.416 C  
HETATM    8  O   UNL     2     -12.568  14.515  63.875  1.00  0.00    -0.827 OA 
HETATM    9  O   UNL     2     -10.501  14.759  64.853  1.00  0.00    -0.412 OA 
ENDBRANCH   5   6
ENDBRANCH   3   5
TORSDOF 2
ENDMDL
MODEL       70
REMARK 921   NORMALIZED FREE ENERGY PREDICTED BY IDOCK:   -2.84 KCAL/MOL
REMARK 922        TOTAL FREE ENERGY PREDICTED BY IDOCK:   -3.34 KCAL/MOL
REMARK 923 INTER-LIGAND FREE ENERGY PREDICTED BY IDOCK:   -2.83 KCAL/MOL
REMARK 924 INTRA-LIGAND FREE ENERGY PREDICTED BY IDOCK:   -0.51 KCAL/MOL
REMARK 927      BINDING AFFINITY PREDICTED BY RF-SCORE:    0.00 PKD
ROOT
HETATM    1 NA   UNL     1     -11.089  17.986  66.140  1.00  0.00    -0.319 Na 
HETATM    2  O   UNL     2     -10.407  20.003  66.857  1.00  0.00    -0.441 OA 
HETATM    3  C   UNL     2     -10.182  19.714  68.246  1.00  0.00    -0.452 C  
HETATM    4  H   UNL     2     -10.955  20.777  66.790  1.00  0.00     0.000 HD 
ENDROOT
BRANCH   3   5
HETATM    5  C   UNL     2      -9.301  18.471  68.354  1.00  0.00    -0.359 C  
BRANCH   5   6
HETATM    6  C   UNL     2      -7.911  18.702  67.785  1.00  0.00    -0.261 C  
HETATM    7  C   UNL     2      -7.703  17.802  66.560  1.00  0.00    -0.263 C  
HETATM    8  O   UNL     2      -6.528  17.419  66.379  1.00  0.00    -0.210 OA 
HETATM    9  O   UNL     2      -8.785  17.507  65.946  1.00  0.00    -0.525 OA 
ENDBRANCH   5   6
ENDBRANCH   3   5
TORSDOF 2
ENDMDL
MODEL       71
REMARK 921   NORMALIZED FREE ENERGY PREDICTED BY IDOCK:   -2.82 KCAL/MOL
REMARK 922        TOTAL FREE ENERGY PREDICTED BY IDOCK:   -3.31 KCAL/MOL
REMARK 923 INTER-LIGAND FREE ENERGY PREDICTED BY IDOCK:   -2.99 KCAL/MOL
REMARK 924 INTRA-LIGAND FREE ENERGY PREDICTED BY IDOCK:   -0.32 KCAL/MOL
REMARK 927      BINDING AFFINITY PREDICTED BY RF-SCORE:    0.00 PKD
ROOT
HETATM    1 NA   UNL     1      -9.723  16.458  65.517  1.00  0.00    -0.267 Na 
HETATM    2  O   UNL     2      -9.823  16.589  67.758  1.00  0.00    -0.234 OA 
HETATM    3  C   UNL     2     -10.846  15.615  68.022  1.00  0.00    -0.308 C  
HETATM    4  H   UNL     2     -10.044  17.395  68.209  1.00  0.00     0.000 HD 
ENDROOT
BRANCH   3   5
HETATM    5  C   UNL     2     -10.491  14.318  67.297  1.00  0.00    -0.269 C  
BRANCH   5   6
HETATM    6  C   UNL     2     -11.726  13.573  66.817  1.00  0.00    -0.430 C  
HETATM    7  C   UNL     2     -12.130  14.089  65.431  1.00  0.00    -0.401 C  
HETATM    8  O   UNL     2     -13.356  14.061  65.193  1.00  0.00    -0.703 OA 
HETATM    9  O   UNL     2     -11.154  14.552  64.747  1.00  0.00    -0.382 OA 
ENDBRANCH   5   6
ENDBRANCH   3   5
TORSDOF 2
ENDMDL
MODEL       72
REMARK 921   NORMALIZED FREE ENERGY PREDICTED BY IDOCK:   -2.80 KCAL/MOL
REMARK 922        TOTAL FREE ENERGY PREDICTED BY IDOCK:   -3.29 KCAL/MOL
REMARK 923 INTER-LIGAND FREE ENERGY PREDICTED BY IDOCK:   -3.01 KCAL/MOL
REMARK 924 INTRA-LIGAND FREE ENERGY PREDICTED BY IDOCK:   -0.28 KCAL/MOL
REMARK 927      BINDING AFFINITY PREDICTED BY RF-SCORE:    0.00 PKD
ROOT
HETATM    1 NA   UNL     1     -10.383  12.507  67.150  1.00  0.00    -0.207 Na 
HETATM    2  O   UNL     2     -12.296  12.364  65.979  1.00  0.00    -0.627 OA 
HETATM    3  C   UNL     2     -12.409  13.719  65.514  1.00  0.00    -0.475 C  
HETATM    4  H   UNL     2     -13.118  12.108  66.380  1.00  0.00     0.000 HD 
ENDROOT
BRANCH   3   5
HETATM    5  C   UNL     2     -11.088  14.130  64.868  1.00  0.00    -0.389 C  
BRANCH   5   6
HETATM    6  C   UNL     2     -10.808  15.615  65.029  1.00  0.00    -0.468 C  
HETATM    7  C   UNL     2     -10.221  15.878  66.422  1.00  0.00    -0.301 C  
HETATM    8  O   UNL     2     -10.510  16.988  66.916  1.00  0.00    -0.313 OA 
HETATM    9  O   UNL     2      -9.586  14.882  66.911  1.00  0.00    -0.228 OA 
ENDBRANCH   5   6
ENDBRANCH   3   5
TORSDOF 2
ENDMDL
MODEL       73
REMARK 921   NORMALIZED FREE ENERGY PREDICTED BY IDOCK:   -2.80 KCAL/MOL
REMARK 922        TOTAL FREE ENERGY PREDICTED BY IDOCK:   -3.29 KCAL/MOL
REMARK 923 INTER-LIGAND FREE ENERGY PREDICTED BY IDOCK:   -2.97 KCAL/MOL
REMARK 924 INTRA-LIGAND FREE ENERGY PREDICTED BY IDOCK:   -0.32 KCAL/MOL
REMARK 927      BINDING AFFINITY PREDICTED BY RF-SCORE:    0.00 PKD
ROOT
HETATM    1 NA   UNL     1      -9.993  11.343  67.457  1.00  0.00    -0.169 Na 
HETATM    2  O   UNL     2      -8.578  13.006  66.925  1.00  0.00    -0.317 OA 
HETATM    3  C   UNL     2      -9.475  13.890  66.235  1.00  0.00    -0.215 C  
HETATM    4  H   UNL     2      -7.810  12.864  66.383  1.00  0.00     0.000 HD 
ENDROOT
BRANCH   3   5
HETATM    5  C   UNL     2     -10.709  14.118  67.106  1.00  0.00    -0.280 C  
BRANCH   5   6
HETATM    6  C   UNL     2     -11.975  14.268  66.279  1.00  0.00    -0.428 C  
HETATM    7  C   UNL     2     -12.533  12.880  65.940  1.00  0.00    -0.184 C  
HETATM    8  O   UNL     2     -13.128  12.802  64.845  1.00  0.00    -0.833 OA 
HETATM    9  O   UNL     2     -12.234  11.979  66.797  1.00  0.00    -0.545 OA 
ENDBRANCH   5   6
ENDBRANCH   3   5
TORSDOF 2
ENDMDL
MODEL       74
REMARK 921   NORMALIZED FREE ENERGY PREDICTED BY IDOCK:   -2.78 KCAL/MOL
REMARK 922        TOTAL FREE ENERGY PREDICTED BY IDOCK:   -3.27 KCAL/MOL
REMARK 923 INTER-LIGAND FREE ENERGY PREDICTED BY IDOCK:   -2.97 KCAL/MOL
REMARK 924 INTRA-LIGAND FREE ENERGY PREDICTED BY IDOCK:   -0.30 KCAL/MOL
REMARK 927      BINDING AFFINITY PREDICTED BY RF-SCORE:    0.00 PKD
ROOT
HETATM    1 NA   UNL     1     -12.121   8.654  69.815  1.00  0.00    -0.462 Na 
HETATM    2  O   UNL     2     -11.741   6.563  69.083  1.00  0.00    -0.623 OA 
HETATM    3  C   UNL     2     -11.073   6.012  70.229  1.00  0.00    -0.345 C  
HETATM    4  H   UNL     2     -11.220   6.385  68.309  1.00  0.00     0.000 HD 
ENDROOT
BRANCH   3   5
HETATM    5  C   UNL     2     -11.911   6.299  71.473  1.00  0.00    -0.291 C  
BRANCH   5   6
HETATM    6  C   UNL     2     -11.050   6.526  72.705  1.00  0.00    -0.279 C  
HETATM    7  C   UNL     2     -10.537   7.971  72.714  1.00  0.00    -0.351 C  
HETATM    8  O   UNL     2      -9.414   8.131  73.238  1.00  0.00    -0.270 OA 
HETATM    9  O   UNL     2     -11.303   8.795  72.106  1.00  0.00    -0.351 OA 
ENDBRANCH   5   6
ENDBRANCH   3   5
TORSDOF 2
ENDMDL
MODEL       75
REMARK 921   NORMALIZED FREE ENERGY PREDICTED BY IDOCK:   -2.76 KCAL/MOL
REMARK 922        TOTAL FREE ENERGY PREDICTED BY IDOCK:   -3.25 KCAL/MOL
REMARK 923 INTER-LIGAND FREE ENERGY PREDICTED BY IDOCK:   -3.25 KCAL/MOL
REMARK 924 INTRA-LIGAND FREE ENERGY PREDICTED BY IDOCK:   -0.01 KCAL/MOL
REMARK 927      BINDING AFFINITY PREDICTED BY RF-SCORE:    0.00 PKD
ROOT
HETATM    1 NA   UNL     1     -12.354   9.739  69.031  1.00  0.00    -0.465 Na 
HETATM    2  O   UNL     2     -12.186  11.340  70.599  1.00  0.00    -0.349 OA 
HETATM    3  C   UNL     2     -12.919  10.723  71.669  1.00  0.00    -0.476 C  
HETATM    4  H   UNL     2     -12.522  12.219  70.464  1.00  0.00     0.000 HD 
ENDROOT
BRANCH   3   5
HETATM    5  C   UNL     2     -12.380   9.311  71.887  1.00  0.00    -0.454 C  
BRANCH   5   6
HETATM    6  C   UNL     2     -10.951   9.160  71.390  1.00  0.00    -0.414 C  
HETATM    7  C   UNL     2     -10.111   8.445  72.456  1.00  0.00    -0.292 C  
HETATM    8  O   UNL     2      -8.909   8.781  72.494  1.00  0.00    -0.402 OA 
HETATM    9  O   UNL     2     -10.788   7.663  73.209  1.00  0.00    -0.394 OA 
ENDBRANCH   5   6
ENDBRANCH   3   5
TORSDOF 2
ENDMDL
MODEL       76
REMARK 921   NORMALIZED FREE ENERGY PREDICTED BY IDOCK:   -2.76 KCAL/MOL
REMARK 922        TOTAL FREE ENERGY PREDICTED BY IDOCK:   -3.25 KCAL/MOL
REMARK 923 INTER-LIGAND FREE ENERGY PREDICTED BY IDOCK:   -2.75 KCAL/MOL
REMARK 924 INTRA-LIGAND FREE ENERGY PREDICTED BY IDOCK:   -0.50 KCAL/MOL
REMARK 927      BINDING AFFINITY PREDICTED BY RF-SCORE:    0.00 PKD
ROOT
HETATM    1 NA   UNL     1     -11.915   7.360  73.683  1.00  0.00    -0.540 Na 
HETATM    2  O   UNL     2     -13.193   8.298  72.090  1.00  0.00    -0.407 OA 
HETATM    3  C   UNL     2     -12.254   9.230  71.530  1.00  0.00    -0.362 C  
HETATM    4  H   UNL     2     -13.998   8.759  72.293  1.00  0.00     0.000 HD 
ENDROOT
BRANCH   3   5
HETATM    5  C   UNL     2     -10.959   8.489  71.204  1.00  0.00    -0.306 C  
BRANCH   5   6
HETATM    6  C   UNL     2     -11.142   7.480  70.082  1.00  0.00    -0.246 C  
HETATM    7  C   UNL     2     -11.016   6.058  70.645  1.00  0.00    -0.307 C  
HETATM    8  O   UNL     2     -10.538   5.217  69.855  1.00  0.00    -0.306 OA 
HETATM    9  O   UNL     2     -11.343   5.960  71.878  1.00  0.00    -0.276 OA 
ENDBRANCH   5   6
ENDBRANCH   3   5
TORSDOF 2
ENDMDL
MODEL       77
REMARK 921   NORMALIZED FREE ENERGY PREDICTED BY IDOCK:   -2.74 KCAL/MOL
REMARK 922        TOTAL FREE ENERGY PREDICTED BY IDOCK:   -3.22 KCAL/MOL
REMARK 923 INTER-LIGAND FREE ENERGY PREDICTED BY IDOCK:   -2.89 KCAL/MOL
REMARK 924 INTRA-LIGAND FREE ENERGY PREDICTED BY IDOCK:   -0.34 KCAL/MOL
REMARK 927      BINDING AFFINITY PREDICTED BY RF-SCORE:    0.00 PKD
ROOT
HETATM    1 NA   UNL     1     -11.485  12.857  68.589  1.00  0.00    -0.204 Na 
HETATM    2  O   UNL     2     -12.234  14.692  67.529  1.00  0.00    -0.583 OA 
HETATM    3  C   UNL     2     -11.850  14.378  66.180  1.00  0.00    -0.382 C  
HETATM    4  H   UNL     2     -11.921  15.563  67.742  1.00  0.00     0.000 HD 
ENDROOT
BRANCH   3   5
HETATM    5  C   UNL     2     -12.353  12.977  65.838  1.00  0.00    -0.432 C  
BRANCH   5   6
HETATM    6  C   UNL     2     -11.260  12.104  65.247  1.00  0.00    -0.381 C  
HETATM    7  C   UNL     2     -10.707  11.170  66.331  1.00  0.00    -0.247 C  
HETATM    8  O   UNL     2      -9.499  10.878  66.212  1.00  0.00    -0.183 OA 
HETATM    9  O   UNL     2     -11.550  10.891  67.252  1.00  0.00    -0.475 OA 
ENDBRANCH   5   6
ENDBRANCH   3   5
TORSDOF 2
ENDMDL
MODEL       78
REMARK 921   NORMALIZED FREE ENERGY PREDICTED BY IDOCK:   -2.73 KCAL/MOL
REMARK 922        TOTAL FREE ENERGY PREDICTED BY IDOCK:   -3.22 KCAL/MOL
REMARK 923 INTER-LIGAND FREE ENERGY PREDICTED BY IDOCK:   -3.17 KCAL/MOL
REMARK 924 INTRA-LIGAND FREE ENERGY PREDICTED BY IDOCK:   -0.05 KCAL/MOL
REMARK 927      BINDING AFFINITY PREDICTED BY RF-SCORE:    0.00 PKD
ROOT
HETATM    1 NA   UNL     1     -13.687  15.232  70.070  1.00  0.00    -0.580 Na 
HETATM    2  O   UNL     2     -11.476  14.842  69.974  1.00  0.00    -0.257 OA 
HETATM    3  C   UNL     2     -11.442  13.833  68.952  1.00  0.00    -0.304 C  
HETATM    4  H   UNL     2     -10.983  14.534  70.726  1.00  0.00     0.000 HD 
ENDROOT
BRANCH   3   5
HETATM    5  C   UNL     2     -12.234  14.328  67.744  1.00  0.00    -0.199 C  
BRANCH   5   6
HETATM    6  C   UNL     2     -11.355  14.515  66.519  1.00  0.00    -0.354 C  
HETATM    7  C   UNL     2     -12.044  13.896  65.295  1.00  0.00    -0.410 C  
HETATM    8  O   UNL     2     -11.271  13.427  64.434  1.00  0.00    -0.358 OA 
HETATM    9  O   UNL     2     -13.321  13.878  65.375  1.00  0.00    -0.710 OA 
ENDBRANCH   5   6
ENDBRANCH   3   5
TORSDOF 2
ENDMDL
MODEL       79
REMARK 921   NORMALIZED FREE ENERGY PREDICTED BY IDOCK:   -2.72 KCAL/MOL
REMARK 922        TOTAL FREE ENERGY PREDICTED BY IDOCK:   -3.21 KCAL/MOL
REMARK 923 INTER-LIGAND FREE ENERGY PREDICTED BY IDOCK:   -2.79 KCAL/MOL
REMARK 924 INTRA-LIGAND FREE ENERGY PREDICTED BY IDOCK:   -0.41 KCAL/MOL
REMARK 927      BINDING AFFINITY PREDICTED BY RF-SCORE:    0.00 PKD
ROOT
HETATM    1 NA   UNL     1     -11.009  13.153  70.407  1.00  0.00    -0.468 Na 
HETATM    2  O   UNL     2      -9.467  12.074  69.180  1.00  0.00    -0.377 OA 
HETATM    3  C   UNL     2     -10.255  10.977  68.691  1.00  0.00    -0.199 C  
HETATM    4  H   UNL     2      -8.666  11.730  69.561  1.00  0.00     0.000 HD 
ENDROOT
BRANCH   3   5
HETATM    5  C   UNL     2     -11.541  11.529  68.080  1.00  0.00    -0.378 C  
BRANCH   5   6
HETATM    6  C   UNL     2     -11.266  12.584  67.021  1.00  0.00    -0.353 C  
HETATM    7  C   UNL     2     -11.958  13.896  67.413  1.00  0.00    -0.401 C  
HETATM    8  O   UNL     2     -12.346  14.596  66.454  1.00  0.00    -0.266 OA 
HETATM    9  O   UNL     2     -12.112  14.042  68.674  1.00  0.00    -0.351 OA 
ENDBRANCH   5   6
ENDBRANCH   3   5
TORSDOF 2
ENDMDL
MODEL       80
REMARK 921   NORMALIZED FREE ENERGY PREDICTED BY IDOCK:   -2.71 KCAL/MOL
REMARK 922        TOTAL FREE ENERGY PREDICTED BY IDOCK:   -3.19 KCAL/MOL
REMARK 923 INTER-LIGAND FREE ENERGY PREDICTED BY IDOCK:   -3.15 KCAL/MOL
REMARK 924 INTRA-LIGAND FREE ENERGY PREDICTED BY IDOCK:   -0.04 KCAL/MOL
REMARK 927      BINDING AFFINITY PREDICTED BY RF-SCORE:    0.00 PKD
ROOT
HETATM    1 NA   UNL     1      -9.004  12.978  68.378  1.00  0.00    -0.158 Na 
HETATM    2  O   UNL     2      -9.872  14.831  67.449  1.00  0.00    -0.220 OA 
HETATM    3  C   UNL     2      -9.933  14.420  66.074  1.00  0.00    -0.317 C  
HETATM    4  H   UNL     2      -9.436  15.674  67.498  1.00  0.00     0.000 HD 
ENDROOT
BRANCH   3   5
HETATM    5  C   UNL     2     -10.633  13.065  65.995  1.00  0.00    -0.292 C  
BRANCH   5   6
HETATM    6  C   UNL     2     -11.991  13.160  65.321  1.00  0.00    -0.437 C  
HETATM    7  C   UNL     2     -11.813  13.098  63.798  1.00  0.00    -0.486 C  
HETATM    8  O   UNL     2     -12.654  13.746  63.141  1.00  0.00    -0.793 OA 
HETATM    9  O   UNL     2     -10.773  12.454  63.425  1.00  0.00    -0.446 OA 
ENDBRANCH   5   6
ENDBRANCH   3   5
TORSDOF 2
ENDMDL
MODEL       81
REMARK 921   NORMALIZED FREE ENERGY PREDICTED BY IDOCK:   -2.71 KCAL/MOL
REMARK 922        TOTAL FREE ENERGY PREDICTED BY IDOCK:   -3.19 KCAL/MOL
REMARK 923 INTER-LIGAND FREE ENERGY PREDICTED BY IDOCK:   -2.80 KCAL/MOL
REMARK 924 INTRA-LIGAND FREE ENERGY PREDICTED BY IDOCK:   -0.39 KCAL/MOL
REMARK 927      BINDING AFFINITY PREDICTED BY RF-SCORE:    0.00 PKD
ROOT
HETATM    1 NA   UNL     1      -8.666  10.184  63.630  1.00  0.00    -0.140 Na 
HETATM    2  O   UNL     2      -9.995   9.333  65.229  1.00  0.00    -0.424 OA 
HETATM    3  C   UNL     2      -9.756  10.277  66.285  1.00  0.00    -0.209 C  
HETATM    4  H   UNL     2      -9.877   8.454  65.571  1.00  0.00     0.000 HD 
ENDROOT
BRANCH   3   5
HETATM    5  C   UNL     2      -9.945  11.689  65.736  1.00  0.00    -0.270 C  
BRANCH   5   6
HETATM    6  C   UNL     2     -11.312  11.879  65.099  1.00  0.00    -0.328 C  
HETATM    7  C   UNL     2     -11.144  12.442  63.682  1.00  0.00    -0.473 C  
HETATM    8  O   UNL     2     -12.067  13.191  63.298  1.00  0.00    -0.563 OA 
HETATM    9  O   UNL     2     -10.035  12.126  63.129  1.00  0.00    -0.393 OA 
ENDBRANCH   5   6
ENDBRANCH   3   5
TORSDOF 2
ENDMDL
MODEL       82
REMARK 921   NORMALIZED FREE ENERGY PREDICTED BY IDOCK:   -2.70 KCAL/MOL
REMARK 922        TOTAL FREE ENERGY PREDICTED BY IDOCK:   -3.19 KCAL/MOL
REMARK 923 INTER-LIGAND FREE ENERGY PREDICTED BY IDOCK:   -3.16 KCAL/MOL
REMARK 924 INTRA-LIGAND FREE ENERGY PREDICTED BY IDOCK:   -0.03 KCAL/MOL
REMARK 927      BINDING AFFINITY PREDICTED BY RF-SCORE:    0.00 PKD
ROOT
HETATM    1 NA   UNL     1      -8.146  20.722  65.017  1.00  0.00    -0.530 Na 
HETATM    2  O   UNL     2      -9.861  20.890  66.459  1.00  0.00    -0.559 OA 
HETATM    3  C   UNL     2     -10.440  19.583  66.316  1.00  0.00    -0.512 C  
HETATM    4  H   UNL     2     -10.546  21.541  66.359  1.00  0.00     0.000 HD 
ENDROOT
BRANCH   3   5
HETATM    5  C   UNL     2      -9.340  18.536  66.477  1.00  0.00    -0.313 C  
BRANCH   5   6
HETATM    6  C   UNL     2      -9.173  18.097  67.923  1.00  0.00    -0.273 C  
HETATM    7  C   UNL     2     -10.240  17.049  68.266  1.00  0.00    -0.326 C  
HETATM    8  O   UNL     2     -10.627  17.058  69.453  1.00  0.00    -0.335 OA 
HETATM    9  O   UNL     2     -10.639  16.369  67.259  1.00  0.00    -0.314 OA 
ENDBRANCH   5   6
ENDBRANCH   3   5
TORSDOF 2
ENDMDL
MODEL       83
REMARK 921   NORMALIZED FREE ENERGY PREDICTED BY IDOCK:   -2.69 KCAL/MOL
REMARK 922        TOTAL FREE ENERGY PREDICTED BY IDOCK:   -3.17 KCAL/MOL
REMARK 923 INTER-LIGAND FREE ENERGY PREDICTED BY IDOCK:   -2.86 KCAL/MOL
REMARK 924 INTRA-LIGAND FREE ENERGY PREDICTED BY IDOCK:   -0.32 KCAL/MOL
REMARK 927      BINDING AFFINITY PREDICTED BY RF-SCORE:    0.00 PKD
ROOT
HETATM    1 NA   UNL     1      -7.887  17.499  66.312  1.00  0.00    -0.179 Na 
HETATM    2  O   UNL     2      -9.933  16.711  66.806  1.00  0.00    -0.259 OA 
HETATM    3  C   UNL     2     -10.537  17.897  67.346  1.00  0.00    -0.360 C  
HETATM    4  H   UNL     2     -10.066  15.994  67.415  1.00  0.00     0.000 HD 
ENDROOT
BRANCH   3   5
HETATM    5  C   UNL     2     -10.323  19.049  66.367  1.00  0.00    -0.520 C  
BRANCH   5   6
HETATM    6  C   UNL     2      -9.665  20.249  67.028  1.00  0.00    -0.598 C  
HETATM    7  C   UNL     2      -8.192  20.325  66.605  1.00  0.00    -0.239 C  
HETATM    8  O   UNL     2      -7.419  20.802  67.462  1.00  0.00    -0.330 OA 
HETATM    9  O   UNL     2      -7.957  19.808  65.458  1.00  0.00    -0.370 OA 
ENDBRANCH   5   6
ENDBRANCH   3   5
TORSDOF 2
ENDMDL
MODEL       84
REMARK 921   NORMALIZED FREE ENERGY PREDICTED BY IDOCK:   -2.69 KCAL/MOL
REMARK 922        TOTAL FREE ENERGY PREDICTED BY IDOCK:   -3.17 KCAL/MOL
REMARK 923 INTER-LIGAND FREE ENERGY PREDICTED BY IDOCK:   -2.69 KCAL/MOL
REMARK 924 INTRA-LIGAND FREE ENERGY PREDICTED BY IDOCK:   -0.48 KCAL/MOL
REMARK 927      BINDING AFFINITY PREDICTED BY RF-SCORE:    0.00 PKD
ROOT
HETATM    1 NA   UNL     1      -9.932   6.997  69.726  1.00  0.00    -0.163 Na 
HETATM    2  O   UNL     2      -9.576   7.165  71.938  1.00  0.00    -0.151 OA 
HETATM    3  C   UNL     2      -9.761   8.578  72.117  1.00  0.00    -0.317 C  
HETATM    4  H   UNL     2      -8.753   6.911  72.340  1.00  0.00     0.000 HD 
ENDROOT
BRANCH   3   5
HETATM    5  C   UNL     2     -11.084   8.987  71.471  1.00  0.00    -0.419 C  
BRANCH   5   6
HETATM    6  C   UNL     2     -12.284   8.431  72.220  1.00  0.00    -0.449 C  
HETATM    7  C   UNL     2     -12.945   7.330  71.381  1.00  0.00    -0.373 C  
HETATM    8  O   UNL     2     -14.182   7.228  71.524  1.00  0.00    -0.430 OA 
HETATM    9  O   UNL     2     -12.140   6.728  70.591  1.00  0.00    -0.392 OA 
ENDBRANCH   5   6
ENDBRANCH   3   5
TORSDOF 2
ENDMDL
MODEL       85
REMARK 921   NORMALIZED FREE ENERGY PREDICTED BY IDOCK:   -2.69 KCAL/MOL
REMARK 922        TOTAL FREE ENERGY PREDICTED BY IDOCK:   -3.17 KCAL/MOL
REMARK 923 INTER-LIGAND FREE ENERGY PREDICTED BY IDOCK:   -3.04 KCAL/MOL
REMARK 924 INTRA-LIGAND FREE ENERGY PREDICTED BY IDOCK:   -0.13 KCAL/MOL
REMARK 927      BINDING AFFINITY PREDICTED BY RF-SCORE:    0.00 PKD
ROOT
HETATM    1 NA   UNL     1      -9.085  13.326  67.423  1.00  0.00    -0.164 Na 
HETATM    2  O   UNL     2      -9.367  11.222  66.687  1.00  0.00    -0.173 OA 
HETATM    3  C   UNL     2     -10.460  10.807  67.521  1.00  0.00    -0.220 C  
HETATM    4  H   UNL     2      -8.677  10.570  66.739  1.00  0.00     0.000 HD 
ENDROOT
BRANCH   3   5
HETATM    5  C   UNL     2     -11.569  11.854  67.437  1.00  0.00    -0.367 C  
BRANCH   5   6
HETATM    6  C   UNL     2     -11.785  12.348  66.016  1.00  0.00    -0.469 C  
HETATM    7  C   UNL     2     -12.395  13.755  66.050  1.00  0.00    -0.457 C  
HETATM    8  O   UNL     2     -13.160  14.022  65.100  1.00  0.00    -0.776 OA 
HETATM    9  O   UNL     2     -12.093  14.424  67.097  1.00  0.00    -0.414 OA 
ENDBRANCH   5   6
ENDBRANCH   3   5
TORSDOF 2
ENDMDL
MODEL       86
REMARK 921   NORMALIZED FREE ENERGY PREDICTED BY IDOCK:   -2.67 KCAL/MOL
REMARK 922        TOTAL FREE ENERGY PREDICTED BY IDOCK:   -3.15 KCAL/MOL
REMARK 923 INTER-LIGAND FREE ENERGY PREDICTED BY IDOCK:   -2.64 KCAL/MOL
REMARK 924 INTRA-LIGAND FREE ENERGY PREDICTED BY IDOCK:   -0.50 KCAL/MOL
REMARK 927      BINDING AFFINITY PREDICTED BY RF-SCORE:    0.00 PKD
ROOT
HETATM    1 NA   UNL     1     -12.001  14.809  69.625  1.00  0.00    -0.235 Na 
HETATM    2  O   UNL     2     -10.620  13.183  68.921  1.00  0.00    -0.342 OA 
HETATM    3  C   UNL     2     -11.409  12.624  67.858  1.00  0.00    -0.288 C  
HETATM    4  H   UNL     2     -10.332  12.479  69.492  1.00  0.00     0.000 HD 
ENDROOT
BRANCH   3   5
HETATM    5  C   UNL     2     -11.871  13.754  66.941  1.00  0.00    -0.447 C  
BRANCH   5   6
HETATM    6  C   UNL     2     -10.705  14.457  66.266  1.00  0.00    -0.307 C  
HETATM    7  C   UNL     2     -10.644  15.916  66.737  1.00  0.00    -0.309 C  
HETATM    8  O   UNL     2     -10.210  16.727  65.892  1.00  0.00    -0.378 OA 
HETATM    9  O   UNL     2     -11.129  16.102  67.906  1.00  0.00    -0.340 OA 
ENDBRANCH   5   6
ENDBRANCH   3   5
TORSDOF 2
ENDMDL
MODEL       87
REMARK 921   NORMALIZED FREE ENERGY PREDICTED BY IDOCK:   -2.66 KCAL/MOL
REMARK 922        TOTAL FREE ENERGY PREDICTED BY IDOCK:   -3.14 KCAL/MOL
REMARK 923 INTER-LIGAND FREE ENERGY PREDICTED BY IDOCK:   -3.06 KCAL/MOL
REMARK 924 INTRA-LIGAND FREE ENERGY PREDICTED BY IDOCK:   -0.08 KCAL/MOL
REMARK 927      BINDING AFFINITY PREDICTED BY RF-SCORE:    0.00 PKD
ROOT
HETATM    1 NA   UNL     1     -13.197   7.434  73.005  1.00  0.00    -0.419 Na 
HETATM    2  O   UNL     2     -14.356   9.336  72.709  1.00  0.00    -0.852 OA 
HETATM    3  C   UNL     2     -13.318  10.187  72.196  1.00  0.00    -0.328 C  
HETATM    4  H   UNL     2     -14.791   9.782  73.427  1.00  0.00     0.000 HD 
ENDROOT
BRANCH   3   5
HETATM    5  C   UNL     2     -12.619   9.471  71.042  1.00  0.00    -0.331 C  
BRANCH   5   6
HETATM    6  C   UNL     2     -11.106   9.579  71.132  1.00  0.00    -0.450 C  
HETATM    7  C   UNL     2     -10.544  10.049  69.784  1.00  0.00    -0.267 C  
HETATM    8  O   UNL     2      -9.408   9.614  69.504  1.00  0.00    -0.173 OA 
HETATM    9  O   UNL     2     -11.362  10.758  69.103  1.00  0.00    -0.240 OA 
ENDBRANCH   5   6
ENDBRANCH   3   5
TORSDOF 2
ENDMDL
MODEL       88
REMARK 921   NORMALIZED FREE ENERGY PREDICTED BY IDOCK:   -2.65 KCAL/MOL
REMARK 922        TOTAL FREE ENERGY PREDICTED BY IDOCK:   -3.13 KCAL/MOL
REMARK 923 INTER-LIGAND FREE ENERGY PREDICTED BY IDOCK:   -3.09 KCAL/MOL
REMARK 924 INTRA-LIGAND FREE ENERGY PREDICTED BY IDOCK:   -0.04 KCAL/MOL
REMARK 927      BINDING AFFINITY PREDICTED BY RF-SCORE:    0.00 PKD
ROOT
HETATM    1 NA   UNL     1      -8.615  14.321  69.636  1.00  0.00    -0.324 Na 
HETATM    2  O   UNL     2     -10.191  12.996  68.735  1.00  0.00    -0.373 OA 
HETATM    3  C   UNL     2     -11.225  13.964  68.490  1.00  0.00    -0.270 C  
HETATM    4  H   UNL     2     -10.565  12.261  69.206  1.00  0.00     0.000 HD 
ENDROOT
BRANCH   3   5
HETATM    5  C   UNL     2     -10.624  15.146  67.733  1.00  0.00    -0.264 C  
BRANCH   5   6
HETATM    6  C   UNL     2     -11.255  15.330  66.363  1.00  0.00    -0.224 C  
HETATM    7  C   UNL     2     -10.424  16.325  65.544  1.00  0.00    -0.362 C  
HETATM    8  O   UNL     2     -11.075  17.018  64.735  1.00  0.00    -0.850 OA 
HETATM    9  O   UNL     2      -9.188  16.358  65.872  1.00  0.00    -0.417 OA 
ENDBRANCH   5   6
ENDBRANCH   3   5
TORSDOF 2
ENDMDL
MODEL       89
REMARK 921   NORMALIZED FREE ENERGY PREDICTED BY IDOCK:   -2.63 KCAL/MOL
REMARK 922        TOTAL FREE ENERGY PREDICTED BY IDOCK:   -3.10 KCAL/MOL
REMARK 923 INTER-LIGAND FREE ENERGY PREDICTED BY IDOCK:   -3.05 KCAL/MOL
REMARK 924 INTRA-LIGAND FREE ENERGY PREDICTED BY IDOCK:   -0.05 KCAL/MOL
REMARK 927      BINDING AFFINITY PREDICTED BY RF-SCORE:    0.00 PKD
ROOT
HETATM    1 NA   UNL     1     -12.177  16.625  70.644  1.00  0.00    -0.475 Na 
HETATM    2  O   UNL     2     -11.323  14.547  70.695  1.00  0.00    -0.469 OA 
HETATM    3  C   UNL     2     -12.036  13.954  69.598  1.00  0.00    -0.349 C  
HETATM    4  H   UNL     2     -11.407  13.983  71.455  1.00  0.00     0.000 HD 
ENDROOT
BRANCH   3   5
HETATM    5  C   UNL     2     -11.902  14.860  68.376  1.00  0.00    -0.309 C  
BRANCH   5   6
HETATM    6  C   UNL     2     -12.043  14.090  67.073  1.00  0.00    -0.455 C  
HETATM    7  C   UNL     2     -11.223  14.783  65.977  1.00  0.00    -0.341 C  
HETATM    8  O   UNL     2     -11.690  14.681  64.823  1.00  0.00    -0.391 OA 
HETATM    9  O   UNL     2     -10.218  15.438  66.420  1.00  0.00    -0.265 OA 
ENDBRANCH   5   6
ENDBRANCH   3   5
TORSDOF 2
ENDMDL
MODEL       90
REMARK 921   NORMALIZED FREE ENERGY PREDICTED BY IDOCK:   -2.63 KCAL/MOL
REMARK 922        TOTAL FREE ENERGY PREDICTED BY IDOCK:   -3.10 KCAL/MOL
REMARK 923 INTER-LIGAND FREE ENERGY PREDICTED BY IDOCK:   -3.18 KCAL/MOL
REMARK 924 INTRA-LIGAND FREE ENERGY PREDICTED BY IDOCK:    0.08 KCAL/MOL
REMARK 927      BINDING AFFINITY PREDICTED BY RF-SCORE:    0.00 PKD
ROOT
HETATM    1 NA   UNL     1     -10.732  14.538  63.707  1.00  0.00    -0.560 Na 
HETATM    2  O   UNL     2     -11.315  16.701  63.878  1.00  0.00    -1.558 OA 
HETATM    3  C   UNL     2     -11.062  16.921  65.275  1.00  0.00     0.051 C  
HETATM    4  H   UNL     2     -12.190  17.008  63.673  1.00  0.00     0.000 HD 
ENDROOT
BRANCH   3   5
HETATM    5  C   UNL     2      -9.654  16.428  65.604  1.00  0.00    -0.111 C  
BRANCH   5   6
HETATM    6  C   UNL     2      -9.316  16.601  67.076  1.00  0.00    -0.236 C  
HETATM    7  C   UNL     2      -8.470  17.867  67.262  1.00  0.00    -0.236 C  
HETATM    8  O   UNL     2      -7.643  17.818  68.197  1.00  0.00    -0.232 OA 
HETATM    9  O   UNL     2      -8.678  18.763  66.373  1.00  0.00    -0.301 OA 
ENDBRANCH   5   6
ENDBRANCH   3   5
TORSDOF 2
ENDMDL
MODEL       91
REMARK 921   NORMALIZED FREE ENERGY PREDICTED BY IDOCK:   -2.63 KCAL/MOL
REMARK 922        TOTAL FREE ENERGY PREDICTED BY IDOCK:   -3.10 KCAL/MOL
REMARK 923 INTER-LIGAND FREE ENERGY PREDICTED BY IDOCK:   -2.75 KCAL/MOL
REMARK 924 INTRA-LIGAND FREE ENERGY PREDICTED BY IDOCK:   -0.35 KCAL/MOL
REMARK 927      BINDING AFFINITY PREDICTED BY RF-SCORE:    0.00 PKD
ROOT
HETATM    1 NA   UNL     1     -10.420  18.136  66.753  1.00  0.00    -0.296 Na 
HETATM    2  O   UNL     2     -10.754  16.832  64.953  1.00  0.00    -0.721 OA 
HETATM    3  C   UNL     2     -10.314  15.567  65.474  1.00  0.00    -0.394 C  
HETATM    4  H   UNL     2     -10.317  16.991  64.124  1.00  0.00     0.000 HD 
ENDROOT
BRANCH   3   5
HETATM    5  C   UNL     2     -11.016  15.312  66.806  1.00  0.00    -0.306 C  
BRANCH   5   6
HETATM    6  C   UNL     2     -10.045  14.876  67.891  1.00  0.00    -0.227 C  
HETATM    7  C   UNL     2      -9.751  16.061  68.821  1.00  0.00    -0.226 C  
HETATM    8  O   UNL     2      -8.605  16.070  69.318  1.00  0.00    -0.251 OA 
HETATM    9  O   UNL     2     -10.700  16.915  68.886  1.00  0.00    -0.329 OA 
ENDBRANCH   5   6
ENDBRANCH   3   5
TORSDOF 2
ENDMDL
MODEL       92
REMARK 921   NORMALIZED FREE ENERGY PREDICTED BY IDOCK:   -2.62 KCAL/MOL
REMARK 922        TOTAL FREE ENERGY PREDICTED BY IDOCK:   -3.10 KCAL/MOL
REMARK 923 INTER-LIGAND FREE ENERGY PREDICTED BY IDOCK:   -3.01 KCAL/MOL
REMARK 924 INTRA-LIGAND FREE ENERGY PREDICTED BY IDOCK:   -0.09 KCAL/MOL
REMARK 927      BINDING AFFINITY PREDICTED BY RF-SCORE:    0.00 PKD
ROOT
HETATM    1 NA   UNL     1     -12.405   6.511  69.135  1.00  0.00    -0.602 Na 
HETATM    2  O   UNL     2     -13.280   7.755  70.790  1.00  0.00    -0.509 OA 
HETATM    3  C   UNL     2     -12.752   7.063  71.933  1.00  0.00    -0.278 C  
HETATM    4  H   UNL     2     -14.217   7.862  70.902  1.00  0.00     0.000 HD 
ENDROOT
BRANCH   3   5
HETATM    5  C   UNL     2     -11.245   6.892  71.752  1.00  0.00    -0.284 C  
BRANCH   5   6
HETATM    6  C   UNL     2     -10.464   7.369  72.965  1.00  0.00    -0.373 C  
HETATM    7  C   UNL     2      -9.553   8.536  72.562  1.00  0.00    -0.254 C  
HETATM    8  O   UNL     2      -8.482   8.615  73.199  1.00  0.00    -0.398 OA 
HETATM    9  O   UNL     2      -9.990   9.213  71.568  1.00  0.00    -0.312 OA 
ENDBRANCH   5   6
ENDBRANCH   3   5
TORSDOF 2
ENDMDL
MODEL       93
REMARK 921   NORMALIZED FREE ENERGY PREDICTED BY IDOCK:   -2.60 KCAL/MOL
REMARK 922        TOTAL FREE ENERGY PREDICTED BY IDOCK:   -3.07 KCAL/MOL
REMARK 923 INTER-LIGAND FREE ENERGY PREDICTED BY IDOCK:   -3.00 KCAL/MOL
REMARK 924 INTRA-LIGAND FREE ENERGY PREDICTED BY IDOCK:   -0.07 KCAL/MOL
REMARK 927      BINDING AFFINITY PREDICTED BY RF-SCORE:    0.00 PKD
ROOT
HETATM    1 NA   UNL     1     -11.520  17.396  71.062  1.00  0.00    -0.602 Na 
HETATM    2  O   UNL     2     -10.959  15.859  69.522  1.00  0.00    -0.261 OA 
HETATM    3  C   UNL     2     -10.976  16.671  68.337  1.00  0.00    -0.345 C  
HETATM    4  H   UNL     2     -11.483  15.081  69.368  1.00  0.00     0.000 HD 
ENDROOT
BRANCH   3   5
HETATM    5  C   UNL     2     -10.134  17.921  68.585  1.00  0.00    -0.394 C  
BRANCH   5   6
HETATM    6  C   UNL     2      -8.773  17.838  67.914  1.00  0.00    -0.251 C  
HETATM    7  C   UNL     2      -8.746  18.764  66.692  1.00  0.00    -0.303 C  
HETATM    8  O   UNL     2      -8.024  18.377  65.750  1.00  0.00    -0.509 OA 
HETATM    9  O   UNL     2      -9.538  19.765  66.785  1.00  0.00    -0.339 OA 
ENDBRANCH   5   6
ENDBRANCH   3   5
TORSDOF 2
ENDMDL
MODEL       94
REMARK 921   NORMALIZED FREE ENERGY PREDICTED BY IDOCK:   -2.60 KCAL/MOL
REMARK 922        TOTAL FREE ENERGY PREDICTED BY IDOCK:   -3.07 KCAL/MOL
REMARK 923 INTER-LIGAND FREE ENERGY PREDICTED BY IDOCK:   -3.00 KCAL/MOL
REMARK 924 INTRA-LIGAND FREE ENERGY PREDICTED BY IDOCK:   -0.07 KCAL/MOL
REMARK 927      BINDING AFFINITY PREDICTED BY RF-SCORE:    0.00 PKD
ROOT
HETATM    1 NA   UNL     1     -13.947  16.135  70.712  1.00  0.00    -0.614 Na 
HETATM    2  O   UNL     2     -13.171  14.108  71.294  1.00  0.00    -0.338 OA 
HETATM    3  C   UNL     2     -12.260  13.866  70.210  1.00  0.00    -0.358 C  
HETATM    4  H   UNL     2     -13.742  13.355  71.389  1.00  0.00     0.000 HD 
ENDROOT
BRANCH   3   5
HETATM    5  C   UNL     2     -11.342  15.076  70.057  1.00  0.00    -0.305 C  
BRANCH   5   6
HETATM    6  C   UNL     2     -11.569  15.806  68.743  1.00  0.00    -0.401 C  
HETATM    7  C   UNL     2     -10.436  16.816  68.516  1.00  0.00    -0.335 C  
HETATM    8  O   UNL     2     -10.764  17.846  67.891  1.00  0.00    -0.392 OA 
HETATM    9  O   UNL     2      -9.333  16.489  69.075  1.00  0.00    -0.253 OA 
ENDBRANCH   5   6
ENDBRANCH   3   5
TORSDOF 2
ENDMDL
MODEL       95
REMARK 921   NORMALIZED FREE ENERGY PREDICTED BY IDOCK:   -2.60 KCAL/MOL
REMARK 922        TOTAL FREE ENERGY PREDICTED BY IDOCK:   -3.07 KCAL/MOL
REMARK 923 INTER-LIGAND FREE ENERGY PREDICTED BY IDOCK:   -2.56 KCAL/MOL
REMARK 924 INTRA-LIGAND FREE ENERGY PREDICTED BY IDOCK:   -0.51 KCAL/MOL
REMARK 927      BINDING AFFINITY PREDICTED BY RF-SCORE:    0.00 PKD
ROOT
HETATM    1 NA   UNL     1      -7.056  17.817  68.654  1.00  0.00    -0.186 Na 
HETATM    2  O   UNL     2      -8.299  19.669  68.931  1.00  0.00    -0.322 OA 
HETATM    3  C   UNL     2      -8.708  19.904  67.573  1.00  0.00    -0.338 C  
HETATM    4  H   UNL     2      -7.937  20.473  69.285  1.00  0.00     0.000 HD 
ENDROOT
BRANCH   3   5
HETATM    5  C   UNL     2      -9.288  18.611  67.003  1.00  0.00    -0.301 C  
BRANCH   5   6
HETATM    6  C   UNL     2     -10.628  18.259  67.629  1.00  0.00    -0.427 C  
HETATM    7  C   UNL     2     -10.480  16.987  68.474  1.00  0.00    -0.373 C  
HETATM    8  O   UNL     2     -11.497  16.264  68.522  1.00  0.00    -0.371 OA 
HETATM    9  O   UNL     2      -9.302  16.810  68.940  1.00  0.00    -0.245 OA 
ENDBRANCH   5   6
ENDBRANCH   3   5
TORSDOF 2
ENDMDL
MODEL       96
REMARK 921   NORMALIZED FREE ENERGY PREDICTED BY IDOCK:   -2.59 KCAL/MOL
REMARK 922        TOTAL FREE ENERGY PREDICTED BY IDOCK:   -3.06 KCAL/MOL
REMARK 923 INTER-LIGAND FREE ENERGY PREDICTED BY IDOCK:   -2.55 KCAL/MOL
REMARK 924 INTRA-LIGAND FREE ENERGY PREDICTED BY IDOCK:   -0.51 KCAL/MOL
REMARK 927      BINDING AFFINITY PREDICTED BY RF-SCORE:    0.00 PKD
ROOT
HETATM    1 NA   UNL     1     -11.607   9.282  72.620  1.00  0.00    -0.309 Na 
HETATM    2  O   UNL     2      -9.676   8.205  73.023  1.00  0.00    -0.275 OA 
HETATM    3  C   UNL     2     -10.178   7.011  73.644  1.00  0.00    -0.358 C  
HETATM    4  H   UNL     2      -8.996   8.574  73.573  1.00  0.00     0.000 HD 
ENDROOT
BRANCH   3   5
HETATM    5  C   UNL     2     -11.272   6.417  72.759  1.00  0.00    -0.261 C  
BRANCH   5   6
HETATM    6  C   UNL     2     -10.731   5.935  71.424  1.00  0.00    -0.319 C  
HETATM    7  C   UNL     2     -11.325   6.784  70.293  1.00  0.00    -0.352 C  
HETATM    8  O   UNL     2     -11.489   6.184  69.210  1.00  0.00    -0.404 OA 
HETATM    9  O   UNL     2     -11.646   7.970  70.651  1.00  0.00    -0.272 OA 
ENDBRANCH   5   6
ENDBRANCH   3   5
TORSDOF 2
ENDMDL
MODEL       97
REMARK 921   NORMALIZED FREE ENERGY PREDICTED BY IDOCK:   -2.59 KCAL/MOL
REMARK 922        TOTAL FREE ENERGY PREDICTED BY IDOCK:   -3.06 KCAL/MOL
REMARK 923 INTER-LIGAND FREE ENERGY PREDICTED BY IDOCK:   -2.66 KCAL/MOL
REMARK 924 INTRA-LIGAND FREE ENERGY PREDICTED BY IDOCK:   -0.39 KCAL/MOL
REMARK 927      BINDING AFFINITY PREDICTED BY RF-SCORE:    0.00 PKD
ROOT
HETATM    1 NA   UNL     1      -9.774  11.780  67.471  1.00  0.00    -0.166 Na 
HETATM    2  O   UNL     2     -11.889  11.072  67.747  1.00  0.00    -0.605 OA 
HETATM    3  C   UNL     2     -12.019  11.215  69.171  1.00  0.00    -0.343 C  
HETATM    4  H   UNL     2     -12.166  10.197  67.501  1.00  0.00     0.000 HD 
ENDROOT
BRANCH   3   5
HETATM    5  C   UNL     2     -11.573  12.621  69.567  1.00  0.00    -0.348 C  
BRANCH   5   6
HETATM    6  C   UNL     2     -12.023  13.670  68.564  1.00  0.00    -0.396 C  
HETATM    7  C   UNL     2     -10.851  14.603  68.238  1.00  0.00    -0.245 C  
HETATM    8  O   UNL     2     -11.171  15.781  67.970  1.00  0.00    -0.342 OA 
HETATM    9  O   UNL     2      -9.702  14.056  68.369  1.00  0.00    -0.217 OA 
ENDBRANCH   5   6
ENDBRANCH   3   5
TORSDOF 2
ENDMDL
MODEL       98
REMARK 921   NORMALIZED FREE ENERGY PREDICTED BY IDOCK:   -2.58 KCAL/MOL
REMARK 922        TOTAL FREE ENERGY PREDICTED BY IDOCK:   -3.05 KCAL/MOL
REMARK 923 INTER-LIGAND FREE ENERGY PREDICTED BY IDOCK:   -2.96 KCAL/MOL
REMARK 924 INTRA-LIGAND FREE ENERGY PREDICTED BY IDOCK:   -0.09 KCAL/MOL
REMARK 927      BINDING AFFINITY PREDICTED BY RF-SCORE:    0.00 PKD
ROOT
HETATM    1 NA   UNL     1      -9.342  12.955  63.574  1.00  0.00    -0.529 Na 
HETATM    2  O   UNL     2      -8.947  11.251  64.985  1.00  0.00    -0.355 OA 
HETATM    3  C   UNL     2      -9.646  11.720  66.149  1.00  0.00    -0.232 C  
HETATM    4  H   UNL     2      -8.067  10.996  65.237  1.00  0.00     0.000 HD 
ENDROOT
BRANCH   3   5
HETATM    5  C   UNL     2     -11.060  12.130  65.744  1.00  0.00    -0.362 C  
BRANCH   5   6
HETATM    6  C   UNL     2     -11.762  12.923  66.834  1.00  0.00    -0.445 C  
HETATM    7  C   UNL     2     -11.503  14.421  66.625  1.00  0.00    -0.363 C  
HETATM    8  O   UNL     2     -11.457  15.100  67.673  1.00  0.00    -0.332 OA 
HETATM    9  O   UNL     2     -11.289  14.744  65.406  1.00  0.00    -0.340 OA 
ENDBRANCH   5   6
ENDBRANCH   3   5
TORSDOF 2
ENDMDL
MODEL       99
REMARK 921   NORMALIZED FREE ENERGY PREDICTED BY IDOCK:   -2.58 KCAL/MOL
REMARK 922        TOTAL FREE ENERGY PREDICTED BY IDOCK:   -3.04 KCAL/MOL
REMARK 923 INTER-LIGAND FREE ENERGY PREDICTED BY IDOCK:   -2.70 KCAL/MOL
REMARK 924 INTRA-LIGAND FREE ENERGY PREDICTED BY IDOCK:   -0.34 KCAL/MOL
REMARK 927      BINDING AFFINITY PREDICTED BY RF-SCORE:    0.00 PKD
ROOT
HETATM    1 NA   UNL     1     -11.968   9.347  69.296  1.00  0.00    -0.439 Na 
HETATM    2  O   UNL     2     -13.045   9.039  71.244  1.00  0.00    -0.447 OA 
HETATM    3  C   UNL     2     -12.867   7.623  71.410  1.00  0.00    -0.319 C  
HETATM    4  H   UNL     2     -13.966   9.247  71.352  1.00  0.00     0.000 HD 
ENDROOT
BRANCH   3   5
HETATM    5  C   UNL     2     -11.386   7.290  71.237  1.00  0.00    -0.290 C  
BRANCH   5   6
HETATM    6  C   UNL     2     -11.168   6.130  70.280  1.00  0.00    -0.439 C  
HETATM    7  C   UNL     2     -10.777   6.671  68.899  1.00  0.00    -0.264 C  
HETATM    8  O   UNL     2     -11.156   5.977  67.933  1.00  0.00    -0.301 OA 
HETATM    9  O   UNL     2     -10.187   7.805  68.937  1.00  0.00    -0.201 OA 
ENDBRANCH   5   6
ENDBRANCH   3   5
TORSDOF 2
ENDMDL
MODEL      100
REMARK 921   NORMALIZED FREE ENERGY PREDICTED BY IDOCK:   -2.58 KCAL/MOL
REMARK 922        TOTAL FREE ENERGY PREDICTED BY IDOCK:   -3.04 KCAL/MOL
REMARK 923 INTER-LIGAND FREE ENERGY PREDICTED BY IDOCK:   -3.00 KCAL/MOL
REMARK 924 INTRA-LIGAND FREE ENERGY PREDICTED BY IDOCK:   -0.05 KCAL/MOL
REMARK 927      BINDING AFFINITY PREDICTED BY RF-SCORE:    0.00 PKD
ROOT
HETATM    1 NA   UNL     1      -9.594  13.551  69.541  1.00  0.00    -0.385 Na 
HETATM    2  O   UNL     2     -11.746  13.518  68.893  1.00  0.00    -0.293 OA 
HETATM    3  C   UNL     2     -11.883  12.130  68.546  1.00  0.00    -0.310 C  
HETATM    4  H   UNL     2     -12.066  14.047  68.171  1.00  0.00     0.000 HD 
ENDROOT
BRANCH   3   5
HETATM    5  C   UNL     2     -11.369  11.279  69.705  1.00  0.00    -0.359 C  
BRANCH   5   6
HETATM    6  C   UNL     2     -12.298  11.325  70.907  1.00  0.00    -0.490 C  
HETATM    7  C   UNL     2     -12.230   9.990  71.659  1.00  0.00    -0.367 C  
HETATM    8  O   UNL     2     -13.290   9.646  72.224  1.00  0.00    -0.438 OA 
HETATM    9  O   UNL     2     -11.114   9.379  71.527  1.00  0.00    -0.355 OA 
ENDBRANCH   5   6
ENDBRANCH   3   5
TORSDOF 2
ENDMDL
MODEL      101
REMARK 921   NORMALIZED FREE ENERGY PREDICTED BY IDOCK:   -2.57 KCAL/MOL
REMARK 922        TOTAL FREE ENERGY PREDICTED BY IDOCK:   -3.04 KCAL/MOL
REMARK 923 INTER-LIGAND FREE ENERGY PREDICTED BY IDOCK:   -2.95 KCAL/MOL
REMARK 924 INTRA-LIGAND FREE ENERGY PREDICTED BY IDOCK:   -0.09 KCAL/MOL
REMARK 927      BINDING AFFINITY PREDICTED BY RF-SCORE:    0.00 PKD
ROOT
HETATM    1 NA   UNL     1     -11.774  17.180  71.101  1.00  0.00    -0.613 Na 
HETATM    2  O   UNL     2     -12.555  15.299  72.051  1.00  0.00    -0.309 OA 
HETATM    3  C   UNL     2     -12.881  14.539  70.875  1.00  0.00    -0.360 C  
HETATM    4  H   UNL     2     -13.306  15.299  72.633  1.00  0.00     0.000 HD 
ENDROOT
BRANCH   3   5
HETATM    5  C   UNL     2     -11.674  14.538  69.939  1.00  0.00    -0.354 C  
BRANCH   5   6
HETATM    6  C   UNL     2     -11.934  15.329  68.668  1.00  0.00    -0.263 C  
HETATM    7  C   UNL     2     -11.569  14.473  67.448  1.00  0.00    -0.385 C  
HETATM    8  O   UNL     2     -11.143  15.111  66.462  1.00  0.00    -0.330 OA 
HETATM    9  O   UNL     2     -11.676  13.214  67.650  1.00  0.00    -0.331 OA 
ENDBRANCH   5   6
ENDBRANCH   3   5
TORSDOF 2
ENDMDL
MODEL      102
REMARK 921   NORMALIZED FREE ENERGY PREDICTED BY IDOCK:   -2.55 KCAL/MOL
REMARK 922        TOTAL FREE ENERGY PREDICTED BY IDOCK:   -3.01 KCAL/MOL
REMARK 923 INTER-LIGAND FREE ENERGY PREDICTED BY IDOCK:   -2.95 KCAL/MOL
REMARK 924 INTRA-LIGAND FREE ENERGY PREDICTED BY IDOCK:   -0.06 KCAL/MOL
REMARK 927      BINDING AFFINITY PREDICTED BY RF-SCORE:    0.00 PKD
ROOT
HETATM    1 NA   UNL     1      -8.792  14.318  65.714  1.00  0.00    -0.424 Na 
HETATM    2  O   UNL     2     -10.976  14.347  66.239  1.00  0.00    -0.308 OA 
HETATM    3  C   UNL     2     -10.913  14.933  67.550  1.00  0.00    -0.302 C  
HETATM    4  H   UNL     2     -11.497  13.553  66.283  1.00  0.00     0.000 HD 
ENDROOT
BRANCH   3   5
HETATM    5  C   UNL     2     -10.075  16.208  67.479  1.00  0.00    -0.256 C  
BRANCH   5   6
HETATM    6  C   UNL     2     -10.773  17.390  68.132  1.00  0.00    -0.343 C  
HETATM    7  C   UNL     2     -10.558  18.647  67.280  1.00  0.00    -0.430 C  
HETATM    8  O   UNL     2     -10.506  19.717  67.921  1.00  0.00    -0.420 OA 
HETATM    9  O   UNL     2     -10.378  18.404  66.037  1.00  0.00    -0.468 OA 
ENDBRANCH   5   6
ENDBRANCH   3   5
TORSDOF 2
ENDMDL
MODEL      103
REMARK 921   NORMALIZED FREE ENERGY PREDICTED BY IDOCK:   -2.54 KCAL/MOL
REMARK 922        TOTAL FREE ENERGY PREDICTED BY IDOCK:   -3.01 KCAL/MOL
REMARK 923 INTER-LIGAND FREE ENERGY PREDICTED BY IDOCK:   -2.50 KCAL/MOL
REMARK 924 INTRA-LIGAND FREE ENERGY PREDICTED BY IDOCK:   -0.51 KCAL/MOL
REMARK 927      BINDING AFFINITY PREDICTED BY RF-SCORE:    0.00 PKD
ROOT
HETATM    1 NA   UNL     1      -9.040  12.842  65.168  1.00  0.00    -0.426 Na 
HETATM    2  O   UNL     2     -10.537  11.205  64.809  1.00  0.00    -0.317 OA 
HETATM    3  C   UNL     2     -10.189  10.306  65.874  1.00  0.00    -0.223 C  
HETATM    4  H   UNL     2     -10.569  10.717  63.994  1.00  0.00     0.000 HD 
ENDROOT
BRANCH   3   5
HETATM    5  C   UNL     2     -10.137  11.090  67.184  1.00  0.00    -0.227 C  
BRANCH   5   6
HETATM    6  C   UNL     2     -11.503  11.619  67.589  1.00  0.00    -0.373 C  
HETATM    7  C   UNL     2     -11.483  13.153  67.576  1.00  0.00    -0.328 C  
HETATM    8  O   UNL     2     -12.229  13.699  68.417  1.00  0.00    -0.332 OA 
HETATM    9  O   UNL     2     -10.639  13.652  66.755  1.00  0.00    -0.270 OA 
ENDBRANCH   5   6
ENDBRANCH   3   5
TORSDOF 2
ENDMDL
MODEL      104
REMARK 921   NORMALIZED FREE ENERGY PREDICTED BY IDOCK:   -2.54 KCAL/MOL
REMARK 922        TOTAL FREE ENERGY PREDICTED BY IDOCK:   -3.00 KCAL/MOL
REMARK 923 INTER-LIGAND FREE ENERGY PREDICTED BY IDOCK:   -2.96 KCAL/MOL
REMARK 924 INTRA-LIGAND FREE ENERGY PREDICTED BY IDOCK:   -0.04 KCAL/MOL
REMARK 927      BINDING AFFINITY PREDICTED BY RF-SCORE:    0.00 PKD
ROOT
HETATM    1 NA   UNL     1     -12.316  14.215  69.291  1.00  0.00    -0.272 Na 
HETATM    2  O   UNL     2     -12.270  12.730  67.606  1.00  0.00    -0.321 OA 
HETATM    3  C   UNL     2     -12.103  13.619  66.490  1.00  0.00    -0.423 C  
HETATM    4  H   UNL     2     -12.997  12.145  67.426  1.00  0.00     0.000 HD 
ENDROOT
BRANCH   3   5
HETATM    5  C   UNL     2     -10.934  14.558  66.779  1.00  0.00    -0.316 C  
BRANCH   5   6
HETATM    6  C   UNL     2     -10.552  15.389  65.565  1.00  0.00    -0.400 C  
HETATM    7  C   UNL     2     -10.424  16.862  65.972  1.00  0.00    -0.290 C  
HETATM    8  O   UNL     2     -10.727  17.685  65.083  1.00  0.00    -0.658 OA 
HETATM    9  O   UNL     2     -10.103  17.034  67.199  1.00  0.00    -0.277 OA 
ENDBRANCH   5   6
ENDBRANCH   3   5
TORSDOF 2
ENDMDL
MODEL      105
REMARK 921   NORMALIZED FREE ENERGY PREDICTED BY IDOCK:   -2.53 KCAL/MOL
REMARK 922        TOTAL FREE ENERGY PREDICTED BY IDOCK:   -3.00 KCAL/MOL
REMARK 923 INTER-LIGAND FREE ENERGY PREDICTED BY IDOCK:   -2.50 KCAL/MOL
REMARK 924 INTRA-LIGAND FREE ENERGY PREDICTED BY IDOCK:   -0.49 KCAL/MOL
REMARK 927      BINDING AFFINITY PREDICTED BY RF-SCORE:    0.00 PKD
ROOT
HETATM    1 NA   UNL     1     -11.655  15.951  66.085  1.00  0.00    -0.233 Na 
HETATM    2  O   UNL     2     -10.176  17.593  65.677  1.00  0.00    -0.593 OA 
HETATM    3  C   UNL     2     -10.513  18.504  66.736  1.00  0.00    -0.394 C  
HETATM    4  H   UNL     2     -10.163  18.070  64.855  1.00  0.00     0.000 HD 
ENDROOT
BRANCH   3   5
HETATM    5  C   UNL     2     -10.535  17.738  68.057  1.00  0.00    -0.399 C  
BRANCH   5   6
HETATM    6  C   UNL     2      -9.168  17.181  68.419  1.00  0.00    -0.266 C  
HETATM    7  C   UNL     2      -9.207  15.648  68.358  1.00  0.00    -0.191 C  
HETATM    8  O   UNL     2      -8.453  15.068  69.167  1.00  0.00    -0.195 OA 
HETATM    9  O   UNL     2     -10.074  15.186  67.539  1.00  0.00    -0.230 OA 
ENDBRANCH   5   6
ENDBRANCH   3   5
TORSDOF 2
ENDMDL
MODEL      106
REMARK 921   NORMALIZED FREE ENERGY PREDICTED BY IDOCK:   -2.53 KCAL/MOL
REMARK 922        TOTAL FREE ENERGY PREDICTED BY IDOCK:   -2.99 KCAL/MOL
REMARK 923 INTER-LIGAND FREE ENERGY PREDICTED BY IDOCK:   -2.91 KCAL/MOL
REMARK 924 INTRA-LIGAND FREE ENERGY PREDICTED BY IDOCK:   -0.08 KCAL/MOL
REMARK 927      BINDING AFFINITY PREDICTED BY RF-SCORE:    0.00 PKD
ROOT
HETATM    1 NA   UNL     1     -11.541  19.423  67.087  1.00  0.00    -0.436 Na 
HETATM    2  O   UNL     2     -10.085  19.960  68.712  1.00  0.00    -0.442 OA 
HETATM    3  C   UNL     2      -9.241  18.797  68.690  1.00  0.00    -0.347 C  
HETATM    4  H   UNL     2     -10.362  20.121  69.607  1.00  0.00     0.000 HD 
ENDROOT
BRANCH   3   5
HETATM    5  C   UNL     2      -8.797  18.539  67.252  1.00  0.00    -0.276 C  
BRANCH   5   6
HETATM    6  C   UNL     2      -8.404  19.819  66.534  1.00  0.00    -0.373 C  
HETATM    7  C   UNL     2      -7.157  19.565  65.678  1.00  0.00    -0.285 C  
HETATM    8  O   UNL     2      -6.394  20.546  65.550  1.00  0.00    -0.225 OA 
HETATM    9  O   UNL     2      -7.037  18.353  65.286  1.00  0.00    -0.530 OA 
ENDBRANCH   5   6
ENDBRANCH   3   5
TORSDOF 2
ENDMDL
MODEL      107
REMARK 921   NORMALIZED FREE ENERGY PREDICTED BY IDOCK:   -2.52 KCAL/MOL
REMARK 922        TOTAL FREE ENERGY PREDICTED BY IDOCK:   -2.98 KCAL/MOL
REMARK 923 INTER-LIGAND FREE ENERGY PREDICTED BY IDOCK:   -2.96 KCAL/MOL
REMARK 924 INTRA-LIGAND FREE ENERGY PREDICTED BY IDOCK:   -0.01 KCAL/MOL
REMARK 927      BINDING AFFINITY PREDICTED BY RF-SCORE:    0.00 PKD
ROOT
HETATM    1 NA   UNL     1     -11.411  12.898  65.736  1.00  0.00    -0.286 Na 
HETATM    2  O   UNL     2     -12.035  11.533  67.409  1.00  0.00    -0.623 OA 
HETATM    3  C   UNL     2     -11.499  12.250  68.533  1.00  0.00    -0.303 C  
HETATM    4  H   UNL     2     -11.749  10.628  67.458  1.00  0.00     0.000 HD 
ENDROOT
BRANCH   3   5
HETATM    5  C   UNL     2     -11.958  13.704  68.454  1.00  0.00    -0.391 C  
BRANCH   5   6
HETATM    6  C   UNL     2     -11.192  14.600  69.413  1.00  0.00    -0.307 C  
HETATM    7  C   UNL     2     -12.114  15.028  70.562  1.00  0.00    -0.326 C  
HETATM    8  O   UNL     2     -11.879  16.159  71.036  1.00  0.00    -0.408 OA 
HETATM    9  O   UNL     2     -13.047  14.190  70.815  1.00  0.00    -0.321 OA 
ENDBRANCH   5   6
ENDBRANCH   3   5
TORSDOF 2
ENDMDL
MODEL      108
REMARK 921   NORMALIZED FREE ENERGY PREDICTED BY IDOCK:   -2.50 KCAL/MOL
REMARK 922        TOTAL FREE ENERGY PREDICTED BY IDOCK:   -2.96 KCAL/MOL
REMARK 923 INTER-LIGAND FREE ENERGY PREDICTED BY IDOCK:   -2.91 KCAL/MOL
REMARK 924 INTRA-LIGAND FREE ENERGY PREDICTED BY IDOCK:   -0.05 KCAL/MOL
REMARK 927      BINDING AFFINITY PREDICTED BY RF-SCORE:    0.00 PKD
ROOT
HETATM    1 NA   UNL     1     -12.313  14.355  73.533  1.00  0.00    -0.363 Na 
HETATM    2  O   UNL     2     -13.939  14.935  72.094  1.00  0.00    -0.408 OA 
HETATM    3  C   UNL     2     -13.146  15.439  71.007  1.00  0.00    -0.501 C  
HETATM    4  H   UNL     2     -14.603  15.578  72.312  1.00  0.00     0.000 HD 
ENDROOT
BRANCH   3   5
HETATM    5  C   UNL     2     -12.078  14.405  70.656  1.00  0.00    -0.404 C  
BRANCH   5   6
HETATM    6  C   UNL     2     -12.008  14.137  69.161  1.00  0.00    -0.388 C  
HETATM    7  C   UNL     2     -11.644  12.667  68.920  1.00  0.00    -0.317 C  
HETATM    8  O   UNL     2     -10.975  12.450  67.888  1.00  0.00    -0.210 OA 
HETATM    9  O   UNL     2     -12.011  11.883  69.861  1.00  0.00    -0.316 OA 
ENDBRANCH   5   6
ENDBRANCH   3   5
TORSDOF 2
ENDMDL
MODEL      109
REMARK 921   NORMALIZED FREE ENERGY PREDICTED BY IDOCK:   -2.50 KCAL/MOL
REMARK 922        TOTAL FREE ENERGY PREDICTED BY IDOCK:   -2.96 KCAL/MOL
REMARK 923 INTER-LIGAND FREE ENERGY PREDICTED BY IDOCK:   -2.88 KCAL/MOL
REMARK 924 INTRA-LIGAND FREE ENERGY PREDICTED BY IDOCK:   -0.08 KCAL/MOL
REMARK 927      BINDING AFFINITY PREDICTED BY RF-SCORE:    0.00 PKD
ROOT
HETATM    1 NA   UNL     1     -11.030  10.697  64.167  1.00  0.00    -0.356 Na 
HETATM    2  O   UNL     2      -9.784  10.302  65.996  1.00  0.00    -0.193 OA 
HETATM    3  C   UNL     2      -9.380  11.642  66.319  1.00  0.00    -0.216 C  
HETATM    4  H   UNL     2      -9.014   9.746  65.973  1.00  0.00     0.000 HD 
ENDROOT
BRANCH   3   5
HETATM    5  C   UNL     2     -10.618  12.536  66.355  1.00  0.00    -0.271 C  
BRANCH   5   6
HETATM    6  C   UNL     2     -10.587  13.602  65.271  1.00  0.00    -0.354 C  
HETATM    7  C   UNL     2     -12.020  14.030  64.933  1.00  0.00    -0.404 C  
HETATM    8  O   UNL     2     -12.203  14.375  63.747  1.00  0.00    -0.611 OA 
HETATM    9  O   UNL     2     -12.844  13.890  65.902  1.00  0.00    -0.472 OA 
ENDBRANCH   5   6
ENDBRANCH   3   5
TORSDOF 2
ENDMDL
MODEL      110
REMARK 921   NORMALIZED FREE ENERGY PREDICTED BY IDOCK:   -2.49 KCAL/MOL
REMARK 922        TOTAL FREE ENERGY PREDICTED BY IDOCK:   -2.94 KCAL/MOL
REMARK 923 INTER-LIGAND FREE ENERGY PREDICTED BY IDOCK:   -2.61 KCAL/MOL
REMARK 924 INTRA-LIGAND FREE ENERGY PREDICTED BY IDOCK:   -0.33 KCAL/MOL
REMARK 927      BINDING AFFINITY PREDICTED BY RF-SCORE:    0.00 PKD
ROOT
HETATM    1 NA   UNL     1      -9.106  11.887  62.362  1.00  0.00    -0.324 Na 
HETATM    2  O   UNL     2      -9.880   9.857  62.935  1.00  0.00    -0.524 OA 
HETATM    3  C   UNL     2      -9.081   9.601  64.101  1.00  0.00    -0.209 C  
HETATM    4  H   UNL     2      -9.820   9.109  62.352  1.00  0.00     0.000 HD 
ENDROOT
BRANCH   3   5
HETATM    5  C   UNL     2      -9.177  10.804  65.037  1.00  0.00    -0.241 C  
BRANCH   5   6
HETATM    6  C   UNL     2     -10.610  11.093  65.454  1.00  0.00    -0.291 C  
HETATM    7  C   UNL     2     -10.894  12.593  65.305  1.00  0.00    -0.288 C  
HETATM    8  O   UNL     2     -11.711  13.060  66.126  1.00  0.00    -0.354 OA 
HETATM    9  O   UNL     2     -10.186  13.166  64.407  1.00  0.00    -0.382 OA 
ENDBRANCH   5   6
ENDBRANCH   3   5
TORSDOF 2
ENDMDL
MODEL      111
REMARK 921   NORMALIZED FREE ENERGY PREDICTED BY IDOCK:   -2.48 KCAL/MOL
REMARK 922        TOTAL FREE ENERGY PREDICTED BY IDOCK:   -2.93 KCAL/MOL
REMARK 923 INTER-LIGAND FREE ENERGY PREDICTED BY IDOCK:   -2.64 KCAL/MOL
REMARK 924 INTRA-LIGAND FREE ENERGY PREDICTED BY IDOCK:   -0.30 KCAL/MOL
REMARK 927      BINDING AFFINITY PREDICTED BY RF-SCORE:    0.00 PKD
ROOT
HETATM    1 NA   UNL     1     -10.907   7.727  73.846  1.00  0.00    -0.335 Na 
HETATM    2  O   UNL     2     -12.835   8.578  73.064  1.00  0.00    -0.701 OA 
HETATM    3  C   UNL     2     -12.356   9.248  71.887  1.00  0.00    -0.382 C  
HETATM    4  H   UNL     2     -13.362   9.186  73.570  1.00  0.00     0.000 HD 
ENDROOT
BRANCH   3   5
HETATM    5  C   UNL     2     -11.508   8.272  71.075  1.00  0.00    -0.303 C  
BRANCH   5   6
HETATM    6  C   UNL     2     -10.251   8.925  70.522  1.00  0.00    -0.247 C  
HETATM    7  C   UNL     2      -9.036   8.471  71.340  1.00  0.00    -0.204 C  
HETATM    8  O   UNL     2      -8.119   9.314  71.438  1.00  0.00    -0.330 OA 
HETATM    9  O   UNL     2      -9.174   7.317  71.875  1.00  0.00    -0.135 OA 
ENDBRANCH   5   6
ENDBRANCH   3   5
TORSDOF 2
ENDMDL
MODEL      112
REMARK 921   NORMALIZED FREE ENERGY PREDICTED BY IDOCK:   -2.47 KCAL/MOL
REMARK 922        TOTAL FREE ENERGY PREDICTED BY IDOCK:   -2.92 KCAL/MOL
REMARK 923 INTER-LIGAND FREE ENERGY PREDICTED BY IDOCK:   -2.83 KCAL/MOL
REMARK 924 INTRA-LIGAND FREE ENERGY PREDICTED BY IDOCK:   -0.09 KCAL/MOL
REMARK 927      BINDING AFFINITY PREDICTED BY RF-SCORE:    0.00 PKD
ROOT
HETATM    1 NA   UNL     1      -9.130  12.539  63.280  1.00  0.00    -0.514 Na 
HETATM    2  O   UNL     2      -9.938  10.442  63.304  1.00  0.00    -0.469 OA 
HETATM    3  C   UNL     2     -10.204  10.290  64.708  1.00  0.00    -0.168 C  
HETATM    4  H   UNL     2      -9.427   9.699  63.007  1.00  0.00     0.000 HD 
ENDROOT
BRANCH   3   5
HETATM    5  C   UNL     2     -11.026  11.486  65.186  1.00  0.00    -0.298 C  
BRANCH   5   6
HETATM    6  C   UNL     2     -10.256  12.355  66.167  1.00  0.00    -0.262 C  
HETATM    7  C   UNL     2     -11.144  12.671  67.377  1.00  0.00    -0.273 C  
HETATM    8  O   UNL     2     -10.936  13.782  67.910  1.00  0.00    -0.244 OA 
HETATM    9  O   UNL     2     -12.029  11.780  67.616  1.00  0.00    -0.599 OA 
ENDBRANCH   5   6
ENDBRANCH   3   5
TORSDOF 2
ENDMDL
MODEL      113
REMARK 921   NORMALIZED FREE ENERGY PREDICTED BY IDOCK:   -2.46 KCAL/MOL
REMARK 922        TOTAL FREE ENERGY PREDICTED BY IDOCK:   -2.92 KCAL/MOL
REMARK 923 INTER-LIGAND FREE ENERGY PREDICTED BY IDOCK:   -2.45 KCAL/MOL
REMARK 924 INTRA-LIGAND FREE ENERGY PREDICTED BY IDOCK:   -0.47 KCAL/MOL
REMARK 927      BINDING AFFINITY PREDICTED BY RF-SCORE:    0.00 PKD
ROOT
HETATM    1 NA   UNL     1     -11.806  12.841  65.733  1.00  0.00    -0.304 Na 
HETATM    2  O   UNL     2     -12.442  14.143  67.451  1.00  0.00    -0.554 OA 
HETATM    3  C   UNL     2     -11.877  13.408  68.548  1.00  0.00    -0.366 C  
HETATM    4  H   UNL     2     -13.356  14.322  67.640  1.00  0.00     0.000 HD 
ENDROOT
BRANCH   3   5
HETATM    5  C   UNL     2     -10.408  13.120  68.244  1.00  0.00    -0.256 C  
BRANCH   5   6
HETATM    6  C   UNL     2      -9.552  14.374  68.313  1.00  0.00    -0.211 C  
HETATM    7  C   UNL     2      -9.132  14.787  66.897  1.00  0.00    -0.248 C  
HETATM    8  O   UNL     2      -8.017  15.344  66.818  1.00  0.00    -0.223 OA 
HETATM    9  O   UNL     2      -9.954  14.424  65.987  1.00  0.00    -0.291 OA 
ENDBRANCH   5   6
ENDBRANCH   3   5
TORSDOF 2
ENDMDL
MODEL      114
REMARK 921   NORMALIZED FREE ENERGY PREDICTED BY IDOCK:   -2.46 KCAL/MOL
REMARK 922        TOTAL FREE ENERGY PREDICTED BY IDOCK:   -2.91 KCAL/MOL
REMARK 923 INTER-LIGAND FREE ENERGY PREDICTED BY IDOCK:   -2.87 KCAL/MOL
REMARK 924 INTRA-LIGAND FREE ENERGY PREDICTED BY IDOCK:   -0.04 KCAL/MOL
REMARK 927      BINDING AFFINITY PREDICTED BY RF-SCORE:    0.00 PKD
ROOT
HETATM    1 NA   UNL     1     -10.509  15.288  65.782  1.00  0.00    -0.256 Na 
HETATM    2  O   UNL     2     -12.435  14.213  66.214  1.00  0.00    -0.466 OA 
HETATM    3  C   UNL     2     -12.069  13.511  67.413  1.00  0.00    -0.318 C  
HETATM    4  H   UNL     2     -12.818  13.596  65.602  1.00  0.00     0.000 HD 
ENDROOT
BRANCH   3   5
HETATM    5  C   UNL     2     -11.452  14.503  68.396  1.00  0.00    -0.328 C  
BRANCH   5   6
HETATM    6  C   UNL     2     -12.063  14.391  69.783  1.00  0.00    -0.386 C  
HETATM    7  C   UNL     2     -11.467  15.471  70.694  1.00  0.00    -0.358 C  
HETATM    8  O   UNL     2     -11.372  15.154  71.899  1.00  0.00    -0.413 OA 
HETATM    9  O   UNL     2     -11.076  16.517  70.069  1.00  0.00    -0.345 OA 
ENDBRANCH   5   6
ENDBRANCH   3   5
TORSDOF 2
ENDMDL
MODEL      115
REMARK 921   NORMALIZED FREE ENERGY PREDICTED BY IDOCK:   -2.44 KCAL/MOL
REMARK 922        TOTAL FREE ENERGY PREDICTED BY IDOCK:   -2.89 KCAL/MOL
REMARK 923 INTER-LIGAND FREE ENERGY PREDICTED BY IDOCK:   -2.81 KCAL/MOL
REMARK 924 INTRA-LIGAND FREE ENERGY PREDICTED BY IDOCK:   -0.09 KCAL/MOL
REMARK 927      BINDING AFFINITY PREDICTED BY RF-SCORE:    0.00 PKD
ROOT
HETATM    1 NA   UNL     1     -12.157   5.227  65.175  1.00  0.00    -0.741 Na 
HETATM    2  O   UNL     2      -9.973   4.712  65.058  1.00  0.00    -0.331 OA 
HETATM    3  C   UNL     2      -9.490   5.391  66.228  1.00  0.00    -0.157 C  
HETATM    4  H   UNL     2      -9.433   4.958  64.315  1.00  0.00     0.000 HD 
ENDROOT
BRANCH   3   5
HETATM    5  C   UNL     2     -10.358   4.995  67.421  1.00  0.00    -0.174 C  
BRANCH   5   6
HETATM    6  C   UNL     2     -11.036   6.195  68.061  1.00  0.00    -0.399 C  
HETATM    7  C   UNL     2     -11.044   6.027  69.585  1.00  0.00    -0.404 C  
HETATM    8  O   UNL     2     -12.025   6.535  70.168  1.00  0.00    -0.383 OA 
HETATM    9  O   UNL     2     -10.081   5.314  70.032  1.00  0.00    -0.219 OA 
ENDBRANCH   5   6
ENDBRANCH   3   5
TORSDOF 2
ENDMDL
MODEL      116
REMARK 921   NORMALIZED FREE ENERGY PREDICTED BY IDOCK:   -2.44 KCAL/MOL
REMARK 922        TOTAL FREE ENERGY PREDICTED BY IDOCK:   -2.89 KCAL/MOL
REMARK 923 INTER-LIGAND FREE ENERGY PREDICTED BY IDOCK:   -2.91 KCAL/MOL
REMARK 924 INTRA-LIGAND FREE ENERGY PREDICTED BY IDOCK:    0.02 KCAL/MOL
REMARK 927      BINDING AFFINITY PREDICTED BY RF-SCORE:    0.00 PKD
ROOT
HETATM    1 NA   UNL     1      -9.719  14.012  64.506  1.00  0.00    -0.474 Na 
HETATM    2  O   UNL     2     -10.225  14.270  66.680  1.00  0.00    -0.263 OA 
HETATM    3  C   UNL     2     -11.610  13.886  66.664  1.00  0.00    -0.374 C  
HETATM    4  H   UNL     2     -10.144  15.106  67.123  1.00  0.00     0.000 HD 
ENDROOT
BRANCH   3   5
HETATM    5  C   UNL     2     -11.741  12.542  65.951  1.00  0.00    -0.480 C  
BRANCH   5   6
HETATM    6  C   UNL     2     -10.410  11.815  65.849  1.00  0.00    -0.280 C  
HETATM    7  C   UNL     2     -10.394  10.952  64.581  1.00  0.00    -0.338 C  
HETATM    8  O   UNL     2      -9.723   9.902  64.665  1.00  0.00    -0.303 OA 
HETATM    9  O   UNL     2     -11.142  11.396  63.644  1.00  0.00    -0.399 OA 
ENDBRANCH   5   6
ENDBRANCH   3   5
TORSDOF 2
ENDMDL
MODEL      117
REMARK 921   NORMALIZED FREE ENERGY PREDICTED BY IDOCK:   -2.44 KCAL/MOL
REMARK 922        TOTAL FREE ENERGY PREDICTED BY IDOCK:   -2.89 KCAL/MOL
REMARK 923 INTER-LIGAND FREE ENERGY PREDICTED BY IDOCK:   -2.50 KCAL/MOL
REMARK 924 INTRA-LIGAND FREE ENERGY PREDICTED BY IDOCK:   -0.39 KCAL/MOL
REMARK 927      BINDING AFFINITY PREDICTED BY RF-SCORE:    0.00 PKD
ROOT
HETATM    1 NA   UNL     1      -8.535  13.938  67.189  1.00  0.00    -0.147 Na 
HETATM    2  O   UNL     2      -9.783  15.388  68.367  1.00  0.00    -0.205 OA 
HETATM    3  C   UNL     2     -10.604  15.926  67.318  1.00  0.00    -0.314 C  
HETATM    4  H   UNL     2      -9.399  16.107  68.855  1.00  0.00     0.000 HD 
ENDROOT
BRANCH   3   5
HETATM    5  C   UNL     2     -11.221  14.770  66.534  1.00  0.00    -0.342 C  
BRANCH   5   6
HETATM    6  C   UNL     2     -11.709  13.655  67.444  1.00  0.00    -0.416 C  
HETATM    7  C   UNL     2     -11.240  12.302  66.893  1.00  0.00    -0.312 C  
HETATM    8  O   UNL     2     -12.010  11.344  67.118  1.00  0.00    -0.532 OA 
HETATM    9  O   UNL     2     -10.162  12.368  66.209  1.00  0.00    -0.230 OA 
ENDBRANCH   5   6
ENDBRANCH   3   5
TORSDOF 2
ENDMDL
MODEL      118
REMARK 921   NORMALIZED FREE ENERGY PREDICTED BY IDOCK:   -2.43 KCAL/MOL
REMARK 922        TOTAL FREE ENERGY PREDICTED BY IDOCK:   -2.88 KCAL/MOL
REMARK 923 INTER-LIGAND FREE ENERGY PREDICTED BY IDOCK:   -2.64 KCAL/MOL
REMARK 924 INTRA-LIGAND FREE ENERGY PREDICTED BY IDOCK:   -0.24 KCAL/MOL
REMARK 927      BINDING AFFINITY PREDICTED BY RF-SCORE:    0.00 PKD
ROOT
HETATM    1 NA   UNL     1     -11.951   5.634  73.098  1.00  0.00    -0.352 Na 
HETATM    2  O   UNL     2     -10.352   6.388  74.486  1.00  0.00    -0.329 OA 
HETATM    3  C   UNL     2      -9.546   7.134  73.560  1.00  0.00    -0.225 C  
HETATM    4  H   UNL     2      -9.790   5.800  74.977  1.00  0.00     0.000 HD 
ENDROOT
BRANCH   3   5
HETATM    5  C   UNL     2     -10.450   8.078  72.770  1.00  0.00    -0.415 C  
BRANCH   5   6
HETATM    6  C   UNL     2     -10.430   7.779  71.280  1.00  0.00    -0.230 C  
HETATM    7  C   UNL     2     -11.791   7.215  70.852  1.00  0.00    -0.339 C  
HETATM    8  O   UNL     2     -11.751   6.394  69.912  1.00  0.00    -0.426 OA 
HETATM    9  O   UNL     2     -12.766   7.609  71.581  1.00  0.00    -0.323 OA 
ENDBRANCH   5   6
ENDBRANCH   3   5
TORSDOF 2
ENDMDL
MODEL      119
REMARK 921   NORMALIZED FREE ENERGY PREDICTED BY IDOCK:   -2.42 KCAL/MOL
REMARK 922        TOTAL FREE ENERGY PREDICTED BY IDOCK:   -2.87 KCAL/MOL
REMARK 923 INTER-LIGAND FREE ENERGY PREDICTED BY IDOCK:   -2.52 KCAL/MOL
REMARK 924 INTRA-LIGAND FREE ENERGY PREDICTED BY IDOCK:   -0.35 KCAL/MOL
REMARK 927      BINDING AFFINITY PREDICTED BY RF-SCORE:    0.00 PKD
ROOT
HETATM    1 NA   UNL     1     -12.247   5.214  65.094  1.00  0.00    -0.717 Na 
HETATM    2  O   UNL     2     -11.075   3.467  64.305  1.00  0.00    -0.608 OA 
HETATM    3  C   UNL     2      -9.766   3.798  64.796  1.00  0.00    -0.184 C  
HETATM    4  H   UNL     2     -11.015   3.275  63.377  1.00  0.00     0.000 HD 
ENDROOT
BRANCH   3   5
HETATM    5  C   UNL     2      -9.863   4.107  66.289  1.00  0.00    -0.208 C  
BRANCH   5   6
HETATM    6  C   UNL     2      -9.054   5.335  66.674  1.00  0.00    -0.122 C  
HETATM    7  C   UNL     2      -9.986   6.548  66.784  1.00  0.00    -0.166 C  
HETATM    8  O   UNL     2      -9.467   7.643  66.482  1.00  0.00    -0.185 OA 
HETATM    9  O   UNL     2     -11.191   6.249  67.092  1.00  0.00    -0.334 OA 
ENDBRANCH   5   6
ENDBRANCH   3   5
TORSDOF 2
ENDMDL
MODEL      120
REMARK 921   NORMALIZED FREE ENERGY PREDICTED BY IDOCK:   -2.42 KCAL/MOL
REMARK 922        TOTAL FREE ENERGY PREDICTED BY IDOCK:   -2.87 KCAL/MOL
REMARK 923 INTER-LIGAND FREE ENERGY PREDICTED BY IDOCK:   -2.39 KCAL/MOL
REMARK 924 INTRA-LIGAND FREE ENERGY PREDICTED BY IDOCK:   -0.48 KCAL/MOL
REMARK 927      BINDING AFFINITY PREDICTED BY RF-SCORE:    0.00 PKD
ROOT
HETATM    1 NA   UNL     1      -9.015  12.208  67.794  1.00  0.00    -0.142 Na 
HETATM    2  O   UNL     2      -9.197  13.987  69.155  1.00  0.00    -0.393 OA 
HETATM    3  C   UNL     2     -10.347  14.628  68.579  1.00  0.00    -0.238 C  
HETATM    4  H   UNL     2      -8.502  14.629  69.246  1.00  0.00     0.000 HD 
ENDROOT
BRANCH   3   5
HETATM    5  C   UNL     2     -11.464  13.597  68.433  1.00  0.00    -0.346 C  
BRANCH   5   6
HETATM    6  C   UNL     2     -12.014  13.151  69.778  1.00  0.00    -0.382 C  
HETATM    7  C   UNL     2     -11.783  11.644  69.952  1.00  0.00    -0.337 C  
HETATM    8  O   UNL     2     -12.651  11.051  70.626  1.00  0.00    -0.337 OA 
HETATM    9  O   UNL     2     -10.772  11.198  69.308  1.00  0.00    -0.217 OA 
ENDBRANCH   5   6
ENDBRANCH   3   5
TORSDOF 2
ENDMDL
MODEL      121
REMARK 921   NORMALIZED FREE ENERGY PREDICTED BY IDOCK:   -2.41 KCAL/MOL
REMARK 922        TOTAL FREE ENERGY PREDICTED BY IDOCK:   -2.86 KCAL/MOL
REMARK 923 INTER-LIGAND FREE ENERGY PREDICTED BY IDOCK:   -2.82 KCAL/MOL
REMARK 924 INTRA-LIGAND FREE ENERGY PREDICTED BY IDOCK:   -0.04 KCAL/MOL
REMARK 927      BINDING AFFINITY PREDICTED BY RF-SCORE:    0.00 PKD
ROOT
HETATM    1 NA   UNL     1     -10.835   6.360  74.137  1.00  0.00    -0.254 Na 
HETATM    2  O   UNL     2      -9.285   7.969  73.898  1.00  0.00    -0.331 OA 
HETATM    3  C   UNL     2      -9.422   8.246  72.495  1.00  0.00    -0.286 C  
HETATM    4  H   UNL     2      -8.367   7.821  74.093  1.00  0.00     0.000 HD 
ENDROOT
BRANCH   3   5
HETATM    5  C   UNL     2     -10.898   8.484  72.182  1.00  0.00    -0.427 C  
BRANCH   5   6
HETATM    6  C   UNL     2     -11.109   9.713  71.314  1.00  0.00    -0.426 C  
HETATM    7  C   UNL     2     -12.589  10.114  71.344  1.00  0.00    -0.422 C  
HETATM    8  O   UNL     2     -13.016  10.640  70.294  1.00  0.00    -0.268 OA 
HETATM    9  O   UNL     2     -13.195   9.773  72.417  1.00  0.00    -0.404 OA 
ENDBRANCH   5   6
ENDBRANCH   3   5
TORSDOF 2
ENDMDL
MODEL      122
REMARK 921   NORMALIZED FREE ENERGY PREDICTED BY IDOCK:   -2.41 KCAL/MOL
REMARK 922        TOTAL FREE ENERGY PREDICTED BY IDOCK:   -2.86 KCAL/MOL
REMARK 923 INTER-LIGAND FREE ENERGY PREDICTED BY IDOCK:   -2.69 KCAL/MOL
REMARK 924 INTRA-LIGAND FREE ENERGY PREDICTED BY IDOCK:   -0.17 KCAL/MOL
REMARK 927      BINDING AFFINITY PREDICTED BY RF-SCORE:    0.00 PKD
ROOT
HETATM    1 NA   UNL     1      -8.006  18.353  67.720  1.00  0.00    -0.220 Na 
HETATM    2  O   UNL     2      -9.961  19.071  68.565  1.00  0.00    -0.379 OA 
HETATM    3  C   UNL     2     -10.585  19.566  67.369  1.00  0.00    -0.485 C  
HETATM    4  H   UNL     2     -10.007  19.742  69.235  1.00  0.00     0.000 HD 
ENDROOT
BRANCH   3   5
HETATM    5  C   UNL     2     -10.511  18.488  66.291  1.00  0.00    -0.441 C  
BRANCH   5   6
HETATM    6  C   UNL     2     -10.661  17.089  66.867  1.00  0.00    -0.208 C  
HETATM    7  C   UNL     2      -9.818  16.104  66.047  1.00  0.00    -0.347 C  
HETATM    8  O   UNL     2     -10.280  14.946  65.976  1.00  0.00    -0.270 OA 
HETATM    9  O   UNL     2      -8.802  16.638  65.484  1.00  0.00    -0.343 OA 
ENDBRANCH   5   6
ENDBRANCH   3   5
TORSDOF 2
ENDMDL
MODEL      123
REMARK 921   NORMALIZED FREE ENERGY PREDICTED BY IDOCK:   -2.40 KCAL/MOL
REMARK 922        TOTAL FREE ENERGY PREDICTED BY IDOCK:   -2.85 KCAL/MOL
REMARK 923 INTER-LIGAND FREE ENERGY PREDICTED BY IDOCK:   -2.59 KCAL/MOL
REMARK 924 INTRA-LIGAND FREE ENERGY PREDICTED BY IDOCK:   -0.26 KCAL/MOL
REMARK 927      BINDING AFFINITY PREDICTED BY RF-SCORE:    0.00 PKD
ROOT
HETATM    1 NA   UNL     1      -9.081  15.256  68.457  1.00  0.00    -0.158 Na 
HETATM    2  O   UNL     2     -10.857  15.544  67.111  1.00  0.00    -0.316 OA 
HETATM    3  C   UNL     2     -10.525  14.626  66.056  1.00  0.00    -0.305 C  
HETATM    4  H   UNL     2     -11.071  16.387  66.728  1.00  0.00     0.000 HD 
ENDROOT
BRANCH   3   5
HETATM    5  C   UNL     2     -10.181  13.272  66.672  1.00  0.00    -0.265 C  
BRANCH   5   6
HETATM    6  C   UNL     2     -11.412  12.405  66.877  1.00  0.00    -0.423 C  
HETATM    7  C   UNL     2     -11.604  12.133  68.374  1.00  0.00    -0.327 C  
HETATM    8  O   UNL     2     -12.119  11.029  68.649  1.00  0.00    -0.551 OA 
HETATM    9  O   UNL     2     -11.129  13.048  69.131  1.00  0.00    -0.244 OA 
ENDBRANCH   5   6
ENDBRANCH   3   5
TORSDOF 2
ENDMDL
MODEL      124
REMARK 921   NORMALIZED FREE ENERGY PREDICTED BY IDOCK:   -2.39 KCAL/MOL
REMARK 922        TOTAL FREE ENERGY PREDICTED BY IDOCK:   -2.83 KCAL/MOL
REMARK 923 INTER-LIGAND FREE ENERGY PREDICTED BY IDOCK:   -2.75 KCAL/MOL
REMARK 924 INTRA-LIGAND FREE ENERGY PREDICTED BY IDOCK:   -0.09 KCAL/MOL
REMARK 927      BINDING AFFINITY PREDICTED BY RF-SCORE:    0.00 PKD
ROOT
HETATM    1 NA   UNL     1     -11.028  19.283  65.023  1.00  0.00    -0.486 Na 
HETATM    2  O   UNL     2     -11.156  19.534  67.252  1.00  0.00    -0.444 OA 
HETATM    3  C   UNL     2     -10.729  18.230  67.678  1.00  0.00    -0.348 C  
HETATM    4  H   UNL     2     -11.971  19.748  67.692  1.00  0.00     0.000 HD 
ENDROOT
BRANCH   3   5
HETATM    5  C   UNL     2      -9.420  17.886  66.971  1.00  0.00    -0.272 C  
BRANCH   5   6
HETATM    6  C   UNL     2      -8.330  18.907  67.253  1.00  0.00    -0.288 C  
HETATM    7  C   UNL     2      -7.611  18.542  68.558  1.00  0.00    -0.306 C  
HETATM    8  O   UNL     2      -7.179  19.513  69.214  1.00  0.00    -0.356 OA 
HETATM    9  O   UNL     2      -7.632  17.291  68.827  1.00  0.00    -0.247 OA 
ENDBRANCH   5   6
ENDBRANCH   3   5
TORSDOF 2
ENDMDL
MODEL      125
REMARK 921   NORMALIZED FREE ENERGY PREDICTED BY IDOCK:   -2.38 KCAL/MOL
REMARK 922        TOTAL FREE ENERGY PREDICTED BY IDOCK:   -2.82 KCAL/MOL
REMARK 923 INTER-LIGAND FREE ENERGY PREDICTED BY IDOCK:   -2.77 KCAL/MOL
REMARK 924 INTRA-LIGAND FREE ENERGY PREDICTED BY IDOCK:   -0.06 KCAL/MOL
REMARK 927      BINDING AFFINITY PREDICTED BY RF-SCORE:    0.00 PKD
ROOT
HETATM    1 NA   UNL     1     -11.302   6.840  66.092  1.00  0.00    -0.459 Na 
HETATM    2  O   UNL     2      -9.447   8.047  65.706  1.00  0.00    -0.419 OA 
HETATM    3  C   UNL     2      -9.907   9.350  66.100  1.00  0.00    -0.285 C  
HETATM    4  H   UNL     2      -9.053   8.109  64.843  1.00  0.00     0.000 HD 
ENDROOT
BRANCH   3   5
HETATM    5  C   UNL     2     -10.540   9.251  67.486  1.00  0.00    -0.329 C  
BRANCH   5   6
HETATM    6  C   UNL     2     -10.045  10.340  68.422  1.00  0.00    -0.178 C  
HETATM    7  C   UNL     2     -10.916  11.592  68.259  1.00  0.00    -0.224 C  
HETATM    8  O   UNL     2     -10.324  12.676  68.443  1.00  0.00    -0.228 OA 
HETATM    9  O   UNL     2     -12.110  11.343  67.874  1.00  0.00    -0.646 OA 
ENDBRANCH   5   6
ENDBRANCH   3   5
TORSDOF 2
ENDMDL
MODEL      126
REMARK 921   NORMALIZED FREE ENERGY PREDICTED BY IDOCK:   -2.35 KCAL/MOL
REMARK 922        TOTAL FREE ENERGY PREDICTED BY IDOCK:   -2.79 KCAL/MOL
REMARK 923 INTER-LIGAND FREE ENERGY PREDICTED BY IDOCK:   -2.72 KCAL/MOL
REMARK 924 INTRA-LIGAND FREE ENERGY PREDICTED BY IDOCK:   -0.07 KCAL/MOL
REMARK 927      BINDING AFFINITY PREDICTED BY RF-SCORE:    0.00 PKD
ROOT
HETATM    1 NA   UNL     1      -9.570  12.845  69.304  1.00  0.00    -0.376 Na 
HETATM    2  O   UNL     2     -11.379  13.842  70.188  1.00  0.00    -0.466 OA 
HETATM    3  C   UNL     2     -10.940  15.210  70.184  1.00  0.00    -0.253 C  
HETATM    4  H   UNL     2     -11.704  13.627  71.054  1.00  0.00     0.000 HD 
ENDROOT
BRANCH   3   5
HETATM    5  C   UNL     2     -10.417  15.557  68.792  1.00  0.00    -0.234 C  
BRANCH   5   6
HETATM    6  C   UNL     2     -10.835  16.950  68.353  1.00  0.00    -0.347 C  
HETATM    7  C   UNL     2      -9.701  17.941  68.643  1.00  0.00    -0.353 C  
HETATM    8  O   UNL     2     -10.070  19.101  68.923  1.00  0.00    -0.416 OA 
HETATM    9  O   UNL     2      -8.537  17.411  68.636  1.00  0.00    -0.271 OA 
ENDBRANCH   5   6
ENDBRANCH   3   5
TORSDOF 2
ENDMDL
MODEL      127
REMARK 921   NORMALIZED FREE ENERGY PREDICTED BY IDOCK:   -2.34 KCAL/MOL
REMARK 922        TOTAL FREE ENERGY PREDICTED BY IDOCK:   -2.78 KCAL/MOL
REMARK 923 INTER-LIGAND FREE ENERGY PREDICTED BY IDOCK:   -2.43 KCAL/MOL
REMARK 924 INTRA-LIGAND FREE ENERGY PREDICTED BY IDOCK:   -0.36 KCAL/MOL
REMARK 927      BINDING AFFINITY PREDICTED BY RF-SCORE:    0.00 PKD
ROOT
HETATM    1 NA   UNL     1     -11.129   5.478  71.958  1.00  0.00    -0.209 Na 
HETATM    2  O   UNL     2     -10.456   5.636  69.820  1.00  0.00    -0.252 OA 
HETATM    3  C   UNL     2     -10.813   7.000  69.543  1.00  0.00    -0.238 C  
HETATM    4  H   UNL     2     -10.811   5.082  69.134  1.00  0.00     0.000 HD 
ENDROOT
BRANCH   3   5
HETATM    5  C   UNL     2     -10.244   7.892  70.645  1.00  0.00    -0.199 C  
BRANCH   5   6
HETATM    6  C   UNL     2     -11.251   8.922  71.127  1.00  0.00    -0.352 C  
HETATM    7  C   UNL     2     -11.923   8.419  72.411  1.00  0.00    -0.384 C  
HETATM    8  O   UNL     2     -13.106   8.788  72.568  1.00  0.00    -0.401 OA 
HETATM    9  O   UNL     2     -11.195   7.622  73.098  1.00  0.00    -0.391 OA 
ENDBRANCH   5   6
ENDBRANCH   3   5
TORSDOF 2
ENDMDL
MODEL      128
REMARK 921   NORMALIZED FREE ENERGY PREDICTED BY IDOCK:   -2.34 KCAL/MOL
REMARK 922        TOTAL FREE ENERGY PREDICTED BY IDOCK:   -2.78 KCAL/MOL
REMARK 923 INTER-LIGAND FREE ENERGY PREDICTED BY IDOCK:   -2.67 KCAL/MOL
REMARK 924 INTRA-LIGAND FREE ENERGY PREDICTED BY IDOCK:   -0.11 KCAL/MOL
REMARK 927      BINDING AFFINITY PREDICTED BY RF-SCORE:    0.00 PKD
ROOT
HETATM    1 NA   UNL     1      -8.647  16.210  69.691  1.00  0.00    -0.222 Na 
HETATM    2  O   UNL     2      -7.365  17.322  68.217  1.00  0.00    -0.197 OA 
HETATM    3  C   UNL     2      -7.598  16.535  67.037  1.00  0.00    -0.205 C  
HETATM    4  H   UNL     2      -6.428  17.425  68.337  1.00  0.00     0.000 HD 
ENDROOT
BRANCH   3   5
HETATM    5  C   UNL     2      -9.104  16.370  66.845  1.00  0.00    -0.238 C  
BRANCH   5   6
HETATM    6  C   UNL     2      -9.877  17.602  67.284  1.00  0.00    -0.303 C  
HETATM    7  C   UNL     2     -10.464  18.305  66.053  1.00  0.00    -0.361 C  
HETATM    8  O   UNL     2     -10.562  19.546  66.150  1.00  0.00    -0.468 OA 
HETATM    9  O   UNL     2     -10.692  17.520  65.070  1.00  0.00    -0.673 OA 
ENDBRANCH   5   6
ENDBRANCH   3   5
TORSDOF 2
ENDMDL
MODEL      129
REMARK 921   NORMALIZED FREE ENERGY PREDICTED BY IDOCK:   -2.34 KCAL/MOL
REMARK 922        TOTAL FREE ENERGY PREDICTED BY IDOCK:   -2.78 KCAL/MOL
REMARK 923 INTER-LIGAND FREE ENERGY PREDICTED BY IDOCK:   -2.74 KCAL/MOL
REMARK 924 INTRA-LIGAND FREE ENERGY PREDICTED BY IDOCK:   -0.04 KCAL/MOL
REMARK 927      BINDING AFFINITY PREDICTED BY RF-SCORE:    0.00 PKD
ROOT
HETATM    1 NA   UNL     1     -12.633  10.968  72.271  1.00  0.00    -0.363 Na 
HETATM    2  O   UNL     2     -10.902  10.204  71.058  1.00  0.00    -0.325 OA 
HETATM    3  C   UNL     2     -11.457  10.304  69.736  1.00  0.00    -0.256 C  
HETATM    4  H   UNL     2     -10.547   9.331  71.176  1.00  0.00     0.000 HD 
ENDROOT
BRANCH   3   5
HETATM    5  C   UNL     2     -12.028  11.708  69.547  1.00  0.00    -0.383 C  
BRANCH   5   6
HETATM    6  C   UNL     2     -11.334  12.463  68.425  1.00  0.00    -0.330 C  
HETATM    7  C   UNL     2     -11.890  13.890  68.347  1.00  0.00    -0.374 C  
HETATM    8  O   UNL     2     -11.908  14.389  67.202  1.00  0.00    -0.388 OA 
HETATM    9  O   UNL     2     -12.333  14.334  69.462  1.00  0.00    -0.318 OA 
ENDBRANCH   5   6
ENDBRANCH   3   5
TORSDOF 2
ENDMDL
MODEL      130
REMARK 921   NORMALIZED FREE ENERGY PREDICTED BY IDOCK:   -2.33 KCAL/MOL
REMARK 922        TOTAL FREE ENERGY PREDICTED BY IDOCK:   -2.77 KCAL/MOL
REMARK 923 INTER-LIGAND FREE ENERGY PREDICTED BY IDOCK:   -2.71 KCAL/MOL
REMARK 924 INTRA-LIGAND FREE ENERGY PREDICTED BY IDOCK:   -0.06 KCAL/MOL
REMARK 927      BINDING AFFINITY PREDICTED BY RF-SCORE:    0.00 PKD
ROOT
HETATM    1 NA   UNL     1     -11.774  15.053  66.520  1.00  0.00    -0.341 Na 
HETATM    2  O   UNL     2     -10.450  16.812  66.973  1.00  0.00    -0.313 OA 
HETATM    3  C   UNL     2     -10.846  17.084  68.327  1.00  0.00    -0.341 C  
HETATM    4  H   UNL     2     -10.491  17.619  66.473  1.00  0.00     0.000 HD 
ENDROOT
BRANCH   3   5
HETATM    5  C   UNL     2     -10.780  15.787  69.130  1.00  0.00    -0.246 C  
BRANCH   5   6
HETATM    6  C   UNL     2     -12.161  15.275  69.507  1.00  0.00    -0.320 C  
HETATM    7  C   UNL     2     -12.359  15.402  71.023  1.00  0.00    -0.392 C  
HETATM    8  O   UNL     2     -13.088  14.528  71.536  1.00  0.00    -0.310 OA 
HETATM    9  O   UNL     2     -11.677  16.344  71.555  1.00  0.00    -0.448 OA 
ENDBRANCH   5   6
ENDBRANCH   3   5
TORSDOF 2
ENDMDL
MODEL      131
REMARK 921   NORMALIZED FREE ENERGY PREDICTED BY IDOCK:   -2.33 KCAL/MOL
REMARK 922        TOTAL FREE ENERGY PREDICTED BY IDOCK:   -2.76 KCAL/MOL
REMARK 923 INTER-LIGAND FREE ENERGY PREDICTED BY IDOCK:   -2.72 KCAL/MOL
REMARK 924 INTRA-LIGAND FREE ENERGY PREDICTED BY IDOCK:   -0.05 KCAL/MOL
REMARK 927      BINDING AFFINITY PREDICTED BY RF-SCORE:    0.00 PKD
ROOT
HETATM    1 NA   UNL     1     -10.318   8.449  66.829  1.00  0.00    -0.180 Na 
HETATM    2  O   UNL     2     -11.533   6.631  67.350  1.00  0.00    -0.747 OA 
HETATM    3  C   UNL     2     -10.814   6.170  68.505  1.00  0.00    -0.314 C  
HETATM    4  H   UNL     2     -11.642   5.905  66.747  1.00  0.00     0.000 HD 
ENDROOT
BRANCH   3   5
HETATM    5  C   UNL     2     -10.639   7.337  69.475  1.00  0.00    -0.244 C  
BRANCH   5   6
HETATM    6  C   UNL     2     -11.566   7.230  70.674  1.00  0.00    -0.322 C  
HETATM    7  C   UNL     2     -11.819   8.628  71.252  1.00  0.00    -0.295 C  
HETATM    8  O   UNL     2     -12.003   8.665  72.487  1.00  0.00    -0.368 OA 
HETATM    9  O   UNL     2     -11.723   9.569  70.391  1.00  0.00    -0.247 OA 
ENDBRANCH   5   6
ENDBRANCH   3   5
TORSDOF 2
ENDMDL
MODEL      132
REMARK 921   NORMALIZED FREE ENERGY PREDICTED BY IDOCK:   -2.31 KCAL/MOL
REMARK 922        TOTAL FREE ENERGY PREDICTED BY IDOCK:   -2.74 KCAL/MOL
REMARK 923 INTER-LIGAND FREE ENERGY PREDICTED BY IDOCK:   -2.24 KCAL/MOL
REMARK 924 INTRA-LIGAND FREE ENERGY PREDICTED BY IDOCK:   -0.50 KCAL/MOL
REMARK 927      BINDING AFFINITY PREDICTED BY RF-SCORE:    0.00 PKD
ROOT
HETATM    1 NA   UNL     1      -9.281   6.790  73.489  1.00  0.00    -0.123 Na 
HETATM    2  O   UNL     2      -8.931   7.096  71.290  1.00  0.00    -0.145 OA 
HETATM    3  C   UNL     2      -9.532   5.898  70.771  1.00  0.00    -0.165 C  
HETATM    4  H   UNL     2      -8.059   7.185  70.924  1.00  0.00     0.000 HD 
ENDROOT
BRANCH   3   5
HETATM    5  C   UNL     2     -10.933   5.754  71.360  1.00  0.00    -0.304 C  
BRANCH   5   6
HETATM    6  C   UNL     2     -11.896   6.794  70.810  1.00  0.00    -0.446 C  
HETATM    7  C   UNL     2     -12.290   7.769  71.926  1.00  0.00    -0.310 C  
HETATM    8  O   UNL     2     -13.445   8.237  71.836  1.00  0.00    -0.337 OA 
HETATM    9  O   UNL     2     -11.402   7.897  72.838  1.00  0.00    -0.406 OA 
ENDBRANCH   5   6
ENDBRANCH   3   5
TORSDOF 2
ENDMDL
MODEL      133
REMARK 921   NORMALIZED FREE ENERGY PREDICTED BY IDOCK:   -2.30 KCAL/MOL
REMARK 922        TOTAL FREE ENERGY PREDICTED BY IDOCK:   -2.74 KCAL/MOL
REMARK 923 INTER-LIGAND FREE ENERGY PREDICTED BY IDOCK:   -2.25 KCAL/MOL
REMARK 924 INTRA-LIGAND FREE ENERGY PREDICTED BY IDOCK:   -0.49 KCAL/MOL
REMARK 927      BINDING AFFINITY PREDICTED BY RF-SCORE:    0.00 PKD
ROOT
HETATM    1 NA   UNL     1      -8.628   8.978  65.666  1.00  0.00    -0.115 Na 
HETATM    2  O   UNL     2     -10.339   7.840  66.573  1.00  0.00    -0.470 OA 
HETATM    3  C   UNL     2     -10.083   8.069  67.969  1.00  0.00    -0.194 C  
HETATM    4  H   UNL     2     -10.459   6.908  66.433  1.00  0.00     0.000 HD 
ENDROOT
BRANCH   3   5
HETATM    5  C   UNL     2      -9.891   9.568  68.194  1.00  0.00    -0.177 C  
BRANCH   5   6
HETATM    6  C   UNL     2     -11.200  10.334  68.102  1.00  0.00    -0.294 C  
HETATM    7  C   UNL     2     -11.167  11.261  66.880  1.00  0.00    -0.230 C  
HETATM    8  O   UNL     2     -11.812  12.323  67.004  1.00  0.00    -0.519 OA 
HETATM    9  O   UNL     2     -10.410  10.845  65.937  1.00  0.00    -0.251 OA 
ENDBRANCH   5   6
ENDBRANCH   3   5
TORSDOF 2
ENDMDL
MODEL      134
REMARK 921   NORMALIZED FREE ENERGY PREDICTED BY IDOCK:   -2.29 KCAL/MOL
REMARK 922        TOTAL FREE ENERGY PREDICTED BY IDOCK:   -2.73 KCAL/MOL
REMARK 923 INTER-LIGAND FREE ENERGY PREDICTED BY IDOCK:   -2.25 KCAL/MOL
REMARK 924 INTRA-LIGAND FREE ENERGY PREDICTED BY IDOCK:   -0.48 KCAL/MOL
REMARK 927      BINDING AFFINITY PREDICTED BY RF-SCORE:    0.00 PKD
ROOT
HETATM    1 NA   UNL     1      -8.500   8.629  66.235  1.00  0.00    -0.101 Na 
HETATM    2  O   UNL     2     -10.657   8.836  66.828  1.00  0.00    -0.258 OA 
HETATM    3  C   UNL     2     -10.602  10.077  67.551  1.00  0.00    -0.280 C  
HETATM    4  H   UNL     2     -11.100   8.188  67.363  1.00  0.00     0.000 HD 
ENDROOT
BRANCH   3   5
HETATM    5  C   UNL     2      -9.891  11.118  66.690  1.00  0.00    -0.231 C  
BRANCH   5   6
HETATM    6  C   UNL     2     -10.760  11.603  65.541  1.00  0.00    -0.333 C  
HETATM    7  C   UNL     2     -10.186  11.093  64.213  1.00  0.00    -0.340 C  
HETATM    8  O   UNL     2     -10.367  11.847  63.235  1.00  0.00    -0.424 OA 
HETATM    9  O   UNL     2      -9.529  10.001  64.320  1.00  0.00    -0.280 OA 
ENDBRANCH   5   6
ENDBRANCH   3   5
TORSDOF 2
ENDMDL
MODEL      135
REMARK 921   NORMALIZED FREE ENERGY PREDICTED BY IDOCK:   -2.29 KCAL/MOL
REMARK 922        TOTAL FREE ENERGY PREDICTED BY IDOCK:   -2.72 KCAL/MOL
REMARK 923 INTER-LIGAND FREE ENERGY PREDICTED BY IDOCK:   -2.61 KCAL/MOL
REMARK 924 INTRA-LIGAND FREE ENERGY PREDICTED BY IDOCK:   -0.11 KCAL/MOL
REMARK 927      BINDING AFFINITY PREDICTED BY RF-SCORE:    0.00 PKD
ROOT
HETATM    1 NA   UNL     1     -12.226   8.990  69.777  1.00  0.00    -0.465 Na 
HETATM    2  O   UNL     2     -11.851   6.808  70.161  1.00  0.00    -0.565 OA 
HETATM    3  C   UNL     2     -10.414   6.799  70.184  1.00  0.00    -0.209 C  
HETATM    4  H   UNL     2     -12.152   6.130  69.567  1.00  0.00     0.000 HD 
ENDROOT
BRANCH   3   5
HETATM    5  C   UNL     2      -9.930   7.889  71.138  1.00  0.00    -0.198 C  
BRANCH   5   6
HETATM    6  C   UNL     2     -10.678   7.867  72.461  1.00  0.00    -0.391 C  
HETATM    7  C   UNL     2      -9.790   7.240  73.542  1.00  0.00    -0.301 C  
HETATM    8  O   UNL     2     -10.402   6.612  74.431  1.00  0.00    -0.357 OA 
HETATM    9  O   UNL     2      -8.537   7.383  73.329  1.00  0.00    -0.126 OA 
ENDBRANCH   5   6
ENDBRANCH   3   5
TORSDOF 2
ENDMDL
MODEL      136
REMARK 921   NORMALIZED FREE ENERGY PREDICTED BY IDOCK:   -2.29 KCAL/MOL
REMARK 922        TOTAL FREE ENERGY PREDICTED BY IDOCK:   -2.72 KCAL/MOL
REMARK 923 INTER-LIGAND FREE ENERGY PREDICTED BY IDOCK:   -2.42 KCAL/MOL
REMARK 924 INTRA-LIGAND FREE ENERGY PREDICTED BY IDOCK:   -0.30 KCAL/MOL
REMARK 927      BINDING AFFINITY PREDICTED BY RF-SCORE:    0.00 PKD
ROOT
HETATM    1 NA   UNL     1     -12.200   6.525  67.303  1.00  0.00    -0.647 Na 
HETATM    2  O   UNL     2     -11.936   6.790  69.519  1.00  0.00    -0.634 OA 
HETATM    3  C   UNL     2     -10.883   5.843  69.762  1.00  0.00    -0.377 C  
HETATM    4  H   UNL     2     -12.640   6.630  70.136  1.00  0.00     0.000 HD 
ENDROOT
BRANCH   3   5
HETATM    5  C   UNL     2      -9.750   6.099  68.770  1.00  0.00    -0.148 C  
BRANCH   5   6
HETATM    6  C   UNL     2      -8.871   7.264  69.193  1.00  0.00    -0.136 C  
HETATM    7  C   UNL     2      -9.224   8.503  68.359  1.00  0.00    -0.135 C  
HETATM    8  O   UNL     2      -8.272   9.279  68.135  1.00  0.00    -0.117 OA 
HETATM    9  O   UNL     2     -10.434   8.517  67.943  1.00  0.00    -0.224 OA 
ENDBRANCH   5   6
ENDBRANCH   3   5
TORSDOF 2
ENDMDL
MODEL      137
REMARK 921   NORMALIZED FREE ENERGY PREDICTED BY IDOCK:   -2.28 KCAL/MOL
REMARK 922        TOTAL FREE ENERGY PREDICTED BY IDOCK:   -2.71 KCAL/MOL
REMARK 923 INTER-LIGAND FREE ENERGY PREDICTED BY IDOCK:   -2.21 KCAL/MOL
REMARK 924 INTRA-LIGAND FREE ENERGY PREDICTED BY IDOCK:   -0.51 KCAL/MOL
REMARK 927      BINDING AFFINITY PREDICTED BY RF-SCORE:    0.00 PKD
ROOT
HETATM    1 NA   UNL     1     -11.998  12.670  69.504  1.00  0.00    -0.234 Na 
HETATM    2  O   UNL     2     -12.404  14.393  68.120  1.00  0.00    -0.601 OA 
HETATM    3  C   UNL     2     -11.827  15.468  68.880  1.00  0.00    -0.338 C  
HETATM    4  H   UNL     2     -13.285  14.638  67.862  1.00  0.00     0.000 HD 
ENDROOT
BRANCH   3   5
HETATM    5  C   UNL     2     -10.412  15.073  69.295  1.00  0.00    -0.252 C  
BRANCH   5   6
HETATM    6  C   UNL     2      -9.461  15.016  68.111  1.00  0.00    -0.196 C  
HETATM    7  C   UNL     2      -8.982  13.573  67.907  1.00  0.00    -0.200 C  
HETATM    8  O   UNL     2      -7.825  13.459  67.450  1.00  0.00    -0.161 OA 
HETATM    9  O   UNL     2      -9.812  12.690  68.316  1.00  0.00    -0.223 OA 
ENDBRANCH   5   6
ENDBRANCH   3   5
TORSDOF 2
ENDMDL
MODEL      138
REMARK 921   NORMALIZED FREE ENERGY PREDICTED BY IDOCK:   -2.26 KCAL/MOL
REMARK 922        TOTAL FREE ENERGY PREDICTED BY IDOCK:   -2.70 KCAL/MOL
REMARK 923 INTER-LIGAND FREE ENERGY PREDICTED BY IDOCK:   -2.40 KCAL/MOL
REMARK 924 INTRA-LIGAND FREE ENERGY PREDICTED BY IDOCK:   -0.29 KCAL/MOL
REMARK 927      BINDING AFFINITY PREDICTED BY RF-SCORE:    0.00 PKD
ROOT
HETATM    1 NA   UNL     1      -8.323  16.862  69.272  1.00  0.00    -0.221 Na 
HETATM    2  O   UNL     2     -10.201  17.555  68.251  1.00  0.00    -0.322 OA 
HETATM    3  C   UNL     2     -10.417  16.458  67.349  1.00  0.00    -0.309 C  
HETATM    4  H   UNL     2     -10.240  18.368  67.761  1.00  0.00     0.000 HD 
ENDROOT
BRANCH   3   5
HETATM    5  C   UNL     2     -10.353  15.152  68.138  1.00  0.00    -0.239 C  
BRANCH   5   6
HETATM    6  C   UNL     2     -11.707  14.757  68.704  1.00  0.00    -0.356 C  
HETATM    7  C   UNL     2     -11.681  14.887  70.233  1.00  0.00    -0.303 C  
HETATM    8  O   UNL     2     -12.404  14.074  70.845  1.00  0.00    -0.331 OA 
HETATM    9  O   UNL     2     -10.852  15.762  70.662  1.00  0.00    -0.322 OA 
ENDBRANCH   5   6
ENDBRANCH   3   5
TORSDOF 2
ENDMDL
MODEL      139
REMARK 921   NORMALIZED FREE ENERGY PREDICTED BY IDOCK:   -2.26 KCAL/MOL
REMARK 922        TOTAL FREE ENERGY PREDICTED BY IDOCK:   -2.69 KCAL/MOL
REMARK 923 INTER-LIGAND FREE ENERGY PREDICTED BY IDOCK:   -2.64 KCAL/MOL
REMARK 924 INTRA-LIGAND FREE ENERGY PREDICTED BY IDOCK:   -0.06 KCAL/MOL
REMARK 927      BINDING AFFINITY PREDICTED BY RF-SCORE:    0.00 PKD
ROOT
HETATM    1 NA   UNL     1     -10.510   7.673  68.204  1.00  0.00    -0.168 Na 
HETATM    2  O   UNL     2     -10.417   6.416  70.065  1.00  0.00    -0.191 OA 
HETATM    3  C   UNL     2     -10.502   7.442  71.067  1.00  0.00    -0.215 C  
HETATM    4  H   UNL     2      -9.675   5.856  70.261  1.00  0.00     0.000 HD 
ENDROOT
BRANCH   3   5
HETATM    5  C   UNL     2     -11.694   8.342  70.751  1.00  0.00    -0.213 C  
BRANCH   5   6
HETATM    6  C   UNL     2     -11.632   9.662  71.502  1.00  0.00    -0.451 C  
HETATM    7  C   UNL     2     -13.046  10.082  71.920  1.00  0.00    -0.460 C  
HETATM    8  O   UNL     2     -13.241  11.315  71.963  1.00  0.00    -0.506 OA 
HETATM    9  O   UNL     2     -13.849   9.100  72.084  1.00  0.00    -0.430 OA 
ENDBRANCH   5   6
ENDBRANCH   3   5
TORSDOF 2
ENDMDL
MODEL      140
REMARK 921   NORMALIZED FREE ENERGY PREDICTED BY IDOCK:   -2.26 KCAL/MOL
REMARK 922        TOTAL FREE ENERGY PREDICTED BY IDOCK:   -2.69 KCAL/MOL
REMARK 923 INTER-LIGAND FREE ENERGY PREDICTED BY IDOCK:   -2.18 KCAL/MOL
REMARK 924 INTRA-LIGAND FREE ENERGY PREDICTED BY IDOCK:   -0.51 KCAL/MOL
REMARK 927      BINDING AFFINITY PREDICTED BY RF-SCORE:    0.00 PKD
ROOT
HETATM    1 NA   UNL     1      -8.296  17.164  66.924  1.00  0.00    -0.174 Na 
HETATM    2  O   UNL     2      -6.311  17.724  66.032  1.00  0.00    -0.213 OA 
HETATM    3  C   UNL     2      -6.619  19.037  65.536  1.00  0.00    -0.274 C  
HETATM    4  H   UNL     2      -5.908  17.219  65.336  1.00  0.00     0.000 HD 
ENDROOT
BRANCH   3   5
HETATM    5  C   UNL     2      -7.266  19.848  66.656  1.00  0.00    -0.263 C  
BRANCH   5   6
HETATM    6  C   UNL     2      -6.304  20.114  67.802  1.00  0.00    -0.263 C  
HETATM    7  C   UNL     2      -6.810  19.413  69.069  1.00  0.00    -0.342 C  
HETATM    8  O   UNL     2      -6.534  19.993  70.140  1.00  0.00    -0.360 OA 
HETATM    9  O   UNL     2      -7.518  18.373  68.837  1.00  0.00    -0.289 OA 
ENDBRANCH   5   6
ENDBRANCH   3   5
TORSDOF 2
ENDMDL
MODEL      141
REMARK 921   NORMALIZED FREE ENERGY PREDICTED BY IDOCK:   -2.25 KCAL/MOL
REMARK 922        TOTAL FREE ENERGY PREDICTED BY IDOCK:   -2.68 KCAL/MOL
REMARK 923 INTER-LIGAND FREE ENERGY PREDICTED BY IDOCK:   -2.61 KCAL/MOL
REMARK 924 INTRA-LIGAND FREE ENERGY PREDICTED BY IDOCK:   -0.07 KCAL/MOL
REMARK 927      BINDING AFFINITY PREDICTED BY RF-SCORE:    0.00 PKD
ROOT
HETATM    1 NA   UNL     1     -12.225   5.101  64.766  1.00  0.00    -0.676 Na 
HETATM    2  O   UNL     2     -10.560   4.159  65.945  1.00  0.00    -0.452 OA 
HETATM    3  C   UNL     2      -9.995   5.328  66.561  1.00  0.00    -0.204 C  
HETATM    4  H   UNL     2      -9.863   3.664  65.530  1.00  0.00     0.000 HD 
ENDROOT
BRANCH   3   5
HETATM    5  C   UNL     2     -11.115   6.124  67.227  1.00  0.00    -0.334 C  
BRANCH   5   6
HETATM    6  C   UNL     2     -10.832   6.394  68.695  1.00  0.00    -0.379 C  
HETATM    7  C   UNL     2     -10.289   7.820  68.859  1.00  0.00    -0.213 C  
HETATM    8  O   UNL     2      -9.478   7.973  69.797  1.00  0.00    -0.159 OA 
HETATM    9  O   UNL     2     -10.686   8.631  67.953  1.00  0.00    -0.194 OA 
ENDBRANCH   5   6
ENDBRANCH   3   5
TORSDOF 2
ENDMDL
MODEL      142
REMARK 921   NORMALIZED FREE ENERGY PREDICTED BY IDOCK:   -2.24 KCAL/MOL
REMARK 922        TOTAL FREE ENERGY PREDICTED BY IDOCK:   -2.67 KCAL/MOL
REMARK 923 INTER-LIGAND FREE ENERGY PREDICTED BY IDOCK:   -2.32 KCAL/MOL
REMARK 924 INTRA-LIGAND FREE ENERGY PREDICTED BY IDOCK:   -0.35 KCAL/MOL
REMARK 927      BINDING AFFINITY PREDICTED BY RF-SCORE:    0.00 PKD
ROOT
HETATM    1 NA   UNL     1     -12.109   6.592  67.512  1.00  0.00    -0.643 Na 
HETATM    2  O   UNL     2     -12.237   6.852  69.741  1.00  0.00    -0.542 OA 
HETATM    3  C   UNL     2     -11.135   6.028  70.155  1.00  0.00    -0.361 C  
HETATM    4  H   UNL     2     -13.008   6.604  70.236  1.00  0.00     0.000 HD 
ENDROOT
BRANCH   3   5
HETATM    5  C   UNL     2      -9.895   6.426  69.358  1.00  0.00    -0.170 C  
BRANCH   5   6
HETATM    6  C   UNL     2      -9.137   5.218  68.834  1.00  0.00    -0.136 C  
HETATM    7  C   UNL     2      -9.457   5.017  67.347  1.00  0.00    -0.137 C  
HETATM    8  O   UNL     2      -9.445   3.830  66.959  1.00  0.00    -0.185 OA 
HETATM    9  O   UNL     2      -9.774   6.095  66.737  1.00  0.00    -0.147 OA 
ENDBRANCH   5   6
ENDBRANCH   3   5
TORSDOF 2
ENDMDL
MODEL      143
REMARK 921   NORMALIZED FREE ENERGY PREDICTED BY IDOCK:   -2.24 KCAL/MOL
REMARK 922        TOTAL FREE ENERGY PREDICTED BY IDOCK:   -2.66 KCAL/MOL
REMARK 923 INTER-LIGAND FREE ENERGY PREDICTED BY IDOCK:   -2.60 KCAL/MOL
REMARK 924 INTRA-LIGAND FREE ENERGY PREDICTED BY IDOCK:   -0.06 KCAL/MOL
REMARK 927      BINDING AFFINITY PREDICTED BY RF-SCORE:    0.00 PKD
ROOT
HETATM    1 NA   UNL     1      -9.390  14.927  68.548  1.00  0.00    -0.158 Na 
HETATM    2  O   UNL     2     -11.562  14.907  67.972  1.00  0.00    -0.324 OA 
HETATM    3  C   UNL     2     -11.736  13.508  67.692  1.00  0.00    -0.363 C  
HETATM    4  H   UNL     2     -11.896  15.410  67.239  1.00  0.00     0.000 HD 
ENDROOT
BRANCH   3   5
HETATM    5  C   UNL     2     -11.198  12.699  68.871  1.00  0.00    -0.329 C  
BRANCH   5   6
HETATM    6  C   UNL     2     -11.883  11.349  69.000  1.00  0.00    -0.415 C  
HETATM    7  C   UNL     2     -12.364  11.154  70.443  1.00  0.00    -0.344 C  
HETATM    8  O   UNL     2     -12.362   9.972  70.846  1.00  0.00    -0.307 OA 
HETATM    9  O   UNL     2     -12.619  12.248  71.055  1.00  0.00    -0.361 OA 
ENDBRANCH   5   6
ENDBRANCH   3   5
TORSDOF 2
ENDMDL
MODEL      144
REMARK 921   NORMALIZED FREE ENERGY PREDICTED BY IDOCK:   -2.21 KCAL/MOL
REMARK 922        TOTAL FREE ENERGY PREDICTED BY IDOCK:   -2.63 KCAL/MOL
REMARK 923 INTER-LIGAND FREE ENERGY PREDICTED BY IDOCK:   -2.64 KCAL/MOL
REMARK 924 INTRA-LIGAND FREE ENERGY PREDICTED BY IDOCK:    0.00 KCAL/MOL
REMARK 927      BINDING AFFINITY PREDICTED BY RF-SCORE:    0.00 PKD
ROOT
HETATM    1 NA   UNL     1     -11.591  15.901  66.056  1.00  0.00    -0.239 Na 
HETATM    2  O   UNL     2     -10.344  17.689  65.511  1.00  0.00    -0.627 OA 
HETATM    3  C   UNL     2     -10.765  18.611  66.529  1.00  0.00    -0.238 C  
HETATM    4  H   UNL     2     -10.413  18.116  64.664  1.00  0.00     0.000 HD 
ENDROOT
BRANCH   3   5
HETATM    5  C   UNL     2     -10.655  17.925  67.890  1.00  0.00    -0.387 C  
BRANCH   5   6
HETATM    6  C   UNL     2      -9.300  17.267  68.092  1.00  0.00    -0.274 C  
HETATM    7  C   UNL     2      -8.233  18.348  68.308  1.00  0.00    -0.299 C  
HETATM    8  O   UNL     2      -7.094  18.058  67.884  1.00  0.00    -0.208 OA 
HETATM    9  O   UNL     2      -8.688  19.429  68.819  1.00  0.00    -0.364 OA 
ENDBRANCH   5   6
ENDBRANCH   3   5
TORSDOF 2
ENDMDL
MODEL      145
REMARK 921   NORMALIZED FREE ENERGY PREDICTED BY IDOCK:   -2.20 KCAL/MOL
REMARK 922        TOTAL FREE ENERGY PREDICTED BY IDOCK:   -2.62 KCAL/MOL
REMARK 923 INTER-LIGAND FREE ENERGY PREDICTED BY IDOCK:   -2.12 KCAL/MOL
REMARK 924 INTRA-LIGAND FREE ENERGY PREDICTED BY IDOCK:   -0.51 KCAL/MOL
REMARK 927      BINDING AFFINITY PREDICTED BY RF-SCORE:    0.00 PKD
ROOT
HETATM    1 NA   UNL     1      -7.210  16.704  69.005  1.00  0.00    -0.144 Na 
HETATM    2  O   UNL     2      -6.998  16.354  66.795  1.00  0.00    -0.213 OA 
HETATM    3  C   UNL     2      -8.379  16.399  66.399  1.00  0.00    -0.328 C  
HETATM    4  H   UNL     2      -6.603  15.565  66.443  1.00  0.00     0.000 HD 
ENDROOT
BRANCH   3   5
HETATM    5  C   UNL     2      -9.013  17.667  66.966  1.00  0.00    -0.258 C  
BRANCH   5   6
HETATM    6  C   UNL     2      -8.400  18.927  66.378  1.00  0.00    -0.306 C  
HETATM    7  C   UNL     2      -7.690  19.717  67.485  1.00  0.00    -0.267 C  
HETATM    8  O   UNL     2      -7.695  20.957  67.336  1.00  0.00    -0.335 OA 
HETATM    9  O   UNL     2      -7.266  18.989  68.448  1.00  0.00    -0.264 OA 
ENDBRANCH   5   6
ENDBRANCH   3   5
TORSDOF 2
ENDMDL
MODEL      146
REMARK 921   NORMALIZED FREE ENERGY PREDICTED BY IDOCK:   -2.20 KCAL/MOL
REMARK 922        TOTAL FREE ENERGY PREDICTED BY IDOCK:   -2.62 KCAL/MOL
REMARK 923 INTER-LIGAND FREE ENERGY PREDICTED BY IDOCK:   -2.41 KCAL/MOL
REMARK 924 INTRA-LIGAND FREE ENERGY PREDICTED BY IDOCK:   -0.21 KCAL/MOL
REMARK 927      BINDING AFFINITY PREDICTED BY RF-SCORE:    0.00 PKD
ROOT
HETATM    1 NA   UNL     1     -10.956   5.154  70.558  1.00  0.00    -0.242 Na 
HETATM    2  O   UNL     2     -12.403   6.859  70.342  1.00  0.00    -0.613 OA 
HETATM    3  C   UNL     2     -11.534   7.966  70.631  1.00  0.00    -0.238 C  
HETATM    4  H   UNL     2     -13.183   6.934  70.881  1.00  0.00     0.000 HD 
ENDROOT
BRANCH   3   5
HETATM    5  C   UNL     2     -10.281   7.847  69.766  1.00  0.00    -0.212 C  
BRANCH   5   6
HETATM    6  C   UNL     2     -10.305   8.806  68.587  1.00  0.00    -0.230 C  
HETATM    7  C   UNL     2     -10.445   8.012  67.282  1.00  0.00    -0.314 C  
HETATM    8  O   UNL     2      -9.886   8.523  66.289  1.00  0.00    -0.254 OA 
HETATM    9  O   UNL     2     -11.048   6.892  67.421  1.00  0.00    -0.304 OA 
ENDBRANCH   5   6
ENDBRANCH   3   5
TORSDOF 2
ENDMDL
MODEL      147
REMARK 921   NORMALIZED FREE ENERGY PREDICTED BY IDOCK:   -2.19 KCAL/MOL
REMARK 922        TOTAL FREE ENERGY PREDICTED BY IDOCK:   -2.61 KCAL/MOL
REMARK 923 INTER-LIGAND FREE ENERGY PREDICTED BY IDOCK:   -2.58 KCAL/MOL
REMARK 924 INTRA-LIGAND FREE ENERGY PREDICTED BY IDOCK:   -0.03 KCAL/MOL
REMARK 927      BINDING AFFINITY PREDICTED BY RF-SCORE:    0.00 PKD
ROOT
HETATM    1 NA   UNL     1     -12.999   7.002  70.160  1.00  0.00    -0.594 Na 
HETATM    2  O   UNL     2     -12.900   7.962  72.190  1.00  0.00    -0.434 OA 
HETATM    3  C   UNL     2     -11.630   7.466  72.642  1.00  0.00    -0.250 C  
HETATM    4  H   UNL     2     -13.551   7.795  72.862  1.00  0.00     0.000 HD 
ENDROOT
BRANCH   3   5
HETATM    5  C   UNL     2     -10.584   7.734  71.562  1.00  0.00    -0.247 C  
BRANCH   5   6
HETATM    6  C   UNL     2      -9.563   8.773  71.997  1.00  0.00    -0.356 C  
HETATM    7  C   UNL     2      -8.481   8.102  72.852  1.00  0.00    -0.196 C  
HETATM    8  O   UNL     2      -7.983   8.827  73.739  1.00  0.00    -0.396 OA 
HETATM    9  O   UNL     2      -8.304   6.864  72.584  1.00  0.00    -0.110 OA 
ENDBRANCH   5   6
ENDBRANCH   3   5
TORSDOF 2
ENDMDL
MODEL      148
REMARK 921   NORMALIZED FREE ENERGY PREDICTED BY IDOCK:   -2.19 KCAL/MOL
REMARK 922        TOTAL FREE ENERGY PREDICTED BY IDOCK:   -2.61 KCAL/MOL
REMARK 923 INTER-LIGAND FREE ENERGY PREDICTED BY IDOCK:   -2.55 KCAL/MOL
REMARK 924 INTRA-LIGAND FREE ENERGY PREDICTED BY IDOCK:   -0.05 KCAL/MOL
REMARK 927      BINDING AFFINITY PREDICTED BY RF-SCORE:    0.00 PKD
ROOT
HETATM    1 NA   UNL     1      -8.739  13.483  66.202  1.00  0.00    -0.364 Na 
HETATM    2  O   UNL     2      -9.588  15.465  66.835  1.00  0.00    -0.215 OA 
HETATM    3  C   UNL     2     -10.984  15.233  66.585  1.00  0.00    -0.297 C  
HETATM    4  H   UNL     2      -9.334  16.281  66.420  1.00  0.00     0.000 HD 
ENDROOT
BRANCH   3   5
HETATM    5  C   UNL     2     -11.393  13.921  67.252  1.00  0.00    -0.344 C  
BRANCH   5   6
HETATM    6  C   UNL     2     -11.147  13.939  68.751  1.00  0.00    -0.291 C  
HETATM    7  C   UNL     2     -11.893  12.770  69.407  1.00  0.00    -0.300 C  
HETATM    8  O   UNL     2     -12.297  12.985  70.569  1.00  0.00    -0.338 OA 
HETATM    9  O   UNL     2     -12.064  11.767  68.632  1.00  0.00    -0.406 OA 
ENDBRANCH   5   6
ENDBRANCH   3   5
TORSDOF 2
ENDMDL
MODEL      149
REMARK 921   NORMALIZED FREE ENERGY PREDICTED BY IDOCK:   -2.17 KCAL/MOL
REMARK 922        TOTAL FREE ENERGY PREDICTED BY IDOCK:   -2.59 KCAL/MOL
REMARK 923 INTER-LIGAND FREE ENERGY PREDICTED BY IDOCK:   -2.54 KCAL/MOL
REMARK 924 INTRA-LIGAND FREE ENERGY PREDICTED BY IDOCK:   -0.05 KCAL/MOL
REMARK 927      BINDING AFFINITY PREDICTED BY RF-SCORE:    0.00 PKD
ROOT
HETATM    1 NA   UNL     1      -9.793  14.426  65.961  1.00  0.00    -0.236 Na 
HETATM    2  O   UNL     2     -12.025  14.218  66.115  1.00  0.00    -0.391 OA 
HETATM    3  C   UNL     2     -12.142  12.787  66.172  1.00  0.00    -0.364 C  
HETATM    4  H   UNL     2     -12.613  14.547  65.444  1.00  0.00     0.000 HD 
ENDROOT
BRANCH   3   5
HETATM    5  C   UNL     2     -11.198  12.258  67.250  1.00  0.00    -0.358 C  
BRANCH   5   6
HETATM    6  C   UNL     2     -11.747  12.477  68.651  1.00  0.00    -0.368 C  
HETATM    7  C   UNL     2     -11.610  11.183  69.463  1.00  0.00    -0.321 C  
HETATM    8  O   UNL     2     -12.500  10.999  70.320  1.00  0.00    -0.305 OA 
HETATM    9  O   UNL     2     -10.642  10.436  69.086  1.00  0.00    -0.199 OA 
ENDBRANCH   5   6
ENDBRANCH   3   5
TORSDOF 2
ENDMDL
MODEL      150
REMARK 921   NORMALIZED FREE ENERGY PREDICTED BY IDOCK:   -2.17 KCAL/MOL
REMARK 922        TOTAL FREE ENERGY PREDICTED BY IDOCK:   -2.59 KCAL/MOL
REMARK 923 INTER-LIGAND FREE ENERGY PREDICTED BY IDOCK:   -2.52 KCAL/MOL
REMARK 924 INTRA-LIGAND FREE ENERGY PREDICTED BY IDOCK:   -0.06 KCAL/MOL
REMARK 927      BINDING AFFINITY PREDICTED BY RF-SCORE:    0.00 PKD
ROOT
HETATM    1 NA   UNL     1      -9.748   7.351  68.987  1.00  0.00    -0.151 Na 
HETATM    2  O   UNL     2      -9.056   7.486  71.121  1.00  0.00    -0.146 OA 
HETATM    3  C   UNL     2      -9.206   8.898  71.346  1.00  0.00    -0.258 C  
HETATM    4  H   UNL     2      -8.183   7.224  71.388  1.00  0.00     0.000 HD 
ENDROOT
BRANCH   3   5
HETATM    5  C   UNL     2     -10.610   9.319  70.917  1.00  0.00    -0.366 C  
BRANCH   5   6
HETATM    6  C   UNL     2     -10.598  10.131  69.632  1.00  0.00    -0.286 C  
HETATM    7  C   UNL     2     -11.830  11.043  69.590  1.00  0.00    -0.342 C  
HETATM    8  O   UNL     2     -12.280  11.271  68.448  1.00  0.00    -0.604 OA 
HETATM    9  O   UNL     2     -12.270  11.371  70.746  1.00  0.00    -0.368 OA 
ENDBRANCH   5   6
ENDBRANCH   3   5
TORSDOF 2
ENDMDL
MODEL      151
REMARK 921   NORMALIZED FREE ENERGY PREDICTED BY IDOCK:   -2.16 KCAL/MOL
REMARK 922        TOTAL FREE ENERGY PREDICTED BY IDOCK:   -2.58 KCAL/MOL
REMARK 923 INTER-LIGAND FREE ENERGY PREDICTED BY IDOCK:   -2.25 KCAL/MOL
REMARK 924 INTRA-LIGAND FREE ENERGY PREDICTED BY IDOCK:   -0.33 KCAL/MOL
REMARK 927      BINDING AFFINITY PREDICTED BY RF-SCORE:    0.00 PKD
ROOT
HETATM    1 NA   UNL     1      -6.107  19.185  65.819  1.00  0.00    -0.158 Na 
HETATM    2  O   UNL     2      -7.078  21.107  66.461  1.00  0.00    -0.530 OA 
HETATM    3  C   UNL     2      -8.165  20.590  67.247  1.00  0.00    -0.300 C  
HETATM    4  H   UNL     2      -7.423  21.734  65.836  1.00  0.00     0.000 HD 
ENDROOT
BRANCH   3   5
HETATM    5  C   UNL     2      -7.611  19.582  68.251  1.00  0.00    -0.346 C  
BRANCH   5   6
HETATM    6  C   UNL     2      -8.578  18.439  68.511  1.00  0.00    -0.341 C  
HETATM    7  C   UNL     2      -8.331  17.317  67.494  1.00  0.00    -0.196 C  
HETATM    8  O   UNL     2      -9.344  16.661  67.174  1.00  0.00    -0.222 OA 
HETATM    9  O   UNL     2      -7.129  17.271  67.058  1.00  0.00    -0.159 OA 
ENDBRANCH   5   6
ENDBRANCH   3   5
TORSDOF 2
ENDMDL
MODEL      152
REMARK 921   NORMALIZED FREE ENERGY PREDICTED BY IDOCK:   -2.15 KCAL/MOL
REMARK 922        TOTAL FREE ENERGY PREDICTED BY IDOCK:   -2.57 KCAL/MOL
REMARK 923 INTER-LIGAND FREE ENERGY PREDICTED BY IDOCK:   -2.52 KCAL/MOL
REMARK 924 INTRA-LIGAND FREE ENERGY PREDICTED BY IDOCK:   -0.06 KCAL/MOL
REMARK 927      BINDING AFFINITY PREDICTED BY RF-SCORE:    0.00 PKD
ROOT
HETATM    1 NA   UNL     1      -9.417  13.791  64.670  1.00  0.00    -0.524 Na 
HETATM    2  O   UNL     2      -8.589  12.731  66.470  1.00  0.00    -0.416 OA 
HETATM    3  C   UNL     2      -8.177  13.858  67.259  1.00  0.00    -0.161 C  
HETATM    4  H   UNL     2      -7.865  12.119  66.408  1.00  0.00     0.000 HD 
ENDROOT
BRANCH   3   5
HETATM    5  C   UNL     2      -9.340  14.842  67.358  1.00  0.00    -0.202 C  
BRANCH   5   6
HETATM    6  C   UNL     2     -10.582  14.205  67.958  1.00  0.00    -0.241 C  
HETATM    7  C   UNL     2     -11.406  15.274  68.687  1.00  0.00    -0.317 C  
HETATM    8  O   UNL     2     -12.042  14.865  69.681  1.00  0.00    -0.300 OA 
HETATM    9  O   UNL     2     -11.256  16.453  68.214  1.00  0.00    -0.355 OA 
ENDBRANCH   5   6
ENDBRANCH   3   5
TORSDOF 2
ENDMDL
MODEL      153
REMARK 921   NORMALIZED FREE ENERGY PREDICTED BY IDOCK:   -2.14 KCAL/MOL
REMARK 922        TOTAL FREE ENERGY PREDICTED BY IDOCK:   -2.55 KCAL/MOL
REMARK 923 INTER-LIGAND FREE ENERGY PREDICTED BY IDOCK:   -2.46 KCAL/MOL
REMARK 924 INTRA-LIGAND FREE ENERGY PREDICTED BY IDOCK:   -0.09 KCAL/MOL
REMARK 927      BINDING AFFINITY PREDICTED BY RF-SCORE:    0.00 PKD
ROOT
HETATM    1 NA   UNL     1      -5.808  18.396  66.390  1.00  0.00    -0.132 Na 
HETATM    2  O   UNL     2      -5.874  20.558  66.998  1.00  0.00    -0.171 OA 
HETATM    3  C   UNL     2      -7.258  20.675  67.366  1.00  0.00    -0.342 C  
HETATM    4  H   UNL     2      -5.656  21.261  66.397  1.00  0.00     0.000 HD 
ENDROOT
BRANCH   3   5
HETATM    5  C   UNL     2      -7.608  19.546  68.333  1.00  0.00    -0.365 C  
BRANCH   5   6
HETATM    6  C   UNL     2      -8.640  18.593  67.753  1.00  0.00    -0.294 C  
HETATM    7  C   UNL     2      -9.906  18.620  68.618  1.00  0.00    -0.385 C  
HETATM    8  O   UNL     2     -10.535  17.542  68.667  1.00  0.00    -0.356 OA 
HETATM    9  O   UNL     2     -10.088  19.726  69.233  1.00  0.00    -0.417 OA 
ENDBRANCH   5   6
ENDBRANCH   3   5
TORSDOF 2
ENDMDL
MODEL      154
REMARK 921   NORMALIZED FREE ENERGY PREDICTED BY IDOCK:   -2.12 KCAL/MOL
REMARK 922        TOTAL FREE ENERGY PREDICTED BY IDOCK:   -2.54 KCAL/MOL
REMARK 923 INTER-LIGAND FREE ENERGY PREDICTED BY IDOCK:   -2.50 KCAL/MOL
REMARK 924 INTRA-LIGAND FREE ENERGY PREDICTED BY IDOCK:   -0.04 KCAL/MOL
REMARK 927      BINDING AFFINITY PREDICTED BY RF-SCORE:    0.00 PKD
ROOT
HETATM    1 NA   UNL     1     -11.300   8.608  67.481  1.00  0.00    -0.470 Na 
HETATM    2  O   UNL     2     -11.598   6.423  67.050  1.00  0.00    -0.696 OA 
HETATM    3  C   UNL     2     -10.822   5.847  68.113  1.00  0.00    -0.236 C  
HETATM    4  H   UNL     2     -11.332   6.028  66.227  1.00  0.00     0.000 HD 
ENDROOT
BRANCH   3   5
HETATM    5  C   UNL     2     -11.249   6.482  69.434  1.00  0.00    -0.418 C  
BRANCH   5   6
HETATM    6  C   UNL     2     -10.058   6.881  70.290  1.00  0.00    -0.196 C  
HETATM    7  C   UNL     2      -9.973   5.957  71.512  1.00  0.00    -0.180 C  
HETATM    8  O   UNL     2      -9.508   6.486  72.543  1.00  0.00    -0.146 OA 
HETATM    9  O   UNL     2     -10.471   4.795  71.317  1.00  0.00    -0.159 OA 
ENDBRANCH   5   6
ENDBRANCH   3   5
TORSDOF 2
ENDMDL
MODEL      155
REMARK 921   NORMALIZED FREE ENERGY PREDICTED BY IDOCK:   -2.12 KCAL/MOL
REMARK 922        TOTAL FREE ENERGY PREDICTED BY IDOCK:   -2.53 KCAL/MOL
REMARK 923 INTER-LIGAND FREE ENERGY PREDICTED BY IDOCK:   -2.06 KCAL/MOL
REMARK 924 INTRA-LIGAND FREE ENERGY PREDICTED BY IDOCK:   -0.47 KCAL/MOL
REMARK 927      BINDING AFFINITY PREDICTED BY RF-SCORE:    0.00 PKD
ROOT
HETATM    1 NA   UNL     1      -8.713  15.813  66.670  1.00  0.00    -0.159 Na 
HETATM    2  O   UNL     2      -8.986  16.641  68.741  1.00  0.00    -0.239 OA 
HETATM    3  C   UNL     2     -10.385  16.968  68.699  1.00  0.00    -0.351 C  
HETATM    4  H   UNL     2      -8.503  17.398  69.051  1.00  0.00     0.000 HD 
ENDROOT
BRANCH   3   5
HETATM    5  C   UNL     2     -11.161  15.752  68.199  1.00  0.00    -0.341 C  
BRANCH   5   6
HETATM    6  C   UNL     2     -10.935  14.529  69.073  1.00  0.00    -0.272 C  
HETATM    7  C   UNL     2     -10.286  13.416  68.240  1.00  0.00    -0.250 C  
HETATM    8  O   UNL     2     -10.594  12.254  68.578  1.00  0.00    -0.224 OA 
HETATM    9  O   UNL     2      -9.585  13.846  67.260  1.00  0.00    -0.230 OA 
ENDBRANCH   5   6
ENDBRANCH   3   5
TORSDOF 2
ENDMDL
MODEL      156
REMARK 921   NORMALIZED FREE ENERGY PREDICTED BY IDOCK:   -2.12 KCAL/MOL
REMARK 922        TOTAL FREE ENERGY PREDICTED BY IDOCK:   -2.53 KCAL/MOL
REMARK 923 INTER-LIGAND FREE ENERGY PREDICTED BY IDOCK:   -2.02 KCAL/MOL
REMARK 924 INTRA-LIGAND FREE ENERGY PREDICTED BY IDOCK:   -0.51 KCAL/MOL
REMARK 927      BINDING AFFINITY PREDICTED BY RF-SCORE:    0.00 PKD
ROOT
HETATM    1 NA   UNL     1     -10.329   6.370  65.703  1.00  0.00    -0.408 Na 
HETATM    2  O   UNL     2      -8.365   6.887  66.665  1.00  0.00    -0.112 OA 
HETATM    3  C   UNL     2      -8.626   8.245  67.057  1.00  0.00    -0.123 C  
HETATM    4  H   UNL     2      -7.544   6.858  66.188  1.00  0.00     0.000 HD 
ENDROOT
BRANCH   3   5
HETATM    5  C   UNL     2      -9.946   8.292  67.823  1.00  0.00    -0.235 C  
BRANCH   5   6
HETATM    6  C   UNL     2      -9.869   7.544  69.144  1.00  0.00    -0.170 C  
HETATM    7  C   UNL     2     -10.819   6.339  69.107  1.00  0.00    -0.340 C  
HETATM    8  O   UNL     2     -11.321   6.028  70.207  1.00  0.00    -0.353 OA 
HETATM    9  O   UNL     2     -11.022   5.878  67.932  1.00  0.00    -0.276 OA 
ENDBRANCH   5   6
ENDBRANCH   3   5
TORSDOF 2
ENDMDL
MODEL      157
REMARK 921   NORMALIZED FREE ENERGY PREDICTED BY IDOCK:   -2.11 KCAL/MOL
REMARK 922        TOTAL FREE ENERGY PREDICTED BY IDOCK:   -2.53 KCAL/MOL
REMARK 923 INTER-LIGAND FREE ENERGY PREDICTED BY IDOCK:   -2.25 KCAL/MOL
REMARK 924 INTRA-LIGAND FREE ENERGY PREDICTED BY IDOCK:   -0.28 KCAL/MOL
REMARK 927      BINDING AFFINITY PREDICTED BY RF-SCORE:    0.00 PKD
ROOT
HETATM    1 NA   UNL     1      -6.763  16.059  69.354  1.00  0.00    -0.126 Na 
HETATM    2  O   UNL     2      -7.827  15.885  67.383  1.00  0.00    -0.141 OA 
HETATM    3  C   UNL     2      -9.124  15.462  67.833  1.00  0.00    -0.178 C  
HETATM    4  H   UNL     2      -7.533  15.295  66.699  1.00  0.00     0.000 HD 
ENDROOT
BRANCH   3   5
HETATM    5  C   UNL     2      -9.597  16.410  68.933  1.00  0.00    -0.252 C  
BRANCH   5   6
HETATM    6  C   UNL     2     -10.375  17.591  68.376  1.00  0.00    -0.378 C  
HETATM    7  C   UNL     2      -9.577  18.882  68.602  1.00  0.00    -0.391 C  
HETATM    8  O   UNL     2     -10.268  19.906  68.782  1.00  0.00    -0.451 OA 
HETATM    9  O   UNL     2      -8.311  18.704  68.655  1.00  0.00    -0.329 OA 
ENDBRANCH   5   6
ENDBRANCH   3   5
TORSDOF 2
ENDMDL
MODEL      158
REMARK 921   NORMALIZED FREE ENERGY PREDICTED BY IDOCK:   -2.11 KCAL/MOL
REMARK 922        TOTAL FREE ENERGY PREDICTED BY IDOCK:   -2.52 KCAL/MOL
REMARK 923 INTER-LIGAND FREE ENERGY PREDICTED BY IDOCK:   -2.30 KCAL/MOL
REMARK 924 INTRA-LIGAND FREE ENERGY PREDICTED BY IDOCK:   -0.22 KCAL/MOL
REMARK 927      BINDING AFFINITY PREDICTED BY RF-SCORE:    0.00 PKD
ROOT
HETATM    1 NA   UNL     1      -7.244  12.813  66.314  1.00  0.00    -0.354 Na 
HETATM    2  O   UNL     2      -7.842  10.746  65.667  1.00  0.00    -0.237 OA 
HETATM    3  C   UNL     2      -9.012  10.556  66.480  1.00  0.00    -0.157 C  
HETATM    4  H   UNL     2      -7.269   9.996  65.775  1.00  0.00     0.000 HD 
ENDROOT
BRANCH   3   5
HETATM    5  C   UNL     2      -9.933  11.762  66.308  1.00  0.00    -0.246 C  
BRANCH   5   6
HETATM    6  C   UNL     2     -11.079  11.476  65.351  1.00  0.00    -0.250 C  
HETATM    7  C   UNL     2     -10.919  12.334  64.090  1.00  0.00    -0.363 C  
HETATM    8  O   UNL     2     -11.990  12.679  63.546  1.00  0.00    -0.480 OA 
HETATM    9  O   UNL     2      -9.707  12.642  63.824  1.00  0.00    -0.217 OA 
ENDBRANCH   5   6
ENDBRANCH   3   5
TORSDOF 2
ENDMDL
MODEL      159
REMARK 921   NORMALIZED FREE ENERGY PREDICTED BY IDOCK:   -2.10 KCAL/MOL
REMARK 922        TOTAL FREE ENERGY PREDICTED BY IDOCK:   -2.52 KCAL/MOL
REMARK 923 INTER-LIGAND FREE ENERGY PREDICTED BY IDOCK:   -2.23 KCAL/MOL
REMARK 924 INTRA-LIGAND FREE ENERGY PREDICTED BY IDOCK:   -0.29 KCAL/MOL
REMARK 927      BINDING AFFINITY PREDICTED BY RF-SCORE:    0.00 PKD
ROOT
HETATM    1 NA   UNL     1     -12.109   6.619  67.428  1.00  0.00    -0.667 Na 
HETATM    2  O   UNL     2     -11.159   8.636  67.709  1.00  0.00    -0.482 OA 
HETATM    3  C   UNL     2      -9.777   8.255  67.793  1.00  0.00    -0.158 C  
HETATM    4  H   UNL     2     -11.368   9.196  68.448  1.00  0.00     0.000 HD 
ENDROOT
BRANCH   3   5
HETATM    5  C   UNL     2      -9.441   7.355  66.606  1.00  0.00    -0.240 C  
BRANCH   5   6
HETATM    6  C   UNL     2      -8.790   6.052  67.040  1.00  0.00    -0.113 C  
HETATM    7  C   UNL     2      -9.757   4.888  66.788  1.00  0.00    -0.181 C  
HETATM    8  O   UNL     2      -9.663   3.939  67.595  1.00  0.00    -0.179 OA 
HETATM    9  O   UNL     2     -10.579   5.097  65.831  1.00  0.00    -0.206 OA 
ENDBRANCH   5   6
ENDBRANCH   3   5
TORSDOF 2
ENDMDL
MODEL      160
REMARK 921   NORMALIZED FREE ENERGY PREDICTED BY IDOCK:   -2.09 KCAL/MOL
REMARK 922        TOTAL FREE ENERGY PREDICTED BY IDOCK:   -2.50 KCAL/MOL
REMARK 923 INTER-LIGAND FREE ENERGY PREDICTED BY IDOCK:   -2.16 KCAL/MOL
REMARK 924 INTRA-LIGAND FREE ENERGY PREDICTED BY IDOCK:   -0.35 KCAL/MOL
REMARK 927      BINDING AFFINITY PREDICTED BY RF-SCORE:    0.00 PKD
ROOT
HETATM    1 NA   UNL     1      -6.193  16.449  66.286  1.00  0.00    -0.174 Na 
HETATM    2  O   UNL     2      -7.040  16.013  68.321  1.00  0.00    -0.115 OA 
HETATM    3  C   UNL     2      -7.717  17.253  68.583  1.00  0.00    -0.265 C  
HETATM    4  H   UNL     2      -6.488  15.801  69.065  1.00  0.00     0.000 HD 
ENDROOT
BRANCH   3   5
HETATM    5  C   UNL     2      -8.604  17.593  67.388  1.00  0.00    -0.229 C  
BRANCH   5   6
HETATM    6  C   UNL     2      -8.580  19.077  67.060  1.00  0.00    -0.308 C  
HETATM    7  C   UNL     2      -7.450  19.364  66.063  1.00  0.00    -0.289 C  
HETATM    8  O   UNL     2      -6.922  20.490  66.173  1.00  0.00    -0.247 OA 
HETATM    9  O   UNL     2      -7.157  18.369  65.314  1.00  0.00    -0.530 OA 
ENDBRANCH   5   6
ENDBRANCH   3   5
TORSDOF 2
ENDMDL
MODEL      161
REMARK 921   NORMALIZED FREE ENERGY PREDICTED BY IDOCK:   -2.06 KCAL/MOL
REMARK 922        TOTAL FREE ENERGY PREDICTED BY IDOCK:   -2.47 KCAL/MOL
REMARK 923 INTER-LIGAND FREE ENERGY PREDICTED BY IDOCK:   -2.12 KCAL/MOL
REMARK 924 INTRA-LIGAND FREE ENERGY PREDICTED BY IDOCK:   -0.35 KCAL/MOL
REMARK 927      BINDING AFFINITY PREDICTED BY RF-SCORE:    0.00 PKD
ROOT
HETATM    1 NA   UNL     1      -8.623  16.151  69.645  1.00  0.00    -0.222 Na 
HETATM    2  O   UNL     2      -6.919  16.181  68.181  1.00  0.00    -0.121 OA 
HETATM    3  C   UNL     2      -7.618  15.839  66.973  1.00  0.00    -0.222 C  
HETATM    4  H   UNL     2      -6.164  15.610  68.270  1.00  0.00     0.000 HD 
ENDROOT
BRANCH   3   5
HETATM    5  C   UNL     2      -8.831  16.756  66.830  1.00  0.00    -0.257 C  
BRANCH   5   6
HETATM    6  C   UNL     2     -10.057  16.011  66.330  1.00  0.00    -0.329 C  
HETATM    7  C   UNL     2     -10.925  15.593  67.523  1.00  0.00    -0.309 C  
HETATM    8  O   UNL     2     -11.559  14.528  67.369  1.00  0.00    -0.353 OA 
HETATM    9  O   UNL     2     -10.808  16.359  68.541  1.00  0.00    -0.304 OA 
ENDBRANCH   5   6
ENDBRANCH   3   5
TORSDOF 2
ENDMDL
MODEL      162
REMARK 921   NORMALIZED FREE ENERGY PREDICTED BY IDOCK:   -2.05 KCAL/MOL
REMARK 922        TOTAL FREE ENERGY PREDICTED BY IDOCK:   -2.46 KCAL/MOL
REMARK 923 INTER-LIGAND FREE ENERGY PREDICTED BY IDOCK:   -2.12 KCAL/MOL
REMARK 924 INTRA-LIGAND FREE ENERGY PREDICTED BY IDOCK:   -0.33 KCAL/MOL
REMARK 927      BINDING AFFINITY PREDICTED BY RF-SCORE:    0.00 PKD
ROOT
HETATM    1 NA   UNL     1      -6.079  16.811  66.311  1.00  0.00    -0.161 Na 
HETATM    2  O   UNL     2      -5.962  15.901  68.362  1.00  0.00    -0.099 OA 
HETATM    3  C   UNL     2      -6.791  16.819  69.093  1.00  0.00    -0.227 C  
HETATM    4  H   UNL     2      -5.139  15.797  68.824  1.00  0.00     0.000 HD 
ENDROOT
BRANCH   3   5
HETATM    5  C   UNL     2      -8.115  16.987  68.350  1.00  0.00    -0.245 C  
BRANCH   5   6
HETATM    6  C   UNL     2      -8.493  15.742  67.565  1.00  0.00    -0.183 C  
HETATM    7  C   UNL     2      -8.933  16.143  66.151  1.00  0.00    -0.337 C  
HETATM    8  O   UNL     2      -9.802  15.406  65.639  1.00  0.00    -0.339 OA 
HETATM    9  O   UNL     2      -8.401  17.228  65.732  1.00  0.00    -0.535 OA 
ENDBRANCH   5   6
ENDBRANCH   3   5
TORSDOF 2
ENDMDL
MODEL      163
REMARK 921   NORMALIZED FREE ENERGY PREDICTED BY IDOCK:   -2.05 KCAL/MOL
REMARK 922        TOTAL FREE ENERGY PREDICTED BY IDOCK:   -2.45 KCAL/MOL
REMARK 923 INTER-LIGAND FREE ENERGY PREDICTED BY IDOCK:   -2.39 KCAL/MOL
REMARK 924 INTRA-LIGAND FREE ENERGY PREDICTED BY IDOCK:   -0.06 KCAL/MOL
REMARK 927      BINDING AFFINITY PREDICTED BY RF-SCORE:    0.00 PKD
ROOT
HETATM    1 NA   UNL     1      -9.130  15.631  65.938  1.00  0.00    -0.223 Na 
HETATM    2  O   UNL     2     -11.273  15.093  65.527  1.00  0.00    -0.345 OA 
HETATM    3  C   UNL     2     -11.099  13.796  64.935  1.00  0.00    -0.362 C  
HETATM    4  H   UNL     2     -11.827  15.617  64.960  1.00  0.00     0.000 HD 
ENDROOT
BRANCH   3   5
HETATM    5  C   UNL     2     -10.208  12.954  65.847  1.00  0.00    -0.299 C  
BRANCH   5   6
HETATM    6  C   UNL     2     -10.256  11.477  65.491  1.00  0.00    -0.303 C  
HETATM    7  C   UNL     2     -10.756  10.675  66.699  1.00  0.00    -0.181 C  
HETATM    8  O   UNL     2     -10.290   9.521  66.797  1.00  0.00    -0.246 OA 
HETATM    9  O   UNL     2     -11.520  11.340  67.481  1.00  0.00    -0.428 OA 
ENDBRANCH   5   6
ENDBRANCH   3   5
TORSDOF 2
ENDMDL
MODEL      164
REMARK 921   NORMALIZED FREE ENERGY PREDICTED BY IDOCK:   -2.04 KCAL/MOL
REMARK 922        TOTAL FREE ENERGY PREDICTED BY IDOCK:   -2.45 KCAL/MOL
REMARK 923 INTER-LIGAND FREE ENERGY PREDICTED BY IDOCK:   -2.11 KCAL/MOL
REMARK 924 INTRA-LIGAND FREE ENERGY PREDICTED BY IDOCK:   -0.34 KCAL/MOL
REMARK 927      BINDING AFFINITY PREDICTED BY RF-SCORE:    0.00 PKD
ROOT
HETATM    1 NA   UNL     1     -10.040   5.686  70.769  1.00  0.00    -0.157 Na 
HETATM    2  O   UNL     2     -10.395   5.689  72.988  1.00  0.00    -0.184 OA 
HETATM    3  C   UNL     2     -10.806   7.053  73.176  1.00  0.00    -0.316 C  
HETATM    4  H   UNL     2      -9.706   5.488  73.611  1.00  0.00     0.000 HD 
ENDROOT
BRANCH   3   5
HETATM    5  C   UNL     2     -11.912   7.376  72.174  1.00  0.00    -0.307 C  
BRANCH   5   6
HETATM    6  C   UNL     2     -11.827   8.806  71.667  1.00  0.00    -0.399 C  
HETATM    7  C   UNL     2     -10.962   8.851  70.401  1.00  0.00    -0.244 C  
HETATM    8  O   UNL     2     -10.316   9.907  70.239  1.00  0.00    -0.265 OA 
HETATM    9  O   UNL     2     -10.967   7.760  69.734  1.00  0.00    -0.237 OA 
ENDBRANCH   5   6
ENDBRANCH   3   5
TORSDOF 2
ENDMDL
MODEL      165
REMARK 921   NORMALIZED FREE ENERGY PREDICTED BY IDOCK:   -2.04 KCAL/MOL
REMARK 922        TOTAL FREE ENERGY PREDICTED BY IDOCK:   -2.44 KCAL/MOL
REMARK 923 INTER-LIGAND FREE ENERGY PREDICTED BY IDOCK:   -2.38 KCAL/MOL
REMARK 924 INTRA-LIGAND FREE ENERGY PREDICTED BY IDOCK:   -0.06 KCAL/MOL
REMARK 927      BINDING AFFINITY PREDICTED BY RF-SCORE:    0.00 PKD
ROOT
HETATM    1 NA   UNL     1      -7.494  17.102  65.694  1.00  0.00    -0.261 Na 
HETATM    2  O   UNL     2      -7.441  15.061  66.633  1.00  0.00    -0.262 OA 
HETATM    3  C   UNL     2      -8.423  15.234  67.668  1.00  0.00    -0.161 C  
HETATM    4  H   UNL     2      -6.650  14.701  67.018  1.00  0.00     0.000 HD 
ENDROOT
BRANCH   3   5
HETATM    5  C   UNL     2      -9.693  15.813  67.049  1.00  0.00    -0.235 C  
BRANCH   5   6
HETATM    6  C   UNL     2      -9.801  15.504  65.565  1.00  0.00    -0.348 C  
HETATM    7  C   UNL     2     -10.727  14.299  65.359  1.00  0.00    -0.343 C  
HETATM    8  O   UNL     2     -10.446  13.578  64.378  1.00  0.00    -0.430 OA 
HETATM    9  O   UNL     2     -11.608  14.161  66.276  1.00  0.00    -0.344 OA 
ENDBRANCH   5   6
ENDBRANCH   3   5
TORSDOF 2
ENDMDL
MODEL      166
REMARK 921   NORMALIZED FREE ENERGY PREDICTED BY IDOCK:   -2.03 KCAL/MOL
REMARK 922        TOTAL FREE ENERGY PREDICTED BY IDOCK:   -2.43 KCAL/MOL
REMARK 923 INTER-LIGAND FREE ENERGY PREDICTED BY IDOCK:   -2.35 KCAL/MOL
REMARK 924 INTRA-LIGAND FREE ENERGY PREDICTED BY IDOCK:   -0.08 KCAL/MOL
REMARK 927      BINDING AFFINITY PREDICTED BY RF-SCORE:    0.00 PKD
ROOT
HETATM    1 NA   UNL     1      -7.763  17.860  69.102  1.00  0.00    -0.247 Na 
HETATM    2  O   UNL     2      -9.414  19.281  68.549  1.00  0.00    -0.348 OA 
HETATM    3  C   UNL     2     -10.264  18.399  67.798  1.00  0.00    -0.385 C  
HETATM    4  H   UNL     2      -9.256  20.065  68.036  1.00  0.00     0.000 HD 
ENDROOT
BRANCH   3   5
HETATM    5  C   UNL     2     -10.517  17.138  68.622  1.00  0.00    -0.366 C  
BRANCH   5   6
HETATM    6  C   UNL     2     -10.019  15.885  67.921  1.00  0.00    -0.221 C  
HETATM    7  C   UNL     2     -10.828  14.674  68.400  1.00  0.00    -0.245 C  
HETATM    8  O   UNL     2     -10.200  13.594  68.425  1.00  0.00    -0.236 OA 
HETATM    9  O   UNL     2     -12.013  14.963  68.785  1.00  0.00    -0.303 OA 
ENDBRANCH   5   6
ENDBRANCH   3   5
TORSDOF 2
ENDMDL
MODEL      167
REMARK 921   NORMALIZED FREE ENERGY PREDICTED BY IDOCK:   -2.03 KCAL/MOL
REMARK 922        TOTAL FREE ENERGY PREDICTED BY IDOCK:   -2.43 KCAL/MOL
REMARK 923 INTER-LIGAND FREE ENERGY PREDICTED BY IDOCK:   -2.36 KCAL/MOL
REMARK 924 INTRA-LIGAND FREE ENERGY PREDICTED BY IDOCK:   -0.07 KCAL/MOL
REMARK 927      BINDING AFFINITY PREDICTED BY RF-SCORE:    0.00 PKD
ROOT
HETATM    1 NA   UNL     1      -9.044   7.392  68.706  1.00  0.00    -0.129 Na 
HETATM    2  O   UNL     2      -9.515   5.261  69.243  1.00  0.00    -0.119 OA 
HETATM    3  C   UNL     2     -10.412   5.471  70.346  1.00  0.00    -0.286 C  
HETATM    4  H   UNL     2      -8.842   4.645  69.509  1.00  0.00     0.000 HD 
ENDROOT
BRANCH   3   5
HETATM    5  C   UNL     2     -11.494   6.461  69.919  1.00  0.00    -0.483 C  
BRANCH   5   6
HETATM    6  C   UNL     2     -12.384   6.873  71.080  1.00  0.00    -0.419 C  
HETATM    7  C   UNL     2     -11.962   8.259  71.583  1.00  0.00    -0.303 C  
HETATM    8  O   UNL     2     -12.130   8.451  72.806  1.00  0.00    -0.354 OA 
HETATM    9  O   UNL     2     -11.420   8.991  70.686  1.00  0.00    -0.263 OA 
ENDBRANCH   5   6
ENDBRANCH   3   5
TORSDOF 2
ENDMDL
MODEL      168
REMARK 921   NORMALIZED FREE ENERGY PREDICTED BY IDOCK:   -2.03 KCAL/MOL
REMARK 922        TOTAL FREE ENERGY PREDICTED BY IDOCK:   -2.43 KCAL/MOL
REMARK 923 INTER-LIGAND FREE ENERGY PREDICTED BY IDOCK:   -2.37 KCAL/MOL
REMARK 924 INTRA-LIGAND FREE ENERGY PREDICTED BY IDOCK:   -0.06 KCAL/MOL
REMARK 927      BINDING AFFINITY PREDICTED BY RF-SCORE:    0.00 PKD
ROOT
HETATM    1 NA   UNL     1      -9.319   4.408  70.950  1.00  0.00    -0.102 Na 
HETATM    2  O   UNL     2     -10.545   4.039  72.797  1.00  0.00    -0.176 OA 
HETATM    3  C   UNL     2     -10.610   5.373  73.327  1.00  0.00    -0.249 C  
HETATM    4  H   UNL     2     -10.260   3.450  73.485  1.00  0.00     0.000 HD 
ENDROOT
BRANCH   3   5
HETATM    5  C   UNL     2     -11.069   6.321  72.220  1.00  0.00    -0.311 C  
BRANCH   5   6
HETATM    6  C   UNL     2     -11.210   7.752  72.713  1.00  0.00    -0.456 C  
HETATM    7  C   UNL     2     -12.426   8.406  72.045  1.00  0.00    -0.359 C  
HETATM    8  O   UNL     2     -12.324   9.635  71.849  1.00  0.00    -0.375 OA 
HETATM    9  O   UNL     2     -13.340   7.576  71.709  1.00  0.00    -0.344 OA 
ENDBRANCH   5   6
ENDBRANCH   3   5
TORSDOF 2
ENDMDL
MODEL      169
REMARK 921   NORMALIZED FREE ENERGY PREDICTED BY IDOCK:   -2.01 KCAL/MOL
REMARK 922        TOTAL FREE ENERGY PREDICTED BY IDOCK:   -2.41 KCAL/MOL
REMARK 923 INTER-LIGAND FREE ENERGY PREDICTED BY IDOCK:   -2.30 KCAL/MOL
REMARK 924 INTRA-LIGAND FREE ENERGY PREDICTED BY IDOCK:   -0.11 KCAL/MOL
REMARK 927      BINDING AFFINITY PREDICTED BY RF-SCORE:    0.00 PKD
ROOT
HETATM    1 NA   UNL     1     -11.107   8.510  71.504  1.00  0.00    -0.218 Na 
HETATM    2  O   UNL     2     -12.172   6.850  70.426  1.00  0.00    -0.600 OA 
HETATM    3  C   UNL     2     -11.046   6.094  69.952  1.00  0.00    -0.410 C  
HETATM    4  H   UNL     2     -12.760   7.014  69.698  1.00  0.00     0.000 HD 
ENDROOT
BRANCH   3   5
HETATM    5  C   UNL     2     -10.101   5.831  71.122  1.00  0.00    -0.257 C  
BRANCH   5   6
HETATM    6  C   UNL     2     -10.123   4.376  71.561  1.00  0.00    -0.221 C  
HETATM    7  C   UNL     2     -10.553   4.291  73.032  1.00  0.00    -0.190 C  
HETATM    8  O   UNL     2     -10.052   3.345  73.675  1.00  0.00    -0.111 OA 
HETATM    9  O   UNL     2     -11.302   5.257  73.408  1.00  0.00    -0.293 OA 
ENDBRANCH   5   6
ENDBRANCH   3   5
TORSDOF 2
ENDMDL
MODEL      170
REMARK 921   NORMALIZED FREE ENERGY PREDICTED BY IDOCK:   -1.98 KCAL/MOL
REMARK 922        TOTAL FREE ENERGY PREDICTED BY IDOCK:   -2.38 KCAL/MOL
REMARK 923 INTER-LIGAND FREE ENERGY PREDICTED BY IDOCK:   -2.02 KCAL/MOL
REMARK 924 INTRA-LIGAND FREE ENERGY PREDICTED BY IDOCK:   -0.36 KCAL/MOL
REMARK 927      BINDING AFFINITY PREDICTED BY RF-SCORE:    0.00 PKD
ROOT
HETATM    1 NA   UNL     1     -11.468   5.387  70.351  1.00  0.00    -0.264 Na 
HETATM    2  O   UNL     2     -12.845   7.163  70.349  1.00  0.00    -0.525 OA 
HETATM    3  C   UNL     2     -12.280   7.921  71.431  1.00  0.00    -0.313 C  
HETATM    4  H   UNL     2     -13.781   7.078  70.490  1.00  0.00     0.000 HD 
ENDROOT
BRANCH   3   5
HETATM    5  C   UNL     2     -10.776   8.057  71.206  1.00  0.00    -0.265 C  
BRANCH   5   6
HETATM    6  C   UNL     2     -10.428   8.206  69.734  1.00  0.00    -0.227 C  
HETATM    7  C   UNL     2      -9.199   7.349  69.408  1.00  0.00    -0.145 C  
HETATM    8  O   UNL     2      -8.460   7.804  68.509  1.00  0.00    -0.127 OA 
HETATM    9  O   UNL     2      -9.065   6.328  70.166  1.00  0.00    -0.150 OA 
ENDBRANCH   5   6
ENDBRANCH   3   5
TORSDOF 2
ENDMDL
MODEL      171
REMARK 921   NORMALIZED FREE ENERGY PREDICTED BY IDOCK:   -1.98 KCAL/MOL
REMARK 922        TOTAL FREE ENERGY PREDICTED BY IDOCK:   -2.37 KCAL/MOL
REMARK 923 INTER-LIGAND FREE ENERGY PREDICTED BY IDOCK:   -2.31 KCAL/MOL
REMARK 924 INTRA-LIGAND FREE ENERGY PREDICTED BY IDOCK:   -0.07 KCAL/MOL
REMARK 927      BINDING AFFINITY PREDICTED BY RF-SCORE:    0.00 PKD
ROOT
HETATM    1 NA   UNL     1     -11.219  11.534  70.809  1.00  0.00    -0.419 Na 
HETATM    2  O   UNL     2     -12.222  10.835  68.923  1.00  0.00    -0.748 OA 
HETATM    3  C   UNL     2     -11.456  11.558  67.947  1.00  0.00    -0.301 C  
HETATM    4  H   UNL     2     -13.146  10.980  68.757  1.00  0.00     0.000 HD 
ENDROOT
BRANCH   3   5
HETATM    5  C   UNL     2      -9.971  11.325  68.214  1.00  0.00    -0.201 C  
BRANCH   5   6
HETATM    6  C   UNL     2      -9.149  12.589  68.026  1.00  0.00    -0.200 C  
HETATM    7  C   UNL     2      -7.815  12.238  67.355  1.00  0.00    -0.171 C  
HETATM    8  O   UNL     2      -6.852  12.964  67.681  1.00  0.00    -0.120 OA 
HETATM    9  O   UNL     2      -7.866  11.194  66.617  1.00  0.00    -0.146 OA 
ENDBRANCH   5   6
ENDBRANCH   3   5
TORSDOF 2
ENDMDL
MODEL      172
REMARK 921   NORMALIZED FREE ENERGY PREDICTED BY IDOCK:   -1.95 KCAL/MOL
REMARK 922        TOTAL FREE ENERGY PREDICTED BY IDOCK:   -2.34 KCAL/MOL
REMARK 923 INTER-LIGAND FREE ENERGY PREDICTED BY IDOCK:   -2.27 KCAL/MOL
REMARK 924 INTRA-LIGAND FREE ENERGY PREDICTED BY IDOCK:   -0.07 KCAL/MOL
REMARK 927      BINDING AFFINITY PREDICTED BY RF-SCORE:    0.00 PKD
ROOT
HETATM    1 NA   UNL     1      -6.635  17.116  68.255  1.00  0.00    -0.133 Na 
HETATM    2  O   UNL     2      -8.524  18.310  68.487  1.00  0.00    -0.306 OA 
HETATM    3  C   UNL     2      -9.218  17.920  67.291  1.00  0.00    -0.254 C  
HETATM    4  H   UNL     2      -8.520  19.258  68.544  1.00  0.00     0.000 HD 
ENDROOT
BRANCH   3   5
HETATM    5  C   UNL     2      -9.224  16.395  67.200  1.00  0.00    -0.225 C  
BRANCH   5   6
HETATM    6  C   UNL     2      -9.540  15.906  65.796  1.00  0.00    -0.339 C  
HETATM    7  C   UNL     2     -10.685  14.886  65.855  1.00  0.00    -0.323 C  
HETATM    8  O   UNL     2     -10.642  13.993  64.982  1.00  0.00    -0.360 OA 
HETATM    9  O   UNL     2     -11.476  15.053  66.846  1.00  0.00    -0.334 OA 
ENDBRANCH   5   6
ENDBRANCH   3   5
TORSDOF 2
ENDMDL
MODEL      173
REMARK 921   NORMALIZED FREE ENERGY PREDICTED BY IDOCK:   -1.93 KCAL/MOL
REMARK 922        TOTAL FREE ENERGY PREDICTED BY IDOCK:   -2.33 KCAL/MOL
REMARK 923 INTER-LIGAND FREE ENERGY PREDICTED BY IDOCK:   -2.27 KCAL/MOL
REMARK 924 INTRA-LIGAND FREE ENERGY PREDICTED BY IDOCK:   -0.06 KCAL/MOL
REMARK 927      BINDING AFFINITY PREDICTED BY RF-SCORE:    0.00 PKD
ROOT
HETATM    1 NA   UNL     1      -8.751  12.967  67.632  1.00  0.00    -0.137 Na 
HETATM    2  O   UNL     2     -10.574  13.016  68.945  1.00  0.00    -0.350 OA 
HETATM    3  C   UNL     2     -11.603  13.095  67.945  1.00  0.00    -0.336 C  
HETATM    4  H   UNL     2     -10.718  13.701  69.588  1.00  0.00     0.000 HD 
ENDROOT
BRANCH   3   5
HETATM    5  C   UNL     2     -11.373  11.994  66.912  1.00  0.00    -0.400 C  
BRANCH   5   6
HETATM    6  C   UNL     2     -10.722  10.763  67.522  1.00  0.00    -0.312 C  
HETATM    7  C   UNL     2     -10.449   9.730  66.421  1.00  0.00    -0.120 C  
HETATM    8  O   UNL     2     -10.516   8.538  66.787  1.00  0.00    -0.303 OA 
HETATM    9  O   UNL     2     -10.274  10.243  65.263  1.00  0.00    -0.307 OA 
ENDBRANCH   5   6
ENDBRANCH   3   5
TORSDOF 2
ENDMDL
MODEL      174
REMARK 921   NORMALIZED FREE ENERGY PREDICTED BY IDOCK:   -1.91 KCAL/MOL
REMARK 922        TOTAL FREE ENERGY PREDICTED BY IDOCK:   -2.30 KCAL/MOL
REMARK 923 INTER-LIGAND FREE ENERGY PREDICTED BY IDOCK:   -2.19 KCAL/MOL
REMARK 924 INTRA-LIGAND FREE ENERGY PREDICTED BY IDOCK:   -0.12 KCAL/MOL
REMARK 927      BINDING AFFINITY PREDICTED BY RF-SCORE:    0.00 PKD
ROOT
HETATM    1 NA   UNL     1     -11.148   5.244  70.882  1.00  0.00    -0.238 Na 
HETATM    2  O   UNL     2     -12.055   7.251  70.437  1.00  0.00    -0.535 OA 
HETATM    3  C   UNL     2     -10.878   7.982  70.059  1.00  0.00    -0.235 C  
HETATM    4  H   UNL     2     -12.529   7.750  71.093  1.00  0.00     0.000 HD 
ENDROOT
BRANCH   3   5
HETATM    5  C   UNL     2     -10.117   7.180  69.005  1.00  0.00    -0.183 C  
BRANCH   5   6
HETATM    6  C   UNL     2     -11.043   6.590  67.955  1.00  0.00    -0.352 C  
HETATM    7  C   UNL     2     -10.372   5.372  67.306  1.00  0.00    -0.220 C  
HETATM    8  O   UNL     2     -10.670   5.179  66.109  1.00  0.00    -0.296 OA 
HETATM    9  O   UNL     2      -9.536   4.776  68.068  1.00  0.00    -0.128 OA 
ENDBRANCH   5   6
ENDBRANCH   3   5
TORSDOF 2
ENDMDL
MODEL      175
REMARK 921   NORMALIZED FREE ENERGY PREDICTED BY IDOCK:   -1.91 KCAL/MOL
REMARK 922        TOTAL FREE ENERGY PREDICTED BY IDOCK:   -2.30 KCAL/MOL
REMARK 923 INTER-LIGAND FREE ENERGY PREDICTED BY IDOCK:   -2.26 KCAL/MOL
REMARK 924 INTRA-LIGAND FREE ENERGY PREDICTED BY IDOCK:   -0.04 KCAL/MOL
REMARK 927      BINDING AFFINITY PREDICTED BY RF-SCORE:    0.00 PKD
ROOT
HETATM    1 NA   UNL     1     -11.331  17.673  71.130  1.00  0.00    -0.571 Na 
HETATM    2  O   UNL     2     -12.010  15.804  70.084  1.00  0.00    -0.353 OA 
HETATM    3  C   UNL     2     -11.455  16.029  68.778  1.00  0.00    -0.375 C  
HETATM    4  H   UNL     2     -12.929  15.580  69.992  1.00  0.00     0.000 HD 
ENDROOT
BRANCH   3   5
HETATM    5  C   UNL     2      -9.978  16.389  68.926  1.00  0.00    -0.257 C  
BRANCH   5   6
HETATM    6  C   UNL     2      -9.072  15.183  68.740  1.00  0.00    -0.200 C  
HETATM    7  C   UNL     2      -7.613  15.647  68.653  1.00  0.00    -0.143 C  
HETATM    8  O   UNL     2      -6.877  14.945  67.927  1.00  0.00    -0.124 OA 
HETATM    9  O   UNL     2      -7.380  16.740  69.275  1.00  0.00    -0.237 OA 
ENDBRANCH   5   6
ENDBRANCH   3   5
TORSDOF 2
ENDMDL
MODEL      176
REMARK 921   NORMALIZED FREE ENERGY PREDICTED BY IDOCK:   -1.90 KCAL/MOL
REMARK 922        TOTAL FREE ENERGY PREDICTED BY IDOCK:   -2.29 KCAL/MOL
REMARK 923 INTER-LIGAND FREE ENERGY PREDICTED BY IDOCK:   -2.18 KCAL/MOL
REMARK 924 INTRA-LIGAND FREE ENERGY PREDICTED BY IDOCK:   -0.12 KCAL/MOL
REMARK 927      BINDING AFFINITY PREDICTED BY RF-SCORE:    0.00 PKD
ROOT
HETATM    1 NA   UNL     1     -12.187   9.912  71.661  1.00  0.00    -0.279 Na 
HETATM    2  O   UNL     2     -13.034   8.007  72.499  1.00  0.00    -0.546 OA 
HETATM    3  C   UNL     2     -12.709   7.097  71.435  1.00  0.00    -0.391 C  
HETATM    4  H   UNL     2     -13.956   7.913  72.712  1.00  0.00     0.000 HD 
ENDROOT
BRANCH   3   5
HETATM    5  C   UNL     2     -11.229   7.248  71.093  1.00  0.00    -0.284 C  
BRANCH   5   6
HETATM    6  C   UNL     2     -10.380   7.520  72.324  1.00  0.00    -0.263 C  
HETATM    7  C   UNL     2      -9.522   6.287  72.636  1.00  0.00    -0.148 C  
HETATM    8  O   UNL     2      -9.280   6.105  73.848  1.00  0.00    -0.126 OA 
HETATM    9  O   UNL     2      -9.246   5.576  71.610  1.00  0.00    -0.142 OA 
ENDBRANCH   5   6
ENDBRANCH   3   5
TORSDOF 2
ENDMDL
MODEL      177
REMARK 921   NORMALIZED FREE ENERGY PREDICTED BY IDOCK:   -1.90 KCAL/MOL
REMARK 922        TOTAL FREE ENERGY PREDICTED BY IDOCK:   -2.29 KCAL/MOL
REMARK 923 INTER-LIGAND FREE ENERGY PREDICTED BY IDOCK:   -1.80 KCAL/MOL
REMARK 924 INTRA-LIGAND FREE ENERGY PREDICTED BY IDOCK:   -0.49 KCAL/MOL
REMARK 927      BINDING AFFINITY PREDICTED BY RF-SCORE:    0.00 PKD
ROOT
HETATM    1 NA   UNL     1     -11.852  11.655  65.409  1.00  0.00    -0.323 Na 
HETATM    2  O   UNL     2     -11.201  11.749  67.558  1.00  0.00    -0.252 OA 
HETATM    3  C   UNL     2     -11.157  10.347  67.869  1.00  0.00    -0.299 C  
HETATM    4  H   UNL     2     -11.712  12.195  68.223  1.00  0.00     0.000 HD 
ENDROOT
BRANCH   3   5
HETATM    5  C   UNL     2     -10.335   9.631  66.800  1.00  0.00    -0.292 C  
BRANCH   5   6
HETATM    6  C   UNL     2      -8.848   9.911  66.935  1.00  0.00    -0.146 C  
HETATM    7  C   UNL     2      -8.365  10.717  65.722  1.00  0.00    -0.162 C  
HETATM    8  O   UNL     2      -7.185  10.498  65.378  1.00  0.00    -0.138 OA 
HETATM    9  O   UNL     2      -9.275  11.439  65.187  1.00  0.00    -0.194 OA 
ENDBRANCH   5   6
ENDBRANCH   3   5
TORSDOF 2
ENDMDL
MODEL      178
REMARK 921   NORMALIZED FREE ENERGY PREDICTED BY IDOCK:   -1.90 KCAL/MOL
REMARK 922        TOTAL FREE ENERGY PREDICTED BY IDOCK:   -2.29 KCAL/MOL
REMARK 923 INTER-LIGAND FREE ENERGY PREDICTED BY IDOCK:   -2.22 KCAL/MOL
REMARK 924 INTRA-LIGAND FREE ENERGY PREDICTED BY IDOCK:   -0.07 KCAL/MOL
REMARK 927      BINDING AFFINITY PREDICTED BY RF-SCORE:    0.00 PKD
ROOT
HETATM    1 NA   UNL     1     -11.189   7.014  66.251  1.00  0.00    -0.450 Na 
HETATM    2  O   UNL     2     -10.272   9.065  66.313  1.00  0.00    -0.284 OA 
HETATM    3  C   UNL     2     -10.494   9.398  67.693  1.00  0.00    -0.268 C  
HETATM    4  H   UNL     2     -10.588   9.778  65.771  1.00  0.00     0.000 HD 
ENDROOT
BRANCH   3   5
HETATM    5  C   UNL     2      -9.986   8.252  68.565  1.00  0.00    -0.206 C  
BRANCH   5   6
HETATM    6  C   UNL     2      -9.765   8.682  70.006  1.00  0.00    -0.176 C  
HETATM    7  C   UNL     2     -11.021   8.374  70.831  1.00  0.00    -0.243 C  
HETATM    8  O   UNL     2     -11.241   9.164  71.773  1.00  0.00    -0.355 OA 
HETATM    9  O   UNL     2     -11.708   7.394  70.381  1.00  0.00    -0.237 OA 
ENDBRANCH   5   6
ENDBRANCH   3   5
TORSDOF 2
ENDMDL
MODEL      179
REMARK 921   NORMALIZED FREE ENERGY PREDICTED BY IDOCK:   -1.89 KCAL/MOL
REMARK 922        TOTAL FREE ENERGY PREDICTED BY IDOCK:   -2.28 KCAL/MOL
REMARK 923 INTER-LIGAND FREE ENERGY PREDICTED BY IDOCK:   -1.77 KCAL/MOL
REMARK 924 INTRA-LIGAND FREE ENERGY PREDICTED BY IDOCK:   -0.51 KCAL/MOL
REMARK 927      BINDING AFFINITY PREDICTED BY RF-SCORE:    0.00 PKD
ROOT
HETATM    1 NA   UNL     1     -10.686   5.571  65.259  1.00  0.00    -0.412 Na 
HETATM    2  O   UNL     2     -11.257   3.624  64.293  1.00  0.00    -0.610 OA 
HETATM    3  C   UNL     2     -10.144   3.449  63.401  1.00  0.00    -0.176 C  
HETATM    4  H   UNL     2     -12.063   3.519  63.801  1.00  0.00     0.000 HD 
ENDROOT
BRANCH   3   5
HETATM    5  C   UNL     2      -8.848   3.617  64.191  1.00  0.00    -0.106 C  
BRANCH   5   6
HETATM    6  C   UNL     2      -8.638   2.494  65.195  1.00  0.00    -0.104 C  
HETATM    7  C   UNL     2      -8.731   3.056  66.619  1.00  0.00    -0.129 C  
HETATM    8  O   UNL     2      -8.017   2.476  67.464  1.00  0.00    -0.067 OA 
HETATM    9  O   UNL     2      -9.470   4.096  66.717  1.00  0.00    -0.166 OA 
ENDBRANCH   5   6
ENDBRANCH   3   5
TORSDOF 2
ENDMDL
MODEL      180
REMARK 921   NORMALIZED FREE ENERGY PREDICTED BY IDOCK:   -1.89 KCAL/MOL
REMARK 922        TOTAL FREE ENERGY PREDICTED BY IDOCK:   -2.27 KCAL/MOL
REMARK 923 INTER-LIGAND FREE ENERGY PREDICTED BY IDOCK:   -1.81 KCAL/MOL
REMARK 924 INTRA-LIGAND FREE ENERGY PREDICTED BY IDOCK:   -0.46 KCAL/MOL
REMARK 927      BINDING AFFINITY PREDICTED BY RF-SCORE:    0.00 PKD
ROOT
HETATM    1 NA   UNL     1      -8.601  17.653  67.767  1.00  0.00    -0.205 Na 
HETATM    2  O   UNL     2     -10.615  16.873  67.145  1.00  0.00    -0.313 OA 
HETATM    3  C   UNL     2     -10.318  16.449  65.805  1.00  0.00    -0.369 C  
HETATM    4  H   UNL     2     -11.388  17.425  67.128  1.00  0.00     0.000 HD 
ENDROOT
BRANCH   3   5
HETATM    5  C   UNL     2      -9.075  15.562  65.833  1.00  0.00    -0.231 C  
BRANCH   5   6
HETATM    6  C   UNL     2      -9.244  14.365  66.754  1.00  0.00    -0.287 C  
HETATM    7  C   UNL     2      -8.207  14.435  67.881  1.00  0.00    -0.156 C  
HETATM    8  O   UNL     2      -7.811  13.329  68.305  1.00  0.00    -0.128 OA 
HETATM    9  O   UNL     2      -7.834  15.625  68.168  1.00  0.00    -0.124 OA 
ENDBRANCH   5   6
ENDBRANCH   3   5
TORSDOF 2
ENDMDL
MODEL      181
REMARK 921   NORMALIZED FREE ENERGY PREDICTED BY IDOCK:   -1.87 KCAL/MOL
REMARK 922        TOTAL FREE ENERGY PREDICTED BY IDOCK:   -2.26 KCAL/MOL
REMARK 923 INTER-LIGAND FREE ENERGY PREDICTED BY IDOCK:   -1.93 KCAL/MOL
REMARK 924 INTRA-LIGAND FREE ENERGY PREDICTED BY IDOCK:   -0.33 KCAL/MOL
REMARK 927      BINDING AFFINITY PREDICTED BY RF-SCORE:    0.00 PKD
ROOT
HETATM    1 NA   UNL     1     -11.005   6.419  71.891  1.00  0.00    -0.213 Na 
HETATM    2  O   UNL     2     -12.054   6.601  69.912  1.00  0.00    -0.641 OA 
HETATM    3  C   UNL     2     -10.948   6.386  69.019  1.00  0.00    -0.348 C  
HETATM    4  H   UNL     2     -12.509   7.393  69.650  1.00  0.00     0.000 HD 
ENDROOT
BRANCH   3   5
HETATM    5  C   UNL     2     -10.217   5.113  69.439  1.00  0.00    -0.293 C  
BRANCH   5   6
HETATM    6  C   UNL     2      -8.717   5.326  69.560  1.00  0.00    -0.114 C  
HETATM    7  C   UNL     2      -8.319   5.342  71.041  1.00  0.00    -0.119 C  
HETATM    8  O   UNL     2      -7.347   6.076  71.320  1.00  0.00    -0.077 OA 
HETATM    9  O   UNL     2      -9.098   4.661  71.793  1.00  0.00    -0.130 OA 
ENDBRANCH   5   6
ENDBRANCH   3   5
TORSDOF 2
ENDMDL
MODEL      182
REMARK 921   NORMALIZED FREE ENERGY PREDICTED BY IDOCK:   -1.87 KCAL/MOL
REMARK 922        TOTAL FREE ENERGY PREDICTED BY IDOCK:   -2.26 KCAL/MOL
REMARK 923 INTER-LIGAND FREE ENERGY PREDICTED BY IDOCK:   -2.22 KCAL/MOL
REMARK 924 INTRA-LIGAND FREE ENERGY PREDICTED BY IDOCK:   -0.04 KCAL/MOL
REMARK 927      BINDING AFFINITY PREDICTED BY RF-SCORE:    0.00 PKD
ROOT
HETATM    1 NA   UNL     1      -9.404  12.178  69.512  1.00  0.00    -0.373 Na 
HETATM    2  O   UNL     2     -11.594  11.970  69.056  1.00  0.00    -0.264 OA 
HETATM    3  C   UNL     2     -11.744  10.547  69.182  1.00  0.00    -0.189 C  
HETATM    4  H   UNL     2     -11.968  12.246  68.227  1.00  0.00     0.000 HD 
ENDROOT
BRANCH   3   5
HETATM    5  C   UNL     2     -11.144  10.104  70.514  1.00  0.00    -0.400 C  
BRANCH   5   6
HETATM    6  C   UNL     2     -11.251   8.602  70.720  1.00  0.00    -0.298 C  
HETATM    7  C   UNL     2      -9.979   8.086  71.405  1.00  0.00    -0.178 C  
HETATM    8  O   UNL     2      -9.646   6.923  71.096  1.00  0.00    -0.167 OA 
HETATM    9  O   UNL     2      -9.396   8.959  72.136  1.00  0.00    -0.348 OA 
ENDBRANCH   5   6
ENDBRANCH   3   5
TORSDOF 2
ENDMDL
MODEL      183
REMARK 921   NORMALIZED FREE ENERGY PREDICTED BY IDOCK:   -1.83 KCAL/MOL
REMARK 922        TOTAL FREE ENERGY PREDICTED BY IDOCK:   -2.21 KCAL/MOL
REMARK 923 INTER-LIGAND FREE ENERGY PREDICTED BY IDOCK:   -2.12 KCAL/MOL
REMARK 924 INTRA-LIGAND FREE ENERGY PREDICTED BY IDOCK:   -0.09 KCAL/MOL
REMARK 927      BINDING AFFINITY PREDICTED BY RF-SCORE:    0.00 PKD
ROOT
HETATM    1 NA   UNL     1      -7.819   8.749  66.292  1.00  0.00    -0.088 Na 
HETATM    2  O   UNL     2     -10.024   8.626  65.873  1.00  0.00    -0.469 OA 
HETATM    3  C   UNL     2     -10.511   8.287  67.182  1.00  0.00    -0.316 C  
HETATM    4  H   UNL     2     -10.386   8.014  65.243  1.00  0.00     0.000 HD 
ENDROOT
BRANCH   3   5
HETATM    5  C   UNL     2      -9.928   9.271  68.194  1.00  0.00    -0.206 C  
BRANCH   5   6
HETATM    6  C   UNL     2      -9.172   8.566  69.309  1.00  0.00    -0.153 C  
HETATM    7  C   UNL     2      -9.524   9.212  70.655  1.00  0.00    -0.261 C  
HETATM    8  O   UNL     2      -8.608   9.199  71.503  1.00  0.00    -0.339 OA 
HETATM    9  O   UNL     2     -10.685   9.747  70.683  1.00  0.00    -0.290 OA 
ENDBRANCH   5   6
ENDBRANCH   3   5
TORSDOF 2
ENDMDL
MODEL      184
REMARK 921   NORMALIZED FREE ENERGY PREDICTED BY IDOCK:   -1.81 KCAL/MOL
REMARK 922        TOTAL FREE ENERGY PREDICTED BY IDOCK:   -2.19 KCAL/MOL
REMARK 923 INTER-LIGAND FREE ENERGY PREDICTED BY IDOCK:   -2.14 KCAL/MOL
REMARK 924 INTRA-LIGAND FREE ENERGY PREDICTED BY IDOCK:   -0.05 KCAL/MOL
REMARK 927      BINDING AFFINITY PREDICTED BY RF-SCORE:    0.00 PKD
ROOT
HETATM    1 NA   UNL     1      -9.809  13.665  63.735  1.00  0.00    -0.439 Na 
HETATM    2  O   UNL     2      -9.248  12.284  65.416  1.00  0.00    -0.433 OA 
HETATM    3  C   UNL     2      -8.980  13.243  66.452  1.00  0.00     0.029 C  
HETATM    4  H   UNL     2      -8.512  11.685  65.356  1.00  0.00     0.000 HD 
ENDROOT
BRANCH   3   5
HETATM    5  C   UNL     2     -10.162  14.206  66.549  1.00  0.00    -0.278 C  
BRANCH   5   6
HETATM    6  C   UNL     2      -9.856  15.403  67.434  1.00  0.00    -0.216 C  
HETATM    7  C   UNL     2      -9.094  16.459  66.623  1.00  0.00    -0.250 C  
HETATM    8  O   UNL     2      -8.280  17.142  67.279  1.00  0.00    -0.181 OA 
HETATM    9  O   UNL     2      -9.346  16.428  65.370  1.00  0.00    -0.369 OA 
ENDBRANCH   5   6
ENDBRANCH   3   5
TORSDOF 2
ENDMDL
MODEL      185
REMARK 921   NORMALIZED FREE ENERGY PREDICTED BY IDOCK:   -1.80 KCAL/MOL
REMARK 922        TOTAL FREE ENERGY PREDICTED BY IDOCK:   -2.18 KCAL/MOL
REMARK 923 INTER-LIGAND FREE ENERGY PREDICTED BY IDOCK:   -2.12 KCAL/MOL
REMARK 924 INTRA-LIGAND FREE ENERGY PREDICTED BY IDOCK:   -0.06 KCAL/MOL
REMARK 927      BINDING AFFINITY PREDICTED BY RF-SCORE:    0.00 PKD
ROOT
HETATM    1 NA   UNL     1     -12.415  12.146  65.537  1.00  0.00    -0.403 Na 
HETATM    2  O   UNL     2     -12.117  12.337  67.756  1.00  0.00    -0.478 OA 
HETATM    3  C   UNL     2     -11.652  11.013  68.063  1.00  0.00    -0.249 C  
HETATM    4  H   UNL     2     -12.829  12.556  68.346  1.00  0.00     0.000 HD 
ENDROOT
BRANCH   3   5
HETATM    5  C   UNL     2     -10.508  10.660  67.115  1.00  0.00    -0.295 C  
BRANCH   5   6
HETATM    6  C   UNL     2     -10.273   9.161  67.032  1.00  0.00    -0.333 C  
HETATM    7  C   UNL     2      -8.861   8.834  67.534  1.00  0.00    -0.134 C  
HETATM    8  O   UNL     2      -8.320   7.850  66.987  1.00  0.00    -0.114 OA 
HETATM    9  O   UNL     2      -8.408   9.674  68.386  1.00  0.00    -0.115 OA 
ENDBRANCH   5   6
ENDBRANCH   3   5
TORSDOF 2
ENDMDL
MODEL      186
REMARK 921   NORMALIZED FREE ENERGY PREDICTED BY IDOCK:   -1.79 KCAL/MOL
REMARK 922        TOTAL FREE ENERGY PREDICTED BY IDOCK:   -2.17 KCAL/MOL
REMARK 923 INTER-LIGAND FREE ENERGY PREDICTED BY IDOCK:   -1.85 KCAL/MOL
REMARK 924 INTRA-LIGAND FREE ENERGY PREDICTED BY IDOCK:   -0.32 KCAL/MOL
REMARK 927      BINDING AFFINITY PREDICTED BY RF-SCORE:    0.00 PKD
ROOT
HETATM    1 NA   UNL     1      -9.324  14.802  67.650  1.00  0.00    -0.177 Na 
HETATM    2  O   UNL     2     -10.905  16.378  67.397  1.00  0.00    -0.302 OA 
HETATM    3  C   UNL     2     -10.154  17.549  67.753  1.00  0.00    -0.330 C  
HETATM    4  H   UNL     2     -11.714  16.369  67.895  1.00  0.00     0.000 HD 
ENDROOT
BRANCH   3   5
HETATM    5  C   UNL     2      -8.854  17.564  66.951  1.00  0.00    -0.267 C  
BRANCH   5   6
HETATM    6  C   UNL     2      -7.697  18.147  67.746  1.00  0.00    -0.227 C  
HETATM    7  C   UNL     2      -6.926  17.014  68.435  1.00  0.00    -0.180 C  
HETATM    8  O   UNL     2      -6.407  17.318  69.530  1.00  0.00    -0.239 OA 
HETATM    9  O   UNL     2      -6.999  15.893  67.824  1.00  0.00    -0.124 OA 
ENDBRANCH   5   6
ENDBRANCH   3   5
TORSDOF 2
ENDMDL
MODEL      187
REMARK 921   NORMALIZED FREE ENERGY PREDICTED BY IDOCK:   -1.79 KCAL/MOL
REMARK 922        TOTAL FREE ENERGY PREDICTED BY IDOCK:   -2.16 KCAL/MOL
REMARK 923 INTER-LIGAND FREE ENERGY PREDICTED BY IDOCK:   -1.77 KCAL/MOL
REMARK 924 INTRA-LIGAND FREE ENERGY PREDICTED BY IDOCK:   -0.39 KCAL/MOL
REMARK 927      BINDING AFFINITY PREDICTED BY RF-SCORE:    0.00 PKD
ROOT
HETATM    1 NA   UNL     1      -6.881   7.673  63.606  1.00  0.00    -0.051 Na 
HETATM    2  O   UNL     2      -8.770   7.204  64.729  1.00  0.00    -0.354 OA 
HETATM    3  C   UNL     2      -8.614   8.076  65.860  1.00  0.00    -0.152 C  
HETATM    4  H   UNL     2      -8.969   6.329  65.043  1.00  0.00     0.000 HD 
ENDROOT
BRANCH   3   5
HETATM    5  C   UNL     2      -8.294   9.482  65.357  1.00  0.00    -0.144 C  
BRANCH   5   6
HETATM    6  C   UNL     2      -9.456  10.097  64.595  1.00  0.00    -0.357 C  
HETATM    7  C   UNL     2      -8.990  10.503  63.190  1.00  0.00    -0.236 C  
HETATM    8  O   UNL     2      -9.564  11.503  62.712  1.00  0.00    -0.358 OA 
HETATM    9  O   UNL     2      -8.018   9.802  62.746  1.00  0.00    -0.120 OA 
ENDBRANCH   5   6
ENDBRANCH   3   5
TORSDOF 2
ENDMDL
MODEL      188
REMARK 921   NORMALIZED FREE ENERGY PREDICTED BY IDOCK:   -1.78 KCAL/MOL
REMARK 922        TOTAL FREE ENERGY PREDICTED BY IDOCK:   -2.16 KCAL/MOL
REMARK 923 INTER-LIGAND FREE ENERGY PREDICTED BY IDOCK:   -1.77 KCAL/MOL
REMARK 924 INTRA-LIGAND FREE ENERGY PREDICTED BY IDOCK:   -0.39 KCAL/MOL
REMARK 927      BINDING AFFINITY PREDICTED BY RF-SCORE:    0.00 PKD
ROOT
HETATM    1 NA   UNL     1     -11.374   6.458  65.980  1.00  0.00    -0.485 Na 
HETATM    2  O   UNL     2      -9.724   7.967  65.763  1.00  0.00    -0.428 OA 
HETATM    3  C   UNL     2      -8.920   7.629  66.905  1.00  0.00    -0.138 C  
HETATM    4  H   UNL     2      -9.888   8.903  65.771  1.00  0.00     0.000 HD 
ENDROOT
BRANCH   3   5
HETATM    5  C   UNL     2      -8.655   6.125  66.892  1.00  0.00    -0.109 C  
BRANCH   5   6
HETATM    6  C   UNL     2      -8.442   5.592  65.484  1.00  0.00    -0.144 C  
HETATM    7  C   UNL     2      -9.276   4.320  65.286  1.00  0.00    -0.153 C  
HETATM    8  O   UNL     2      -8.780   3.477  64.510  1.00  0.00    -0.099 OA 
HETATM    9  O   UNL     2     -10.327   4.272  66.015  1.00  0.00    -0.209 OA 
ENDBRANCH   5   6
ENDBRANCH   3   5
TORSDOF 2
ENDMDL
MODEL      189
REMARK 921   NORMALIZED FREE ENERGY PREDICTED BY IDOCK:   -1.78 KCAL/MOL
REMARK 922        TOTAL FREE ENERGY PREDICTED BY IDOCK:   -2.15 KCAL/MOL
REMARK 923 INTER-LIGAND FREE ENERGY PREDICTED BY IDOCK:   -1.83 KCAL/MOL
REMARK 924 INTRA-LIGAND FREE ENERGY PREDICTED BY IDOCK:   -0.33 KCAL/MOL
REMARK 927      BINDING AFFINITY PREDICTED BY RF-SCORE:    0.00 PKD
ROOT
HETATM    1 NA   UNL     1      -9.339   8.838  66.924  1.00  0.00    -0.131 Na 
HETATM    2  O   UNL     2     -11.315   9.393  67.840  1.00  0.00    -0.472 OA 
HETATM    3  C   UNL     2     -11.123  10.806  68.017  1.00  0.00    -0.299 C  
HETATM    4  H   UNL     2     -11.616   9.019  68.660  1.00  0.00     0.000 HD 
ENDROOT
BRANCH   3   5
HETATM    5  C   UNL     2     -10.639  11.406  66.699  1.00  0.00    -0.302 C  
BRANCH   5   6
HETATM    6  C   UNL     2      -9.424  12.300  66.887  1.00  0.00    -0.217 C  
HETATM    7  C   UNL     2      -8.175  11.585  66.358  1.00  0.00    -0.092 C  
HETATM    8  O   UNL     2      -7.114  11.860  66.957  1.00  0.00    -0.142 OA 
HETATM    9  O   UNL     2      -8.417  10.742  65.427  1.00  0.00    -0.171 OA 
ENDBRANCH   5   6
ENDBRANCH   3   5
TORSDOF 2
ENDMDL
MODEL      190
REMARK 921   NORMALIZED FREE ENERGY PREDICTED BY IDOCK:   -1.76 KCAL/MOL
REMARK 922        TOTAL FREE ENERGY PREDICTED BY IDOCK:   -2.14 KCAL/MOL
REMARK 923 INTER-LIGAND FREE ENERGY PREDICTED BY IDOCK:   -2.06 KCAL/MOL
REMARK 924 INTRA-LIGAND FREE ENERGY PREDICTED BY IDOCK:   -0.08 KCAL/MOL
REMARK 927      BINDING AFFINITY PREDICTED BY RF-SCORE:    0.00 PKD
ROOT
HETATM    1 NA   UNL     1     -12.211   6.558  68.530  1.00  0.00    -0.539 Na 
HETATM    2  O   UNL     2     -11.884   7.713  70.429  1.00  0.00    -0.478 OA 
HETATM    3  C   UNL     2     -10.448   7.754  70.455  1.00  0.00    -0.221 C  
HETATM    4  H   UNL     2     -12.197   7.404  71.271  1.00  0.00     0.000 HD 
ENDROOT
BRANCH   3   5
HETATM    5  C   UNL     2      -9.944   8.251  69.102  1.00  0.00    -0.196 C  
BRANCH   5   6
HETATM    6  C   UNL     2      -9.074   7.221  68.400  1.00  0.00    -0.135 C  
HETATM    7  C   UNL     2      -9.206   7.389  66.881  1.00  0.00    -0.152 C  
HETATM    8  O   UNL     2      -9.093   6.335  66.221  1.00  0.00    -0.152 OA 
HETATM    9  O   UNL     2      -9.498   8.579  66.515  1.00  0.00    -0.183 OA 
ENDBRANCH   5   6
ENDBRANCH   3   5
TORSDOF 2
ENDMDL
MODEL      191
REMARK 921   NORMALIZED FREE ENERGY PREDICTED BY IDOCK:   -1.76 KCAL/MOL
REMARK 922        TOTAL FREE ENERGY PREDICTED BY IDOCK:   -2.14 KCAL/MOL
REMARK 923 INTER-LIGAND FREE ENERGY PREDICTED BY IDOCK:   -1.86 KCAL/MOL
REMARK 924 INTRA-LIGAND FREE ENERGY PREDICTED BY IDOCK:   -0.28 KCAL/MOL
REMARK 927      BINDING AFFINITY PREDICTED BY RF-SCORE:    0.00 PKD
ROOT
HETATM    1 NA   UNL     1      -8.464   5.093  69.529  1.00  0.00    -0.083 Na 
HETATM    2  O   UNL     2     -10.111   4.750  71.019  1.00  0.00    -0.207 OA 
HETATM    3  C   UNL     2     -10.301   6.091  71.498  1.00  0.00    -0.214 C  
HETATM    4  H   UNL     2     -10.007   4.170  71.765  1.00  0.00     0.000 HD 
ENDROOT
BRANCH   3   5
HETATM    5  C   UNL     2     -10.468   7.023  70.300  1.00  0.00    -0.227 C  
BRANCH   5   6
HETATM    6  C   UNL     2     -11.079   6.314  69.103  1.00  0.00    -0.457 C  
HETATM    7  C   UNL     2     -10.394   6.796  67.817  1.00  0.00    -0.198 C  
HETATM    8  O   UNL     2     -11.124   6.812  66.804  1.00  0.00    -0.338 OA 
HETATM    9  O   UNL     2      -9.190   7.191  67.991  1.00  0.00    -0.132 OA 
ENDBRANCH   5   6
ENDBRANCH   3   5
TORSDOF 2
ENDMDL
MODEL      192
REMARK 921   NORMALIZED FREE ENERGY PREDICTED BY IDOCK:   -1.74 KCAL/MOL
REMARK 922        TOTAL FREE ENERGY PREDICTED BY IDOCK:   -2.12 KCAL/MOL
REMARK 923 INTER-LIGAND FREE ENERGY PREDICTED BY IDOCK:   -2.03 KCAL/MOL
REMARK 924 INTRA-LIGAND FREE ENERGY PREDICTED BY IDOCK:   -0.09 KCAL/MOL
REMARK 927      BINDING AFFINITY PREDICTED BY RF-SCORE:    0.00 PKD
ROOT
HETATM    1 NA   UNL     1     -10.263  12.194  67.173  1.00  0.00    -0.197 Na 
HETATM    2  O   UNL     2     -10.871  12.349  69.331  1.00  0.00    -0.443 OA 
HETATM    3  C   UNL     2     -11.237  10.983  69.588  1.00  0.00    -0.278 C  
HETATM    4  H   UNL     2     -11.578  12.915  69.619  1.00  0.00     0.000 HD 
ENDROOT
BRANCH   3   5
HETATM    5  C   UNL     2     -10.102  10.073  69.125  1.00  0.00    -0.219 C  
BRANCH   5   6
HETATM    6  C   UNL     2     -10.483   9.257  67.901  1.00  0.00    -0.290 C  
HETATM    7  C   UNL     2     -10.397   7.762  68.234  1.00  0.00    -0.198 C  
HETATM    8  O   UNL     2     -10.074   7.026  67.279  1.00  0.00    -0.167 OA 
HETATM    9  O   UNL     2     -10.588   7.496  69.471  1.00  0.00    -0.233 OA 
ENDBRANCH   5   6
ENDBRANCH   3   5
TORSDOF 2
ENDMDL
MODEL      193
REMARK 921   NORMALIZED FREE ENERGY PREDICTED BY IDOCK:   -1.74 KCAL/MOL
REMARK 922        TOTAL FREE ENERGY PREDICTED BY IDOCK:   -2.11 KCAL/MOL
REMARK 923 INTER-LIGAND FREE ENERGY PREDICTED BY IDOCK:   -2.04 KCAL/MOL
REMARK 924 INTRA-LIGAND FREE ENERGY PREDICTED BY IDOCK:   -0.08 KCAL/MOL
REMARK 927      BINDING AFFINITY PREDICTED BY RF-SCORE:    0.00 PKD
ROOT
HETATM    1 NA   UNL     1      -7.790  13.120  68.939  1.00  0.00    -0.117 Na 
HETATM    2  O   UNL     2      -8.806  11.126  69.146  1.00  0.00    -0.365 OA 
HETATM    3  C   UNL     2      -9.866  11.283  68.189  1.00  0.00    -0.183 C  
HETATM    4  H   UNL     2      -9.176  10.829  69.969  1.00  0.00     0.000 HD 
ENDROOT
BRANCH   3   5
HETATM    5  C   UNL     2      -9.271  11.760  66.867  1.00  0.00    -0.189 C  
BRANCH   5   6
HETATM    6  C   UNL     2     -10.341  12.053  65.828  1.00  0.00    -0.289 C  
HETATM    7  C   UNL     2     -10.699  13.544  65.868  1.00  0.00    -0.277 C  
HETATM    8  O   UNL     2     -11.885  13.810  65.577  1.00  0.00    -0.335 OA 
HETATM    9  O   UNL     2      -9.747  14.294  66.275  1.00  0.00    -0.284 OA 
ENDBRANCH   5   6
ENDBRANCH   3   5
TORSDOF 2
ENDMDL
MODEL      194
REMARK 921   NORMALIZED FREE ENERGY PREDICTED BY IDOCK:   -1.74 KCAL/MOL
REMARK 922        TOTAL FREE ENERGY PREDICTED BY IDOCK:   -2.11 KCAL/MOL
REMARK 923 INTER-LIGAND FREE ENERGY PREDICTED BY IDOCK:   -2.01 KCAL/MOL
REMARK 924 INTRA-LIGAND FREE ENERGY PREDICTED BY IDOCK:   -0.10 KCAL/MOL
REMARK 927      BINDING AFFINITY PREDICTED BY RF-SCORE:    0.00 PKD
ROOT
HETATM    1 NA   UNL     1      -9.082  12.118  63.848  1.00  0.00    -0.423 Na 
HETATM    2  O   UNL     2      -9.764  10.001  63.527  1.00  0.00    -0.448 OA 
HETATM    3  C   UNL     2      -8.694   9.291  64.172  1.00  0.00    -0.173 C  
HETATM    4  H   UNL     2      -9.893   9.637  62.659  1.00  0.00     0.000 HD 
ENDROOT
BRANCH   3   5
HETATM    5  C   UNL     2      -8.485   9.876  65.567  1.00  0.00    -0.148 C  
BRANCH   5   6
HETATM    6  C   UNL     2      -9.742   9.795  66.417  1.00  0.00    -0.275 C  
HETATM    7  C   UNL     2      -9.734   8.489  67.221  1.00  0.00    -0.183 C  
HETATM    8  O   UNL     2     -10.861   7.999  67.446  1.00  0.00    -0.231 OA 
HETATM    9  O   UNL     2      -8.561   8.045  67.474  1.00  0.00    -0.125 OA 
ENDBRANCH   5   6
ENDBRANCH   3   5
TORSDOF 2
ENDMDL
MODEL      195
REMARK 921   NORMALIZED FREE ENERGY PREDICTED BY IDOCK:   -1.72 KCAL/MOL
REMARK 922        TOTAL FREE ENERGY PREDICTED BY IDOCK:   -2.09 KCAL/MOL
REMARK 923 INTER-LIGAND FREE ENERGY PREDICTED BY IDOCK:   -1.65 KCAL/MOL
REMARK 924 INTRA-LIGAND FREE ENERGY PREDICTED BY IDOCK:   -0.44 KCAL/MOL
REMARK 927      BINDING AFFINITY PREDICTED BY RF-SCORE:    0.00 PKD
ROOT
HETATM    1 NA   UNL     1     -10.295  11.837  66.165  1.00  0.00    -0.204 Na 
HETATM    2  O   UNL     2      -8.188  11.425  66.829  1.00  0.00    -0.151 OA 
HETATM    3  C   UNL     2      -8.332  10.075  67.300  1.00  0.00    -0.121 C  
HETATM    4  H   UNL     2      -7.760  11.940  67.503  1.00  0.00     0.000 HD 
ENDROOT
BRANCH   3   5
HETATM    5  C   UNL     2      -9.021   9.247  66.217  1.00  0.00    -0.193 C  
BRANCH   5   6
HETATM    6  C   UNL     2      -8.287   9.315  64.888  1.00  0.00    -0.164 C  
HETATM    7  C   UNL     2      -9.215   9.907  63.820  1.00  0.00    -0.243 C  
HETATM    8  O   UNL     2      -9.028   9.479  62.662  1.00  0.00    -0.241 OA 
HETATM    9  O   UNL     2     -10.106  10.696  64.289  1.00  0.00    -0.328 OA 
ENDBRANCH   5   6
ENDBRANCH   3   5
TORSDOF 2
ENDMDL
MODEL      196
REMARK 921   NORMALIZED FREE ENERGY PREDICTED BY IDOCK:   -1.71 KCAL/MOL
REMARK 922        TOTAL FREE ENERGY PREDICTED BY IDOCK:   -2.07 KCAL/MOL
REMARK 923 INTER-LIGAND FREE ENERGY PREDICTED BY IDOCK:   -1.56 KCAL/MOL
REMARK 924 INTRA-LIGAND FREE ENERGY PREDICTED BY IDOCK:   -0.51 KCAL/MOL
REMARK 927      BINDING AFFINITY PREDICTED BY RF-SCORE:    0.00 PKD
ROOT
HETATM    1 NA   UNL     1      -7.200   6.812  63.655  1.00  0.00    -0.044 Na 
HETATM    2  O   UNL     2      -8.962   5.822  64.637  1.00  0.00    -0.362 OA 
HETATM    3  C   UNL     2      -8.603   5.981  66.019  1.00  0.00    -0.147 C  
HETATM    4  H   UNL     2      -9.183   4.911  64.481  1.00  0.00     0.000 HD 
ENDROOT
BRANCH   3   5
HETATM    5  C   UNL     2      -8.247   7.445  66.270  1.00  0.00    -0.126 C  
BRANCH   5   6
HETATM    6  C   UNL     2      -9.457   8.358  66.153  1.00  0.00    -0.263 C  
HETATM    7  C   UNL     2      -9.259   9.323  64.977  1.00  0.00    -0.178 C  
HETATM    8  O   UNL     2      -9.788  10.445  65.119  1.00  0.00    -0.267 OA 
HETATM    9  O   UNL     2      -8.506   8.862  64.051  1.00  0.00    -0.176 OA 
ENDBRANCH   5   6
ENDBRANCH   3   5
TORSDOF 2
ENDMDL
MODEL      197
REMARK 921   NORMALIZED FREE ENERGY PREDICTED BY IDOCK:   -1.68 KCAL/MOL
REMARK 922        TOTAL FREE ENERGY PREDICTED BY IDOCK:   -2.05 KCAL/MOL
REMARK 923 INTER-LIGAND FREE ENERGY PREDICTED BY IDOCK:   -1.95 KCAL/MOL
REMARK 924 INTRA-LIGAND FREE ENERGY PREDICTED BY IDOCK:   -0.10 KCAL/MOL
REMARK 927      BINDING AFFINITY PREDICTED BY RF-SCORE:    0.00 PKD
ROOT
HETATM    1 NA   UNL     1      -9.979   2.646  68.298  1.00  0.00    -0.201 Na 
HETATM    2  O   UNL     2      -9.892   3.575  66.254  1.00  0.00    -0.404 OA 
HETATM    3  C   UNL     2     -10.407   4.883  66.549  1.00  0.00    -0.270 C  
HETATM    4  H   UNL     2     -10.369   3.217  65.514  1.00  0.00     0.000 HD 
ENDROOT
BRANCH   3   5
HETATM    5  C   UNL     2      -9.641   5.458  67.738  1.00  0.00    -0.147 C  
BRANCH   5   6
HETATM    6  C   UNL     2     -10.512   5.583  68.977  1.00  0.00    -0.296 C  
HETATM    7  C   UNL     2     -10.478   7.030  69.484  1.00  0.00    -0.220 C  
HETATM    8  O   UNL     2     -10.592   7.160  70.721  1.00  0.00    -0.218 OA 
HETATM    9  O   UNL     2     -10.253   7.894  68.568  1.00  0.00    -0.197 OA 
ENDBRANCH   5   6
ENDBRANCH   3   5
TORSDOF 2
ENDMDL
MODEL      198
REMARK 921   NORMALIZED FREE ENERGY PREDICTED BY IDOCK:   -1.66 KCAL/MOL
REMARK 922        TOTAL FREE ENERGY PREDICTED BY IDOCK:   -2.02 KCAL/MOL
REMARK 923 INTER-LIGAND FREE ENERGY PREDICTED BY IDOCK:   -1.96 KCAL/MOL
REMARK 924 INTRA-LIGAND FREE ENERGY PREDICTED BY IDOCK:   -0.06 KCAL/MOL
REMARK 927      BINDING AFFINITY PREDICTED BY RF-SCORE:    0.00 PKD
ROOT
HETATM    1 NA   UNL     1      -7.912  11.957  69.896  1.00  0.00    -0.329 Na 
HETATM    2  O   UNL     2      -9.422  10.298  70.035  1.00  0.00    -0.397 OA 
HETATM    3  C   UNL     2     -10.338  10.703  69.004  1.00  0.00    -0.218 C  
HETATM    4  H   UNL     2      -9.913  10.126  70.830  1.00  0.00     0.000 HD 
ENDROOT
BRANCH   3   5
HETATM    5  C   UNL     2      -9.549  10.981  67.727  1.00  0.00    -0.180 C  
BRANCH   5   6
HETATM    6  C   UNL     2     -10.186  10.334  66.507  1.00  0.00    -0.289 C  
HETATM    7  C   UNL     2      -9.099   9.667  65.655  1.00  0.00    -0.189 C  
HETATM    8  O   UNL     2      -9.323   9.656  64.427  1.00  0.00    -0.254 OA 
HETATM    9  O   UNL     2      -8.077   9.289  66.325  1.00  0.00    -0.106 OA 
ENDBRANCH   5   6
ENDBRANCH   3   5
TORSDOF 2
ENDMDL
MODEL      199
REMARK 921   NORMALIZED FREE ENERGY PREDICTED BY IDOCK:   -1.66 KCAL/MOL
REMARK 922        TOTAL FREE ENERGY PREDICTED BY IDOCK:   -2.02 KCAL/MOL
REMARK 923 INTER-LIGAND FREE ENERGY PREDICTED BY IDOCK:   -1.93 KCAL/MOL
REMARK 924 INTRA-LIGAND FREE ENERGY PREDICTED BY IDOCK:   -0.09 KCAL/MOL
REMARK 927      BINDING AFFINITY PREDICTED BY RF-SCORE:    0.00 PKD
ROOT
HETATM    1 NA   UNL     1      -9.086   8.803  67.629  1.00  0.00    -0.126 Na 
HETATM    2  O   UNL     2     -11.275   9.028  68.086  1.00  0.00    -0.469 OA 
HETATM    3  C   UNL     2     -11.315  10.417  68.450  1.00  0.00    -0.227 C  
HETATM    4  H   UNL     2     -11.705   8.521  68.765  1.00  0.00     0.000 HD 
ENDROOT
BRANCH   3   5
HETATM    5  C   UNL     2     -10.622  11.232  67.360  1.00  0.00    -0.262 C  
BRANCH   5   6
HETATM    6  C   UNL     2      -9.446  12.029  67.899  1.00  0.00    -0.196 C  
HETATM    7  C   UNL     2      -9.720  13.528  67.727  1.00  0.00    -0.226 C  
HETATM    8  O   UNL     2      -8.706  14.232  67.532  1.00  0.00    -0.177 OA 
HETATM    9  O   UNL     2     -10.963  13.829  67.727  1.00  0.00    -0.249 OA 
ENDBRANCH   5   6
ENDBRANCH   3   5
TORSDOF 2
ENDMDL
MODEL      200
REMARK 921   NORMALIZED FREE ENERGY PREDICTED BY IDOCK:   -1.65 KCAL/MOL
REMARK 922        TOTAL FREE ENERGY PREDICTED BY IDOCK:   -2.01 KCAL/MOL
REMARK 923 INTER-LIGAND FREE ENERGY PREDICTED BY IDOCK:   -2.03 KCAL/MOL
REMARK 924 INTRA-LIGAND FREE ENERGY PREDICTED BY IDOCK:    0.02 KCAL/MOL
REMARK 927      BINDING AFFINITY PREDICTED BY RF-SCORE:    0.00 PKD
ROOT
HETATM    1 NA   UNL     1     -12.103   6.590  67.631  1.00  0.00    -0.621 Na 
HETATM    2  O   UNL     2     -10.623   7.285  69.172  1.00  0.00    -0.212 OA 
HETATM    3  C   UNL     2      -9.766   8.096  68.352  1.00  0.00    -0.161 C  
HETATM    4  H   UNL     2     -10.086   6.678  69.669  1.00  0.00     0.000 HD 
ENDROOT
BRANCH   3   5
HETATM    5  C   UNL     2     -10.628   9.071  67.553  1.00  0.00    -0.306 C  
BRANCH   5   6
HETATM    6  C   UNL     2      -9.907  10.380  67.275  1.00  0.00    -0.214 C  
HETATM    7  C   UNL     2      -8.887  10.174  66.148  1.00  0.00    -0.145 C  
HETATM    8  O   UNL     2      -7.863  10.885  66.226  1.00  0.00    -0.155 OA 
HETATM    9  O   UNL     2      -9.199   9.238  65.334  1.00  0.00    -0.213 OA 
ENDBRANCH   5   6
ENDBRANCH   3   5
TORSDOF 2
ENDMDL
MODEL      201
REMARK 921   NORMALIZED FREE ENERGY PREDICTED BY IDOCK:   -1.65 KCAL/MOL
REMARK 922        TOTAL FREE ENERGY PREDICTED BY IDOCK:   -2.01 KCAL/MOL
REMARK 923 INTER-LIGAND FREE ENERGY PREDICTED BY IDOCK:   -1.96 KCAL/MOL
REMARK 924 INTRA-LIGAND FREE ENERGY PREDICTED BY IDOCK:   -0.05 KCAL/MOL
REMARK 927      BINDING AFFINITY PREDICTED BY RF-SCORE:    0.00 PKD
ROOT
HETATM    1 NA   UNL     1     -10.684   6.624  66.021  1.00  0.00    -0.437 Na 
HETATM    2  O   UNL     2      -9.777   8.656  65.704  1.00  0.00    -0.456 OA 
HETATM    3  C   UNL     2     -10.386   9.376  66.789  1.00  0.00    -0.233 C  
HETATM    4  H   UNL     2      -9.904   9.148  64.901  1.00  0.00     0.000 HD 
ENDROOT
BRANCH   3   5
HETATM    5  C   UNL     2     -10.183   8.586  68.080  1.00  0.00    -0.264 C  
BRANCH   5   6
HETATM    6  C   UNL     2      -9.357   9.354  69.098  1.00  0.00    -0.159 C  
HETATM    7  C   UNL     2      -8.580   8.367  69.978  1.00  0.00    -0.131 C  
HETATM    8  O   UNL     2      -8.385   8.745  71.152  1.00  0.00    -0.146 OA 
HETATM    9  O   UNL     2      -8.315   7.257  69.400  1.00  0.00    -0.130 OA 
ENDBRANCH   5   6
ENDBRANCH   3   5
TORSDOF 2
ENDMDL
MODEL      202
REMARK 921   NORMALIZED FREE ENERGY PREDICTED BY IDOCK:   -1.64 KCAL/MOL
REMARK 922        TOTAL FREE ENERGY PREDICTED BY IDOCK:   -2.00 KCAL/MOL
REMARK 923 INTER-LIGAND FREE ENERGY PREDICTED BY IDOCK:   -2.14 KCAL/MOL
REMARK 924 INTRA-LIGAND FREE ENERGY PREDICTED BY IDOCK:    0.14 KCAL/MOL
REMARK 927      BINDING AFFINITY PREDICTED BY RF-SCORE:    0.00 PKD
ROOT
HETATM    1 NA   UNL     1     -10.070  10.237  67.053  1.00  0.00    -0.165 Na 
HETATM    2  O   UNL     2      -9.513  12.112  68.158  1.00  0.00    -0.194 OA 
HETATM    3  C   UNL     2      -9.277  12.997  67.051  1.00  0.00    -0.232 C  
HETATM    4  H   UNL     2      -8.767  12.151  68.746  1.00  0.00     0.000 HD 
ENDROOT
BRANCH   3   5
HETATM    5  C   UNL     2     -10.475  12.935  66.107  1.00  0.00    -0.283 C  
BRANCH   5   6
HETATM    6  C   UNL     2     -10.251  13.748  64.842  1.00  0.00    -0.374 C  
HETATM    7  C   UNL     2     -10.866  15.142  65.013  1.00  0.00    -0.440 C  
HETATM    8  O   UNL     2     -11.306  15.659  63.965  1.00  0.00    -0.135 OA 
HETATM    9  O   UNL     2     -10.914  15.540  66.228  1.00  0.00    -0.314 OA 
ENDBRANCH   5   6
ENDBRANCH   3   5
TORSDOF 2
ENDMDL
MODEL      203
REMARK 921   NORMALIZED FREE ENERGY PREDICTED BY IDOCK:   -1.62 KCAL/MOL
REMARK 922        TOTAL FREE ENERGY PREDICTED BY IDOCK:   -1.97 KCAL/MOL
REMARK 923 INTER-LIGAND FREE ENERGY PREDICTED BY IDOCK:   -1.94 KCAL/MOL
REMARK 924 INTRA-LIGAND FREE ENERGY PREDICTED BY IDOCK:   -0.04 KCAL/MOL
REMARK 927      BINDING AFFINITY PREDICTED BY RF-SCORE:    0.00 PKD
ROOT
HETATM    1 NA   UNL     1      -8.271  11.805  68.519  1.00  0.00    -0.111 Na 
HETATM    2  O   UNL     2      -9.727  11.891  66.809  1.00  0.00    -0.197 OA 
HETATM    3  C   UNL     2     -10.156  13.258  66.911  1.00  0.00    -0.250 C  
HETATM    4  H   UNL     2     -10.494  11.331  66.768  1.00  0.00     0.000 HD 
ENDROOT
BRANCH   3   5
HETATM    5  C   UNL     2      -8.924  14.158  66.978  1.00  0.00    -0.251 C  
BRANCH   5   6
HETATM    6  C   UNL     2      -9.070  15.396  66.109  1.00  0.00    -0.339 C  
HETATM    7  C   UNL     2      -8.045  16.451  66.545  1.00  0.00    -0.310 C  
HETATM    8  O   UNL     2      -8.412  17.636  66.399  1.00  0.00    -0.272 OA 
HETATM    9  O   UNL     2      -6.990  15.959  67.074  1.00  0.00    -0.205 OA 
ENDBRANCH   5   6
ENDBRANCH   3   5
TORSDOF 2
ENDMDL
MODEL      204
REMARK 921   NORMALIZED FREE ENERGY PREDICTED BY IDOCK:   -1.62 KCAL/MOL
REMARK 922        TOTAL FREE ENERGY PREDICTED BY IDOCK:   -1.97 KCAL/MOL
REMARK 923 INTER-LIGAND FREE ENERGY PREDICTED BY IDOCK:   -1.97 KCAL/MOL
REMARK 924 INTRA-LIGAND FREE ENERGY PREDICTED BY IDOCK:   -0.00 KCAL/MOL
REMARK 927      BINDING AFFINITY PREDICTED BY RF-SCORE:    0.00 PKD
ROOT
HETATM    1 NA   UNL     1      -7.218  12.904  69.825  1.00  0.00    -0.276 Na 
HETATM    2  O   UNL     2      -7.379  13.402  67.639  1.00  0.00    -0.140 OA 
HETATM    3  C   UNL     2      -8.409  12.481  67.246  1.00  0.00    -0.185 C  
HETATM    4  H   UNL     2      -6.644  13.312  67.044  1.00  0.00     0.000 HD 
ENDROOT
BRANCH   3   5
HETATM    5  C   UNL     2      -9.590  12.624  68.203  1.00  0.00    -0.219 C  
BRANCH   5   6
HETATM    6  C   UNL     2     -10.093  14.056  68.282  1.00  0.00    -0.246 C  
HETATM    7  C   UNL     2     -10.849  14.406  66.995  1.00  0.00    -0.297 C  
HETATM    8  O   UNL     2     -10.773  15.603  66.645  1.00  0.00    -0.308 OA 
HETATM    9  O   UNL     2     -11.383  13.397  66.418  1.00  0.00    -0.299 OA 
ENDBRANCH   5   6
ENDBRANCH   3   5
TORSDOF 2
ENDMDL
MODEL      205
REMARK 921   NORMALIZED FREE ENERGY PREDICTED BY IDOCK:   -1.61 KCAL/MOL
REMARK 922        TOTAL FREE ENERGY PREDICTED BY IDOCK:   -1.97 KCAL/MOL
REMARK 923 INTER-LIGAND FREE ENERGY PREDICTED BY IDOCK:   -1.90 KCAL/MOL
REMARK 924 INTRA-LIGAND FREE ENERGY PREDICTED BY IDOCK:   -0.07 KCAL/MOL
REMARK 927      BINDING AFFINITY PREDICTED BY RF-SCORE:    0.00 PKD
ROOT
HETATM    1 NA   UNL     1      -8.268  11.772  68.548  1.00  0.00    -0.111 Na 
HETATM    2  O   UNL     2      -9.840  11.943  66.952  1.00  0.00    -0.198 OA 
HETATM    3  C   UNL     2     -10.266  13.299  67.161  1.00  0.00    -0.246 C  
HETATM    4  H   UNL     2     -10.606  11.380  66.932  1.00  0.00     0.000 HD 
ENDROOT
BRANCH   3   5
HETATM    5  C   UNL     2      -9.035  14.203  67.192  1.00  0.00    -0.236 C  
BRANCH   5   6
HETATM    6  C   UNL     2      -9.273  15.520  66.473  1.00  0.00    -0.324 C  
HETATM    7  C   UNL     2      -9.793  16.562  67.471  1.00  0.00    -0.248 C  
HETATM    8  O   UNL     2     -10.575  17.410  66.991  1.00  0.00    -0.316 OA 
HETATM    9  O   UNL     2      -9.413  16.360  68.675  1.00  0.00    -0.221 OA 
ENDBRANCH   5   6
ENDBRANCH   3   5
TORSDOF 2
ENDMDL
MODEL      206
REMARK 921   NORMALIZED FREE ENERGY PREDICTED BY IDOCK:   -1.60 KCAL/MOL
REMARK 922        TOTAL FREE ENERGY PREDICTED BY IDOCK:   -1.95 KCAL/MOL
REMARK 923 INTER-LIGAND FREE ENERGY PREDICTED BY IDOCK:   -1.88 KCAL/MOL
REMARK 924 INTRA-LIGAND FREE ENERGY PREDICTED BY IDOCK:   -0.07 KCAL/MOL
REMARK 927      BINDING AFFINITY PREDICTED BY RF-SCORE:    0.00 PKD
ROOT
HETATM    1 NA   UNL     1      -7.392  12.008  65.925  1.00  0.00    -0.352 Na 
HETATM    2  O   UNL     2      -9.356  11.128  65.277  1.00  0.00    -0.216 OA 
HETATM    3  C   UNL     2      -9.649  10.302  66.415  1.00  0.00    -0.185 C  
HETATM    4  H   UNL     2      -9.441  10.606  64.488  1.00  0.00     0.000 HD 
ENDROOT
BRANCH   3   5
HETATM    5  C   UNL     2      -9.512  11.141  67.683  1.00  0.00    -0.173 C  
BRANCH   5   6
HETATM    6  C   UNL     2     -10.690  10.956  68.624  1.00  0.00    -0.238 C  
HETATM    7  C   UNL     2     -10.321   9.941  69.714  1.00  0.00    -0.246 C  
HETATM    8  O   UNL     2     -11.272   9.251  70.138  1.00  0.00    -0.248 OA 
HETATM    9  O   UNL     2      -9.069   9.892  69.972  1.00  0.00    -0.225 OA 
ENDBRANCH   5   6
ENDBRANCH   3   5
TORSDOF 2
ENDMDL
MODEL      207
REMARK 921   NORMALIZED FREE ENERGY PREDICTED BY IDOCK:   -1.60 KCAL/MOL
REMARK 922        TOTAL FREE ENERGY PREDICTED BY IDOCK:   -1.95 KCAL/MOL
REMARK 923 INTER-LIGAND FREE ENERGY PREDICTED BY IDOCK:   -1.90 KCAL/MOL
REMARK 924 INTRA-LIGAND FREE ENERGY PREDICTED BY IDOCK:   -0.05 KCAL/MOL
REMARK 927      BINDING AFFINITY PREDICTED BY RF-SCORE:    0.00 PKD
ROOT
HETATM    1 NA   UNL     1      -6.708   9.905  67.446  1.00  0.00    -0.064 Na 
HETATM    2  O   UNL     2      -7.648   9.354  65.481  1.00  0.00    -0.096 OA 
HETATM    3  C   UNL     2      -9.036   9.534  65.806  1.00  0.00    -0.196 C  
HETATM    4  H   UNL     2      -7.534   8.497  65.087  1.00  0.00     0.000 HD 
ENDROOT
BRANCH   3   5
HETATM    5  C   UNL     2      -9.220  10.911  66.439  1.00  0.00    -0.193 C  
BRANCH   5   6
HETATM    6  C   UNL     2     -10.674  11.352  66.443  1.00  0.00    -0.325 C  
HETATM    7  C   UNL     2     -11.082  11.762  67.863  1.00  0.00    -0.245 C  
HETATM    8  O   UNL     2     -12.279  11.549  68.152  1.00  0.00    -0.576 OA 
HETATM    9  O   UNL     2     -10.111  12.188  68.577  1.00  0.00    -0.209 OA 
ENDBRANCH   5   6
ENDBRANCH   3   5
TORSDOF 2
ENDMDL
MODEL      208
REMARK 921   NORMALIZED FREE ENERGY PREDICTED BY IDOCK:   -1.60 KCAL/MOL
REMARK 922        TOTAL FREE ENERGY PREDICTED BY IDOCK:   -1.95 KCAL/MOL
REMARK 923 INTER-LIGAND FREE ENERGY PREDICTED BY IDOCK:   -1.64 KCAL/MOL
REMARK 924 INTRA-LIGAND FREE ENERGY PREDICTED BY IDOCK:   -0.30 KCAL/MOL
REMARK 927      BINDING AFFINITY PREDICTED BY RF-SCORE:    0.00 PKD
ROOT
HETATM    1 NA   UNL     1     -10.829  13.510  65.233  1.00  0.00    -0.277 Na 
HETATM    2  O   UNL     2     -10.922  15.643  65.933  1.00  0.00    -0.308 OA 
HETATM    3  C   UNL     2      -9.978  15.595  67.014  1.00  0.00    -0.240 C  
HETATM    4  H   UNL     2     -11.728  16.039  66.246  1.00  0.00     0.000 HD 
ENDROOT
BRANCH   3   5
HETATM    5  C   UNL     2      -8.684  14.959  66.511  1.00  0.00    -0.204 C  
BRANCH   5   6
HETATM    6  C   UNL     2      -7.989  14.143  67.588  1.00  0.00    -0.187 C  
HETATM    7  C   UNL     2      -8.630  12.752  67.671  1.00  0.00    -0.181 C  
HETATM    8  O   UNL     2      -8.628  12.236  68.808  1.00  0.00    -0.029 OA 
HETATM    9  O   UNL     2      -9.150  12.356  66.571  1.00  0.00    -0.217 OA 
ENDBRANCH   5   6
ENDBRANCH   3   5
TORSDOF 2
ENDMDL
MODEL      209
REMARK 921   NORMALIZED FREE ENERGY PREDICTED BY IDOCK:   -1.58 KCAL/MOL
REMARK 922        TOTAL FREE ENERGY PREDICTED BY IDOCK:   -1.93 KCAL/MOL
REMARK 923 INTER-LIGAND FREE ENERGY PREDICTED BY IDOCK:   -1.43 KCAL/MOL
REMARK 924 INTRA-LIGAND FREE ENERGY PREDICTED BY IDOCK:   -0.50 KCAL/MOL
REMARK 927      BINDING AFFINITY PREDICTED BY RF-SCORE:    0.00 PKD
ROOT
HETATM    1 NA   UNL     1      -9.350  14.450  65.743  1.00  0.00    -0.250 Na 
HETATM    2  O   UNL     2     -10.680  13.530  67.303  1.00  0.00    -0.264 OA 
HETATM    3  C   UNL     2     -10.643  12.155  66.887  1.00  0.00    -0.229 C  
HETATM    4  H   UNL     2     -11.587  13.792  67.415  1.00  0.00     0.000 HD 
ENDROOT
BRANCH   3   5
HETATM    5  C   UNL     2      -9.186  11.734  66.708  1.00  0.00    -0.196 C  
BRANCH   5   6
HETATM    6  C   UNL     2      -8.457  11.611  68.036  1.00  0.00    -0.151 C  
HETATM    7  C   UNL     2      -7.395  12.713  68.141  1.00  0.00    -0.112 C  
HETATM    8  O   UNL     2      -6.376  12.404  68.794  1.00  0.00    -0.068 OA 
HETATM    9  O   UNL     2      -7.674  13.766  67.471  1.00  0.00    -0.161 OA 
ENDBRANCH   5   6
ENDBRANCH   3   5
TORSDOF 2
ENDMDL
MODEL      210
REMARK 921   NORMALIZED FREE ENERGY PREDICTED BY IDOCK:   -1.56 KCAL/MOL
REMARK 922        TOTAL FREE ENERGY PREDICTED BY IDOCK:   -1.91 KCAL/MOL
REMARK 923 INTER-LIGAND FREE ENERGY PREDICTED BY IDOCK:   -1.75 KCAL/MOL
REMARK 924 INTRA-LIGAND FREE ENERGY PREDICTED BY IDOCK:   -0.15 KCAL/MOL
REMARK 927      BINDING AFFINITY PREDICTED BY RF-SCORE:    0.00 PKD
ROOT
HETATM    1 NA   UNL     1      -7.855   8.188  70.045  1.00  0.00    -0.082 Na 
HETATM    2  O   UNL     2      -8.151   7.450  72.147  1.00  0.00    -0.095 OA 
HETATM    3  C   UNL     2      -9.247   8.284  72.555  1.00  0.00    -0.269 C  
HETATM    4  H   UNL     2      -7.465   7.501  72.803  1.00  0.00     0.000 HD 
ENDROOT
BRANCH   3   5
HETATM    5  C   UNL     2     -10.348   8.202  71.501  1.00  0.00    -0.265 C  
BRANCH   5   6
HETATM    6  C   UNL     2     -10.752   9.573  70.985  1.00  0.00    -0.411 C  
HETATM    7  C   UNL     2     -10.521   9.639  69.470  1.00  0.00    -0.224 C  
HETATM    8  O   UNL     2     -10.211  10.767  69.031  1.00  0.00    -0.197 OA 
HETATM    9  O   UNL     2     -10.599   8.504  68.885  1.00  0.00    -0.213 OA 
ENDBRANCH   5   6
ENDBRANCH   3   5
TORSDOF 2
ENDMDL
MODEL      211
REMARK 921   NORMALIZED FREE ENERGY PREDICTED BY IDOCK:   -1.55 KCAL/MOL
REMARK 922        TOTAL FREE ENERGY PREDICTED BY IDOCK:   -1.89 KCAL/MOL
REMARK 923 INTER-LIGAND FREE ENERGY PREDICTED BY IDOCK:   -1.82 KCAL/MOL
REMARK 924 INTRA-LIGAND FREE ENERGY PREDICTED BY IDOCK:   -0.07 KCAL/MOL
REMARK 927      BINDING AFFINITY PREDICTED BY RF-SCORE:    0.00 PKD
ROOT
HETATM    1 NA   UNL     1     -11.968  10.216  67.933  1.00  0.00    -0.490 Na 
HETATM    2  O   UNL     2     -10.575  10.680  66.232  1.00  0.00    -0.229 OA 
HETATM    3  C   UNL     2      -9.310  10.436  66.868  1.00  0.00    -0.162 C  
HETATM    4  H   UNL     2     -10.550  11.534  65.816  1.00  0.00     0.000 HD 
ENDROOT
BRANCH   3   5
HETATM    5  C   UNL     2      -9.351   9.064  67.536  1.00  0.00    -0.159 C  
BRANCH   5   6
HETATM    6  C   UNL     2     -10.140   8.052  66.722  1.00  0.00    -0.357 C  
HETATM    7  C   UNL     2      -9.679   6.634  67.079  1.00  0.00    -0.157 C  
HETATM    8  O   UNL     2      -9.742   5.806  66.146  1.00  0.00    -0.146 OA 
HETATM    9  O   UNL     2      -9.215   6.525  68.267  1.00  0.00    -0.119 OA 
ENDBRANCH   5   6
ENDBRANCH   3   5
TORSDOF 2
ENDMDL
MODEL      212
REMARK 921   NORMALIZED FREE ENERGY PREDICTED BY IDOCK:   -1.51 KCAL/MOL
REMARK 922        TOTAL FREE ENERGY PREDICTED BY IDOCK:   -1.85 KCAL/MOL
REMARK 923 INTER-LIGAND FREE ENERGY PREDICTED BY IDOCK:   -1.78 KCAL/MOL
REMARK 924 INTRA-LIGAND FREE ENERGY PREDICTED BY IDOCK:   -0.07 KCAL/MOL
REMARK 927      BINDING AFFINITY PREDICTED BY RF-SCORE:    0.00 PKD
ROOT
HETATM    1 NA   UNL     1      -9.075   7.662  63.450  1.00  0.00    -0.365 Na 
HETATM    2  O   UNL     2      -9.092   6.840  65.541  1.00  0.00    -0.370 OA 
HETATM    3  C   UNL     2      -8.210   7.772  66.186  1.00  0.00    -0.123 C  
HETATM    4  H   UNL     2      -8.804   5.956  65.740  1.00  0.00     0.000 HD 
ENDROOT
BRANCH   3   5
HETATM    5  C   UNL     2      -8.674   9.192  65.865  1.00  0.00    -0.184 C  
BRANCH   5   6
HETATM    6  C   UNL     2      -8.500  10.132  67.047  1.00  0.00    -0.129 C  
HETATM    7  C   UNL     2      -9.870  10.669  67.480  1.00  0.00    -0.168 C  
HETATM    8  O   UNL     2      -9.859  11.825  67.953  1.00  0.00    -0.174 OA 
HETATM    9  O   UNL     2     -10.842   9.881  67.215  1.00  0.00    -0.267 OA 
ENDBRANCH   5   6
ENDBRANCH   3   5
TORSDOF 2
ENDMDL
MODEL      213
REMARK 921   NORMALIZED FREE ENERGY PREDICTED BY IDOCK:   -1.49 KCAL/MOL
REMARK 922        TOTAL FREE ENERGY PREDICTED BY IDOCK:   -1.83 KCAL/MOL
REMARK 923 INTER-LIGAND FREE ENERGY PREDICTED BY IDOCK:   -1.79 KCAL/MOL
REMARK 924 INTRA-LIGAND FREE ENERGY PREDICTED BY IDOCK:   -0.04 KCAL/MOL
REMARK 927      BINDING AFFINITY PREDICTED BY RF-SCORE:    0.00 PKD
ROOT
HETATM    1 NA   UNL     1      -9.105   7.542  63.565  1.00  0.00    -0.350 Na 
HETATM    2  O   UNL     2      -9.038   5.559  64.620  1.00  0.00    -0.363 OA 
HETATM    3  C   UNL     2      -8.544   5.973  65.904  1.00  0.00    -0.150 C  
HETATM    4  H   UNL     2      -8.508   4.836  64.305  1.00  0.00     0.000 HD 
ENDROOT
BRANCH   3   5
HETATM    5  C   UNL     2      -9.395   7.135  66.409  1.00  0.00    -0.190 C  
BRANCH   5   6
HETATM    6  C   UNL     2      -9.727   7.004  67.886  1.00  0.00    -0.141 C  
HETATM    7  C   UNL     2     -10.001   8.393  68.476  1.00  0.00    -0.187 C  
HETATM    8  O   UNL     2      -9.681   8.530  69.675  1.00  0.00    -0.175 OA 
HETATM    9  O   UNL     2     -10.443   9.238  67.624  1.00  0.00    -0.238 OA 
ENDBRANCH   5   6
ENDBRANCH   3   5
TORSDOF 2
ENDMDL
MODEL      214
REMARK 921   NORMALIZED FREE ENERGY PREDICTED BY IDOCK:   -1.48 KCAL/MOL
REMARK 922        TOTAL FREE ENERGY PREDICTED BY IDOCK:   -1.82 KCAL/MOL
REMARK 923 INTER-LIGAND FREE ENERGY PREDICTED BY IDOCK:   -1.48 KCAL/MOL
REMARK 924 INTRA-LIGAND FREE ENERGY PREDICTED BY IDOCK:   -0.34 KCAL/MOL
REMARK 927      BINDING AFFINITY PREDICTED BY RF-SCORE:    0.00 PKD
ROOT
HETATM    1 NA   UNL     1      -6.867   8.288  72.123  1.00  0.00    -0.050 Na 
HETATM    2  O   UNL     2      -7.367   6.098  72.154  1.00  0.00    -0.090 OA 
HETATM    3  C   UNL     2      -8.691   6.134  71.596  1.00  0.00    -0.135 C  
HETATM    4  H   UNL     2      -7.388   5.594  72.960  1.00  0.00     0.000 HD 
ENDROOT
BRANCH   3   5
HETATM    5  C   UNL     2      -8.657   6.943  70.301  1.00  0.00    -0.140 C  
BRANCH   5   6
HETATM    6  C   UNL     2      -9.891   7.815  70.138  1.00  0.00    -0.184 C  
HETATM    7  C   UNL     2      -9.656   9.169  70.820  1.00  0.00    -0.275 C  
HETATM    8  O   UNL     2     -10.678   9.703  71.301  1.00  0.00    -0.335 OA 
HETATM    9  O   UNL     2      -8.426   9.516  70.869  1.00  0.00    -0.269 OA 
ENDBRANCH   5   6
ENDBRANCH   3   5
TORSDOF 2
ENDMDL
MODEL      215
REMARK 921   NORMALIZED FREE ENERGY PREDICTED BY IDOCK:   -1.46 KCAL/MOL
REMARK 922        TOTAL FREE ENERGY PREDICTED BY IDOCK:   -1.80 KCAL/MOL
REMARK 923 INTER-LIGAND FREE ENERGY PREDICTED BY IDOCK:   -1.90 KCAL/MOL
REMARK 924 INTRA-LIGAND FREE ENERGY PREDICTED BY IDOCK:    0.09 KCAL/MOL
REMARK 927      BINDING AFFINITY PREDICTED BY RF-SCORE:    0.00 PKD
ROOT
HETATM    1 NA   UNL     1     -10.778   8.131  65.661  1.00  0.00    -0.321 Na 
HETATM    2  O   UNL     2     -11.121   7.865  67.866  1.00  0.00    -0.471 OA 
HETATM    3  C   UNL     2     -10.047   8.665  68.386  1.00  0.00    -0.191 C  
HETATM    4  H   UNL     2     -11.098   7.012  68.283  1.00  0.00     0.000 HD 
ENDROOT
BRANCH   3   5
HETATM    5  C   UNL     2     -10.084  10.036  67.716  1.00  0.00    -0.222 C  
BRANCH   5   6
HETATM    6  C   UNL     2     -11.469  10.660  67.761  1.00  0.00    -0.219 C  
HETATM    7  C   UNL     2     -11.839  10.981  69.215  1.00  0.00    -0.340 C  
HETATM    8  O   UNL     2     -13.057  10.899  69.481  1.00  0.00    -0.006 OA 
HETATM    9  O   UNL     2     -10.830  11.207  69.968  1.00  0.00    -0.125 OA 
ENDBRANCH   5   6
ENDBRANCH   3   5
TORSDOF 2
ENDMDL
MODEL      216
REMARK 921   NORMALIZED FREE ENERGY PREDICTED BY IDOCK:   -1.46 KCAL/MOL
REMARK 922        TOTAL FREE ENERGY PREDICTED BY IDOCK:   -1.80 KCAL/MOL
REMARK 923 INTER-LIGAND FREE ENERGY PREDICTED BY IDOCK:   -1.73 KCAL/MOL
REMARK 924 INTRA-LIGAND FREE ENERGY PREDICTED BY IDOCK:   -0.07 KCAL/MOL
REMARK 927      BINDING AFFINITY PREDICTED BY RF-SCORE:    0.00 PKD
ROOT
HETATM    1 NA   UNL     1      -8.856   8.002  68.456  1.00  0.00    -0.125 Na 
HETATM    2  O   UNL     2     -11.043   7.870  68.956  1.00  0.00    -0.427 OA 
HETATM    3  C   UNL     2     -11.257   6.459  68.783  1.00  0.00    -0.274 C  
HETATM    4  H   UNL     2     -11.705   8.343  68.464  1.00  0.00     0.000 HD 
ENDROOT
BRANCH   3   5
HETATM    5  C   UNL     2     -10.193   5.700  69.573  1.00  0.00    -0.320 C  
BRANCH   5   6
HETATM    6  C   UNL     2      -9.579   4.568  68.766  1.00  0.00    -0.227 C  
HETATM    7  C   UNL     2      -9.166   3.431  69.710  1.00  0.00    -0.150 C  
HETATM    8  O   UNL     2      -8.165   2.779  69.345  1.00  0.00    -0.050 OA 
HETATM    9  O   UNL     2      -9.862   3.370  70.781  1.00  0.00    -0.160 OA 
ENDBRANCH   5   6
ENDBRANCH   3   5
TORSDOF 2
ENDMDL
MODEL      217
REMARK 921   NORMALIZED FREE ENERGY PREDICTED BY IDOCK:   -1.46 KCAL/MOL
REMARK 922        TOTAL FREE ENERGY PREDICTED BY IDOCK:   -1.80 KCAL/MOL
REMARK 923 INTER-LIGAND FREE ENERGY PREDICTED BY IDOCK:   -1.69 KCAL/MOL
REMARK 924 INTRA-LIGAND FREE ENERGY PREDICTED BY IDOCK:   -0.11 KCAL/MOL
REMARK 927      BINDING AFFINITY PREDICTED BY RF-SCORE:    0.00 PKD
ROOT
HETATM    1 NA   UNL     1      -5.422  10.302  67.772  1.00  0.00    -0.040 Na 
HETATM    2  O   UNL     2      -5.597  11.535  65.902  1.00  0.00    -0.480 OA 
HETATM    3  C   UNL     2      -6.204  10.575  65.022  1.00  0.00    -0.064 C  
HETATM    4  H   UNL     2      -4.838  11.910  65.469  1.00  0.00     0.000 HD 
ENDROOT
BRANCH   3   5
HETATM    5  C   UNL     2      -7.423   9.972  65.716  1.00  0.00    -0.121 C  
BRANCH   5   6
HETATM    6  C   UNL     2      -8.335  11.037  66.301  1.00  0.00    -0.166 C  
HETATM    7  C   UNL     2      -9.542  11.242  65.377  1.00  0.00    -0.228 C  
HETATM    8  O   UNL     2     -10.003  12.403  65.359  1.00  0.00    -0.267 OA 
HETATM    9  O   UNL     2      -9.850  10.207  64.691  1.00  0.00    -0.324 OA 
ENDBRANCH   5   6
ENDBRANCH   3   5
TORSDOF 2
ENDMDL
MODEL      218
REMARK 921   NORMALIZED FREE ENERGY PREDICTED BY IDOCK:   -1.45 KCAL/MOL
REMARK 922        TOTAL FREE ENERGY PREDICTED BY IDOCK:   -1.78 KCAL/MOL
REMARK 923 INTER-LIGAND FREE ENERGY PREDICTED BY IDOCK:   -1.70 KCAL/MOL
REMARK 924 INTRA-LIGAND FREE ENERGY PREDICTED BY IDOCK:   -0.08 KCAL/MOL
REMARK 927      BINDING AFFINITY PREDICTED BY RF-SCORE:    0.00 PKD
ROOT
HETATM    1 NA   UNL     1      -9.251   8.865  65.791  1.00  0.00    -0.143 Na 
HETATM    2  O   UNL     2      -8.148   9.545  67.627  1.00  0.00    -0.109 OA 
HETATM    3  C   UNL     2      -8.349  10.964  67.531  1.00  0.00    -0.117 C  
HETATM    4  H   UNL     2      -7.222   9.374  67.754  1.00  0.00     0.000 HD 
ENDROOT
BRANCH   3   5
HETATM    5  C   UNL     2      -9.837  11.238  67.327  1.00  0.00    -0.203 C  
BRANCH   5   6
HETATM    6  C   UNL     2     -10.092  12.189  66.170  1.00  0.00    -0.251 C  
HETATM    7  C   UNL     2     -11.047  13.302  66.621  1.00  0.00    -0.291 C  
HETATM    8  O   UNL     2     -11.800  13.747  65.729  1.00  0.00    -0.340 OA 
HETATM    9  O   UNL     2     -10.990  13.556  67.874  1.00  0.00    -0.245 OA 
ENDBRANCH   5   6
ENDBRANCH   3   5
TORSDOF 2
ENDMDL
MODEL      219
REMARK 921   NORMALIZED FREE ENERGY PREDICTED BY IDOCK:   -1.44 KCAL/MOL
REMARK 922        TOTAL FREE ENERGY PREDICTED BY IDOCK:   -1.78 KCAL/MOL
REMARK 923 INTER-LIGAND FREE ENERGY PREDICTED BY IDOCK:   -1.43 KCAL/MOL
REMARK 924 INTRA-LIGAND FREE ENERGY PREDICTED BY IDOCK:   -0.35 KCAL/MOL
REMARK 927      BINDING AFFINITY PREDICTED BY RF-SCORE:    0.00 PKD
ROOT
HETATM    1 NA   UNL     1      -8.680   7.482  71.832  1.00  0.00    -0.108 Na 
HETATM    2  O   UNL     2      -6.876   7.810  70.532  1.00  0.00    -0.042 OA 
HETATM    3  C   UNL     2      -7.476   7.683  69.233  1.00  0.00    -0.094 C  
HETATM    4  H   UNL     2      -6.112   7.246  70.574  1.00  0.00     0.000 HD 
ENDROOT
BRANCH   3   5
HETATM    5  C   UNL     2      -8.703   8.589  69.166  1.00  0.00    -0.134 C  
BRANCH   5   6
HETATM    6  C   UNL     2      -9.922   7.864  68.620  1.00  0.00    -0.201 C  
HETATM    7  C   UNL     2     -10.855   7.486  69.778  1.00  0.00    -0.225 C  
HETATM    8  O   UNL     2     -11.505   6.433  69.611  1.00  0.00    -0.416 OA 
HETATM    9  O   UNL     2     -10.768   8.267  70.787  1.00  0.00    -0.211 OA 
ENDBRANCH   5   6
ENDBRANCH   3   5
TORSDOF 2
ENDMDL
MODEL      220
REMARK 921   NORMALIZED FREE ENERGY PREDICTED BY IDOCK:   -1.43 KCAL/MOL
REMARK 922        TOTAL FREE ENERGY PREDICTED BY IDOCK:   -1.77 KCAL/MOL
REMARK 923 INTER-LIGAND FREE ENERGY PREDICTED BY IDOCK:   -1.62 KCAL/MOL
REMARK 924 INTRA-LIGAND FREE ENERGY PREDICTED BY IDOCK:   -0.14 KCAL/MOL
REMARK 927      BINDING AFFINITY PREDICTED BY RF-SCORE:    0.00 PKD
ROOT
HETATM    1 NA   UNL     1      -7.394   8.002  65.259  1.00  0.00    -0.059 Na 
HETATM    2  O   UNL     2      -9.174   6.748  65.815  1.00  0.00    -0.371 OA 
HETATM    3  C   UNL     2      -9.778   7.594  66.807  1.00  0.00    -0.222 C  
HETATM    4  H   UNL     2      -9.085   5.872  66.172  1.00  0.00     0.000 HD 
ENDROOT
BRANCH   3   5
HETATM    5  C   UNL     2      -9.921   9.002  66.234  1.00  0.00    -0.352 C  
BRANCH   5   6
HETATM    6  C   UNL     2      -9.086  10.019  66.994  1.00  0.00    -0.159 C  
HETATM    7  C   UNL     2      -8.203  10.796  66.010  1.00  0.00    -0.164 C  
HETATM    8  O   UNL     2      -7.103  11.170  66.469  1.00  0.00    -0.138 OA 
HETATM    9  O   UNL     2      -8.690  10.876  64.830  1.00  0.00    -0.159 OA 
ENDBRANCH   5   6
ENDBRANCH   3   5
TORSDOF 2
ENDMDL
MODEL      221
REMARK 921   NORMALIZED FREE ENERGY PREDICTED BY IDOCK:   -1.43 KCAL/MOL
REMARK 922        TOTAL FREE ENERGY PREDICTED BY IDOCK:   -1.77 KCAL/MOL
REMARK 923 INTER-LIGAND FREE ENERGY PREDICTED BY IDOCK:   -1.40 KCAL/MOL
REMARK 924 INTRA-LIGAND FREE ENERGY PREDICTED BY IDOCK:   -0.37 KCAL/MOL
REMARK 927      BINDING AFFINITY PREDICTED BY RF-SCORE:    0.00 PKD
ROOT
HETATM    1 NA   UNL     1      -9.916   2.325  67.091  1.00  0.00    -0.373 Na 
HETATM    2  O   UNL     2      -9.670   2.893  64.930  1.00  0.00    -0.288 OA 
HETATM    3  C   UNL     2     -10.763   3.814  64.785  1.00  0.00     0.003 C  
HETATM    4  H   UNL     2      -9.714   2.252  64.230  1.00  0.00     0.000 HD 
ENDROOT
BRANCH   3   5
HETATM    5  C   UNL     2     -10.692   4.844  65.911  1.00  0.00    -0.233 C  
BRANCH   5   6
HETATM    6  C   UNL     2      -9.336   5.525  65.981  1.00  0.00    -0.161 C  
HETATM    7  C   UNL     2      -8.836   5.526  67.431  1.00  0.00    -0.105 C  
HETATM    8  O   UNL     2      -8.131   6.507  67.747  1.00  0.00    -0.113 OA 
HETATM    9  O   UNL     2      -9.286   4.556  68.133  1.00  0.00    -0.125 OA 
ENDBRANCH   5   6
ENDBRANCH   3   5
TORSDOF 2
ENDMDL
MODEL      222
REMARK 921   NORMALIZED FREE ENERGY PREDICTED BY IDOCK:   -1.40 KCAL/MOL
REMARK 922        TOTAL FREE ENERGY PREDICTED BY IDOCK:   -1.73 KCAL/MOL
REMARK 923 INTER-LIGAND FREE ENERGY PREDICTED BY IDOCK:   -1.67 KCAL/MOL
REMARK 924 INTRA-LIGAND FREE ENERGY PREDICTED BY IDOCK:   -0.07 KCAL/MOL
REMARK 927      BINDING AFFINITY PREDICTED BY RF-SCORE:    0.00 PKD
ROOT
HETATM    1 NA   UNL     1      -9.068  11.858  64.037  1.00  0.00    -0.365 Na 
HETATM    2  O   UNL     2      -9.789   9.797  64.568  1.00  0.00    -0.413 OA 
HETATM    3  C   UNL     2      -8.647   9.307  65.288  1.00  0.00    -0.166 C  
HETATM    4  H   UNL     2     -10.031   9.159  63.906  1.00  0.00     0.000 HD 
ENDROOT
BRANCH   3   5
HETATM    5  C   UNL     2      -8.258  10.333  66.351  1.00  0.00    -0.129 C  
BRANCH   5   6
HETATM    6  C   UNL     2      -6.842  10.849  66.159  1.00  0.00    -0.100 C  
HETATM    7  C   UNL     2      -6.510  11.860  67.264  1.00  0.00    -0.141 C  
HETATM    8  O   UNL     2      -5.725  12.771  66.929  1.00  0.00    -0.280 OA 
HETATM    9  O   UNL     2      -7.156  11.666  68.352  1.00  0.00    -0.072 OA 
ENDBRANCH   5   6
ENDBRANCH   3   5
TORSDOF 2
ENDMDL
MODEL      223
REMARK 921   NORMALIZED FREE ENERGY PREDICTED BY IDOCK:   -1.40 KCAL/MOL
REMARK 922        TOTAL FREE ENERGY PREDICTED BY IDOCK:   -1.73 KCAL/MOL
REMARK 923 INTER-LIGAND FREE ENERGY PREDICTED BY IDOCK:   -1.72 KCAL/MOL
REMARK 924 INTRA-LIGAND FREE ENERGY PREDICTED BY IDOCK:   -0.00 KCAL/MOL
REMARK 927      BINDING AFFINITY PREDICTED BY RF-SCORE:    0.00 PKD
ROOT
HETATM    1 NA   UNL     1     -13.118   6.352  70.814  1.00  0.00    -0.254 Na 
HETATM    2  O   UNL     2     -12.305   8.080  71.999  1.00  0.00    -0.305 OA 
HETATM    3  C   UNL     2     -11.058   7.519  72.439  1.00  0.00    -0.301 C  
HETATM    4  H   UNL     2     -12.762   8.438  72.751  1.00  0.00     0.000 HD 
ENDROOT
BRANCH   3   5
HETATM    5  C   UNL     2     -10.323   6.942  71.231  1.00  0.00    -0.221 C  
BRANCH   5   6
HETATM    6  C   UNL     2     -10.496   5.437  71.119  1.00  0.00    -0.295 C  
HETATM    7  C   UNL     2      -9.119   4.765  71.055  1.00  0.00    -0.132 C  
HETATM    8  O   UNL     2      -9.073   3.716  70.379  1.00  0.00    -0.101 OA 
HETATM    9  O   UNL     2      -8.193   5.427  71.639  1.00  0.00    -0.115 OA 
ENDBRANCH   5   6
ENDBRANCH   3   5
TORSDOF 2
ENDMDL
MODEL      224
REMARK 921   NORMALIZED FREE ENERGY PREDICTED BY IDOCK:   -1.40 KCAL/MOL
REMARK 922        TOTAL FREE ENERGY PREDICTED BY IDOCK:   -1.73 KCAL/MOL
REMARK 923 INTER-LIGAND FREE ENERGY PREDICTED BY IDOCK:   -1.60 KCAL/MOL
REMARK 924 INTRA-LIGAND FREE ENERGY PREDICTED BY IDOCK:   -0.13 KCAL/MOL
REMARK 927      BINDING AFFINITY PREDICTED BY RF-SCORE:    0.00 PKD
ROOT
HETATM    1 NA   UNL     1      -8.994   7.665  69.056  1.00  0.00    -0.130 Na 
HETATM    2  O   UNL     2      -8.625   7.708  71.272  1.00  0.00    -0.118 OA 
HETATM    3  C   UNL     2      -9.927   8.098  71.738  1.00  0.00    -0.201 C  
HETATM    4  H   UNL     2      -7.975   8.279  71.666  1.00  0.00     0.000 HD 
ENDROOT
BRANCH   3   5
HETATM    5  C   UNL     2     -10.971   7.181  71.104  1.00  0.00    -0.272 C  
BRANCH   5   6
HETATM    6  C   UNL     2     -10.450   5.767  70.909  1.00  0.00    -0.317 C  
HETATM    7  C   UNL     2     -10.732   4.939  72.169  1.00  0.00    -0.123 C  
HETATM    8  O   UNL     2      -9.890   4.050  72.416  1.00  0.00    -0.144 OA 
HETATM    9  O   UNL     2     -11.751   5.337  72.832  1.00  0.00    -0.295 OA 
ENDBRANCH   5   6
ENDBRANCH   3   5
TORSDOF 2
ENDMDL
MODEL      225
REMARK 921   NORMALIZED FREE ENERGY PREDICTED BY IDOCK:   -1.39 KCAL/MOL
REMARK 922        TOTAL FREE ENERGY PREDICTED BY IDOCK:   -1.72 KCAL/MOL
REMARK 923 INTER-LIGAND FREE ENERGY PREDICTED BY IDOCK:   -1.62 KCAL/MOL
REMARK 924 INTRA-LIGAND FREE ENERGY PREDICTED BY IDOCK:   -0.09 KCAL/MOL
REMARK 927      BINDING AFFINITY PREDICTED BY RF-SCORE:    0.00 PKD
ROOT
HETATM    1 NA   UNL     1      -8.087   8.342  69.895  1.00  0.00    -0.094 Na 
HETATM    2  O   UNL     2      -7.302  10.365  70.478  1.00  0.00    -0.449 OA 
HETATM    3  C   UNL     2      -7.278  11.007  69.193  1.00  0.00    -0.121 C  
HETATM    4  H   UNL     2      -6.456  10.480  70.894  1.00  0.00     0.000 HD 
ENDROOT
BRANCH   3   5
HETATM    5  C   UNL     2      -8.639  10.822  68.524  1.00  0.00    -0.148 C  
BRANCH   5   6
HETATM    6  C   UNL     2      -8.555   9.946  67.285  1.00  0.00    -0.125 C  
HETATM    7  C   UNL     2      -9.872   9.178  67.111  1.00  0.00    -0.195 C  
HETATM    8  O   UNL     2      -9.760   8.050  66.586  1.00  0.00    -0.210 OA 
HETATM    9  O   UNL     2     -10.888   9.775  67.607  1.00  0.00    -0.282 OA 
ENDBRANCH   5   6
ENDBRANCH   3   5
TORSDOF 2
ENDMDL
MODEL      226
REMARK 921   NORMALIZED FREE ENERGY PREDICTED BY IDOCK:   -1.37 KCAL/MOL
REMARK 922        TOTAL FREE ENERGY PREDICTED BY IDOCK:   -1.70 KCAL/MOL
REMARK 923 INTER-LIGAND FREE ENERGY PREDICTED BY IDOCK:   -1.64 KCAL/MOL
REMARK 924 INTRA-LIGAND FREE ENERGY PREDICTED BY IDOCK:   -0.06 KCAL/MOL
REMARK 927      BINDING AFFINITY PREDICTED BY RF-SCORE:    0.00 PKD
ROOT
HETATM    1 NA   UNL     1     -10.146   6.377  70.475  1.00  0.00    -0.170 Na 
HETATM    2  O   UNL     2     -11.747   6.355  68.899  1.00  0.00    -0.519 OA 
HETATM    3  C   UNL     2     -10.940   6.480  67.717  1.00  0.00    -0.316 C  
HETATM    4  H   UNL     2     -12.438   7.007  68.868  1.00  0.00     0.000 HD 
ENDROOT
BRANCH   3   5
HETATM    5  C   UNL     2      -9.830   5.432  67.766  1.00  0.00    -0.174 C  
BRANCH   5   6
HETATM    6  C   UNL     2      -8.831   5.601  66.632  1.00  0.00    -0.119 C  
HETATM    7  C   UNL     2      -8.850   4.352  65.742  1.00  0.00    -0.122 C  
HETATM    8  O   UNL     2      -7.757   4.066  65.208  1.00  0.00    -0.083 OA 
HETATM    9  O   UNL     2      -9.970   3.733  65.743  1.00  0.00    -0.136 OA 
ENDBRANCH   5   6
ENDBRANCH   3   5
TORSDOF 2
ENDMDL
MODEL      227
REMARK 921   NORMALIZED FREE ENERGY PREDICTED BY IDOCK:   -1.37 KCAL/MOL
REMARK 922        TOTAL FREE ENERGY PREDICTED BY IDOCK:   -1.69 KCAL/MOL
REMARK 923 INTER-LIGAND FREE ENERGY PREDICTED BY IDOCK:   -1.60 KCAL/MOL
REMARK 924 INTRA-LIGAND FREE ENERGY PREDICTED BY IDOCK:   -0.10 KCAL/MOL
REMARK 927      BINDING AFFINITY PREDICTED BY RF-SCORE:    0.00 PKD
ROOT
HETATM    1 NA   UNL     1     -12.009   6.043  70.666  1.00  0.00    -0.315 Na 
HETATM    2  O   UNL     2     -10.252   4.917  69.832  1.00  0.00    -0.257 OA 
HETATM    3  C   UNL     2      -9.354   6.008  69.572  1.00  0.00    -0.136 C  
HETATM    4  H   UNL     2     -10.319   4.382  69.049  1.00  0.00     0.000 HD 
ENDROOT
BRANCH   3   5
HETATM    5  C   UNL     2      -9.247   6.869  70.829  1.00  0.00    -0.158 C  
BRANCH   5   6
HETATM    6  C   UNL     2      -9.071   6.030  72.085  1.00  0.00    -0.142 C  
HETATM    7  C   UNL     2      -9.426   6.872  73.317  1.00  0.00    -0.156 C  
HETATM    8  O   UNL     2      -8.785   6.590  74.352  1.00  0.00    -0.135 OA 
HETATM    9  O   UNL     2     -10.273   7.801  73.082  1.00  0.00    -0.301 OA 
ENDBRANCH   5   6
ENDBRANCH   3   5
TORSDOF 2
ENDMDL
MODEL      228
REMARK 921   NORMALIZED FREE ENERGY PREDICTED BY IDOCK:   -1.36 KCAL/MOL
REMARK 922        TOTAL FREE ENERGY PREDICTED BY IDOCK:   -1.69 KCAL/MOL
REMARK 923 INTER-LIGAND FREE ENERGY PREDICTED BY IDOCK:   -1.63 KCAL/MOL
REMARK 924 INTRA-LIGAND FREE ENERGY PREDICTED BY IDOCK:   -0.06 KCAL/MOL
REMARK 927      BINDING AFFINITY PREDICTED BY RF-SCORE:    0.00 PKD
ROOT
HETATM    1 NA   UNL     1     -10.814   8.699  72.562  1.00  0.00    -0.258 Na 
HETATM    2  O   UNL     2     -10.393   6.867  73.794  1.00  0.00    -0.322 OA 
HETATM    3  C   UNL     2     -11.152   5.891  73.062  1.00  0.00    -0.254 C  
HETATM    4  H   UNL     2     -10.626   6.811  74.713  1.00  0.00     0.000 HD 
ENDROOT
BRANCH   3   5
HETATM    5  C   UNL     2     -10.777   5.982  71.585  1.00  0.00    -0.303 C  
BRANCH   5   6
HETATM    6  C   UNL     2      -9.323   5.616  71.338  1.00  0.00    -0.169 C  
HETATM    7  C   UNL     2      -9.245   4.517  70.271  1.00  0.00    -0.118 C  
HETATM    8  O   UNL     2      -8.290   3.723  70.399  1.00  0.00    -0.056 OA 
HETATM    9  O   UNL     2     -10.223   4.526  69.447  1.00  0.00    -0.148 OA 
ENDBRANCH   5   6
ENDBRANCH   3   5
TORSDOF 2
ENDMDL
MODEL      229
REMARK 921   NORMALIZED FREE ENERGY PREDICTED BY IDOCK:   -1.33 KCAL/MOL
REMARK 922        TOTAL FREE ENERGY PREDICTED BY IDOCK:   -1.65 KCAL/MOL
REMARK 923 INTER-LIGAND FREE ENERGY PREDICTED BY IDOCK:   -1.32 KCAL/MOL
REMARK 924 INTRA-LIGAND FREE ENERGY PREDICTED BY IDOCK:   -0.33 KCAL/MOL
REMARK 927      BINDING AFFINITY PREDICTED BY RF-SCORE:    0.00 PKD
ROOT
HETATM    1 NA   UNL     1     -10.077   5.193  63.211  1.00  0.00    -0.367 Na 
HETATM    2  O   UNL     2      -8.589   6.877  63.189  1.00  0.00    -0.337 OA 
HETATM    3  C   UNL     2      -7.763   6.498  64.301  1.00  0.00    -0.105 C  
HETATM    4  H   UNL     2      -8.850   7.785  63.295  1.00  0.00     0.000 HD 
ENDROOT
BRANCH   3   5
HETATM    5  C   UNL     2      -7.344   5.040  64.129  1.00  0.00    -0.055 C  
BRANCH   5   6
HETATM    6  C   UNL     2      -7.297   4.297  65.455  1.00  0.00    -0.073 C  
HETATM    7  C   UNL     2      -8.693   3.756  65.789  1.00  0.00    -0.116 C  
HETATM    8  O   UNL     2      -8.958   3.695  67.008  1.00  0.00    -0.122 OA 
HETATM    9  O   UNL     2      -9.416   3.522  64.761  1.00  0.00    -0.143 OA 
ENDBRANCH   5   6
ENDBRANCH   3   5
TORSDOF 2
ENDMDL
MODEL      230
REMARK 921   NORMALIZED FREE ENERGY PREDICTED BY IDOCK:   -1.30 KCAL/MOL
REMARK 922        TOTAL FREE ENERGY PREDICTED BY IDOCK:   -1.61 KCAL/MOL
REMARK 923 INTER-LIGAND FREE ENERGY PREDICTED BY IDOCK:   -1.56 KCAL/MOL
REMARK 924 INTRA-LIGAND FREE ENERGY PREDICTED BY IDOCK:   -0.05 KCAL/MOL
REMARK 927      BINDING AFFINITY PREDICTED BY RF-SCORE:    0.00 PKD
ROOT
HETATM    1 NA   UNL     1      -7.312   8.521  65.868  1.00  0.00    -0.067 Na 
HETATM    2  O   UNL     2      -9.333   7.618  65.479  1.00  0.00    -0.379 OA 
HETATM    3  C   UNL     2      -9.322   6.551  66.442  1.00  0.00    -0.143 C  
HETATM    4  H   UNL     2      -9.574   7.263  64.631  1.00  0.00     0.000 HD 
ENDROOT
BRANCH   3   5
HETATM    5  C   UNL     2      -8.933   7.121  67.804  1.00  0.00    -0.122 C  
BRANCH   5   6
HETATM    6  C   UNL     2     -10.079   7.877  68.458  1.00  0.00    -0.216 C  
HETATM    7  C   UNL     2     -10.304   7.339  69.877  1.00  0.00    -0.219 C  
HETATM    8  O   UNL     2     -11.486   7.382  70.277  1.00  0.00    -0.261 OA 
HETATM    9  O   UNL     2      -9.253   6.847  70.416  1.00  0.00    -0.155 OA 
ENDBRANCH   5   6
ENDBRANCH   3   5
TORSDOF 2
ENDMDL
MODEL      231
REMARK 921   NORMALIZED FREE ENERGY PREDICTED BY IDOCK:   -1.29 KCAL/MOL
REMARK 922        TOTAL FREE ENERGY PREDICTED BY IDOCK:   -1.61 KCAL/MOL
REMARK 923 INTER-LIGAND FREE ENERGY PREDICTED BY IDOCK:   -1.38 KCAL/MOL
REMARK 924 INTRA-LIGAND FREE ENERGY PREDICTED BY IDOCK:   -0.23 KCAL/MOL
REMARK 927      BINDING AFFINITY PREDICTED BY RF-SCORE:    0.00 PKD
ROOT
HETATM    1 NA   UNL     1     -10.936   9.530  70.869  1.00  0.00    -0.203 Na 
HETATM    2  O   UNL     2     -10.640   8.288  72.718  1.00  0.00    -0.340 OA 
HETATM    3  C   UNL     2     -10.941   6.983  72.196  1.00  0.00    -0.234 C  
HETATM    4  H   UNL     2     -11.149   8.427  73.508  1.00  0.00     0.000 HD 
ENDROOT
BRANCH   3   5
HETATM    5  C   UNL     2     -10.123   6.760  70.926  1.00  0.00    -0.207 C  
BRANCH   5   6
HETATM    6  C   UNL     2      -8.643   6.578  71.221  1.00  0.00    -0.127 C  
HETATM    7  C   UNL     2      -7.823   7.517  70.327  1.00  0.00    -0.094 C  
HETATM    8  O   UNL     2      -6.697   7.085  70.000  1.00  0.00    -0.052 OA 
HETATM    9  O   UNL     2      -8.449   8.575  69.977  1.00  0.00    -0.119 OA 
ENDBRANCH   5   6
ENDBRANCH   3   5
TORSDOF 2
ENDMDL
MODEL      232
REMARK 921   NORMALIZED FREE ENERGY PREDICTED BY IDOCK:   -1.27 KCAL/MOL
REMARK 922        TOTAL FREE ENERGY PREDICTED BY IDOCK:   -1.58 KCAL/MOL
REMARK 923 INTER-LIGAND FREE ENERGY PREDICTED BY IDOCK:   -1.36 KCAL/MOL
REMARK 924 INTRA-LIGAND FREE ENERGY PREDICTED BY IDOCK:   -0.22 KCAL/MOL
REMARK 927      BINDING AFFINITY PREDICTED BY RF-SCORE:    0.00 PKD
ROOT
HETATM    1 NA   UNL     1     -10.952   6.841  65.891  1.00  0.00    -0.452 Na 
HETATM    2  O   UNL     2     -10.222   8.961  66.031  1.00  0.00    -0.397 OA 
HETATM    3  C   UNL     2      -9.230   8.819  67.061  1.00  0.00    -0.142 C  
HETATM    4  H   UNL     2     -10.798   9.682  66.259  1.00  0.00     0.000 HD 
ENDROOT
BRANCH   3   5
HETATM    5  C   UNL     2      -8.304   7.661  66.696  1.00  0.00    -0.127 C  
BRANCH   5   6
HETATM    6  C   UNL     2      -7.091   8.124  65.906  1.00  0.00    -0.064 C  
HETATM    7  C   UNL     2      -7.101   7.469  64.520  1.00  0.00    -0.065 C  
HETATM    8  O   UNL     2      -5.973   7.242  64.033  1.00  0.00    -0.040 OA 
HETATM    9  O   UNL     2      -8.271   7.172  64.097  1.00  0.00    -0.071 OA 
ENDBRANCH   5   6
ENDBRANCH   3   5
TORSDOF 2
ENDMDL
MODEL      233
REMARK 921   NORMALIZED FREE ENERGY PREDICTED BY IDOCK:   -1.19 KCAL/MOL
REMARK 922        TOTAL FREE ENERGY PREDICTED BY IDOCK:   -1.50 KCAL/MOL
REMARK 923 INTER-LIGAND FREE ENERGY PREDICTED BY IDOCK:   -1.45 KCAL/MOL
REMARK 924 INTRA-LIGAND FREE ENERGY PREDICTED BY IDOCK:   -0.05 KCAL/MOL
REMARK 927      BINDING AFFINITY PREDICTED BY RF-SCORE:    0.00 PKD
ROOT
HETATM    1 NA   UNL     1     -11.653  11.360  64.606  1.00  0.00    -0.311 Na 
HETATM    2  O   UNL     2     -10.069  12.311  65.884  1.00  0.00    -0.241 OA 
HETATM    3  C   UNL     2      -9.256  11.163  66.175  1.00  0.00    -0.198 C  
HETATM    4  H   UNL     2     -10.275  12.756  66.698  1.00  0.00     0.000 HD 
ENDROOT
BRANCH   3   5
HETATM    5  C   UNL     2      -8.926  10.448  64.867  1.00  0.00    -0.225 C  
BRANCH   5   6
HETATM    6  C   UNL     2      -7.514   9.888  64.860  1.00  0.00    -0.135 C  
HETATM    7  C   UNL     2      -6.999   9.811  63.417  1.00  0.00    -0.118 C  
HETATM    8  O   UNL     2      -6.206   8.874  63.187  1.00  0.00    -0.089 OA 
HETATM    9  O   UNL     2      -7.526  10.675  62.634  1.00  0.00    -0.133 OA 
ENDBRANCH   5   6
ENDBRANCH   3   5
TORSDOF 2
ENDMDL
MODEL      234
REMARK 921   NORMALIZED FREE ENERGY PREDICTED BY IDOCK:   -1.19 KCAL/MOL
REMARK 922        TOTAL FREE ENERGY PREDICTED BY IDOCK:   -1.49 KCAL/MOL
REMARK 923 INTER-LIGAND FREE ENERGY PREDICTED BY IDOCK:   -1.41 KCAL/MOL
REMARK 924 INTRA-LIGAND FREE ENERGY PREDICTED BY IDOCK:   -0.08 KCAL/MOL
REMARK 927      BINDING AFFINITY PREDICTED BY RF-SCORE:    0.00 PKD
ROOT
HETATM    1 NA   UNL     1      -6.895   7.912  70.624  1.00  0.00    -0.039 Na 
HETATM    2  O   UNL     2      -8.432   6.299  70.917  1.00  0.00    -0.128 OA 
HETATM    3  C   UNL     2      -9.582   6.938  70.338  1.00  0.00    -0.169 C  
HETATM    4  H   UNL     2      -8.665   5.972  71.778  1.00  0.00     0.000 HD 
ENDROOT
BRANCH   3   5
HETATM    5  C   UNL     2      -9.208   7.464  68.954  1.00  0.00    -0.142 C  
BRANCH   5   6
HETATM    6  C   UNL     2      -9.010   6.342  67.948  1.00  0.00    -0.114 C  
HETATM    7  C   UNL     2     -10.272   6.196  67.089  1.00  0.00    -0.199 C  
HETATM    8  O   UNL     2     -10.513   5.034  66.698  1.00  0.00    -0.264 OA 
HETATM    9  O   UNL     2     -10.942   7.278  66.965  1.00  0.00    -0.358 OA 
ENDBRANCH   5   6
ENDBRANCH   3   5
TORSDOF 2
ENDMDL
MODEL      235
REMARK 921   NORMALIZED FREE ENERGY PREDICTED BY IDOCK:   -1.18 KCAL/MOL
REMARK 922        TOTAL FREE ENERGY PREDICTED BY IDOCK:   -1.49 KCAL/MOL
REMARK 923 INTER-LIGAND FREE ENERGY PREDICTED BY IDOCK:   -1.62 KCAL/MOL
REMARK 924 INTRA-LIGAND FREE ENERGY PREDICTED BY IDOCK:    0.13 KCAL/MOL
REMARK 927      BINDING AFFINITY PREDICTED BY RF-SCORE:    0.00 PKD
ROOT
HETATM    1 NA   UNL     1     -10.566   4.999  62.801  1.00  0.00    -0.390 Na 
HETATM    2  O   UNL     2      -8.690   6.139  63.283  1.00  0.00    -0.332 OA 
HETATM    3  C   UNL     2      -8.384   5.586  64.574  1.00  0.00    -0.127 C  
HETATM    4  H   UNL     2      -8.675   7.087  63.344  1.00  0.00     0.000 HD 
ENDROOT
BRANCH   3   5
HETATM    5  C   UNL     2      -8.410   4.062  64.476  1.00  0.00    -0.099 C  
BRANCH   5   6
HETATM    6  C   UNL     2      -9.776   3.489  64.813  1.00  0.00    -0.165 C  
HETATM    7  C   UNL     2     -10.147   2.412  63.786  1.00  0.00    -0.139 C  
HETATM    8  O   UNL     2     -11.368   2.308  63.546  1.00  0.00    -0.279 OA 
HETATM    9  O   UNL     2      -9.137   1.829  63.260  1.00  0.00    -0.086 OA 
ENDBRANCH   5   6
ENDBRANCH   3   5
TORSDOF 2
ENDMDL
MODEL      236
REMARK 921   NORMALIZED FREE ENERGY PREDICTED BY IDOCK:   -1.18 KCAL/MOL
REMARK 922        TOTAL FREE ENERGY PREDICTED BY IDOCK:   -1.49 KCAL/MOL
REMARK 923 INTER-LIGAND FREE ENERGY PREDICTED BY IDOCK:   -1.45 KCAL/MOL
REMARK 924 INTRA-LIGAND FREE ENERGY PREDICTED BY IDOCK:   -0.04 KCAL/MOL
REMARK 927      BINDING AFFINITY PREDICTED BY RF-SCORE:    0.00 PKD
ROOT
HETATM    1 NA   UNL     1      -6.749  13.488  69.394  1.00  0.00    -0.088 Na 
HETATM    2  O   UNL     2      -7.172  11.382  70.056  1.00  0.00    -0.385 OA 
HETATM    3  C   UNL     2      -8.277  11.064  69.194  1.00  0.00    -0.045 C  
HETATM    4  H   UNL     2      -7.411  11.171  70.951  1.00  0.00     0.000 HD 
ENDROOT
BRANCH   3   5
HETATM    5  C   UNL     2      -7.894  11.404  67.756  1.00  0.00    -0.117 C  
BRANCH   5   6
HETATM    6  C   UNL     2      -9.041  12.045  66.993  1.00  0.00    -0.191 C  
HETATM    7  C   UNL     2      -9.549  11.073  65.920  1.00  0.00    -0.218 C  
HETATM    8  O   UNL     2      -9.996  11.613  64.886  1.00  0.00    -0.243 OA 
HETATM    9  O   UNL     2      -9.364   9.841  66.209  1.00  0.00    -0.161 OA 
ENDBRANCH   5   6
ENDBRANCH   3   5
TORSDOF 2
ENDMDL
MODEL      237
REMARK 921   NORMALIZED FREE ENERGY PREDICTED BY IDOCK:   -1.17 KCAL/MOL
REMARK 922        TOTAL FREE ENERGY PREDICTED BY IDOCK:   -1.48 KCAL/MOL
REMARK 923 INTER-LIGAND FREE ENERGY PREDICTED BY IDOCK:   -1.38 KCAL/MOL
REMARK 924 INTRA-LIGAND FREE ENERGY PREDICTED BY IDOCK:   -0.09 KCAL/MOL
REMARK 927      BINDING AFFINITY PREDICTED BY RF-SCORE:    0.00 PKD
ROOT
HETATM    1 NA   UNL     1      -6.886   7.740  63.627  1.00  0.00    -0.055 Na 
HETATM    2  O   UNL     2      -8.833   7.758  64.749  1.00  0.00    -0.373 OA 
HETATM    3  C   UNL     2      -8.469   8.576  65.873  1.00  0.00    -0.152 C  
HETATM    4  H   UNL     2      -9.240   6.961  65.070  1.00  0.00     0.000 HD 
ENDROOT
BRANCH   3   5
HETATM    5  C   UNL     2      -7.814   9.856  65.359  1.00  0.00    -0.132 C  
BRANCH   5   6
HETATM    6  C   UNL     2      -6.403  10.034  65.895  1.00  0.00    -0.091 C  
HETATM    7  C   UNL     2      -6.285  11.397  66.588  1.00  0.00    -0.137 C  
HETATM    8  O   UNL     2      -5.158  11.930  66.518  1.00  0.00    -0.305 OA 
HETATM    9  O   UNL     2      -7.389  11.829  67.068  1.00  0.00    -0.139 OA 
ENDBRANCH   5   6
ENDBRANCH   3   5
TORSDOF 2
ENDMDL
MODEL      238
REMARK 921   NORMALIZED FREE ENERGY PREDICTED BY IDOCK:   -1.16 KCAL/MOL
REMARK 922        TOTAL FREE ENERGY PREDICTED BY IDOCK:   -1.47 KCAL/MOL
REMARK 923 INTER-LIGAND FREE ENERGY PREDICTED BY IDOCK:   -1.40 KCAL/MOL
REMARK 924 INTRA-LIGAND FREE ENERGY PREDICTED BY IDOCK:   -0.07 KCAL/MOL
REMARK 927      BINDING AFFINITY PREDICTED BY RF-SCORE:    0.00 PKD
ROOT
HETATM    1 NA   UNL     1     -12.099   9.558  68.435  1.00  0.00    -0.408 Na 
HETATM    2  O   UNL     2     -10.637  10.427  66.966  1.00  0.00    -0.243 OA 
HETATM    3  C   UNL     2      -9.413   9.864  67.464  1.00  0.00    -0.151 C  
HETATM    4  H   UNL     2     -10.522  11.365  66.859  1.00  0.00     0.000 HD 
ENDROOT
BRANCH   3   5
HETATM    5  C   UNL     2      -9.598   8.358  67.635  1.00  0.00    -0.188 C  
BRANCH   5   6
HETATM    6  C   UNL     2      -8.294   7.596  67.459  1.00  0.00    -0.120 C  
HETATM    7  C   UNL     2      -7.661   7.339  68.833  1.00  0.00    -0.116 C  
HETATM    8  O   UNL     2      -6.413   7.310  68.842  1.00  0.00    -0.037 OA 
HETATM    9  O   UNL     2      -8.509   7.273  69.788  1.00  0.00    -0.133 OA 
ENDBRANCH   5   6
ENDBRANCH   3   5
TORSDOF 2
ENDMDL
MODEL      239
REMARK 921   NORMALIZED FREE ENERGY PREDICTED BY IDOCK:   -1.12 KCAL/MOL
REMARK 922        TOTAL FREE ENERGY PREDICTED BY IDOCK:   -1.42 KCAL/MOL
REMARK 923 INTER-LIGAND FREE ENERGY PREDICTED BY IDOCK:   -1.04 KCAL/MOL
REMARK 924 INTRA-LIGAND FREE ENERGY PREDICTED BY IDOCK:   -0.38 KCAL/MOL
REMARK 927      BINDING AFFINITY PREDICTED BY RF-SCORE:    0.00 PKD
ROOT
HETATM    1 NA   UNL     1     -10.222   4.880  69.313  1.00  0.00    -0.147 Na 
HETATM    2  O   UNL     2     -10.770   5.285  71.455  1.00  0.00    -0.211 OA 
HETATM    3  C   UNL     2      -9.632   4.711  72.119  1.00  0.00    -0.151 C  
HETATM    4  H   UNL     2     -11.562   4.940  71.849  1.00  0.00     0.000 HD 
ENDROOT
BRANCH   3   5
HETATM    5  C   UNL     2      -8.359   5.267  71.485  1.00  0.00    -0.121 C  
BRANCH   5   6
HETATM    6  C   UNL     2      -8.052   6.678  71.957  1.00  0.00    -0.102 C  
HETATM    7  C   UNL     2      -8.100   7.640  70.763  1.00  0.00    -0.103 C  
HETATM    8  O   UNL     2      -7.321   8.613  70.837  1.00  0.00    -0.059 OA 
HETATM    9  O   UNL     2      -8.878   7.257  69.823  1.00  0.00    -0.141 OA 
ENDBRANCH   5   6
ENDBRANCH   3   5
TORSDOF 2
ENDMDL
MODEL      240
REMARK 921   NORMALIZED FREE ENERGY PREDICTED BY IDOCK:   -1.09 KCAL/MOL
REMARK 922        TOTAL FREE ENERGY PREDICTED BY IDOCK:   -1.38 KCAL/MOL
REMARK 923 INTER-LIGAND FREE ENERGY PREDICTED BY IDOCK:   -1.12 KCAL/MOL
REMARK 924 INTRA-LIGAND FREE ENERGY PREDICTED BY IDOCK:   -0.27 KCAL/MOL
REMARK 927      BINDING AFFINITY PREDICTED BY RF-SCORE:    0.00 PKD
ROOT
HETATM    1 NA   UNL     1     -11.187   7.811  71.187  1.00  0.00    -0.238 Na 
HETATM    2  O   UNL     2     -10.227   8.411  69.246  1.00  0.00    -0.198 OA 
HETATM    3  C   UNL     2      -9.210   9.302  69.732  1.00  0.00    -0.181 C  
HETATM    4  H   UNL     2     -10.712   8.848  68.555  1.00  0.00     0.000 HD 
ENDROOT
BRANCH   3   5
HETATM    5  C   UNL     2      -8.431   8.601  70.842  1.00  0.00    -0.195 C  
BRANCH   5   6
HETATM    6  C   UNL     2      -7.186   7.904  70.318  1.00  0.00    -0.057 C  
HETATM    7  C   UNL     2      -7.359   6.384  70.441  1.00  0.00    -0.089 C  
HETATM    8  O   UNL     2      -6.305   5.747  70.648  1.00  0.00    -0.029 OA 
HETATM    9  O   UNL     2      -8.578   5.998  70.396  1.00  0.00    -0.129 OA 
ENDBRANCH   5   6
ENDBRANCH   3   5
TORSDOF 2
ENDMDL
MODEL      241
REMARK 921   NORMALIZED FREE ENERGY PREDICTED BY IDOCK:   -1.07 KCAL/MOL
REMARK 922        TOTAL FREE ENERGY PREDICTED BY IDOCK:   -1.37 KCAL/MOL
REMARK 923 INTER-LIGAND FREE ENERGY PREDICTED BY IDOCK:   -1.02 KCAL/MOL
REMARK 924 INTRA-LIGAND FREE ENERGY PREDICTED BY IDOCK:   -0.35 KCAL/MOL
REMARK 927      BINDING AFFINITY PREDICTED BY RF-SCORE:    0.00 PKD
ROOT
HETATM    1 NA   UNL     1      -5.741   9.969  67.140  1.00  0.00    -0.042 Na 
HETATM    2  O   UNL     2      -5.684  11.229  65.280  1.00  0.00    -0.479 OA 
HETATM    3  C   UNL     2      -6.115  10.263  64.308  1.00  0.00    -0.121 C  
HETATM    4  H   UNL     2      -4.885  11.639  64.970  1.00  0.00     0.000 HD 
ENDROOT
BRANCH   3   5
HETATM    5  C   UNL     2      -7.400   9.603  64.805  1.00  0.00    -0.119 C  
BRANCH   5   6
HETATM    6  C   UNL     2      -7.451   8.122  64.469  1.00  0.00    -0.102 C  
HETATM    7  C   UNL     2      -6.847   7.313  65.624  1.00  0.00    -0.056 C  
HETATM    8  O   UNL     2      -6.272   6.257  65.286  1.00  0.00    -0.032 OA 
HETATM    9  O   UNL     2      -6.950   7.884  66.764  1.00  0.00    -0.069 OA 
ENDBRANCH   5   6
ENDBRANCH   3   5
TORSDOF 2
ENDMDL
MODEL      242
REMARK 921   NORMALIZED FREE ENERGY PREDICTED BY IDOCK:   -1.00 KCAL/MOL
REMARK 922        TOTAL FREE ENERGY PREDICTED BY IDOCK:   -1.28 KCAL/MOL
REMARK 923 INTER-LIGAND FREE ENERGY PREDICTED BY IDOCK:   -0.93 KCAL/MOL
REMARK 924 INTRA-LIGAND FREE ENERGY PREDICTED BY IDOCK:   -0.36 KCAL/MOL
REMARK 927      BINDING AFFINITY PREDICTED BY RF-SCORE:    0.00 PKD
ROOT
HETATM    1 NA   UNL     1      -5.745  12.019  68.118  1.00  0.00    -0.046 Na 
HETATM    2  O   UNL     2      -6.904  11.385  66.300  1.00  0.00    -0.333 OA 
HETATM    3  C   UNL     2      -6.275  10.121  66.028  1.00  0.00    -0.086 C  
HETATM    4  H   UNL     2      -6.915  11.899  65.501  1.00  0.00     0.000 HD 
ENDROOT
BRANCH   3   5
HETATM    5  C   UNL     2      -6.257   9.294  67.312  1.00  0.00    -0.058 C  
BRANCH   5   6
HETATM    6  C   UNL     2      -7.657   8.965  67.801  1.00  0.00    -0.093 C  
HETATM    7  C   UNL     2      -7.804   9.399  69.265  1.00  0.00    -0.085 C  
HETATM    8  O   UNL     2      -8.575   8.695  69.951  1.00  0.00    -0.124 OA 
HETATM    9  O   UNL     2      -7.045  10.375  69.593  1.00  0.00    -0.102 OA 
ENDBRANCH   5   6
ENDBRANCH   3   5
TORSDOF 2
ENDMDL
MODEL      243
REMARK 921   NORMALIZED FREE ENERGY PREDICTED BY IDOCK:   -0.97 KCAL/MOL
REMARK 922        TOTAL FREE ENERGY PREDICTED BY IDOCK:   -1.25 KCAL/MOL
REMARK 923 INTER-LIGAND FREE ENERGY PREDICTED BY IDOCK:   -1.20 KCAL/MOL
REMARK 924 INTRA-LIGAND FREE ENERGY PREDICTED BY IDOCK:   -0.05 KCAL/MOL
REMARK 927      BINDING AFFINITY PREDICTED BY RF-SCORE:    0.00 PKD
ROOT
HETATM    1 NA   UNL     1      -6.531  13.617  69.573  1.00  0.00    -0.083 Na 
HETATM    2  O   UNL     2      -6.611  11.584  70.526  1.00  0.00    -0.513 OA 
HETATM    3  C   UNL     2      -7.121  10.810  69.427  1.00  0.00    -0.122 C  
HETATM    4  H   UNL     2      -7.137  11.405  71.296  1.00  0.00     0.000 HD 
ENDROOT
BRANCH   3   5
HETATM    5  C   UNL     2      -6.275  11.097  68.188  1.00  0.00    -0.049 C  
BRANCH   5   6
HETATM    6  C   UNL     2      -7.121  11.217  66.931  1.00  0.00    -0.131 C  
HETATM    7  C   UNL     2      -6.800  10.054  65.984  1.00  0.00    -0.105 C  
HETATM    8  O   UNL     2      -6.903  10.318  64.768  1.00  0.00    -0.129 OA 
HETATM    9  O   UNL     2      -6.390   8.999  66.582  1.00  0.00    -0.064 OA 
ENDBRANCH   5   6
ENDBRANCH   3   5
TORSDOF 2
ENDMDL
MODEL      244
REMARK 921   NORMALIZED FREE ENERGY PREDICTED BY IDOCK:   -0.97 KCAL/MOL
REMARK 922        TOTAL FREE ENERGY PREDICTED BY IDOCK:   -1.25 KCAL/MOL
REMARK 923 INTER-LIGAND FREE ENERGY PREDICTED BY IDOCK:   -1.20 KCAL/MOL
REMARK 924 INTRA-LIGAND FREE ENERGY PREDICTED BY IDOCK:   -0.05 KCAL/MOL
REMARK 927      BINDING AFFINITY PREDICTED BY RF-SCORE:    0.00 PKD
ROOT
HETATM    1 NA   UNL     1     -10.341  12.446  66.919  1.00  0.00    -0.211 Na 
HETATM    2  O   UNL     2      -8.227  12.111  67.603  1.00  0.00    -0.143 OA 
HETATM    3  C   UNL     2      -8.343  10.783  68.138  1.00  0.00    -0.120 C  
HETATM    4  H   UNL     2      -7.811  12.667  68.252  1.00  0.00     0.000 HD 
ENDROOT
BRANCH   3   5
HETATM    5  C   UNL     2      -9.013   9.889  67.097  1.00  0.00    -0.150 C  
BRANCH   5   6
HETATM    6  C   UNL     2      -8.132   8.718  66.693  1.00  0.00    -0.103 C  
HETATM    7  C   UNL     2      -8.956   7.425  66.716  1.00  0.00    -0.141 C  
HETATM    8  O   UNL     2      -8.317   6.395  67.017  1.00  0.00    -0.112 OA 
HETATM    9  O   UNL     2     -10.205   7.604  66.502  1.00  0.00    -0.221 OA 
ENDBRANCH   5   6
ENDBRANCH   3   5
TORSDOF 2
ENDMDL
MODEL      245
REMARK 921   NORMALIZED FREE ENERGY PREDICTED BY IDOCK:   -0.94 KCAL/MOL
REMARK 922        TOTAL FREE ENERGY PREDICTED BY IDOCK:   -1.22 KCAL/MOL
REMARK 923 INTER-LIGAND FREE ENERGY PREDICTED BY IDOCK:   -1.15 KCAL/MOL
REMARK 924 INTRA-LIGAND FREE ENERGY PREDICTED BY IDOCK:   -0.07 KCAL/MOL
REMARK 927      BINDING AFFINITY PREDICTED BY RF-SCORE:    0.00 PKD
ROOT
HETATM    1 NA   UNL     1      -9.469   2.902  70.672  1.00  0.00    -0.084 Na 
HETATM    2  O   UNL     2      -9.144   2.660  68.462  1.00  0.00    -0.127 OA 
HETATM    3  C   UNL     2      -9.661   3.916  67.992  1.00  0.00    -0.129 C  
HETATM    4  H   UNL     2      -9.547   1.958  67.964  1.00  0.00     0.000 HD 
ENDROOT
BRANCH   3   5
HETATM    5  C   UNL     2      -9.014   5.045  68.791  1.00  0.00    -0.126 C  
BRANCH   5   6
HETATM    6  C   UNL     2      -8.680   6.246  67.921  1.00  0.00    -0.114 C  
HETATM    7  C   UNL     2      -9.848   7.240  67.950  1.00  0.00    -0.144 C  
HETATM    8  O   UNL     2     -10.010   7.896  66.899  1.00  0.00    -0.212 OA 
HETATM    9  O   UNL     2     -10.542   7.191  69.023  1.00  0.00    -0.209 OA 
ENDBRANCH   5   6
ENDBRANCH   3   5
TORSDOF 2
ENDMDL
MODEL      246
REMARK 921   NORMALIZED FREE ENERGY PREDICTED BY IDOCK:   -0.91 KCAL/MOL
REMARK 922        TOTAL FREE ENERGY PREDICTED BY IDOCK:   -1.18 KCAL/MOL
REMARK 923 INTER-LIGAND FREE ENERGY PREDICTED BY IDOCK:   -1.09 KCAL/MOL
REMARK 924 INTRA-LIGAND FREE ENERGY PREDICTED BY IDOCK:   -0.09 KCAL/MOL
REMARK 927      BINDING AFFINITY PREDICTED BY RF-SCORE:    0.00 PKD
ROOT
HETATM    1 NA   UNL     1      -6.871   5.485  64.324  1.00  0.00    -0.038 Na 
HETATM    2  O   UNL     2      -9.107   5.566  64.528  1.00  0.00    -0.362 OA 
HETATM    3  C   UNL     2      -9.346   4.312  65.187  1.00  0.00    -0.165 C  
HETATM    4  H   UNL     2      -9.683   5.630  63.775  1.00  0.00     0.000 HD 
ENDROOT
BRANCH   3   5
HETATM    5  C   UNL     2      -8.421   4.208  66.398  1.00  0.00    -0.108 C  
BRANCH   5   6
HETATM    6  C   UNL     2      -8.144   5.564  67.026  1.00  0.00    -0.101 C  
HETATM    7  C   UNL     2      -8.629   5.563  68.481  1.00  0.00    -0.102 C  
HETATM    8  O   UNL     2      -9.035   6.666  68.903  1.00  0.00    -0.130 OA 
HETATM    9  O   UNL     2      -8.623   4.407  69.028  1.00  0.00    -0.081 OA 
ENDBRANCH   5   6
ENDBRANCH   3   5
TORSDOF 2
ENDMDL
MODEL      247
REMARK 921   NORMALIZED FREE ENERGY PREDICTED BY IDOCK:    0.42 KCAL/MOL
REMARK 922        TOTAL FREE ENERGY PREDICTED BY IDOCK:    0.30 KCAL/MOL
REMARK 923 INTER-LIGAND FREE ENERGY PREDICTED BY IDOCK:   -0.81 KCAL/MOL
REMARK 924 INTRA-LIGAND FREE ENERGY PREDICTED BY IDOCK:    1.11 KCAL/MOL
REMARK 927      BINDING AFFINITY PREDICTED BY RF-SCORE:    0.00 PKD
ROOT
HETATM    1 NA   UNL     1      -5.804  12.368  68.119  1.00  0.00    -0.051 Na 
HETATM    2  O   UNL     2      -7.230  11.920  66.441  1.00  0.00    -0.373 OA 
HETATM    3  C   UNL     2      -7.279  10.486  66.527  1.00  0.00    -0.124 C  
HETATM    4  H   UNL     2      -7.048  12.167  65.542  1.00  0.00     0.000 HD 
ENDROOT
BRANCH   3   5
HETATM    5  C   UNL     2      -7.571  10.089  67.972  1.00  0.00    -0.088 C  
BRANCH   5   6
HETATM    6  C   UNL     2      -6.436   9.287  68.587  1.00  0.00    -0.053 C  
HETATM    7  C   UNL     2      -6.132   8.070  67.705  1.00  0.00    -0.047 C  
HETATM    8  O   UNL     2      -5.726   7.060  68.319  1.00  0.00    -0.019 OA 
HETATM    9  O   UNL     2      -6.419   8.241  66.471  1.00  0.00    -0.053 OA 
ENDBRANCH   5   6
ENDBRANCH   3   5
TORSDOF 2
ENDMDL
