MODEL        1
REMARK 921   NORMALIZED FREE ENERGY PREDICTED BY IDOCK:   -7.08 KCAL/MOL
REMARK 922        TOTAL FREE ENERGY PREDICTED BY IDOCK:   -7.17 KCAL/MOL
REMARK 923 INTER-LIGAND FREE ENERGY PREDICTED BY IDOCK:   -7.49 KCAL/MOL
REMARK 924 INTRA-LIGAND FREE ENERGY PREDICTED BY IDOCK:    0.33 KCAL/MOL
REMARK 927      BINDING AFFINITY PREDICTED BY RF-SCORE:    0.00 PKD
ROOT
HETATM    1 NA   UNL     1     -11.125  20.360  69.503  1.00  0.00    -0.608 Na 
HETATM    2  O   UNL     2     -10.682  19.126  67.050  1.00  0.00    -0.442 OA 
HETATM    3  C   UNL     2     -10.328  18.041  67.767  1.00  0.00    -0.393 C  
HETATM    4  O   UNL     2      -9.492  18.163  68.642  1.00  0.00    -0.315 OA 
HETATM    5  C   UNL     2     -11.010  16.727  67.460  1.00  0.00    -0.134 C  
ENDROOT
BRANCH   5   6
HETATM    6  N   UNL     2     -10.579  15.507  68.232  1.00  0.00    -0.249 N  
HETATM    7  C   UNL     2      -9.134  15.278  68.050  1.00  0.00    -0.176 C  
HETATM    8  C   UNL     2      -8.880  14.910  66.597  1.00  0.00    -0.254 C  
HETATM    9  N   UNL     2      -9.924  13.945  66.211  1.00  0.00    -0.298 N  
HETATM   10  C   UNL     2     -10.569  14.180  64.883  1.00  0.00    -0.430 C  
HETATM   11  C   UNL     2     -12.033  14.498  65.063  1.00  0.00    -0.399 C  
HETATM   12  O   UNL     2     -12.639  14.120  66.201  1.00  0.00    -0.465 OA 
HETATM   13  O   UNL     2     -12.660  15.083  64.197  1.00  0.00    -0.770 OA 
HETATM   14 FE   UNL     2     -11.379  13.769  67.523  1.00  0.00    -0.250 Fe 
HETATM   15  O   UNL     2     -11.822  12.023  67.115  1.00  0.00    -0.565 OA 
HETATM   16  O   UNL     2     -12.506  14.047  69.005  1.00  0.00    -0.214 OA 
HETATM   17  C   UNL     2     -12.101  14.888  69.960  1.00  0.00    -0.338 C  
HETATM   18  C   UNL     2     -10.742  11.591  66.405  1.00  0.00    -0.273 C  
HETATM   19  C   UNL     2      -9.508  12.516  66.300  1.00  0.00    -0.210 C  
HETATM   20  O   UNL     2     -10.769  10.514  65.833  1.00  0.00    -0.122 OA 
HETATM   21  O   UNL     2     -12.667  14.939  71.042  1.00  0.00    -0.303 OA 
HETATM   22  C   UNL     2     -10.885  15.670  69.677  1.00  0.00    -0.287 C  
ENDBRANCH   5   6
TORSDOF 1
ENDMDL
MODEL        2
REMARK 921   NORMALIZED FREE ENERGY PREDICTED BY IDOCK:   -7.05 KCAL/MOL
REMARK 922        TOTAL FREE ENERGY PREDICTED BY IDOCK:   -7.13 KCAL/MOL
REMARK 923 INTER-LIGAND FREE ENERGY PREDICTED BY IDOCK:   -7.45 KCAL/MOL
REMARK 924 INTRA-LIGAND FREE ENERGY PREDICTED BY IDOCK:    0.32 KCAL/MOL
REMARK 927      BINDING AFFINITY PREDICTED BY RF-SCORE:    0.00 PKD
ROOT
HETATM    1 NA   UNL     1     -14.052   9.862  69.769  1.00  0.00    -0.641 Na 
HETATM    2  O   UNL     2     -12.215  11.687  70.785  1.00  0.00    -0.375 OA 
HETATM    3  C   UNL     2     -11.676  11.688  69.550  1.00  0.00    -0.344 C  
HETATM    4  O   UNL     2     -11.384  10.625  69.036  1.00  0.00    -0.247 OA 
HETATM    5  C   UNL     2     -11.483  13.016  68.854  1.00  0.00    -0.299 C  
ENDROOT
BRANCH   5   6
HETATM    6  N   UNL     2     -10.838  13.016  67.492  1.00  0.00    -0.243 N  
HETATM    7  C   UNL     2      -9.475  12.459  67.578  1.00  0.00    -0.187 C  
HETATM    8  C   UNL     2      -8.615  13.406  68.400  1.00  0.00    -0.134 C  
HETATM    9  N   UNL     2      -8.921  14.772  67.940  1.00  0.00    -0.168 N  
HETATM   10  C   UNL     2      -9.117  15.791  69.015  1.00  0.00    -0.245 C  
HETATM   11  C   UNL     2     -10.535  16.309  68.990  1.00  0.00    -0.276 C  
HETATM   12  O   UNL     2     -11.249  16.177  67.859  1.00  0.00    -0.325 OA 
HETATM   13  O   UNL     2     -11.028  16.840  69.970  1.00  0.00    -0.275 OA 
HETATM   14 FE   UNL     2     -10.488  14.888  66.757  1.00  0.00    -0.254 Fe 
HETATM   15  O   UNL     2      -9.939  16.384  65.825  1.00  0.00    -0.399 OA 
HETATM   16  O   UNL     2     -12.043  14.458  65.785  1.00  0.00    -0.385 OA 
HETATM   17  C   UNL     2     -12.401  13.175  65.699  1.00  0.00    -0.461 C  
HETATM   18  C   UNL     2      -8.612  16.464  66.127  1.00  0.00    -0.308 C  
HETATM   19  C   UNL     2      -7.967  15.312  66.930  1.00  0.00    -0.159 C  
HETATM   20  O   UNL     2      -7.962  17.444  65.803  1.00  0.00    -0.538 OA 
HETATM   21  O   UNL     2     -13.254  12.807  64.906  1.00  0.00    -0.808 OA 
HETATM   22  C   UNL     2     -11.647  12.222  66.532  1.00  0.00    -0.377 C  
ENDBRANCH   5   6
TORSDOF 1
ENDMDL
MODEL        3
REMARK 921   NORMALIZED FREE ENERGY PREDICTED BY IDOCK:   -6.64 KCAL/MOL
REMARK 922        TOTAL FREE ENERGY PREDICTED BY IDOCK:   -6.70 KCAL/MOL
REMARK 923 INTER-LIGAND FREE ENERGY PREDICTED BY IDOCK:   -7.02 KCAL/MOL
REMARK 924 INTRA-LIGAND FREE ENERGY PREDICTED BY IDOCK:    0.32 KCAL/MOL
REMARK 927      BINDING AFFINITY PREDICTED BY RF-SCORE:    0.00 PKD
ROOT
HETATM    1 NA   UNL     1     -11.212  19.808  67.100  1.00  0.00    -0.421 Na 
HETATM    2  O   UNL     2     -10.503  17.762  65.354  1.00  0.00    -0.641 OA 
HETATM    3  C   UNL     2     -10.203  17.051  66.459  1.00  0.00    -0.320 C  
HETATM    4  O   UNL     2      -9.462  17.541  67.290  1.00  0.00    -0.246 OA 
HETATM    5  C   UNL     2     -10.828  15.684  66.622  1.00  0.00    -0.266 C  
ENDROOT
BRANCH   5   6
HETATM    6  N   UNL     2     -10.456  14.874  67.836  1.00  0.00    -0.248 N  
HETATM    7  C   UNL     2      -9.033  14.488  67.770  1.00  0.00    -0.190 C  
HETATM    8  C   UNL     2      -8.843  13.528  66.607  1.00  0.00    -0.062 C  
HETATM    9  N   UNL     2      -9.958  12.566  66.660  1.00  0.00    -0.231 N  
HETATM   10  C   UNL     2     -10.622  12.267  65.354  1.00  0.00    -0.274 C  
HETATM   11  C   UNL     2     -12.057  12.733  65.381  1.00  0.00    -0.462 C  
HETATM   12  O   UNL     2     -12.655  12.910  66.571  1.00  0.00    -0.294 OA 
HETATM   13  O   UNL     2     -12.669  12.942  64.347  1.00  0.00    -0.654 OA 
HETATM   14 FE   UNL     2     -11.385  13.058  67.920  1.00  0.00    -0.216 Fe 
HETATM   15  O   UNL     2     -11.950  11.338  68.283  1.00  0.00    -0.582 OA 
HETATM   16  O   UNL     2     -12.451  14.011  69.146  1.00  0.00    -0.238 OA 
HETATM   17  C   UNL     2     -11.967  15.144  69.660  1.00  0.00    -0.329 C  
HETATM   18  C   UNL     2     -10.920  10.574  67.823  1.00  0.00    -0.313 C  
HETATM   19  C   UNL     2      -9.632  11.281  67.342  1.00  0.00    -0.169 C  
HETATM   20  O   UNL     2     -11.032   9.361  67.756  1.00  0.00    -0.219 OA 
HETATM   21  O   UNL     2     -12.498  15.683  70.619  1.00  0.00    -0.416 OA 
HETATM   22  C   UNL     2     -10.711  15.648  69.077  1.00  0.00    -0.236 C  
ENDBRANCH   5   6
TORSDOF 1
ENDMDL
MODEL        4
REMARK 921   NORMALIZED FREE ENERGY PREDICTED BY IDOCK:   -6.61 KCAL/MOL
REMARK 922        TOTAL FREE ENERGY PREDICTED BY IDOCK:   -6.67 KCAL/MOL
REMARK 923 INTER-LIGAND FREE ENERGY PREDICTED BY IDOCK:   -7.09 KCAL/MOL
REMARK 924 INTRA-LIGAND FREE ENERGY PREDICTED BY IDOCK:    0.42 KCAL/MOL
REMARK 927      BINDING AFFINITY PREDICTED BY RF-SCORE:    0.00 PKD
ROOT
HETATM    1 NA   UNL     1     -12.608  12.457  68.540  1.00  0.00    -0.265 Na 
HETATM    2  O   UNL     2     -11.247  14.573  69.726  1.00  0.00    -0.255 OA 
HETATM    3  C   UNL     2     -10.605  14.696  68.547  1.00  0.00    -0.245 C  
HETATM    4  O   UNL     2     -10.073  13.716  68.063  1.00  0.00    -0.235 OA 
HETATM    5  C   UNL     2     -10.600  16.050  67.873  1.00  0.00    -0.301 C  
ENDROOT
BRANCH   5   6
HETATM    6  N   UNL     2      -9.843  16.195  66.579  1.00  0.00    -0.252 N  
HETATM    7  C   UNL     2      -8.487  15.632  66.721  1.00  0.00    -0.272 C  
HETATM    8  C   UNL     2      -7.707  16.486  67.708  1.00  0.00    -0.152 C  
HETATM    9  N   UNL     2      -7.986  17.893  67.371  1.00  0.00    -0.211 N  
HETATM   10  C   UNL     2      -8.282  18.792  68.527  1.00  0.00    -0.346 C  
HETATM   11  C   UNL     2      -9.697  19.310  68.437  1.00  0.00    -0.403 C  
HETATM   12  O   UNL     2     -10.312  19.299  67.243  1.00  0.00    -0.377 OA 
HETATM   13  O   UNL     2     -10.275  19.733  69.423  1.00  0.00    -0.347 OA 
HETATM   14 FE   UNL     2      -9.449  18.134  66.079  1.00  0.00    -0.277 Fe 
HETATM   15  O   UNL     2      -8.837  19.721  65.360  1.00  0.00    -0.122 OA 
HETATM   16  O   UNL     2     -10.913  17.810  64.939  1.00  0.00    -0.866 OA 
HETATM   17  C   UNL     2     -11.251  16.543  64.687  1.00  0.00    -0.115 C  
HETATM   18  C   UNL     2      -7.542  19.768  65.780  1.00  0.00    -0.289 C  
HETATM   19  C   UNL     2      -6.955  18.537  66.508  1.00  0.00    -0.213 C  
HETATM   20  O   UNL     2      -6.875  20.777  65.618  1.00  0.00    -0.175 OA 
HETATM   21  O   UNL     2     -12.031  16.261  63.790  1.00  0.00    -0.973 OA 
HETATM   22  C   UNL     2     -10.561  15.507  65.476  1.00  0.00    -0.396 C  
ENDBRANCH   5   6
TORSDOF 1
ENDMDL
MODEL        5
REMARK 921   NORMALIZED FREE ENERGY PREDICTED BY IDOCK:   -6.52 KCAL/MOL
REMARK 922        TOTAL FREE ENERGY PREDICTED BY IDOCK:   -6.58 KCAL/MOL
REMARK 923 INTER-LIGAND FREE ENERGY PREDICTED BY IDOCK:   -6.93 KCAL/MOL
REMARK 924 INTRA-LIGAND FREE ENERGY PREDICTED BY IDOCK:    0.35 KCAL/MOL
REMARK 927      BINDING AFFINITY PREDICTED BY RF-SCORE:    0.00 PKD
ROOT
HETATM    1 NA   UNL     1     -11.842   7.386  66.955  1.00  0.00    -0.514 Na 
HETATM    2  O   UNL     2     -11.064   9.502  68.583  1.00  0.00    -0.121 OA 
HETATM    3  C   UNL     2     -10.652  10.100  67.448  1.00  0.00    -0.272 C  
HETATM    4  O   UNL     2      -9.909   9.492  66.700  1.00  0.00    -0.197 OA 
HETATM    5  C   UNL     2     -11.156  11.494  67.149  1.00  0.00    -0.297 C  
ENDROOT
BRANCH   5   6
HETATM    6  N   UNL     2     -10.657  12.176  65.902  1.00  0.00    -0.250 N  
HETATM    7  C   UNL     2      -9.182  12.202  65.896  1.00  0.00    -0.067 C  
HETATM    8  C   UNL     2      -8.707  13.098  67.028  1.00  0.00    -0.189 C  
HETATM    9  N   UNL     2      -9.555  14.304  67.005  1.00  0.00    -0.248 N  
HETATM   10  C   UNL     2     -10.061  14.769  68.332  1.00  0.00    -0.225 C  
HETATM   11  C   UNL     2     -11.566  14.668  68.380  1.00  0.00    -0.323 C  
HETATM   12  O   UNL     2     -12.247  14.631  67.222  1.00  0.00    -0.294 OA 
HETATM   13  O   UNL     2     -12.159  14.625  69.444  1.00  0.00    -0.306 OA 
HETATM   14 FE   UNL     2     -11.119  14.163  65.820  1.00  0.00    -0.291 Fe 
HETATM   15  O   UNL     2     -11.265  15.965  65.446  1.00  0.00    -0.224 OA 
HETATM   16  O   UNL     2     -12.443  13.488  64.665  1.00  0.00    -0.536 OA 
HETATM   17  C   UNL     2     -12.276  12.265  64.154  1.00  0.00    -0.446 C  
HETATM   18  C   UNL     2     -10.058  16.458  65.843  1.00  0.00    -0.347 C  
HETATM   19  C   UNL     2      -8.960  15.463  66.280  1.00  0.00    -0.306 C  
HETATM   20  O   UNL     2      -9.867  17.663  65.888  1.00  0.00    -0.516 OA 
HETATM   21  O   UNL     2     -12.969  11.863  63.232  1.00  0.00    -0.707 OA 
HETATM   22  C   UNL     2     -11.154  11.475  64.690  1.00  0.00    -0.250 C  
ENDBRANCH   5   6
TORSDOF 1
ENDMDL
MODEL        6
REMARK 921   NORMALIZED FREE ENERGY PREDICTED BY IDOCK:   -6.40 KCAL/MOL
REMARK 922        TOTAL FREE ENERGY PREDICTED BY IDOCK:   -6.45 KCAL/MOL
REMARK 923 INTER-LIGAND FREE ENERGY PREDICTED BY IDOCK:   -6.89 KCAL/MOL
REMARK 924 INTRA-LIGAND FREE ENERGY PREDICTED BY IDOCK:    0.44 KCAL/MOL
REMARK 927      BINDING AFFINITY PREDICTED BY RF-SCORE:    0.00 PKD
ROOT
HETATM    1 NA   UNL     1     -11.750   8.495  69.106  1.00  0.00    -0.437 Na 
HETATM    2  O   UNL     2     -10.813  10.874  70.199  1.00  0.00    -0.186 OA 
HETATM    3  C   UNL     2     -10.470  11.208  68.939  1.00  0.00    -0.207 C  
HETATM    4  O   UNL     2      -9.796  10.433  68.288  1.00  0.00    -0.149 OA 
HETATM    5  C   UNL     2     -10.965  12.527  68.388  1.00  0.00    -0.248 C  
ENDROOT
BRANCH   5   6
HETATM    6  N   UNL     2     -10.543  12.917  66.996  1.00  0.00    -0.251 N  
HETATM    7  C   UNL     2      -9.089  12.727  66.836  1.00  0.00    -0.221 C  
HETATM    8  C   UNL     2      -8.368  13.716  67.737  1.00  0.00    -0.181 C  
HETATM    9  N   UNL     2      -9.053  15.012  67.584  1.00  0.00    -0.179 N  
HETATM   10  C   UNL     2      -9.328  15.756  68.851  1.00  0.00    -0.228 C  
HETATM   11  C   UNL     2     -10.816  15.885  69.067  1.00  0.00    -0.266 C  
HETATM   12  O   UNL     2     -11.634  15.758  68.009  1.00  0.00    -0.321 OA 
HETATM   13  O   UNL     2     -11.273  16.102  70.176  1.00  0.00    -0.343 OA 
HETATM   14 FE   UNL     2     -10.757  14.909  66.607  1.00  0.00    -0.271 Fe 
HETATM   15  O   UNL     2     -10.720  16.628  65.934  1.00  0.00    -0.278 OA 
HETATM   16  O   UNL     2     -12.289  14.255  65.730  1.00  0.00    -0.426 OA 
HETATM   17  C   UNL     2     -12.342  12.955  65.432  1.00  0.00    -0.485 C  
HETATM   18  C   UNL     2      -9.421  16.999  66.113  1.00  0.00    -0.225 C  
HETATM   19  C   UNL     2      -8.411  15.939  66.608  1.00  0.00    -0.293 C  
HETATM   20  O   UNL     2      -9.075  18.154  65.923  1.00  0.00    -0.509 OA 
HETATM   21  O   UNL     2     -13.189  12.512  64.671  1.00  0.00    -0.848 OA 
HETATM   22  C   UNL     2     -11.271  12.108  65.985  1.00  0.00    -0.336 C  
ENDBRANCH   5   6
TORSDOF 1
ENDMDL
MODEL        7
REMARK 921   NORMALIZED FREE ENERGY PREDICTED BY IDOCK:   -6.30 KCAL/MOL
REMARK 922        TOTAL FREE ENERGY PREDICTED BY IDOCK:   -6.34 KCAL/MOL
REMARK 923 INTER-LIGAND FREE ENERGY PREDICTED BY IDOCK:   -7.47 KCAL/MOL
REMARK 924 INTRA-LIGAND FREE ENERGY PREDICTED BY IDOCK:    1.14 KCAL/MOL
REMARK 927      BINDING AFFINITY PREDICTED BY RF-SCORE:    0.00 PKD
ROOT
HETATM    1 NA   UNL     1     -11.907  15.349  63.211  1.00  0.00    -0.794 Na 
HETATM    2  O   UNL     2     -13.276  13.997  65.220  1.00  0.00    -0.782 OA 
HETATM    3  C   UNL     2     -12.092  13.946  65.862  1.00  0.00    -0.433 C  
HETATM    4  O   UNL     2     -11.122  13.511  65.271  1.00  0.00    -0.289 OA 
HETATM    5  C   UNL     2     -12.025  14.458  67.283  1.00  0.00    -0.377 C  
ENDROOT
BRANCH   5   6
HETATM    6  N   UNL     2     -10.711  14.357  68.012  1.00  0.00    -0.239 N  
HETATM    7  C   UNL     2     -10.782  15.096  69.287  1.00  0.00    -0.250 C  
HETATM    8  C   UNL     2     -10.928  16.578  68.981  1.00  0.00    -0.306 C  
HETATM    9  N   UNL     2      -9.977  16.888  67.899  1.00  0.00    -0.266 N  
HETATM   10  C   UNL     2     -10.507  17.741  66.792  1.00  0.00    -0.300 C  
HETATM   11  C   UNL     2     -10.516  16.966  65.496  1.00  0.00    -0.204 C  
HETATM   12  O   UNL     2      -9.713  15.896  65.380  1.00  0.00    -0.397 OA 
HETATM   13  O   UNL     2     -11.234  17.301  64.569  1.00  0.00    -1.083 OA 
HETATM   14 FE   UNL     2      -9.174  15.302  67.057  1.00  0.00    -0.177 Fe 
HETATM   15  O   UNL     2      -7.594  16.110  66.547  1.00  0.00    -0.233 OA 
HETATM   16  O   UNL     2      -8.796  13.523  66.569  1.00  0.00    -0.124 OA 
HETATM   17  C   UNL     2      -9.353  12.539  67.280  1.00  0.00    -0.190 C  
HETATM   18  C   UNL     2      -7.581  17.252  67.290  1.00  0.00    -0.180 C  
HETATM   19  C   UNL     2      -8.676  17.450  68.362  1.00  0.00    -0.271 C  
HETATM   20  O   UNL     2      -6.744  18.116  67.081  1.00  0.00    -0.182 OA 
HETATM   21  O   UNL     2      -8.976  11.383  67.166  1.00  0.00    -0.156 OA 
HETATM   22  C   UNL     2     -10.367  12.935  68.272  1.00  0.00    -0.244 C  
ENDBRANCH   5   6
TORSDOF 1
ENDMDL
MODEL        8
REMARK 921   NORMALIZED FREE ENERGY PREDICTED BY IDOCK:   -6.25 KCAL/MOL
REMARK 922        TOTAL FREE ENERGY PREDICTED BY IDOCK:   -6.29 KCAL/MOL
REMARK 923 INTER-LIGAND FREE ENERGY PREDICTED BY IDOCK:   -6.61 KCAL/MOL
REMARK 924 INTRA-LIGAND FREE ENERGY PREDICTED BY IDOCK:    0.32 KCAL/MOL
REMARK 927      BINDING AFFINITY PREDICTED BY RF-SCORE:    0.00 PKD
ROOT
HETATM    1 NA   UNL     1      -6.740  18.975  64.270  1.00  0.00    -0.213 Na 
HETATM    2  O   UNL     2      -6.302  17.073  66.251  1.00  0.00    -0.214 OA 
HETATM    3  C   UNL     2      -7.639  17.086  66.427  1.00  0.00    -0.315 C  
HETATM    4  O   UNL     2      -8.197  18.153  66.603  1.00  0.00    -0.244 OA 
HETATM    5  C   UNL     2      -8.381  15.771  66.374  1.00  0.00    -0.232 C  
ENDROOT
BRANCH   5   6
HETATM    6  N   UNL     2      -9.868  15.785  66.616  1.00  0.00    -0.242 N  
HETATM    7  C   UNL     2     -10.151  16.209  68.000  1.00  0.00    -0.242 C  
HETATM    8  C   UNL     2      -9.626  15.145  68.951  1.00  0.00    -0.223 C  
HETATM    9  N   UNL     2     -10.019  13.840  68.391  1.00  0.00    -0.228 N  
HETATM   10  C   UNL     2      -8.960  12.786  68.394  1.00  0.00    -0.120 C  
HETATM   11  C   UNL     2      -8.603  12.402  66.978  1.00  0.00    -0.191 C  
HETATM   12  O   UNL     2      -9.486  12.660  65.999  1.00  0.00    -0.225 OA 
HETATM   13  O   UNL     2      -7.538  11.866  66.722  1.00  0.00    -0.124 OA 
HETATM   14 FE   UNL     2     -10.721  13.932  66.556  1.00  0.00    -0.262 Fe 
HETATM   15  O   UNL     2     -11.809  12.444  66.671  1.00  0.00    -0.492 OA 
HETATM   16  O   UNL     2     -11.209  14.554  64.847  1.00  0.00    -0.354 OA 
HETATM   17  C   UNL     2     -11.158  15.867  64.613  1.00  0.00    -0.354 C  
HETATM   18  C   UNL     2     -11.891  12.228  68.014  1.00  0.00    -0.305 C  
HETATM   19  C   UNL     2     -11.269  13.270  68.970  1.00  0.00    -0.270 C  
HETATM   20  O   UNL     2     -12.409  11.211  68.446  1.00  0.00    -0.556 OA 
HETATM   21  O   UNL     2     -11.672  16.354  63.617  1.00  0.00    -0.933 OA 
HETATM   22  C   UNL     2     -10.543  16.700  65.660  1.00  0.00    -0.270 C  
ENDBRANCH   5   6
TORSDOF 1
ENDMDL
MODEL        9
REMARK 921   NORMALIZED FREE ENERGY PREDICTED BY IDOCK:   -6.23 KCAL/MOL
REMARK 922        TOTAL FREE ENERGY PREDICTED BY IDOCK:   -6.27 KCAL/MOL
REMARK 923 INTER-LIGAND FREE ENERGY PREDICTED BY IDOCK:   -6.60 KCAL/MOL
REMARK 924 INTRA-LIGAND FREE ENERGY PREDICTED BY IDOCK:    0.33 KCAL/MOL
REMARK 927      BINDING AFFINITY PREDICTED BY RF-SCORE:    0.00 PKD
ROOT
HETATM    1 NA   UNL     1     -14.392  13.888  71.492  1.00  0.00    -0.375 Na 
HETATM    2  O   UNL     2     -12.557  15.970  71.665  1.00  0.00    -0.448 OA 
HETATM    3  C   UNL     2     -11.842  15.292  70.746  1.00  0.00    -0.338 C  
HETATM    4  O   UNL     2     -11.583  14.121  70.950  1.00  0.00    -0.200 OA 
HETATM    5  C   UNL     2     -11.419  16.018  69.489  1.00  0.00    -0.326 C  
ENDROOT
BRANCH   5   6
HETATM    6  N   UNL     2     -10.583  15.269  68.484  1.00  0.00    -0.231 N  
HETATM    7  C   UNL     2      -9.355  14.763  69.126  1.00  0.00    -0.101 C  
HETATM    8  C   UNL     2      -8.490  15.948  69.524  1.00  0.00    -0.089 C  
HETATM    9  N   UNL     2      -8.501  16.886  68.388  1.00  0.00    -0.230 N  
HETATM   10  C   UNL     2      -8.694  18.327  68.737  1.00  0.00    -0.218 C  
HETATM   11  C   UNL     2      -9.991  18.835  68.154  1.00  0.00    -0.366 C  
HETATM   12  O   UNL     2     -10.536  18.173  67.120  1.00  0.00    -0.371 OA 
HETATM   13  O   UNL     2     -10.536  19.828  68.605  1.00  0.00    -0.385 OA 
HETATM   14 FE   UNL     2      -9.831  16.457  67.004  1.00  0.00    -0.222 Fe 
HETATM   15  O   UNL     2      -8.915  17.210  65.589  1.00  0.00    -0.491 OA 
HETATM   16  O   UNL     2     -11.268  15.672  66.074  1.00  0.00    -0.205 OA 
HETATM   17  C   UNL     2     -11.808  14.556  66.568  1.00  0.00    -0.352 C  
HETATM   18  C   UNL     2      -7.654  17.359  66.085  1.00  0.00    -0.286 C  
HETATM   19  C   UNL     2      -7.330  16.763  67.473  1.00  0.00    -0.153 C  
HETATM   20  O   UNL     2      -6.814  17.987  65.461  1.00  0.00    -0.442 OA 
HETATM   21  O   UNL     2     -12.579  13.877  65.906  1.00  0.00    -0.478 OA 
HETATM   22  C   UNL     2     -11.352  14.138  67.905  1.00  0.00    -0.294 C  
ENDBRANCH   5   6
TORSDOF 1
ENDMDL
MODEL       10
REMARK 921   NORMALIZED FREE ENERGY PREDICTED BY IDOCK:   -6.22 KCAL/MOL
REMARK 922        TOTAL FREE ENERGY PREDICTED BY IDOCK:   -6.26 KCAL/MOL
REMARK 923 INTER-LIGAND FREE ENERGY PREDICTED BY IDOCK:   -6.60 KCAL/MOL
REMARK 924 INTRA-LIGAND FREE ENERGY PREDICTED BY IDOCK:    0.34 KCAL/MOL
REMARK 927      BINDING AFFINITY PREDICTED BY RF-SCORE:    0.00 PKD
ROOT
HETATM    1 NA   UNL     1     -11.624   9.194  67.723  1.00  0.00    -0.517 Na 
HETATM    2  O   UNL     2      -9.922  10.894  66.327  1.00  0.00    -0.211 OA 
HETATM    3  C   UNL     2     -10.778  11.878  66.669  1.00  0.00    -0.256 C  
HETATM    4  O   UNL     2     -11.962  11.735  66.432  1.00  0.00    -0.515 OA 
HETATM    5  C   UNL     2     -10.221  13.104  67.357  1.00  0.00    -0.232 C  
ENDROOT
BRANCH   5   6
HETATM    6  N   UNL     2     -11.173  14.220  67.697  1.00  0.00    -0.292 N  
HETATM    7  C   UNL     2     -11.877  14.672  66.482  1.00  0.00    -0.304 C  
HETATM    8  C   UNL     2     -10.866  15.315  65.546  1.00  0.00    -0.372 C  
HETATM    9  N   UNL     2     -10.007  16.180  66.373  1.00  0.00    -0.281 N  
HETATM   10  C   UNL     2      -8.540  16.090  66.101  1.00  0.00    -0.280 C  
HETATM   11  C   UNL     2      -7.817  15.550  67.311  1.00  0.00    -0.204 C  
HETATM   12  O   UNL     2      -8.414  15.641  68.511  1.00  0.00    -0.161 OA 
HETATM   13  O   UNL     2      -6.714  15.042  67.209  1.00  0.00    -0.278 OA 
HETATM   14 FE   UNL     2     -10.239  15.929  68.309  1.00  0.00    -0.205 Fe 
HETATM   15  O   UNL     2      -9.759  17.642  68.805  1.00  0.00    -0.312 OA 
HETATM   16  O   UNL     2     -10.773  15.250  69.983  1.00  0.00    -0.266 OA 
HETATM   17  C   UNL     2     -11.732  14.321  70.012  1.00  0.00    -0.298 C  
HETATM   18  C   UNL     2      -9.835  18.332  67.632  1.00  0.00    -0.320 C  
HETATM   19  C   UNL     2     -10.408  17.616  66.388  1.00  0.00    -0.345 C  
HETATM   20  O   UNL     2      -9.421  19.478  67.561  1.00  0.00    -0.302 OA 
HETATM   21  O   UNL     2     -12.280  14.009  71.059  1.00  0.00    -0.335 OA 
HETATM   22  C   UNL     2     -12.159  13.772  68.714  1.00  0.00    -0.309 C  
ENDBRANCH   5   6
TORSDOF 1
ENDMDL
MODEL       11
REMARK 921   NORMALIZED FREE ENERGY PREDICTED BY IDOCK:   -6.17 KCAL/MOL
REMARK 922        TOTAL FREE ENERGY PREDICTED BY IDOCK:   -6.21 KCAL/MOL
REMARK 923 INTER-LIGAND FREE ENERGY PREDICTED BY IDOCK:   -6.63 KCAL/MOL
REMARK 924 INTRA-LIGAND FREE ENERGY PREDICTED BY IDOCK:    0.42 KCAL/MOL
REMARK 927      BINDING AFFINITY PREDICTED BY RF-SCORE:    0.00 PKD
ROOT
HETATM    1 NA   UNL     1     -13.738  12.011  64.656  1.00  0.00    -0.587 Na 
HETATM    2  O   UNL     2     -12.148  11.840  66.931  1.00  0.00    -0.566 OA 
HETATM    3  C   UNL     2     -11.324  12.702  66.304  1.00  0.00    -0.329 C  
HETATM    4  O   UNL     2     -10.949  12.442  65.177  1.00  0.00    -0.286 OA 
HETATM    5  C   UNL     2     -10.924  13.967  67.031  1.00  0.00    -0.295 C  
ENDROOT
BRANCH   5   6
HETATM    6  N   UNL     2      -9.967  14.906  66.345  1.00  0.00    -0.262 N  
HETATM    7  C   UNL     2      -8.587  14.397  66.463  1.00  0.00     0.099 C  
HETATM    8  C   UNL     2      -8.175  14.444  67.925  1.00  0.00    -0.156 C  
HETATM    9  N   UNL     2      -8.623  15.744  68.455  1.00  0.00    -0.166 N  
HETATM   10  C   UNL     2      -9.290  15.707  69.792  1.00  0.00    -0.116 C  
HETATM   11  C   UNL     2     -10.728  16.148  69.670  1.00  0.00    -0.325 C  
HETATM   12  O   UNL     2     -11.088  16.887  68.606  1.00  0.00    -0.303 OA 
HETATM   13  O   UNL     2     -11.552  15.846  70.516  1.00  0.00    -0.332 OA 
HETATM   14 FE   UNL     2      -9.826  16.730  67.250  1.00  0.00    -0.230 Fe 
HETATM   15  O   UNL     2      -9.371  18.421  67.835  1.00  0.00    -0.270 OA 
HETATM   16  O   UNL     2     -10.960  17.181  65.817  1.00  0.00    -0.109 OA 
HETATM   17  C   UNL     2     -11.018  16.354  64.770  1.00  0.00    -0.231 C  
HETATM   18  C   UNL     2      -8.210  18.208  68.516  1.00  0.00    -0.307 C  
HETATM   19  C   UNL     2      -7.572  16.801  68.467  1.00  0.00    -0.217 C  
HETATM   20  O   UNL     2      -7.710  19.100  69.182  1.00  0.00    -0.311 OA 
HETATM   21  O   UNL     2     -11.548  16.694  63.723  1.00  0.00    -1.045 OA 
HETATM   22  C   UNL     2     -10.326  15.062  64.912  1.00  0.00    -0.282 C  
ENDBRANCH   5   6
TORSDOF 1
ENDMDL
MODEL       12
REMARK 921   NORMALIZED FREE ENERGY PREDICTED BY IDOCK:   -6.07 KCAL/MOL
REMARK 922        TOTAL FREE ENERGY PREDICTED BY IDOCK:   -6.10 KCAL/MOL
REMARK 923 INTER-LIGAND FREE ENERGY PREDICTED BY IDOCK:   -6.85 KCAL/MOL
REMARK 924 INTRA-LIGAND FREE ENERGY PREDICTED BY IDOCK:    0.75 KCAL/MOL
REMARK 927      BINDING AFFINITY PREDICTED BY RF-SCORE:    0.00 PKD
ROOT
HETATM    1 NA   UNL     1     -11.425  10.878  63.677  1.00  0.00    -0.487 Na 
HETATM    2  O   UNL     2     -13.084  12.674  65.001  1.00  0.00    -0.808 OA 
HETATM    3  C   UNL     2     -12.148  12.678  65.971  1.00  0.00    -0.364 C  
HETATM    4  O   UNL     2     -11.773  11.615  66.429  1.00  0.00    -0.472 OA 
HETATM    5  C   UNL     2     -11.593  14.009  66.425  1.00  0.00    -0.369 C  
ENDROOT
BRANCH   5   6
HETATM    6  N   UNL     2     -10.580  14.012  67.541  1.00  0.00    -0.258 N  
HETATM    7  C   UNL     2     -11.240  14.327  68.821  1.00  0.00    -0.262 C  
HETATM    8  C   UNL     2     -11.743  15.761  68.769  1.00  0.00    -0.378 C  
HETATM    9  N   UNL     2     -10.666  16.570  68.174  1.00  0.00    -0.331 N  
HETATM   10  C   UNL     2     -11.091  17.554  67.132  1.00  0.00     0.198 C  
HETATM   11  C   UNL     2     -10.487  17.194  65.797  1.00  0.00    -0.233 C  
HETATM   12  O   UNL     2      -9.394  16.412  65.774  1.00  0.00    -0.468 OA 
HETATM   13  O   UNL     2     -10.974  17.601  64.756  1.00  0.00    -0.917 OA 
HETATM   14 FE   UNL     2      -9.205  15.512  67.389  1.00  0.00    -0.183 Fe 
HETATM   15  O   UNL     2      -7.876  16.770  67.635  1.00  0.00    -0.169 OA 
HETATM   16  O   UNL     2      -8.172  14.077  66.742  1.00  0.00    -0.036 OA 
HETATM   17  C   UNL     2      -8.577  12.833  67.010  1.00  0.00    -0.177 C  
HETATM   18  C   UNL     2      -8.431  17.630  68.535  1.00  0.00    -0.289 C  
HETATM   19  C   UNL     2      -9.793  17.263  69.165  1.00  0.00    -0.174 C  
HETATM   20  O   UNL     2      -7.880  18.685  68.804  1.00  0.00    -0.318 OA 
HETATM   21  O   UNL     2      -7.844  11.874  66.822  1.00  0.00    -0.146 OA 
HETATM   22  C   UNL     2      -9.904  12.692  67.633  1.00  0.00    -0.210 C  
ENDBRANCH   5   6
TORSDOF 1
ENDMDL
MODEL       13
REMARK 921   NORMALIZED FREE ENERGY PREDICTED BY IDOCK:   -6.04 KCAL/MOL
REMARK 922        TOTAL FREE ENERGY PREDICTED BY IDOCK:   -6.06 KCAL/MOL
REMARK 923 INTER-LIGAND FREE ENERGY PREDICTED BY IDOCK:   -6.38 KCAL/MOL
REMARK 924 INTRA-LIGAND FREE ENERGY PREDICTED BY IDOCK:    0.32 KCAL/MOL
REMARK 927      BINDING AFFINITY PREDICTED BY RF-SCORE:    0.00 PKD
ROOT
HETATM    1 NA   UNL     1     -10.604  10.392  67.321  1.00  0.00    -0.175 Na 
HETATM    2  O   UNL     2     -12.020  12.780  67.159  1.00  0.00    -0.372 OA 
HETATM    3  C   UNL     2     -11.012  13.317  67.874  1.00  0.00    -0.249 C  
HETATM    4  O   UNL     2     -10.677  12.779  68.913  1.00  0.00    -0.230 OA 
HETATM    5  C   UNL     2     -10.329  14.552  67.333  1.00  0.00    -0.252 C  
ENDROOT
BRANCH   5   6
HETATM    6  N   UNL     2      -9.233  15.176  68.157  1.00  0.00    -0.182 N  
HETATM    7  C   UNL     2      -9.783  15.686  69.427  1.00  0.00    -0.292 C  
HETATM    8  C   UNL     2     -10.723  16.841  69.120  1.00  0.00    -0.329 C  
HETATM    9  N   UNL     2     -10.053  17.682  68.113  1.00  0.00    -0.326 N  
HETATM   10  C   UNL     2     -10.907  18.139  66.974  1.00  0.00    -0.137 C  
HETATM   11  C   UNL     2     -10.402  17.555  65.677  1.00  0.00    -0.134 C  
HETATM   12  O   UNL     2      -9.129  17.129  65.615  1.00  0.00    -0.500 OA 
HETATM   13  O   UNL     2     -11.128  17.470  64.702  1.00  0.00    -0.978 OA 
HETATM   14 FE   UNL     2      -8.447  16.865  67.324  1.00  0.00    -0.174 Fe 
HETATM   15  O   UNL     2      -7.573  18.445  66.937  1.00  0.00    -0.208 OA 
HETATM   16  O   UNL     2      -7.102  15.633  66.855  1.00  0.00    -0.199 OA 
HETATM   17  C   UNL     2      -7.046  14.475  67.518  1.00  0.00    -0.175 C  
HETATM   18  C   UNL     2      -8.251  19.361  67.685  1.00  0.00    -0.294 C  
HETATM   19  C   UNL     2      -9.326  18.857  68.674  1.00  0.00    -0.369 C  
HETATM   20  O   UNL     2      -8.039  20.554  67.544  1.00  0.00    -0.314 OA 
HETATM   21  O   UNL     2      -6.075  13.739  67.425  1.00  0.00    -0.344 OA 
HETATM   22  C   UNL     2      -8.162  14.184  68.434  1.00  0.00    -0.149 C  
ENDBRANCH   5   6
TORSDOF 1
ENDMDL
MODEL       14
REMARK 921   NORMALIZED FREE ENERGY PREDICTED BY IDOCK:   -6.02 KCAL/MOL
REMARK 922        TOTAL FREE ENERGY PREDICTED BY IDOCK:   -6.05 KCAL/MOL
REMARK 923 INTER-LIGAND FREE ENERGY PREDICTED BY IDOCK:   -6.37 KCAL/MOL
REMARK 924 INTRA-LIGAND FREE ENERGY PREDICTED BY IDOCK:    0.32 KCAL/MOL
REMARK 927      BINDING AFFINITY PREDICTED BY RF-SCORE:    0.00 PKD
ROOT
HETATM    1 NA   UNL     1     -10.525   9.057  65.372  1.00  0.00    -0.404 Na 
HETATM    2  O   UNL     2      -9.166  11.341  64.554  1.00  0.00    -0.165 OA 
HETATM    3  C   UNL     2     -10.164  12.031  65.142  1.00  0.00    -0.276 C  
HETATM    4  O   UNL     2     -11.314  11.766  64.847  1.00  0.00    -0.301 OA 
HETATM    5  C   UNL     2      -9.801  13.087  66.161  1.00  0.00    -0.273 C  
ENDROOT
BRANCH   5   6
HETATM    6  N   UNL     2     -10.916  13.886  66.783  1.00  0.00    -0.296 N  
HETATM    7  C   UNL     2     -11.592  14.696  65.752  1.00  0.00    -0.328 C  
HETATM    8  C   UNL     2     -10.618  15.746  65.243  1.00  0.00    -0.423 C  
HETATM    9  N   UNL     2      -9.941  16.310  66.423  1.00  0.00    -0.282 N  
HETATM   10  C   UNL     2      -8.461  16.479  66.305  1.00  0.00    -0.328 C  
HETATM   11  C   UNL     2      -7.754  15.591  67.300  1.00  0.00    -0.212 C  
HETATM   12  O   UNL     2      -8.435  15.156  68.373  1.00  0.00    -0.146 OA 
HETATM   13  O   UNL     2      -6.587  15.275  67.142  1.00  0.00    -0.292 OA 
HETATM   14 FE   UNL     2     -10.265  15.314  68.088  1.00  0.00    -0.210 Fe 
HETATM   15  O   UNL     2     -10.056  16.746  69.235  1.00  0.00    -0.271 OA 
HETATM   16  O   UNL     2     -10.812  13.996  69.317  1.00  0.00    -0.231 OA 
HETATM   17  C   UNL     2     -11.636  13.036  68.890  1.00  0.00    -0.311 C  
HETATM   18  C   UNL     2     -10.147  17.821  68.403  1.00  0.00    -0.376 C  
HETATM   19  C   UNL     2     -10.534  17.582  66.926  1.00  0.00    -0.285 C  
HETATM   20  O   UNL     2      -9.888  18.942  68.811  1.00  0.00    -0.379 OA 
HETATM   21  O   UNL     2     -12.205  12.293  69.677  1.00  0.00    -0.220 OA 
HETATM   22  C   UNL     2     -11.897  12.986  67.442  1.00  0.00    -0.357 C  
ENDBRANCH   5   6
TORSDOF 1
ENDMDL
MODEL       15
REMARK 921   NORMALIZED FREE ENERGY PREDICTED BY IDOCK:   -5.90 KCAL/MOL
REMARK 922        TOTAL FREE ENERGY PREDICTED BY IDOCK:   -5.92 KCAL/MOL
REMARK 923 INTER-LIGAND FREE ENERGY PREDICTED BY IDOCK:   -6.33 KCAL/MOL
REMARK 924 INTRA-LIGAND FREE ENERGY PREDICTED BY IDOCK:    0.41 KCAL/MOL
REMARK 927      BINDING AFFINITY PREDICTED BY RF-SCORE:    0.00 PKD
ROOT
HETATM    1 NA   UNL     1     -11.469  18.513  67.458  1.00  0.00    -0.403 Na 
HETATM    2  O   UNL     2      -9.726  16.573  68.425  1.00  0.00    -0.223 OA 
HETATM    3  C   UNL     2     -10.676  15.682  68.079  1.00  0.00    -0.287 C  
HETATM    4  O   UNL     2     -11.813  15.851  68.476  1.00  0.00    -0.366 OA 
HETATM    5  C   UNL     2     -10.281  14.525  67.189  1.00  0.00    -0.260 C  
ENDROOT
BRANCH   5   6
HETATM    6  N   UNL     2     -11.335  13.506  66.841  1.00  0.00    -0.315 N  
HETATM    7  C   UNL     2     -12.022  13.050  68.065  1.00  0.00    -0.290 C  
HETATM    8  C   UNL     2     -11.028  12.283  68.922  1.00  0.00    -0.219 C  
HETATM    9  N   UNL     2     -10.278  11.395  68.016  1.00  0.00    -0.180 N  
HETATM   10  C   UNL     2      -8.798  11.354  68.223  1.00  0.00    -0.167 C  
HETATM   11  C   UNL     2      -8.086  11.896  67.008  1.00  0.00    -0.167 C  
HETATM   12  O   UNL     2      -8.739  11.913  65.833  1.00  0.00    -0.039 OA 
HETATM   13  O   UNL     2      -6.942  12.309  67.082  1.00  0.00    -0.148 OA 
HETATM   14 FE   UNL     2     -10.571  11.762  66.106  1.00  0.00    -0.217 Fe 
HETATM   15  O   UNL     2     -10.254  10.044  65.509  1.00  0.00    -0.280 OA 
HETATM   16  O   UNL     2     -11.119  12.565  64.493  1.00  0.00    -0.290 OA 
HETATM   17  C   UNL     2     -11.999  13.568  64.552  1.00  0.00    -0.410 C  
HETATM   18  C   UNL     2     -10.337   9.303  66.650  1.00  0.00    -0.222 C  
HETATM   19  C   UNL     2     -10.796   9.998  67.951  1.00  0.00    -0.271 C  
HETATM   20  O   UNL     2     -10.015   8.126  66.647  1.00  0.00    -0.247 OA 
HETATM   21  O   UNL     2     -12.563  13.976  63.548  1.00  0.00    -0.842 OA 
HETATM   22  C   UNL     2     -12.324  14.082  65.893  1.00  0.00    -0.486 C  
ENDBRANCH   5   6
TORSDOF 1
ENDMDL
MODEL       16
REMARK 921   NORMALIZED FREE ENERGY PREDICTED BY IDOCK:   -5.82 KCAL/MOL
REMARK 922        TOTAL FREE ENERGY PREDICTED BY IDOCK:   -5.83 KCAL/MOL
REMARK 923 INTER-LIGAND FREE ENERGY PREDICTED BY IDOCK:   -6.15 KCAL/MOL
REMARK 924 INTRA-LIGAND FREE ENERGY PREDICTED BY IDOCK:    0.32 KCAL/MOL
REMARK 927      BINDING AFFINITY PREDICTED BY RF-SCORE:    0.00 PKD
ROOT
HETATM    1 NA   UNL     1      -9.064  21.100  66.630  1.00  0.00    -0.525 Na 
HETATM    2  O   UNL     2     -11.147  19.411  67.365  1.00  0.00    -0.445 OA 
HETATM    3  C   UNL     2     -10.497  18.459  66.667  1.00  0.00    -0.385 C  
HETATM    4  O   UNL     2     -10.167  18.694  65.520  1.00  0.00    -0.474 OA 
HETATM    5  C   UNL     2     -10.186  17.151  67.358  1.00  0.00    -0.321 C  
ENDROOT
BRANCH   5   6
HETATM    6  N   UNL     2      -9.499  16.073  66.561  1.00  0.00    -0.251 N  
HETATM    7  C   UNL     2     -10.330  15.692  65.403  1.00  0.00    -0.393 C  
HETATM    8  C   UNL     2     -11.599  15.029  65.914  1.00  0.00    -0.165 C  
HETATM    9  N   UNL     2     -11.195  14.098  66.982  1.00  0.00    -0.307 N  
HETATM   10  C   UNL     2     -12.035  14.123  68.219  1.00  0.00    -0.332 C  
HETATM   11  C   UNL     2     -11.214  14.591  69.396  1.00  0.00    -0.280 C  
HETATM   12  O   UNL     2      -9.876  14.494  69.328  1.00  0.00    -0.140 OA 
HETATM   13  O   UNL     2     -11.749  15.047  70.393  1.00  0.00    -0.255 OA 
HETATM   14 FE   UNL     2      -9.327  14.303  67.562  1.00  0.00    -0.173 Fe 
HETATM   15  O   UNL     2      -9.080  12.554  68.102  1.00  0.00    -0.196 OA 
HETATM   16  O   UNL     2      -7.576  14.958  67.786  1.00  0.00    -0.126 OA 
HETATM   17  C   UNL     2      -7.156  15.931  66.975  1.00  0.00    -0.172 C  
HETATM   18  C   UNL     2     -10.127  11.904  67.522  1.00  0.00    -0.193 C  
HETATM   19  C   UNL     2     -11.029  12.684  66.539  1.00  0.00    -0.269 C  
HETATM   20  O   UNL     2     -10.367  10.742  67.806  1.00  0.00    -0.177 OA 
HETATM   21  O   UNL     2      -5.975  16.239  66.913  1.00  0.00    -0.326 OA 
HETATM   22  C   UNL     2      -8.168  16.539  66.094  1.00  0.00    -0.244 C  
ENDBRANCH   5   6
TORSDOF 1
ENDMDL
MODEL       17
REMARK 921   NORMALIZED FREE ENERGY PREDICTED BY IDOCK:   -5.78 KCAL/MOL
REMARK 922        TOTAL FREE ENERGY PREDICTED BY IDOCK:   -5.79 KCAL/MOL
REMARK 923 INTER-LIGAND FREE ENERGY PREDICTED BY IDOCK:   -6.12 KCAL/MOL
REMARK 924 INTRA-LIGAND FREE ENERGY PREDICTED BY IDOCK:    0.33 KCAL/MOL
REMARK 927      BINDING AFFINITY PREDICTED BY RF-SCORE:    0.00 PKD
ROOT
HETATM    1 NA   UNL     1     -11.552   8.168  68.242  1.00  0.00    -0.415 Na 
HETATM    2  O   UNL     2     -11.076  10.510  69.664  1.00  0.00    -0.244 OA 
HETATM    3  C   UNL     2     -10.300  10.872  68.623  1.00  0.00    -0.191 C  
HETATM    4  O   UNL     2      -9.435  10.106  68.241  1.00  0.00    -0.138 OA 
HETATM    5  C   UNL     2     -10.561  12.208  67.966  1.00  0.00    -0.210 C  
ENDROOT
BRANCH   5   6
HETATM    6  N   UNL     2      -9.662  12.629  66.832  1.00  0.00    -0.228 N  
HETATM    7  C   UNL     2      -8.258  12.654  67.283  1.00  0.00    -0.184 C  
HETATM    8  C   UNL     2      -8.099  13.758  68.316  1.00  0.00    -0.150 C  
HETATM    9  N   UNL     2      -8.822  14.934  67.800  1.00  0.00    -0.169 N  
HETATM   10  C   UNL     2      -9.682  15.654  68.789  1.00  0.00    -0.212 C  
HETATM   11  C   UNL     2     -11.133  15.564  68.381  1.00  0.00    -0.315 C  
HETATM   12  O   UNL     2     -11.426  15.296  67.098  1.00  0.00    -0.307 OA 
HETATM   13  O   UNL     2     -12.025  15.733  69.194  1.00  0.00    -0.387 OA 
HETATM   14 FE   UNL     2      -9.953  14.559  66.235  1.00  0.00    -0.237 Fe 
HETATM   15  O   UNL     2      -9.865  16.251  65.500  1.00  0.00    -0.489 OA 
HETATM   16  O   UNL     2     -10.898  13.667  64.873  1.00  0.00    -0.332 OA 
HETATM   17  C   UNL     2     -10.657  12.367  64.682  1.00  0.00    -0.308 C  
HETATM   18  C   UNL     2      -8.811  16.814  66.153  1.00  0.00    -0.263 C  
HETATM   19  C   UNL     2      -7.963  15.927  67.093  1.00  0.00    -0.209 C  
HETATM   20  O   UNL     2      -8.569  18.004  66.027  1.00  0.00    -0.500 OA 
HETATM   21  O   UNL     2     -11.057  11.788  63.683  1.00  0.00    -0.389 OA 
HETATM   22  C   UNL     2      -9.806  11.700  65.681  1.00  0.00    -0.240 C  
ENDBRANCH   5   6
TORSDOF 1
ENDMDL
MODEL       18
REMARK 921   NORMALIZED FREE ENERGY PREDICTED BY IDOCK:   -5.73 KCAL/MOL
REMARK 922        TOTAL FREE ENERGY PREDICTED BY IDOCK:   -5.74 KCAL/MOL
REMARK 923 INTER-LIGAND FREE ENERGY PREDICTED BY IDOCK:   -6.07 KCAL/MOL
REMARK 924 INTRA-LIGAND FREE ENERGY PREDICTED BY IDOCK:    0.33 KCAL/MOL
REMARK 927      BINDING AFFINITY PREDICTED BY RF-SCORE:    0.00 PKD
ROOT
HETATM    1 NA   UNL     1     -11.340  13.780  63.362  1.00  0.00    -0.559 Na 
HETATM    2  O   UNL     2     -11.319  16.527  63.791  1.00  0.00    -0.966 OA 
HETATM    3  C   UNL     2     -10.960  16.232  65.057  1.00  0.00    -0.298 C  
HETATM    4  O   UNL     2     -11.632  15.438  65.687  1.00  0.00    -0.140 OA 
HETATM    5  C   UNL     2      -9.721  16.888  65.621  1.00  0.00     0.037 C  
ENDROOT
BRANCH   5   6
HETATM    6  N   UNL     2      -9.348  16.590  67.050  1.00  0.00    -0.224 N  
HETATM    7  C   UNL     2     -10.343  17.180  67.965  1.00  0.00    -0.353 C  
HETATM    8  C   UNL     2     -10.258  18.695  67.864  1.00  0.00    -0.392 C  
HETATM    9  N   UNL     2      -8.826  19.044  67.864  1.00  0.00    -0.294 N  
HETATM   10  C   UNL     2      -8.405  20.062  66.854  1.00  0.00    -0.326 C  
HETATM   11  C   UNL     2      -7.449  19.446  65.861  1.00  0.00    -0.279 C  
HETATM   12  O   UNL     2      -6.787  18.330  66.211  1.00  0.00    -0.203 OA 
HETATM   13  O   UNL     2      -7.274  19.947  64.764  1.00  0.00    -0.233 OA 
HETATM   14 FE   UNL     2      -7.624  17.502  67.650  1.00  0.00    -0.170 Fe 
HETATM   15  O   UNL     2      -6.190  18.223  68.563  1.00  0.00    -0.193 OA 
HETATM   16  O   UNL     2      -6.965  15.766  67.340  1.00  0.00    -0.169 OA 
HETATM   17  C   UNL     2      -7.840  14.758  67.278  1.00  0.00    -0.194 C  
HETATM   18  C   UNL     2      -6.750  19.267  69.237  1.00  0.00    -0.321 C  
HETATM   19  C   UNL     2      -8.286  19.434  69.198  1.00  0.00    -0.139 C  
HETATM   20  O   UNL     2      -6.046  20.073  69.824  1.00  0.00    -0.302 OA 
HETATM   21  O   UNL     2      -7.469  13.595  67.309  1.00  0.00    -0.150 OA 
HETATM   22  C   UNL     2      -9.266  15.123  67.272  1.00  0.00    -0.198 C  
ENDBRANCH   5   6
TORSDOF 1
ENDMDL
MODEL       19
REMARK 921   NORMALIZED FREE ENERGY PREDICTED BY IDOCK:   -5.64 KCAL/MOL
REMARK 922        TOTAL FREE ENERGY PREDICTED BY IDOCK:   -5.64 KCAL/MOL
REMARK 923 INTER-LIGAND FREE ENERGY PREDICTED BY IDOCK:   -6.15 KCAL/MOL
REMARK 924 INTRA-LIGAND FREE ENERGY PREDICTED BY IDOCK:    0.51 KCAL/MOL
REMARK 927      BINDING AFFINITY PREDICTED BY RF-SCORE:    0.00 PKD
ROOT
HETATM    1 NA   UNL     1     -10.543  18.259  70.306  1.00  0.00    -0.393 Na 
HETATM    2  O   UNL     2     -12.047  16.120  69.361  1.00  0.00    -0.207 OA 
HETATM    3  C   UNL     2     -11.175  16.082  68.335  1.00  0.00    -0.364 C  
HETATM    4  O   UNL     2     -10.956  17.103  67.711  1.00  0.00    -0.315 OA 
HETATM    5  C   UNL     2     -10.491  14.769  68.025  1.00  0.00    -0.246 C  
ENDROOT
BRANCH   5   6
HETATM    6  N   UNL     2      -9.551  14.719  66.849  1.00  0.00    -0.232 N  
HETATM    7  C   UNL     2     -10.152  15.409  65.692  1.00  0.00    -0.376 C  
HETATM    8  C   UNL     2     -11.367  14.620  65.233  1.00  0.00    -0.354 C  
HETATM    9  N   UNL     2     -10.980  13.198  65.237  1.00  0.00    -0.281 N  
HETATM   10  C   UNL     2     -11.975  12.255  65.834  1.00  0.00    -0.287 C  
HETATM   11  C   UNL     2     -11.400  11.604  67.069  1.00  0.00    -0.305 C  
HETATM   12  O   UNL     2     -10.065  11.574  67.220  1.00  0.00    -0.195 OA 
HETATM   13  O   UNL     2     -12.126  11.110  67.914  1.00  0.00    -0.627 OA 
HETATM   14 FE   UNL     2      -9.259  12.836  66.118  1.00  0.00    -0.215 Fe 
HETATM   15  O   UNL     2      -8.834  11.328  65.141  1.00  0.00    -0.110 OA 
HETATM   16  O   UNL     2      -7.670  13.035  67.108  1.00  0.00    -0.138 OA 
HETATM   17  C   UNL     2      -7.291  14.267  67.456  1.00  0.00    -0.179 C  
HETATM   18  C   UNL     2      -9.685  11.401  64.079  1.00  0.00    -0.245 C  
HETATM   19  C   UNL     2     -10.550  12.671  63.911  1.00  0.00    -0.428 C  
HETATM   20  O   UNL     2      -9.789  10.464  63.305  1.00  0.00    -0.302 OA 
HETATM   21  O   UNL     2      -6.170  14.486  67.892  1.00  0.00    -0.137 OA 
HETATM   22  C   UNL     2      -8.251  15.352  67.194  1.00  0.00    -0.219 C  
ENDBRANCH   5   6
TORSDOF 1
ENDMDL
MODEL       20
REMARK 921   NORMALIZED FREE ENERGY PREDICTED BY IDOCK:   -5.60 KCAL/MOL
REMARK 922        TOTAL FREE ENERGY PREDICTED BY IDOCK:   -5.60 KCAL/MOL
REMARK 923 INTER-LIGAND FREE ENERGY PREDICTED BY IDOCK:   -5.92 KCAL/MOL
REMARK 924 INTRA-LIGAND FREE ENERGY PREDICTED BY IDOCK:    0.32 KCAL/MOL
REMARK 927      BINDING AFFINITY PREDICTED BY RF-SCORE:    0.00 PKD
ROOT
HETATM    1 NA   UNL     1     -11.233  17.566  64.887  1.00  0.00    -0.468 Na 
HETATM    2  O   UNL     2      -9.546  16.156  66.590  1.00  0.00    -0.222 OA 
HETATM    3  C   UNL     2     -10.519  15.224  66.628  1.00  0.00    -0.290 C  
HETATM    4  O   UNL     2     -11.652  15.568  66.905  1.00  0.00    -0.106 OA 
HETATM    5  C   UNL     2     -10.154  13.794  66.299  1.00  0.00    -0.300 C  
ENDROOT
BRANCH   5   6
HETATM    6  N   UNL     2     -11.234  12.748  66.386  1.00  0.00    -0.286 N  
HETATM    7  C   UNL     2     -11.785  12.703  67.754  1.00  0.00    -0.356 C  
HETATM    8  C   UNL     2     -10.703  12.204  68.698  1.00  0.00    -0.233 C  
HETATM    9  N   UNL     2     -10.049  11.063  68.034  1.00  0.00    -0.175 N  
HETATM   10  C   UNL     2      -8.555  11.045  68.092  1.00  0.00    -0.140 C  
HETATM   11  C   UNL     2      -7.978  11.174  66.703  1.00  0.00    -0.159 C  
HETATM   12  O   UNL     2      -8.752  10.853  65.652  1.00  0.00    -0.187 OA 
HETATM   13  O   UNL     2      -6.834  11.557  66.531  1.00  0.00    -0.111 OA 
HETATM   14 FE   UNL     2     -10.544  10.842  66.143  1.00  0.00    -0.218 Fe 
HETATM   15  O   UNL     2     -10.284   9.015  66.068  1.00  0.00    -0.225 OA 
HETATM   16  O   UNL     2     -11.263  11.134  64.427  1.00  0.00    -0.222 OA 
HETATM   17  C   UNL     2     -12.136  12.131  64.268  1.00  0.00    -0.375 C  
HETATM   18  C   UNL     2     -10.242   8.658  67.383  1.00  0.00    -0.262 C  
HETATM   19  C   UNL     2     -10.565   9.727  68.450  1.00  0.00    -0.226 C  
HETATM   20  O   UNL     2      -9.917   7.527  67.706  1.00  0.00    -0.155 OA 
HETATM   21  O   UNL     2     -12.805  12.231  63.250  1.00  0.00    -0.719 OA 
HETATM   22  C   UNL     2     -12.320  13.037  65.415  1.00  0.00    -0.486 C  
ENDBRANCH   5   6
TORSDOF 1
ENDMDL
MODEL       21
REMARK 921   NORMALIZED FREE ENERGY PREDICTED BY IDOCK:   -5.59 KCAL/MOL
REMARK 922        TOTAL FREE ENERGY PREDICTED BY IDOCK:   -5.58 KCAL/MOL
REMARK 923 INTER-LIGAND FREE ENERGY PREDICTED BY IDOCK:   -5.90 KCAL/MOL
REMARK 924 INTRA-LIGAND FREE ENERGY PREDICTED BY IDOCK:    0.32 KCAL/MOL
REMARK 927      BINDING AFFINITY PREDICTED BY RF-SCORE:    0.00 PKD
ROOT
HETATM    1 NA   UNL     1     -13.283  12.589  62.459  1.00  0.00    -0.272 Na 
HETATM    2  O   UNL     2     -12.722  15.002  63.722  1.00  0.00    -0.741 OA 
HETATM    3  C   UNL     2     -12.401  14.256  64.798  1.00  0.00    -0.426 C  
HETATM    4  O   UNL     2     -13.200  13.433  65.201  1.00  0.00    -0.691 OA 
HETATM    5  C   UNL     2     -11.046  14.465  65.436  1.00  0.00    -0.331 C  
ENDROOT
BRANCH   5   6
HETATM    6  N   UNL     2     -10.709  13.662  66.665  1.00  0.00    -0.279 N  
HETATM    7  C   UNL     2     -11.651  13.983  67.753  1.00  0.00    -0.345 C  
HETATM    8  C   UNL     2     -11.429  15.426  68.177  1.00  0.00    -0.343 C  
HETATM    9  N   UNL     2      -9.972  15.629  68.259  1.00  0.00    -0.212 N  
HETATM   10  C   UNL     2      -9.455  16.892  67.650  1.00  0.00    -0.241 C  
HETATM   11  C   UNL     2      -8.554  16.576  66.481  1.00  0.00    -0.286 C  
HETATM   12  O   UNL     2      -7.997  15.356  66.408  1.00  0.00    -0.041 OA 
HETATM   13  O   UNL     2      -8.329  17.408  65.619  1.00  0.00    -0.487 OA 
HETATM   14 FE   UNL     2      -8.912  14.158  67.496  1.00  0.00    -0.155 Fe 
HETATM   15  O   UNL     2      -7.424  14.393  68.563  1.00  0.00    -0.108 OA 
HETATM   16  O   UNL     2      -8.412  12.585  66.590  1.00  0.00    -0.127 OA 
HETATM   17  C   UNL     2      -9.373  11.741  66.209  1.00  0.00    -0.225 C  
HETATM   18  C   UNL     2      -7.891  15.184  69.569  1.00  0.00    -0.186 C  
HETATM   19  C   UNL     2      -9.405  15.486  69.631  1.00  0.00    -0.223 C  
HETATM   20  O   UNL     2      -7.120  15.674  70.379  1.00  0.00     0.250 OA 
HETATM   21  O   UNL     2      -9.110  10.610  65.828  1.00  0.00    -0.172 OA 
HETATM   22  C   UNL     2     -10.761  12.207  66.366  1.00  0.00    -0.257 C  
ENDBRANCH   5   6
TORSDOF 1
ENDMDL
MODEL       22
REMARK 921   NORMALIZED FREE ENERGY PREDICTED BY IDOCK:   -5.55 KCAL/MOL
REMARK 922        TOTAL FREE ENERGY PREDICTED BY IDOCK:   -5.55 KCAL/MOL
REMARK 923 INTER-LIGAND FREE ENERGY PREDICTED BY IDOCK:   -5.98 KCAL/MOL
REMARK 924 INTRA-LIGAND FREE ENERGY PREDICTED BY IDOCK:    0.43 KCAL/MOL
REMARK 927      BINDING AFFINITY PREDICTED BY RF-SCORE:    0.00 PKD
ROOT
HETATM    1 NA   UNL     1     -14.092  14.490  65.596  1.00  0.00    -0.716 Na 
HETATM    2  O   UNL     2     -12.414  12.312  65.178  1.00  0.00    -0.563 OA 
HETATM    3  C   UNL     2     -11.801  12.686  66.319  1.00  0.00    -0.410 C  
HETATM    4  O   UNL     2     -11.426  13.837  66.434  1.00  0.00    -0.316 OA 
HETATM    5  C   UNL     2     -11.633  11.654  67.412  1.00  0.00    -0.254 C  
ENDROOT
BRANCH   5   6
HETATM    6  N   UNL     2     -10.907  12.063  68.667  1.00  0.00    -0.228 N  
HETATM    7  C   UNL     2      -9.643  12.740  68.323  1.00  0.00    -0.211 C  
HETATM    8  C   UNL     2      -8.715  11.731  67.666  1.00  0.00    -0.159 C  
HETATM    9  N   UNL     2      -8.799  10.493  68.459  1.00  0.00    -0.136 N  
HETATM   10  C   UNL     2      -8.921   9.225  67.676  1.00  0.00    -0.119 C  
HETATM   11  C   UNL     2     -10.249   8.565  67.958  1.00  0.00    -0.213 C  
HETATM   12  O   UNL     2     -10.899   8.883  69.090  1.00  0.00    -0.182 OA 
HETATM   13  O   UNL     2     -10.725   7.756  67.180  1.00  0.00    -0.333 OA 
HETATM   14 FE   UNL     2     -10.254  10.483  69.782  1.00  0.00    -0.183 Fe 
HETATM   15  O   UNL     2      -9.444   9.336  70.981  1.00  0.00    -0.266 OA 
HETATM   16  O   UNL     2     -11.788  10.949  70.771  1.00  0.00    -0.333 OA 
HETATM   17  C   UNL     2     -12.314  12.162  70.589  1.00  0.00    -0.295 C  
HETATM   18  C   UNL     2      -8.142   9.344  70.579  1.00  0.00    -0.184 C  
HETATM   19  C   UNL     2      -7.715  10.333  69.471  1.00  0.00    -0.165 C  
HETATM   20  O   UNL     2      -7.342   8.556  71.059  1.00  0.00    -0.058 OA 
HETATM   21  O   UNL     2     -13.157  12.608  71.353  1.00  0.00    -0.327 OA 
HETATM   22  C   UNL     2     -11.755  12.965  69.488  1.00  0.00    -0.323 C  
ENDBRANCH   5   6
TORSDOF 1
ENDMDL
MODEL       23
REMARK 921   NORMALIZED FREE ENERGY PREDICTED BY IDOCK:   -5.52 KCAL/MOL
REMARK 922        TOTAL FREE ENERGY PREDICTED BY IDOCK:   -5.51 KCAL/MOL
REMARK 923 INTER-LIGAND FREE ENERGY PREDICTED BY IDOCK:   -5.87 KCAL/MOL
REMARK 924 INTRA-LIGAND FREE ENERGY PREDICTED BY IDOCK:    0.36 KCAL/MOL
REMARK 927      BINDING AFFINITY PREDICTED BY RF-SCORE:    0.00 PKD
ROOT
HETATM    1 NA   UNL     1      -9.533  12.617  67.135  1.00  0.00    -0.179 Na 
HETATM    2  O   UNL     2     -11.639  10.856  67.579  1.00  0.00    -0.526 OA 
HETATM    3  C   UNL     2     -10.699   9.986  67.998  1.00  0.00    -0.256 C  
HETATM    4  O   UNL     2      -9.746   9.758  67.276  1.00  0.00    -0.158 OA 
HETATM    5  C   UNL     2     -10.865   9.352  69.360  1.00  0.00    -0.189 C  
ENDROOT
BRANCH   5   6
HETATM    6  N   UNL     2      -9.836   8.346  69.805  1.00  0.00    -0.184 N  
HETATM    7  C   UNL     2     -10.001   7.088  69.053  1.00  0.00    -0.164 C  
HETATM    8  C   UNL     2     -11.330   6.461  69.441  1.00  0.00    -0.377 C  
HETATM    9  N   UNL     2     -11.442   6.568  70.906  1.00  0.00    -0.332 N  
HETATM   10  C   UNL     2     -12.768   7.021  71.426  1.00  0.00    -0.374 C  
HETATM   11  C   UNL     2     -12.626   8.351  72.127  1.00  0.00    -0.364 C  
HETATM   12  O   UNL     2     -11.413   8.717  72.574  1.00  0.00    -0.348 OA 
HETATM   13  O   UNL     2     -13.589   9.081  72.290  1.00  0.00    -0.424 OA 
HETATM   14 FE   UNL     2     -10.084   7.725  71.734  1.00  0.00    -0.166 Fe 
HETATM   15  O   UNL     2     -10.048   6.873  73.371  1.00  0.00    -0.203 OA 
HETATM   16  O   UNL     2      -8.679   8.954  71.981  1.00  0.00    -0.365 OA 
HETATM   17  C   UNL     2      -7.966   9.324  70.914  1.00  0.00    -0.122 C  
HETATM   18  C   UNL     2     -10.665   5.686  73.112  1.00  0.00    -0.267 C  
HETATM   19  C   UNL     2     -11.025   5.343  71.649  1.00  0.00    -0.113 C  
HETATM   20  O   UNL     2     -10.962   4.931  74.024  1.00  0.00    -0.295 OA 
HETATM   21  O   UNL     2      -6.912   9.930  71.035  1.00  0.00    -0.333 OA 
HETATM   22  C   UNL     2      -8.464   8.879  69.602  1.00  0.00    -0.129 C  
ENDBRANCH   5   6
TORSDOF 1
ENDMDL
MODEL       24
REMARK 921   NORMALIZED FREE ENERGY PREDICTED BY IDOCK:   -5.51 KCAL/MOL
REMARK 922        TOTAL FREE ENERGY PREDICTED BY IDOCK:   -5.51 KCAL/MOL
REMARK 923 INTER-LIGAND FREE ENERGY PREDICTED BY IDOCK:   -6.08 KCAL/MOL
REMARK 924 INTRA-LIGAND FREE ENERGY PREDICTED BY IDOCK:    0.57 KCAL/MOL
REMARK 927      BINDING AFFINITY PREDICTED BY RF-SCORE:    0.00 PKD
ROOT
HETATM    1 NA   UNL     1     -10.911  18.491  64.941  1.00  0.00    -0.508 Na 
HETATM    2  O   UNL     2      -9.102  16.840  66.258  1.00  0.00    -0.270 OA 
HETATM    3  C   UNL     2     -10.158  16.041  66.510  1.00  0.00    -0.287 C  
HETATM    4  O   UNL     2     -11.152  16.525  67.019  1.00  0.00    -0.090 OA 
HETATM    5  C   UNL     2     -10.062  14.583  66.122  1.00  0.00    -0.305 C  
ENDROOT
BRANCH   5   6
HETATM    6  N   UNL     2     -11.227  13.685  66.446  1.00  0.00    -0.304 N  
HETATM    7  C   UNL     2     -11.734  13.982  67.799  1.00  0.00    -0.368 C  
HETATM    8  C   UNL     2     -10.669  13.594  68.813  1.00  0.00    -0.244 C  
HETATM    9  N   UNL     2     -10.141  12.282  68.398  1.00  0.00    -0.218 N  
HETATM   10  C   UNL     2      -8.654  12.138  68.438  1.00  0.00    -0.141 C  
HETATM   11  C   UNL     2      -8.115  11.915  67.046  1.00  0.00    -0.167 C  
HETATM   12  O   UNL     2      -8.948  11.454  66.098  1.00  0.00    -0.198 OA 
HETATM   13  O   UNL     2      -6.947  12.145  66.780  1.00  0.00    -0.051 OA 
HETATM   14 FE   UNL     2     -10.717  11.715  66.605  1.00  0.00    -0.210 Fe 
HETATM   15  O   UNL     2     -10.622   9.897  66.918  1.00  0.00    -0.228 OA 
HETATM   16  O   UNL     2     -11.463  11.704  64.877  1.00  0.00    -0.244 OA 
HETATM   17  C   UNL     2     -12.250  12.722  64.520  1.00  0.00    -0.433 C  
HETATM   18  C   UNL     2     -10.568   9.823  68.277  1.00  0.00    -0.229 C  
HETATM   19  C   UNL     2     -10.759  11.119  69.097  1.00  0.00    -0.221 C  
HETATM   20  O   UNL     2     -10.334   8.760  68.830  1.00  0.00    -0.210 OA 
HETATM   21  O   UNL     2     -12.941  12.667  63.514  1.00  0.00    -0.683 OA 
HETATM   22  C   UNL     2     -12.314  13.862  65.450  1.00  0.00    -0.470 C  
ENDBRANCH   5   6
TORSDOF 1
ENDMDL
MODEL       25
REMARK 921   NORMALIZED FREE ENERGY PREDICTED BY IDOCK:   -5.47 KCAL/MOL
REMARK 922        TOTAL FREE ENERGY PREDICTED BY IDOCK:   -5.46 KCAL/MOL
REMARK 923 INTER-LIGAND FREE ENERGY PREDICTED BY IDOCK:   -5.81 KCAL/MOL
REMARK 924 INTRA-LIGAND FREE ENERGY PREDICTED BY IDOCK:    0.35 KCAL/MOL
REMARK 927      BINDING AFFINITY PREDICTED BY RF-SCORE:    0.00 PKD
ROOT
HETATM    1 NA   UNL     1      -6.023   7.772  69.688  1.00  0.00    -0.024 Na 
HETATM    2  O   UNL     2      -7.360  10.021  70.630  1.00  0.00    -0.308 OA 
HETATM    3  C   UNL     2      -7.398  10.421  69.344  1.00  0.00    -0.123 C  
HETATM    4  O   UNL     2      -6.363  10.448  68.706  1.00  0.00    -0.047 OA 
HETATM    5  C   UNL     2      -8.737  10.795  68.749  1.00  0.00    -0.163 C  
ENDROOT
BRANCH   5   6
HETATM    6  N   UNL     2      -8.769  11.284  67.325  1.00  0.00    -0.142 N  
HETATM    7  C   UNL     2      -8.190  12.639  67.243  1.00  0.00    -0.184 C  
HETATM    8  C   UNL     2      -9.099  13.601  67.990  1.00  0.00    -0.192 C  
HETATM    9  N   UNL     2     -10.482  13.270  67.606  1.00  0.00    -0.227 N  
HETATM   10  C   UNL     2     -11.472  13.212  68.724  1.00  0.00    -0.307 C  
HETATM   11  C   UNL     2     -12.011  11.810  68.872  1.00  0.00    -0.271 C  
HETATM   12  O   UNL     2     -11.923  10.972  67.825  1.00  0.00    -0.609 OA 
HETATM   13  O   UNL     2     -12.519  11.438  69.916  1.00  0.00    -0.221 OA 
HETATM   14 FE   UNL     2     -10.657  11.584  66.609  1.00  0.00    -0.201 Fe 
HETATM   15  O   UNL     2     -12.173  12.052  65.664  1.00  0.00    -0.503 OA 
HETATM   16  O   UNL     2     -10.279   9.923  65.805  1.00  0.00    -0.265 OA 
HETATM   17  C   UNL     2      -9.004   9.535  65.722  1.00  0.00    -0.179 C  
HETATM   18  C   UNL     2     -12.224  13.405  65.818  1.00  0.00    -0.458 C  
HETATM   19  C   UNL     2     -11.039  14.116  66.511  1.00  0.00    -0.318 C  
HETATM   20  O   UNL     2     -13.204  14.033  65.452  1.00  0.00    -0.761 OA 
HETATM   21  O   UNL     2      -8.673   8.592  65.019  1.00  0.00    -0.179 OA 
HETATM   22  C   UNL     2      -8.016  10.359  66.439  1.00  0.00    -0.130 C  
ENDBRANCH   5   6
TORSDOF 1
ENDMDL
MODEL       26
REMARK 921   NORMALIZED FREE ENERGY PREDICTED BY IDOCK:   -5.46 KCAL/MOL
REMARK 922        TOTAL FREE ENERGY PREDICTED BY IDOCK:   -5.45 KCAL/MOL
REMARK 923 INTER-LIGAND FREE ENERGY PREDICTED BY IDOCK:   -5.79 KCAL/MOL
REMARK 924 INTRA-LIGAND FREE ENERGY PREDICTED BY IDOCK:    0.35 KCAL/MOL
REMARK 927      BINDING AFFINITY PREDICTED BY RF-SCORE:    0.00 PKD
ROOT
HETATM    1 NA   UNL     1      -9.180   7.597  62.700  1.00  0.00    -0.394 Na 
HETATM    2  O   UNL     2      -8.800   8.064  65.415  1.00  0.00    -0.126 OA 
HETATM    3  C   UNL     2      -8.983   9.366  65.120  1.00  0.00    -0.212 C  
HETATM    4  O   UNL     2      -8.319   9.866  64.232  1.00  0.00    -0.144 OA 
HETATM    5  C   UNL     2     -10.026  10.136  65.897  1.00  0.00    -0.267 C  
ENDROOT
BRANCH   5   6
HETATM    6  N   UNL     2     -10.197  11.602  65.596  1.00  0.00    -0.233 N  
HETATM    7  C   UNL     2      -8.906  12.302  65.744  1.00  0.00     0.345 C  
HETATM    8  C   UNL     2      -8.498  12.265  67.208  1.00  0.00    -0.181 C  
HETATM    9  N   UNL     2      -9.703  12.580  67.996  1.00  0.00    -0.209 N  
HETATM   10  C   UNL     2      -9.945  11.712  69.189  1.00  0.00     0.123 C  
HETATM   11  C   UNL     2     -11.223  10.928  69.012  1.00  0.00    -0.266 C  
HETATM   12  O   UNL     2     -12.140  11.378  68.139  1.00  0.00    -0.623 OA 
HETATM   13  O   UNL     2     -11.426   9.908  69.647  1.00  0.00    -0.205 OA 
HETATM   14 FE   UNL     2     -11.369  12.582  66.950  1.00  0.00    -0.236 Fe 
HETATM   15  O   UNL     2     -12.277  13.799  68.000  1.00  0.00    -0.323 OA 
HETATM   16  O   UNL     2     -12.616  12.369  65.555  1.00  0.00    -0.616 OA 
HETATM   17  C   UNL     2     -12.157  12.093  64.332  1.00  0.00    -0.357 C  
HETATM   18  C   UNL     2     -11.282  14.369  68.738  1.00  0.00    -0.260 C  
HETATM   19  C   UNL     2      -9.817  14.009  68.406  1.00  0.00    -0.232 C  
HETATM   20  O   UNL     2     -11.550  15.115  69.666  1.00  0.00    -0.272 OA 
HETATM   21  O   UNL     2     -12.882  12.169  63.352  1.00  0.00    -0.765 OA 
HETATM   22  C   UNL     2     -10.720  11.794  64.219  1.00  0.00    -0.342 C  
ENDBRANCH   5   6
TORSDOF 1
ENDMDL
MODEL       27
REMARK 921   NORMALIZED FREE ENERGY PREDICTED BY IDOCK:   -5.42 KCAL/MOL
REMARK 922        TOTAL FREE ENERGY PREDICTED BY IDOCK:   -5.41 KCAL/MOL
REMARK 923 INTER-LIGAND FREE ENERGY PREDICTED BY IDOCK:   -5.75 KCAL/MOL
REMARK 924 INTRA-LIGAND FREE ENERGY PREDICTED BY IDOCK:    0.34 KCAL/MOL
REMARK 927      BINDING AFFINITY PREDICTED BY RF-SCORE:    0.00 PKD
ROOT
HETATM    1 NA   UNL     1      -8.003  19.624  69.719  1.00  0.00    -0.319 Na 
HETATM    2  O   UNL     2     -10.364  18.290  69.105  1.00  0.00    -0.275 OA 
HETATM    3  C   UNL     2      -9.681  17.749  68.077  1.00  0.00    -0.304 C  
HETATM    4  O   UNL     2      -9.085  18.486  67.316  1.00  0.00    -0.271 OA 
HETATM    5  C   UNL     2      -9.671  16.243  67.937  1.00  0.00    -0.233 C  
ENDROOT
BRANCH   5   6
HETATM    6  N   UNL     2      -8.944  15.645  66.762  1.00  0.00    -0.238 N  
HETATM    7  C   UNL     2      -9.469  16.207  65.503  1.00  0.00     0.055 C  
HETATM    8  C   UNL     2     -10.907  15.746  65.328  1.00  0.00    -0.395 C  
HETATM    9  N   UNL     2     -10.941  14.313  65.670  1.00  0.00    -0.300 N  
HETATM   10  C   UNL     2     -12.076  13.880  66.541  1.00  0.00    -0.449 C  
HETATM   11  C   UNL     2     -11.555  13.379  67.866  1.00  0.00    -0.339 C  
HETATM   12  O   UNL     2     -10.276  12.977  67.945  1.00  0.00    -0.222 OA 
HETATM   13  O   UNL     2     -12.276  13.335  68.848  1.00  0.00    -0.275 OA 
HETATM   14 FE   UNL     2      -9.294  13.649  66.516  1.00  0.00    -0.216 Fe 
HETATM   15  O   UNL     2      -9.444  11.905  65.931  1.00  0.00    -0.232 OA 
HETATM   16  O   UNL     2      -7.600  13.569  67.333  1.00  0.00    -0.165 OA 
HETATM   17  C   UNL     2      -6.845  14.670  67.337  1.00  0.00    -0.055 C  
HETATM   18  C   UNL     2     -10.369  11.994  64.935  1.00  0.00    -0.278 C  
HETATM   19  C   UNL     2     -10.853  13.395  64.498  1.00  0.00    -0.406 C  
HETATM   20  O   UNL     2     -10.834  10.985  64.429  1.00  0.00    -0.334 OA 
HETATM   21  O   UNL     2      -5.663  14.628  67.640  1.00  0.00    -0.305 OA 
HETATM   22  C   UNL     2      -7.485  15.909  66.862  1.00  0.00    -0.198 C  
ENDBRANCH   5   6
TORSDOF 1
ENDMDL
MODEL       28
REMARK 921   NORMALIZED FREE ENERGY PREDICTED BY IDOCK:   -5.37 KCAL/MOL
REMARK 922        TOTAL FREE ENERGY PREDICTED BY IDOCK:   -5.35 KCAL/MOL
REMARK 923 INTER-LIGAND FREE ENERGY PREDICTED BY IDOCK:   -6.46 KCAL/MOL
REMARK 924 INTRA-LIGAND FREE ENERGY PREDICTED BY IDOCK:    1.10 KCAL/MOL
REMARK 927      BINDING AFFINITY PREDICTED BY RF-SCORE:    0.00 PKD
ROOT
HETATM    1 NA   UNL     1     -12.791  13.978  63.578  1.00  0.00    -0.648 Na 
HETATM    2  O   UNL     2     -10.995  15.846  64.587  1.00  0.00    -0.528 OA 
HETATM    3  C   UNL     2     -11.048  15.138  65.733  1.00  0.00    -0.330 C  
HETATM    4  O   UNL     2     -12.134  14.890  66.220  1.00  0.00    -0.163 OA 
HETATM    5  C   UNL     2      -9.748  14.667  66.344  1.00  0.00    -0.295 C  
ENDROOT
BRANCH   5   6
HETATM    6  N   UNL     2      -9.808  13.915  67.647  1.00  0.00    -0.232 N  
HETATM    7  C   UNL     2      -8.474  13.384  67.987  1.00  0.00    -0.173 C  
HETATM    8  C   UNL     2      -8.098  12.326  66.962  1.00  0.00    -0.141 C  
HETATM    9  N   UNL     2      -9.292  11.488  66.753  1.00  0.00    -0.177 N  
HETATM   10  C   UNL     2      -9.618  11.163  65.331  1.00  0.00    -0.229 C  
HETATM   11  C   UNL     2     -10.944  11.772  64.947  1.00  0.00    -0.300 C  
HETATM   12  O   UNL     2     -11.810  12.097  65.922  1.00  0.00    -0.504 OA 
HETATM   13  O   UNL     2     -11.232  11.966  63.778  1.00  0.00    -0.375 OA 
HETATM   14 FE   UNL     2     -10.934  12.215  67.557  1.00  0.00    -0.206 Fe 
HETATM   15  O   UNL     2     -11.773  10.593  67.828  1.00  0.00    -0.503 OA 
HETATM   16  O   UNL     2     -12.166  13.359  68.405  1.00  0.00    -0.293 OA 
HETATM   17  C   UNL     2     -11.704  14.472  68.980  1.00  0.00    -0.311 C  
HETATM   18  C   UNL     2     -10.755   9.696  67.698  1.00  0.00    -0.262 C  
HETATM   19  C   UNL     2      -9.312  10.231  67.554  1.00  0.00    -0.148 C  
HETATM   20  O   UNL     2     -10.987   8.499  67.657  1.00  0.00    -0.091 OA 
HETATM   21  O   UNL     2     -12.403  15.132  69.734  1.00  0.00    -0.300 OA 
HETATM   22  C   UNL     2     -10.290  14.802  68.738  1.00  0.00    -0.248 C  
ENDBRANCH   5   6
TORSDOF 1
ENDMDL
MODEL       29
REMARK 921   NORMALIZED FREE ENERGY PREDICTED BY IDOCK:   -5.35 KCAL/MOL
REMARK 922        TOTAL FREE ENERGY PREDICTED BY IDOCK:   -5.34 KCAL/MOL
REMARK 923 INTER-LIGAND FREE ENERGY PREDICTED BY IDOCK:   -5.66 KCAL/MOL
REMARK 924 INTRA-LIGAND FREE ENERGY PREDICTED BY IDOCK:    0.32 KCAL/MOL
REMARK 927      BINDING AFFINITY PREDICTED BY RF-SCORE:    0.00 PKD
ROOT
HETATM    1 NA   UNL     1      -7.750   8.975  72.176  1.00  0.00    -0.119 Na 
HETATM    2  O   UNL     2      -7.109   9.856  69.617  1.00  0.00    -0.069 OA 
HETATM    3  C   UNL     2      -8.431   9.787  69.364  1.00  0.00    -0.159 C  
HETATM    4  O   UNL     2      -9.023   8.754  69.613  1.00  0.00    -0.140 OA 
HETATM    5  C   UNL     2      -9.118  11.013  68.805  1.00  0.00    -0.157 C  
ENDROOT
BRANCH   5   6
HETATM    6  N   UNL     2     -10.586  10.917  68.482  1.00  0.00    -0.179 N  
HETATM    7  C   UNL     2     -10.799   9.971  67.371  1.00  0.00    -0.249 C  
HETATM    8  C   UNL     2     -10.175  10.551  66.112  1.00  0.00    -0.236 C  
HETATM    9  N   UNL     2     -10.550  11.976  66.066  1.00  0.00    -0.258 N  
HETATM   10  C   UNL     2      -9.452  12.927  65.715  1.00  0.00     0.013 C  
HETATM   11  C   UNL     2      -9.169  13.848  66.877  1.00  0.00    -0.259 C  
HETATM   12  O   UNL     2     -10.120  14.019  67.810  1.00  0.00    -0.233 OA 
HETATM   13  O   UNL     2      -8.102  14.430  66.971  1.00  0.00    -0.177 OA 
HETATM   14 FE   UNL     2     -11.368  12.644  67.725  1.00  0.00    -0.212 Fe 
HETATM   15  O   UNL     2     -12.387  13.969  66.941  1.00  0.00    -0.418 OA 
HETATM   16  O   UNL     2     -11.985  12.774  69.500  1.00  0.00    -0.309 OA 
HETATM   17  C   UNL     2     -12.000  11.669  70.248  1.00  0.00    -0.358 C  
HETATM   18  C   UNL     2     -12.377  13.622  65.623  1.00  0.00    -0.478 C  
HETATM   19  C   UNL     2     -11.739  12.275  65.217  1.00  0.00    -0.361 C  
HETATM   20  O   UNL     2     -12.827  14.382  64.780  1.00  0.00    -0.647 OA 
HETATM   21  O   UNL     2     -12.594  11.633  71.315  1.00  0.00    -0.373 OA 
HETATM   22  C   UNL     2     -11.355  10.476  69.674  1.00  0.00    -0.281 C  
ENDBRANCH   5   6
TORSDOF 1
ENDMDL
MODEL       30
REMARK 921   NORMALIZED FREE ENERGY PREDICTED BY IDOCK:   -5.27 KCAL/MOL
REMARK 922        TOTAL FREE ENERGY PREDICTED BY IDOCK:   -5.25 KCAL/MOL
REMARK 923 INTER-LIGAND FREE ENERGY PREDICTED BY IDOCK:   -6.35 KCAL/MOL
REMARK 924 INTRA-LIGAND FREE ENERGY PREDICTED BY IDOCK:    1.10 KCAL/MOL
REMARK 927      BINDING AFFINITY PREDICTED BY RF-SCORE:    0.00 PKD
ROOT
HETATM    1 NA   UNL     1     -13.178  15.817  69.673  1.00  0.00    -0.583 Na 
HETATM    2  O   UNL     2     -12.387  13.155  69.516  1.00  0.00    -0.191 OA 
HETATM    3  C   UNL     2     -11.768  13.505  68.371  1.00  0.00    -0.358 C  
HETATM    4  O   UNL     2     -12.405  14.089  67.515  1.00  0.00    -0.296 OA 
HETATM    5  C   UNL     2     -10.302  13.171  68.219  1.00  0.00    -0.252 C  
ENDROOT
BRANCH   5   6
HETATM    6  N   UNL     2      -9.625  13.523  66.920  1.00  0.00    -0.250 N  
HETATM    7  C   UNL     2      -8.174  13.278  67.022  1.00  0.00    -0.045 C  
HETATM    8  C   UNL     2      -7.586  14.255  68.027  1.00  0.00    -0.142 C  
HETATM    9  N   UNL     2      -8.183  15.572  67.743  1.00  0.00    -0.142 N  
HETATM   10  C   UNL     2      -8.649  16.346  68.933  1.00  0.00    -0.250 C  
HETATM   11  C   UNL     2     -10.146  16.533  68.881  1.00  0.00    -0.266 C  
HETATM   12  O   UNL     2     -10.768  16.419  67.696  1.00  0.00    -0.322 OA 
HETATM   13  O   UNL     2     -10.783  16.784  69.889  1.00  0.00    -0.292 OA 
HETATM   14 FE   UNL     2      -9.690  15.515  66.480  1.00  0.00    -0.214 Fe 
HETATM   15  O   UNL     2      -9.468  17.220  65.808  1.00  0.00    -0.527 OA 
HETATM   16  O   UNL     2     -11.067  14.903  65.351  1.00  0.00    -0.333 OA 
HETATM   17  C   UNL     2     -11.116  13.600  65.061  1.00  0.00    -0.332 C  
HETATM   18  C   UNL     2      -8.207  17.546  66.210  1.00  0.00    -0.240 C  
HETATM   19  C   UNL     2      -7.343  16.459  66.887  1.00  0.00    -0.234 C  
HETATM   20  O   UNL     2      -7.789  18.685  66.074  1.00  0.00    -0.411 OA 
HETATM   21  O   UNL     2     -11.832  13.177  64.166  1.00  0.00    -0.381 OA 
HETATM   22  C   UNL     2     -10.194  12.724  65.803  1.00  0.00    -0.289 C  
ENDBRANCH   5   6
TORSDOF 1
ENDMDL
MODEL       31
REMARK 921   NORMALIZED FREE ENERGY PREDICTED BY IDOCK:   -5.18 KCAL/MOL
REMARK 922        TOTAL FREE ENERGY PREDICTED BY IDOCK:   -5.16 KCAL/MOL
REMARK 923 INTER-LIGAND FREE ENERGY PREDICTED BY IDOCK:   -5.47 KCAL/MOL
REMARK 924 INTRA-LIGAND FREE ENERGY PREDICTED BY IDOCK:    0.32 KCAL/MOL
REMARK 927      BINDING AFFINITY PREDICTED BY RF-SCORE:    0.00 PKD
ROOT
HETATM    1 NA   UNL     1      -8.791   9.673  62.860  1.00  0.00    -0.149 Na 
HETATM    2  O   UNL     2      -9.847  12.243  62.966  1.00  0.00    -0.314 OA 
HETATM    3  C   UNL     2     -10.236  11.930  64.218  1.00  0.00    -0.311 C  
HETATM    4  O   UNL     2     -10.875  10.911  64.397  1.00  0.00    -0.299 OA 
HETATM    5  C   UNL     2      -9.834  12.855  65.344  1.00  0.00    -0.118 C  
ENDROOT
BRANCH   5   6
HETATM    6  N   UNL     2     -10.308  12.526  66.736  1.00  0.00    -0.225 N  
HETATM    7  C   UNL     2     -11.783  12.540  66.784  1.00  0.00    -0.384 C  
HETATM    8  C   UNL     2     -12.263  13.963  66.551  1.00  0.00    -0.442 C  
HETATM    9  N   UNL     2     -11.402  14.843  67.361  1.00  0.00    -0.339 N  
HETATM   10  C   UNL     2     -10.909  16.078  66.679  1.00  0.00    -0.179 C  
HETATM   11  C   UNL     2      -9.405  16.037  66.550  1.00  0.00    -0.268 C  
HETATM   12  O   UNL     2      -8.710  15.234  67.373  1.00  0.00    -0.163 OA 
HETATM   13  O   UNL     2      -8.827  16.718  65.720  1.00  0.00    -0.505 OA 
HETATM   14 FE   UNL     2      -9.824  13.947  68.119  1.00  0.00    -0.192 Fe 
HETATM   15  O   UNL     2      -9.654  15.034  69.601  1.00  0.00    -0.151 OA 
HETATM   16  O   UNL     2      -8.491  12.672  68.502  1.00  0.00    -0.140 OA 
HETATM   17  C   UNL     2      -8.666  11.423  68.065  1.00  0.00    -0.148 C  
HETATM   18  C   UNL     2     -10.860  15.665  69.658  1.00  0.00    -0.287 C  
HETATM   19  C   UNL     2     -11.975  15.219  68.686  1.00  0.00    -0.235 C  
HETATM   20  O   UNL     2     -11.039  16.590  70.434  1.00  0.00    -0.333 OA 
HETATM   21  O   UNL     2      -7.965  10.507  68.468  1.00  0.00    -0.106 OA 
HETATM   22  C   UNL     2      -9.803  11.194  67.157  1.00  0.00    -0.187 C  
ENDBRANCH   5   6
TORSDOF 1
ENDMDL
MODEL       32
REMARK 921   NORMALIZED FREE ENERGY PREDICTED BY IDOCK:   -5.17 KCAL/MOL
REMARK 922        TOTAL FREE ENERGY PREDICTED BY IDOCK:   -5.15 KCAL/MOL
REMARK 923 INTER-LIGAND FREE ENERGY PREDICTED BY IDOCK:   -5.46 KCAL/MOL
REMARK 924 INTRA-LIGAND FREE ENERGY PREDICTED BY IDOCK:    0.32 KCAL/MOL
REMARK 927      BINDING AFFINITY PREDICTED BY RF-SCORE:    0.00 PKD
ROOT
HETATM    1 NA   UNL     1      -7.173   9.356  63.006  1.00  0.00    -0.102 Na 
HETATM    2  O   UNL     2      -9.734  10.416  63.237  1.00  0.00    -0.313 OA 
HETATM    3  C   UNL     2      -9.477  10.502  64.558  1.00  0.00    -0.276 C  
HETATM    4  O   UNL     2      -9.081   9.513  65.144  1.00  0.00    -0.201 OA 
HETATM    5  C   UNL     2      -9.672  11.837  65.239  1.00  0.00    -0.211 C  
ENDROOT
BRANCH   5   6
HETATM    6  N   UNL     2      -9.427  11.919  66.723  1.00  0.00    -0.195 N  
HETATM    7  C   UNL     2     -10.396  11.071  67.443  1.00  0.00    -0.207 C  
HETATM    8  C   UNL     2     -11.786  11.659  67.260  1.00  0.00    -0.175 C  
HETATM    9  N   UNL     2     -11.662  13.115  67.449  1.00  0.00    -0.355 N  
HETATM   10  C   UNL     2     -12.380  13.964  66.450  1.00  0.00    -0.426 C  
HETATM   11  C   UNL     2     -11.391  14.776  65.650  1.00  0.00    -0.343 C  
HETATM   12  O   UNL     2     -10.168  14.990  66.163  1.00  0.00    -0.269 OA 
HETATM   13  O   UNL     2     -11.690  15.235  64.560  1.00  0.00    -0.402 OA 
HETATM   14 FE   UNL     2      -9.806  13.763  67.512  1.00  0.00    -0.203 Fe 
HETATM   15  O   UNL     2     -10.131  15.234  68.579  1.00  0.00    -0.213 OA 
HETATM   16  O   UNL     2      -7.928  13.848  67.413  1.00  0.00    -0.171 OA 
HETATM   17  C   UNL     2      -7.248  12.705  67.286  1.00  0.00    -0.103 C  
HETATM   18  C   UNL     2     -11.364  14.971  69.096  1.00  0.00    -0.296 C  
HETATM   19  C   UNL     2     -12.002  13.591  68.821  1.00  0.00    -0.339 C  
HETATM   20  O   UNL     2     -11.965  15.825  69.728  1.00  0.00    -0.352 OA 
HETATM   21  O   UNL     2      -6.037  12.668  67.445  1.00  0.00    -0.150 OA 
HETATM   22  C   UNL     2      -8.042  11.488  67.047  1.00  0.00    -0.161 C  
ENDBRANCH   5   6
TORSDOF 1
ENDMDL
MODEL       33
REMARK 921   NORMALIZED FREE ENERGY PREDICTED BY IDOCK:   -5.16 KCAL/MOL
REMARK 922        TOTAL FREE ENERGY PREDICTED BY IDOCK:   -5.13 KCAL/MOL
REMARK 923 INTER-LIGAND FREE ENERGY PREDICTED BY IDOCK:   -5.46 KCAL/MOL
REMARK 924 INTRA-LIGAND FREE ENERGY PREDICTED BY IDOCK:    0.32 KCAL/MOL
REMARK 927      BINDING AFFINITY PREDICTED BY RF-SCORE:    0.00 PKD
ROOT
HETATM    1 NA   UNL     1     -10.858  18.034  70.165  1.00  0.00    -0.507 Na 
HETATM    2  O   UNL     2     -12.215  15.619  69.916  1.00  0.00    -0.362 OA 
HETATM    3  C   UNL     2     -11.556  15.477  68.749  1.00  0.00    -0.378 C  
HETATM    4  O   UNL     2     -11.598  16.382  67.937  1.00  0.00    -0.106 OA 
HETATM    5  C   UNL     2     -10.774  14.204  68.519  1.00  0.00    -0.254 C  
ENDROOT
BRANCH   5   6
HETATM    6  N   UNL     2     -10.076  14.029  67.196  1.00  0.00    -0.256 N  
HETATM    7  C   UNL     2     -11.069  13.908  66.112  1.00  0.00    -0.299 C  
HETATM    8  C   UNL     2     -11.839  12.611  66.302  1.00  0.00    -0.410 C  
HETATM    9  N   UNL     2     -10.851  11.571  66.637  1.00  0.00    -0.276 N  
HETATM   10  C   UNL     2     -11.219  10.660  67.763  1.00  0.00    -0.313 C  
HETATM   11  C   UNL     2     -10.257  10.836  68.912  1.00  0.00    -0.203 C  
HETATM   12  O   UNL     2      -9.048  11.369  68.665  1.00  0.00    -0.175 OA 
HETATM   13  O   UNL     2     -10.562  10.502  70.044  1.00  0.00    -0.256 OA 
HETATM   14 FE   UNL     2      -9.056  12.268  67.038  1.00  0.00    -0.159 Fe 
HETATM   15  O   UNL     2      -8.121  10.769  66.502  1.00  0.00    -0.134 OA 
HETATM   16  O   UNL     2      -7.618  13.429  67.402  1.00  0.00    -0.162 OA 
HETATM   17  C   UNL     2      -7.800  14.739  67.220  1.00  0.00    -0.194 C  
HETATM   18  C   UNL     2      -9.042  10.080  65.771  1.00  0.00    -0.163 C  
HETATM   19  C   UNL     2     -10.403  10.748  65.476  1.00  0.00    -0.241 C  
HETATM   20  O   UNL     2      -8.807   8.943  65.395  1.00  0.00    -0.183 OA 
HETATM   21  O   UNL     2      -6.857  15.515  67.215  1.00  0.00    -0.188 OA 
HETATM   22  C   UNL     2      -9.175  15.180  66.927  1.00  0.00    -0.238 C  
ENDBRANCH   5   6
TORSDOF 1
ENDMDL
MODEL       34
REMARK 921   NORMALIZED FREE ENERGY PREDICTED BY IDOCK:   -5.09 KCAL/MOL
REMARK 922        TOTAL FREE ENERGY PREDICTED BY IDOCK:   -5.06 KCAL/MOL
REMARK 923 INTER-LIGAND FREE ENERGY PREDICTED BY IDOCK:   -6.19 KCAL/MOL
REMARK 924 INTRA-LIGAND FREE ENERGY PREDICTED BY IDOCK:    1.13 KCAL/MOL
REMARK 927      BINDING AFFINITY PREDICTED BY RF-SCORE:    0.00 PKD
ROOT
HETATM    1 NA   UNL     1     -10.840  13.794  70.915  1.00  0.00    -0.460 Na 
HETATM    2  O   UNL     2     -12.382  15.489  69.339  1.00  0.00    -0.266 OA 
HETATM    3  C   UNL     2     -11.499  15.224  68.356  1.00  0.00    -0.345 C  
HETATM    4  O   UNL     2     -10.312  15.372  68.576  1.00  0.00    -0.219 OA 
HETATM    5  C   UNL     2     -12.032  14.729  67.030  1.00  0.00    -0.203 C  
ENDROOT
BRANCH   5   6
HETATM    6  N   UNL     2     -11.047  14.476  65.919  1.00  0.00    -0.321 N  
HETATM    7  C   UNL     2     -11.718  13.802  64.792  1.00  0.00    -0.381 C  
HETATM    8  C   UNL     2     -12.142  12.413  65.239  1.00  0.00    -0.391 C  
HETATM    9  N   UNL     2     -11.010  11.840  65.987  1.00  0.00    -0.301 N  
HETATM   10  C   UNL     2     -11.358  11.149  67.266  1.00  0.00    -0.226 C  
HETATM   11  C   UNL     2     -10.744  11.879  68.437  1.00  0.00    -0.220 C  
HETATM   12  O   UNL     2      -9.694  12.687  68.213  1.00  0.00    -0.217 OA 
HETATM   13  O   UNL     2     -11.184  11.740  69.565  1.00  0.00    -0.245 OA 
HETATM   14 FE   UNL     2      -9.590  13.133  66.412  1.00  0.00    -0.218 Fe 
HETATM   15  O   UNL     2      -8.202  11.917  66.458  1.00  0.00    -0.133 OA 
HETATM   16  O   UNL     2      -8.621  14.734  66.619  1.00  0.00    -0.229 OA 
HETATM   17  C   UNL     2      -9.097  15.842  66.047  1.00  0.00    -0.328 C  
HETATM   18  C   UNL     2      -8.731  10.825  65.838  1.00  0.00    -0.181 C  
HETATM   19  C   UNL     2     -10.125  10.949  65.183  1.00  0.00    -0.292 C  
HETATM   20  O   UNL     2      -8.130   9.763  65.838  1.00  0.00    -0.111 OA 
HETATM   21  O   UNL     2      -8.413  16.850  65.949  1.00  0.00    -0.501 OA 
HETATM   22  C   UNL     2     -10.444  15.753  65.457  1.00  0.00    -0.403 C  
ENDBRANCH   5   6
TORSDOF 1
ENDMDL
MODEL       35
REMARK 921   NORMALIZED FREE ENERGY PREDICTED BY IDOCK:   -5.08 KCAL/MOL
REMARK 922        TOTAL FREE ENERGY PREDICTED BY IDOCK:   -5.05 KCAL/MOL
REMARK 923 INTER-LIGAND FREE ENERGY PREDICTED BY IDOCK:   -5.38 KCAL/MOL
REMARK 924 INTRA-LIGAND FREE ENERGY PREDICTED BY IDOCK:    0.33 KCAL/MOL
REMARK 927      BINDING AFFINITY PREDICTED BY RF-SCORE:    0.00 PKD
ROOT
HETATM    1 NA   UNL     1      -8.384   8.164  72.771  1.00  0.00    -0.097 Na 
HETATM    2  O   UNL     2      -7.493   9.093  70.306  1.00  0.00    -0.073 OA 
HETATM    3  C   UNL     2      -8.795   9.172  69.970  1.00  0.00    -0.182 C  
HETATM    4  O   UNL     2      -9.502   8.194  70.128  1.00  0.00    -0.166 OA 
HETATM    5  C   UNL     2      -9.320  10.485  69.436  1.00  0.00    -0.117 C  
ENDROOT
BRANCH   5   6
HETATM    6  N   UNL     2     -10.765  10.555  69.019  1.00  0.00    -0.209 N  
HETATM    7  C   UNL     2     -10.991   9.711  67.831  1.00  0.00    -0.145 C  
HETATM    8  C   UNL     2     -10.234  10.312  66.658  1.00  0.00    -0.233 C  
HETATM    9  N   UNL     2     -10.471  11.765  66.695  1.00  0.00    -0.218 N  
HETATM   10  C   UNL     2      -9.268  12.626  66.480  1.00  0.00    -0.200 C  
HETATM   11  C   UNL     2      -8.978  13.435  67.721  1.00  0.00    -0.205 C  
HETATM   12  O   UNL     2      -9.969  13.636  68.606  1.00  0.00    -0.224 OA 
HETATM   13  O   UNL     2      -7.870  13.903  67.921  1.00  0.00    -0.131 OA 
HETATM   14 FE   UNL     2     -11.331  12.397  68.347  1.00  0.00    -0.191 Fe 
HETATM   15  O   UNL     2     -12.169  13.865  67.602  1.00  0.00    -0.345 OA 
HETATM   16  O   UNL     2     -12.050  12.467  70.086  1.00  0.00    -0.340 OA 
HETATM   17  C   UNL     2     -12.218  11.320  70.748  1.00  0.00    -0.380 C  
HETATM   18  C   UNL     2     -12.103  13.609  66.265  1.00  0.00    -0.434 C  
HETATM   19  C   UNL     2     -11.568  12.236  65.800  1.00  0.00    -0.388 C  
HETATM   20  O   UNL     2     -12.424  14.464  65.455  1.00  0.00    -0.408 OA 
HETATM   21  O   UNL     2     -12.881  11.271  71.773  1.00  0.00    -0.416 OA 
HETATM   22  C   UNL     2     -11.649  10.111  70.128  1.00  0.00    -0.277 C  
ENDBRANCH   5   6
TORSDOF 1
ENDMDL
MODEL       36
REMARK 921   NORMALIZED FREE ENERGY PREDICTED BY IDOCK:   -5.07 KCAL/MOL
REMARK 922        TOTAL FREE ENERGY PREDICTED BY IDOCK:   -5.04 KCAL/MOL
REMARK 923 INTER-LIGAND FREE ENERGY PREDICTED BY IDOCK:   -5.43 KCAL/MOL
REMARK 924 INTRA-LIGAND FREE ENERGY PREDICTED BY IDOCK:    0.39 KCAL/MOL
REMARK 927      BINDING AFFINITY PREDICTED BY RF-SCORE:    0.00 PKD
ROOT
HETATM    1 NA   UNL     1      -6.471  10.986  71.113  1.00  0.00    -0.084 Na 
HETATM    2  O   UNL     2      -6.565  12.368  68.702  1.00  0.00    -0.067 OA 
HETATM    3  C   UNL     2      -7.542  11.507  68.354  1.00  0.00    -0.125 C  
HETATM    4  O   UNL     2      -7.336  10.313  68.460  1.00  0.00    -0.078 OA 
HETATM    5  C   UNL     2      -8.858  12.073  67.871  1.00  0.00    -0.174 C  
ENDROOT
BRANCH   5   6
HETATM    6  N   UNL     2      -9.931  11.107  67.441  1.00  0.00    -0.177 N  
HETATM    7  C   UNL     2      -9.382  10.141  66.471  1.00  0.00    -0.164 C  
HETATM    8  C   UNL     2      -9.017  10.886  65.198  1.00  0.00    -0.180 C  
HETATM    9  N   UNL     2     -10.129  11.807  64.906  1.00  0.00    -0.253 N  
HETATM   10  C   UNL     2      -9.739  13.195  64.512  1.00  0.00     0.224 C  
HETATM   11  C   UNL     2     -10.225  14.186  65.541  1.00  0.00    -0.351 C  
HETATM   12  O   UNL     2     -11.234  13.829  66.353  1.00  0.00    -0.308 OA 
HETATM   13  O   UNL     2      -9.718  15.290  65.638  1.00  0.00    -0.338 OA 
HETATM   14 FE   UNL     2     -11.432  11.981  66.370  1.00  0.00    -0.262 Fe 
HETATM   15  O   UNL     2     -12.888  12.389  65.310  1.00  0.00    -0.557 OA 
HETATM   16  O   UNL     2     -12.282  11.848  68.045  1.00  0.00    -0.491 OA 
HETATM   17  C   UNL     2     -11.777  11.003  68.946  1.00  0.00    -0.330 C  
HETATM   18  C   UNL     2     -12.473  12.022  64.065  1.00  0.00    -0.388 C  
HETATM   19  C   UNL     2     -11.122  11.286  63.923  1.00  0.00    -0.238 C  
HETATM   20  O   UNL     2     -13.138  12.307  63.082  1.00  0.00    -0.588 OA 
HETATM   21  O   UNL     2     -12.401  10.701  69.952  1.00  0.00    -0.309 OA 
HETATM   22  C   UNL     2     -10.482  10.384  68.616  1.00  0.00    -0.196 C  
ENDBRANCH   5   6
TORSDOF 1
ENDMDL
MODEL       37
REMARK 921   NORMALIZED FREE ENERGY PREDICTED BY IDOCK:   -4.98 KCAL/MOL
REMARK 922        TOTAL FREE ENERGY PREDICTED BY IDOCK:   -4.94 KCAL/MOL
REMARK 923 INTER-LIGAND FREE ENERGY PREDICTED BY IDOCK:   -5.34 KCAL/MOL
REMARK 924 INTRA-LIGAND FREE ENERGY PREDICTED BY IDOCK:    0.40 KCAL/MOL
REMARK 927      BINDING AFFINITY PREDICTED BY RF-SCORE:    0.00 PKD
ROOT
HETATM    1 NA   UNL     1     -11.675  16.274  72.994  1.00  0.00    -0.374 Na 
HETATM    2  O   UNL     2     -12.978  14.310  71.518  1.00  0.00    -0.307 OA 
HETATM    3  C   UNL     2     -12.262  14.757  70.467  1.00  0.00    -0.322 C  
HETATM    4  O   UNL     2     -12.280  15.945  70.207  1.00  0.00    -0.354 OA 
HETATM    5  C   UNL     2     -11.449  13.757  69.677  1.00  0.00    -0.237 C  
ENDROOT
BRANCH   5   6
HETATM    6  N   UNL     2     -10.686  14.253  68.477  1.00  0.00    -0.248 N  
HETATM    7  C   UNL     2     -11.607  14.461  67.343  1.00  0.00    -0.375 C  
HETATM    8  C   UNL     2     -12.154  13.111  66.907  1.00  0.00    -0.316 C  
HETATM    9  N   UNL     2     -11.016  12.175  66.886  1.00  0.00    -0.256 N  
HETATM   10  C   UNL     2     -11.265  10.835  67.498  1.00  0.00    -0.274 C  
HETATM   11  C   UNL     2     -10.386  10.643  68.710  1.00  0.00    -0.193 C  
HETATM   12  O   UNL     2      -9.276  11.392  68.826  1.00  0.00    -0.175 OA 
HETATM   13  O   UNL     2     -10.669   9.826  69.569  1.00  0.00    -0.213 OA 
HETATM   14 FE   UNL     2      -9.379  12.881  67.718  1.00  0.00    -0.163 Fe 
HETATM   15  O   UNL     2      -8.187  11.891  66.714  1.00  0.00    -0.170 OA 
HETATM   16  O   UNL     2      -8.171  13.969  68.668  1.00  0.00    -0.143 OA 
HETATM   17  C   UNL     2      -8.565  15.195  69.020  1.00  0.00    -0.219 C  
HETATM   18  C   UNL     2      -8.953  11.452  65.675  1.00  0.00    -0.123 C  
HETATM   19  C   UNL     2     -10.396  11.986  65.543  1.00  0.00    -0.263 C  
HETATM   20  O   UNL     2      -8.517  10.623  64.893  1.00  0.00    -0.172 OA 
HETATM   21  O   UNL     2      -7.766  16.024  69.429  1.00  0.00    -0.231 OA 
HETATM   22  C   UNL     2      -9.983  15.523  68.795  1.00  0.00    -0.214 C  
ENDBRANCH   5   6
TORSDOF 1
ENDMDL
MODEL       38
REMARK 921   NORMALIZED FREE ENERGY PREDICTED BY IDOCK:   -4.97 KCAL/MOL
REMARK 922        TOTAL FREE ENERGY PREDICTED BY IDOCK:   -4.93 KCAL/MOL
REMARK 923 INTER-LIGAND FREE ENERGY PREDICTED BY IDOCK:   -5.25 KCAL/MOL
REMARK 924 INTRA-LIGAND FREE ENERGY PREDICTED BY IDOCK:    0.32 KCAL/MOL
REMARK 927      BINDING AFFINITY PREDICTED BY RF-SCORE:    0.00 PKD
ROOT
HETATM    1 NA   UNL     1     -10.687   8.377  70.231  1.00  0.00    -0.202 Na 
HETATM    2  O   UNL     2      -9.088   9.934  68.573  1.00  0.00    -0.122 OA 
HETATM    3  C   UNL     2     -10.152  10.756  68.476  1.00  0.00    -0.176 C  
HETATM    4  O   UNL     2     -11.229  10.287  68.158  1.00  0.00    -0.278 OA 
HETATM    5  C   UNL     2      -9.957  12.221  68.792  1.00  0.00    -0.034 C  
ENDROOT
BRANCH   5   6
HETATM    6  N   UNL     2     -11.138  13.144  68.638  1.00  0.00    -0.257 N  
HETATM    7  C   UNL     2     -11.548  13.209  67.223  1.00  0.00    -0.355 C  
HETATM    8  C   UNL     2     -10.441  13.883  66.427  1.00  0.00    -0.284 C  
HETATM    9  N   UNL     2      -9.997  15.047  67.213  1.00  0.00    -0.232 N  
HETATM   10  C   UNL     2      -8.518  15.235  67.318  1.00  0.00    -0.193 C  
HETATM   11  C   UNL     2      -8.075  15.088  68.754  1.00  0.00    -0.166 C  
HETATM   12  O   UNL     2      -8.983  15.256  69.729  1.00  0.00    -0.201 OA 
HETATM   13  O   UNL     2      -6.917  14.825  69.030  1.00  0.00    -0.102 OA 
HETATM   14 FE   UNL     2     -10.705  15.096  69.047  1.00  0.00    -0.196 Fe 
HETATM   15  O   UNL     2     -10.671  16.932  69.239  1.00  0.00    -0.335 OA 
HETATM   16  O   UNL     2     -11.556  14.622  70.659  1.00  0.00    -0.278 OA 
HETATM   17  C   UNL     2     -12.317  13.525  70.675  1.00  0.00    -0.358 C  
HETATM   18  C   UNL     2     -10.538  17.371  67.956  1.00  0.00    -0.389 C  
HETATM   19  C   UNL     2     -10.621  16.340  66.809  1.00  0.00    -0.257 C  
HETATM   20  O   UNL     2     -10.316  18.549  67.725  1.00  0.00    -0.365 OA 
HETATM   21  O   UNL     2     -13.070  13.290  71.607  1.00  0.00    -0.376 OA 
HETATM   22  C   UNL     2     -12.275  12.676  69.472  1.00  0.00    -0.090 C  
ENDBRANCH   5   6
TORSDOF 1
ENDMDL
MODEL       39
REMARK 921   NORMALIZED FREE ENERGY PREDICTED BY IDOCK:   -4.93 KCAL/MOL
REMARK 922        TOTAL FREE ENERGY PREDICTED BY IDOCK:   -4.89 KCAL/MOL
REMARK 923 INTER-LIGAND FREE ENERGY PREDICTED BY IDOCK:   -5.21 KCAL/MOL
REMARK 924 INTRA-LIGAND FREE ENERGY PREDICTED BY IDOCK:    0.32 KCAL/MOL
REMARK 927      BINDING AFFINITY PREDICTED BY RF-SCORE:    0.00 PKD
ROOT
HETATM    1 NA   UNL     1     -12.471  13.228  67.570  1.00  0.00    -0.323 Na 
HETATM    2  O   UNL     2     -10.915  11.094  66.697  1.00  0.00    -0.274 OA 
HETATM    3  C   UNL     2     -10.631  10.891  67.998  1.00  0.00    -0.202 C  
HETATM    4  O   UNL     2     -10.219  11.823  68.662  1.00  0.00    -0.214 OA 
HETATM    5  C   UNL     2     -10.865   9.513  68.575  1.00  0.00    -0.132 C  
ENDROOT
BRANCH   5   6
HETATM    6  N   UNL     2     -10.505   9.278  70.019  1.00  0.00    -0.213 N  
HETATM    7  C   UNL     2      -9.068   9.535  70.229  1.00  0.00    -0.253 C  
HETATM    8  C   UNL     2      -8.270   8.488  69.469  1.00  0.00    -0.116 C  
HETATM    9  N   UNL     2      -8.922   7.190  69.717  1.00  0.00    -0.142 N  
HETATM   10  C   UNL     2      -9.107   6.315  68.520  1.00  0.00    -0.125 C  
HETATM   11  C   UNL     2     -10.577   6.112  68.245  1.00  0.00    -0.262 C  
HETATM   12  O   UNL     2     -11.453   6.312  69.244  1.00  0.00    -0.411 OA 
HETATM   13  O   UNL     2     -10.968   5.770  67.142  1.00  0.00    -0.268 OA 
HETATM   14 FE   UNL     2     -10.677   7.327  70.594  1.00  0.00    -0.211 Fe 
HETATM   15  O   UNL     2     -10.621   5.685  71.438  1.00  0.00    -0.239 OA 
HETATM   16  O   UNL     2     -12.273   8.009  71.326  1.00  0.00    -0.304 OA 
HETATM   17  C   UNL     2     -12.381   9.329  71.489  1.00  0.00    -0.360 C  
HETATM   18  C   UNL     2      -9.304   5.346  71.361  1.00  0.00    -0.147 C  
HETATM   19  C   UNL     2      -8.303   6.388  70.812  1.00  0.00    -0.126 C  
HETATM   20  O   UNL     2      -8.933   4.229  71.682  1.00  0.00    -0.114 OA 
HETATM   21  O   UNL     2     -13.280   9.814  72.159  1.00  0.00    -0.433 OA 
HETATM   22  C   UNL     2     -11.310  10.156  70.907  1.00  0.00    -0.340 C  
ENDBRANCH   5   6
TORSDOF 1
ENDMDL
MODEL       40
REMARK 921   NORMALIZED FREE ENERGY PREDICTED BY IDOCK:   -4.91 KCAL/MOL
REMARK 922        TOTAL FREE ENERGY PREDICTED BY IDOCK:   -4.87 KCAL/MOL
REMARK 923 INTER-LIGAND FREE ENERGY PREDICTED BY IDOCK:   -5.18 KCAL/MOL
REMARK 924 INTRA-LIGAND FREE ENERGY PREDICTED BY IDOCK:    0.31 KCAL/MOL
REMARK 927      BINDING AFFINITY PREDICTED BY RF-SCORE:    0.00 PKD
ROOT
HETATM    1 NA   UNL     1      -8.761   5.780  67.774  1.00  0.00    -0.108 Na 
HETATM    2  O   UNL     2     -10.916   7.288  66.870  1.00  0.00    -0.343 OA 
HETATM    3  C   UNL     2     -10.426   8.278  67.643  1.00  0.00    -0.235 C  
HETATM    4  O   UNL     2     -10.185   8.045  68.812  1.00  0.00    -0.198 OA 
HETATM    5  C   UNL     2     -10.177   9.626  67.007  1.00  0.00    -0.244 C  
ENDROOT
BRANCH   5   6
HETATM    6  N   UNL     2      -9.672  10.742  67.883  1.00  0.00    -0.164 N  
HETATM    7  C   UNL     2     -10.664  11.051  68.931  1.00  0.00    -0.211 C  
HETATM    8  C   UNL     2     -11.905  11.627  68.269  1.00  0.00    -0.265 C  
HETATM    9  N   UNL     2     -11.442  12.595  67.260  1.00  0.00    -0.321 N  
HETATM   10  C   UNL     2     -12.120  12.523  65.929  1.00  0.00    -0.352 C  
HETATM   11  C   UNL     2     -11.130  12.126  64.861  1.00  0.00    -0.319 C  
HETATM   12  O   UNL     2      -9.821  12.318  65.093  1.00  0.00    -0.241 OA 
HETATM   13  O   UNL     2     -11.504  11.644  63.806  1.00  0.00    -0.403 OA 
HETATM   14 FE   UNL     2      -9.507  12.531  66.913  1.00  0.00    -0.179 Fe 
HETATM   15  O   UNL     2      -9.323  14.297  66.410  1.00  0.00    -0.280 OA 
HETATM   16  O   UNL     2      -7.699  12.005  66.905  1.00  0.00    -0.146 OA 
HETATM   17  C   UNL     2      -7.312  11.056  67.761  1.00  0.00    -0.093 C  
HETATM   18  C   UNL     2     -10.477  14.866  66.858  1.00  0.00    -0.280 C  
HETATM   19  C   UNL     2     -11.434  14.013  67.722  1.00  0.00    -0.322 C  
HETATM   20  O   UNL     2     -10.765  16.010  66.548  1.00  0.00    -0.306 OA 
HETATM   21  O   UNL     2      -6.128  10.833  67.967  1.00  0.00    -0.050 OA 
HETATM   22  C   UNL     2      -8.378  10.368  68.509  1.00  0.00    -0.124 C  
ENDBRANCH   5   6
TORSDOF 1
ENDMDL
MODEL       41
REMARK 921   NORMALIZED FREE ENERGY PREDICTED BY IDOCK:   -4.81 KCAL/MOL
REMARK 922        TOTAL FREE ENERGY PREDICTED BY IDOCK:   -4.76 KCAL/MOL
REMARK 923 INTER-LIGAND FREE ENERGY PREDICTED BY IDOCK:   -5.14 KCAL/MOL
REMARK 924 INTRA-LIGAND FREE ENERGY PREDICTED BY IDOCK:    0.38 KCAL/MOL
REMARK 927      BINDING AFFINITY PREDICTED BY RF-SCORE:    0.00 PKD
ROOT
HETATM    1 NA   UNL     1     -13.792   8.071  72.717  1.00  0.00    -0.494 Na 
HETATM    2  O   UNL     2     -12.628  10.457  71.890  1.00  0.00    -0.397 OA 
HETATM    3  C   UNL     2     -11.634   9.692  71.397  1.00  0.00    -0.400 C  
HETATM    4  O   UNL     2     -11.102   8.879  72.128  1.00  0.00    -0.362 OA 
HETATM    5  C   UNL     2     -11.247   9.868  69.946  1.00  0.00    -0.250 C  
ENDROOT
BRANCH   5   6
HETATM    6  N   UNL     2     -10.105   9.043  69.412  1.00  0.00    -0.192 N  
HETATM    7  C   UNL     2      -8.822   9.568  69.915  1.00  0.00    -0.211 C  
HETATM    8  C   UNL     2      -8.597  10.949  69.320  1.00  0.00     0.020 C  
HETATM    9  N   UNL     2      -8.951  10.864  67.893  1.00  0.00    -0.138 N  
HETATM   10  C   UNL     2      -9.782  11.987  67.360  1.00  0.00    -0.182 C  
HETATM   11  C   UNL     2     -11.130  11.473  66.918  1.00  0.00    -0.307 C  
HETATM   12  O   UNL     2     -11.262  10.166  66.638  1.00  0.00     0.061 OA 
HETATM   13  O   UNL     2     -12.085  12.225  66.813  1.00  0.00    -0.593 OA 
HETATM   14 FE   UNL     2      -9.866   9.197  67.390  1.00  0.00    -0.142 Fe 
HETATM   15  O   UNL     2      -9.291   9.160  65.636  1.00  0.00    -0.224 OA 
HETATM   16  O   UNL     2     -10.748   7.535  67.473  1.00  0.00    -0.256 OA 
HETATM   17  C   UNL     2     -10.769   6.887  68.640  1.00  0.00    -0.216 C  
HETATM   18  C   UNL     2      -8.260  10.050  65.633  1.00  0.00    -0.143 C  
HETATM   19  C   UNL     2      -7.792  10.645  66.980  1.00  0.00    -0.117 C  
HETATM   20  O   UNL     2      -7.747  10.399  64.582  1.00  0.00    -0.140 OA 
HETATM   21  O   UNL     2     -11.118   5.718  68.710  1.00  0.00    -0.243 OA 
HETATM   22  C   UNL     2     -10.259   7.620  69.811  1.00  0.00    -0.210 C  
ENDBRANCH   5   6
TORSDOF 1
ENDMDL
MODEL       42
REMARK 921   NORMALIZED FREE ENERGY PREDICTED BY IDOCK:   -4.78 KCAL/MOL
REMARK 922        TOTAL FREE ENERGY PREDICTED BY IDOCK:   -4.73 KCAL/MOL
REMARK 923 INTER-LIGAND FREE ENERGY PREDICTED BY IDOCK:   -5.84 KCAL/MOL
REMARK 924 INTRA-LIGAND FREE ENERGY PREDICTED BY IDOCK:    1.12 KCAL/MOL
REMARK 927      BINDING AFFINITY PREDICTED BY RF-SCORE:    0.00 PKD
ROOT
HETATM    1 NA   UNL     1     -11.229  16.812  68.027  1.00  0.00    -0.317 Na 
HETATM    2  O   UNL     2      -9.251  15.300  69.264  1.00  0.00    -0.220 OA 
HETATM    3  C   UNL     2      -9.936  14.223  68.832  1.00  0.00    -0.156 C  
HETATM    4  O   UNL     2     -11.124  14.144  69.080  1.00  0.00    -0.247 OA 
HETATM    5  C   UNL     2      -9.193  13.174  68.035  1.00  0.00    -0.211 C  
ENDROOT
BRANCH   5   6
HETATM    6  N   UNL     2      -9.951  11.950  67.592  1.00  0.00    -0.187 N  
HETATM    7  C   UNL     2      -9.125  11.150  66.669  1.00  0.00    -0.170 C  
HETATM    8  C   UNL     2      -8.917  11.945  65.390  1.00  0.00     0.238 C  
HETATM    9  N   UNL     2     -10.221  12.531  65.034  1.00  0.00    -0.289 N  
HETATM   10  C   UNL     2     -10.197  13.966  64.617  1.00  0.00    -0.247 C  
HETATM   11  C   UNL     2     -10.971  14.808  65.601  1.00  0.00    -0.344 C  
HETATM   12  O   UNL     2     -11.884  14.208  66.384  1.00  0.00    -0.386 OA 
HETATM   13  O   UNL     2     -10.781  16.009  65.687  1.00  0.00    -0.349 OA 
HETATM   14 FE   UNL     2     -11.584  12.375  66.443  1.00  0.00    -0.264 Fe 
HETATM   15  O   UNL     2     -13.050  12.363  65.320  1.00  0.00    -0.403 OA 
HETATM   16  O   UNL     2     -12.439  12.047  68.089  1.00  0.00    -0.106 OA 
HETATM   17  C   UNL     2     -11.766  11.382  69.031  1.00  0.00    -0.343 C  
HETATM   18  C   UNL     2     -12.499  12.100  64.102  1.00  0.00    -0.396 C  
HETATM   19  C   UNL     2     -10.997  11.748  64.029  1.00  0.00    -0.384 C  
HETATM   20  O   UNL     2     -13.174  12.182  63.088  1.00  0.00    -0.535 OA 
HETATM   21  O   UNL     2     -12.330  10.941  70.021  1.00  0.00    -0.325 OA 
HETATM   22  C   UNL     2     -10.340  11.125  68.765  1.00  0.00    -0.205 C  
ENDBRANCH   5   6
TORSDOF 1
ENDMDL
MODEL       43
REMARK 921   NORMALIZED FREE ENERGY PREDICTED BY IDOCK:   -4.76 KCAL/MOL
REMARK 922        TOTAL FREE ENERGY PREDICTED BY IDOCK:   -4.71 KCAL/MOL
REMARK 923 INTER-LIGAND FREE ENERGY PREDICTED BY IDOCK:   -5.07 KCAL/MOL
REMARK 924 INTRA-LIGAND FREE ENERGY PREDICTED BY IDOCK:    0.36 KCAL/MOL
REMARK 927      BINDING AFFINITY PREDICTED BY RF-SCORE:    0.00 PKD
ROOT
HETATM    1 NA   UNL     1      -7.184   5.958  66.840  1.00  0.00    -0.058 Na 
HETATM    2  O   UNL     2      -8.365   7.823  68.530  1.00  0.00    -0.126 OA 
HETATM    3  C   UNL     2      -8.009   8.742  67.611  1.00  0.00    -0.106 C  
HETATM    4  O   UNL     2      -6.852   8.781  67.237  1.00  0.00    -0.066 OA 
HETATM    5  C   UNL     2      -9.078   9.665  67.070  1.00  0.00    -0.135 C  
ENDROOT
BRANCH   5   6
HETATM    6  N   UNL     2      -8.667  10.720  66.076  1.00  0.00    -0.177 N  
HETATM    7  C   UNL     2      -7.564  11.531  66.626  1.00  0.00    -0.088 C  
HETATM    8  C   UNL     2      -8.086  12.320  67.815  1.00  0.00    -0.155 C  
HETATM    9  N   UNL     2      -9.397  12.868  67.423  1.00  0.00    -0.187 N  
HETATM   10  C   UNL     2     -10.485  12.742  68.440  1.00  0.00    -0.243 C  
HETATM   11  C   UNL     2     -11.584  11.847  67.920  1.00  0.00    -0.323 C  
HETATM   12  O   UNL     2     -11.690  11.661  66.594  1.00  0.00    -0.523 OA 
HETATM   13  O   UNL     2     -12.363  11.302  68.683  1.00  0.00    -0.534 OA 
HETATM   14 FE   UNL     2     -10.105  12.130  65.743  1.00  0.00    -0.213 Fe 
HETATM   15  O   UNL     2     -11.103  13.608  65.266  1.00  0.00    -0.291 OA 
HETATM   16  O   UNL     2     -10.342  11.073  64.202  1.00  0.00    -0.326 OA 
HETATM   17  C   UNL     2      -9.357  10.245  63.845  1.00  0.00    -0.291 C  
HETATM   18  C   UNL     2     -10.600  14.589  66.067  1.00  0.00    -0.307 C  
HETATM   19  C   UNL     2      -9.356  14.274  66.929  1.00  0.00    -0.257 C  
HETATM   20  O   UNL     2     -11.148  15.677  66.131  1.00  0.00    -0.257 OA 
HETATM   21  O   UNL     2      -9.347   9.708  62.747  1.00  0.00    -0.247 OA 
HETATM   22  C   UNL     2      -8.244  10.094  64.797  1.00  0.00    -0.161 C  
ENDBRANCH   5   6
TORSDOF 1
ENDMDL
MODEL       44
REMARK 921   NORMALIZED FREE ENERGY PREDICTED BY IDOCK:   -4.73 KCAL/MOL
REMARK 922        TOTAL FREE ENERGY PREDICTED BY IDOCK:   -4.68 KCAL/MOL
REMARK 923 INTER-LIGAND FREE ENERGY PREDICTED BY IDOCK:   -5.05 KCAL/MOL
REMARK 924 INTRA-LIGAND FREE ENERGY PREDICTED BY IDOCK:    0.38 KCAL/MOL
REMARK 927      BINDING AFFINITY PREDICTED BY RF-SCORE:    0.00 PKD
ROOT
HETATM    1 NA   UNL     1      -6.952   7.256  70.806  1.00  0.00    -0.048 Na 
HETATM    2  O   UNL     2      -6.599   9.126  68.778  1.00  0.00    -0.052 OA 
HETATM    3  C   UNL     2      -7.929   9.025  68.583  1.00  0.00    -0.102 C  
HETATM    4  O   UNL     2      -8.418   7.922  68.430  1.00  0.00    -0.127 OA 
HETATM    5  C   UNL     2      -8.751  10.294  68.588  1.00  0.00    -0.133 C  
ENDROOT
BRANCH   5   6
HETATM    6  N   UNL     2     -10.230  10.182  68.324  1.00  0.00    -0.159 N  
HETATM    7  C   UNL     2     -10.466   9.419  67.084  1.00  0.00    -0.244 C  
HETATM    8  C   UNL     2      -9.936  10.226  65.909  1.00  0.00    -0.256 C  
HETATM    9  N   UNL     2     -10.370  11.619  66.117  1.00  0.00    -0.233 N  
HETATM   10  C   UNL     2      -9.331  12.667  65.875  1.00  0.00    -0.004 C  
HETATM   11  C   UNL     2      -9.021  13.399  67.158  1.00  0.00    -0.226 C  
HETATM   12  O   UNL     2      -9.925  13.371  68.151  1.00  0.00    -0.225 OA 
HETATM   13  O   UNL     2      -7.974  14.009  67.295  1.00  0.00    -0.179 OA 
HETATM   14 FE   UNL     2     -11.120  11.969  67.901  1.00  0.00    -0.182 Fe 
HETATM   15  O   UNL     2     -12.233  13.353  67.396  1.00  0.00    -0.326 OA 
HETATM   16  O   UNL     2     -11.643  11.779  69.700  1.00  0.00    -0.293 OA 
HETATM   17  C   UNL     2     -11.573  10.567  70.256  1.00  0.00    -0.332 C  
HETATM   18  C   UNL     2     -12.282  13.226  66.040  1.00  0.00    -0.424 C  
HETATM   19  C   UNL     2     -11.614  11.995  65.387  1.00  0.00    -0.286 C  
HETATM   20  O   UNL     2     -12.807  14.090  65.356  1.00  0.00    -0.658 OA 
HETATM   21  O   UNL     2     -12.104  10.331  71.330  1.00  0.00    -0.372 OA 
HETATM   22  C   UNL     2     -10.913   9.516  69.463  1.00  0.00    -0.195 C  
ENDBRANCH   5   6
TORSDOF 1
ENDMDL
MODEL       45
REMARK 921   NORMALIZED FREE ENERGY PREDICTED BY IDOCK:   -4.69 KCAL/MOL
REMARK 922        TOTAL FREE ENERGY PREDICTED BY IDOCK:   -4.63 KCAL/MOL
REMARK 923 INTER-LIGAND FREE ENERGY PREDICTED BY IDOCK:   -5.40 KCAL/MOL
REMARK 924 INTRA-LIGAND FREE ENERGY PREDICTED BY IDOCK:    0.77 KCAL/MOL
REMARK 927      BINDING AFFINITY PREDICTED BY RF-SCORE:    0.00 PKD
ROOT
HETATM    1 NA   UNL     1     -12.270  11.127  62.580  1.00  0.00    -0.853 Na 
HETATM    2  O   UNL     2      -9.710  10.216  63.171  1.00  0.00    -0.261 OA 
HETATM    3  C   UNL     2      -9.795  10.981  64.277  1.00  0.00    -0.303 C  
HETATM    4  O   UNL     2     -10.102  12.152  64.158  1.00  0.00    -0.313 OA 
HETATM    5  C   UNL     2      -9.525  10.335  65.617  1.00  0.00    -0.221 C  
ENDROOT
BRANCH   5   6
HETATM    6  N   UNL     2      -9.576  11.204  66.846  1.00  0.00    -0.184 N  
HETATM    7  C   UNL     2      -8.211  11.591  67.250  1.00  0.00    -0.155 C  
HETATM    8  C   UNL     2      -7.467  10.345  67.703  1.00  0.00    -0.089 C  
HETATM    9  N   UNL     2      -8.394   9.579  68.555  1.00  0.00    -0.116 N  
HETATM   10  C   UNL     2      -8.447   8.107  68.300  1.00  0.00    -0.130 C  
HETATM   11  C   UNL     2      -9.817   7.712  67.807  1.00  0.00    -0.158 C  
HETATM   12  O   UNL     2     -10.855   8.526  68.065  1.00  0.00    -0.108 OA 
HETATM   13  O   UNL     2      -9.988   6.676  67.188  1.00  0.00    -0.138 OA 
HETATM   14 FE   UNL     2     -10.251  10.228  68.507  1.00  0.00    -0.148 Fe 
HETATM   15  O   UNL     2     -10.714   9.668  70.204  1.00  0.00    -0.234 OA 
HETATM   16  O   UNL     2     -11.816  11.164  68.040  1.00  0.00    -0.582 OA 
HETATM   17  C   UNL     2     -11.707  12.208  67.214  1.00  0.00    -0.299 C  
HETATM   18  C   UNL     2      -9.507   9.426  70.787  1.00  0.00    -0.241 C  
HETATM   19  C   UNL     2      -8.223   9.811  70.018  1.00  0.00    -0.191 C  
HETATM   20  O   UNL     2      -9.444   8.879  71.877  1.00  0.00    -0.290 OA 
HETATM   21  O   UNL     2     -12.633  12.989  67.054  1.00  0.00    -0.160 OA 
HETATM   22  C   UNL     2     -10.390  12.421  66.591  1.00  0.00    -0.226 C  
ENDBRANCH   5   6
TORSDOF 1
ENDMDL
MODEL       46
REMARK 921   NORMALIZED FREE ENERGY PREDICTED BY IDOCK:   -4.66 KCAL/MOL
REMARK 922        TOTAL FREE ENERGY PREDICTED BY IDOCK:   -4.61 KCAL/MOL
REMARK 923 INTER-LIGAND FREE ENERGY PREDICTED BY IDOCK:   -5.21 KCAL/MOL
REMARK 924 INTRA-LIGAND FREE ENERGY PREDICTED BY IDOCK:    0.61 KCAL/MOL
REMARK 927      BINDING AFFINITY PREDICTED BY RF-SCORE:    0.00 PKD
ROOT
HETATM    1 NA   UNL     1      -8.818   7.616  64.111  1.00  0.00    -0.346 Na 
HETATM    2  O   UNL     2      -7.883  10.226  64.333  1.00  0.00    -0.154 OA 
HETATM    3  C   UNL     2      -9.089  10.513  64.861  1.00  0.00    -0.205 C  
HETATM    4  O   UNL     2     -10.090  10.186  64.252  1.00  0.00    -0.253 OA 
HETATM    5  C   UNL     2      -9.136  11.209  66.202  1.00  0.00    -0.201 C  
ENDROOT
BRANCH   5   6
HETATM    6  N   UNL     2     -10.485  11.569  66.768  1.00  0.00    -0.230 N  
HETATM    7  C   UNL     2     -11.361  12.085  65.698  1.00  0.00    -0.329 C  
HETATM    8  C   UNL     2     -10.797  13.408  65.205  1.00  0.00    -0.309 C  
HETATM    9  N   UNL     2     -10.409  14.179  66.399  1.00  0.00    -0.282 N  
HETATM   10  C   UNL     2      -9.078  14.857  66.332  1.00  0.00    -0.258 C  
HETATM   11  C   UNL     2      -8.146  14.279  67.369  1.00  0.00    -0.196 C  
HETATM   12  O   UNL     2      -8.675  13.636  68.424  1.00  0.00    -0.176 OA 
HETATM   13  O   UNL     2      -6.937  14.391  67.259  1.00  0.00    -0.209 OA 
HETATM   14 FE   UNL     2     -10.431  13.141  68.069  1.00  0.00    -0.202 Fe 
HETATM   15  O   UNL     2     -10.784  14.559  69.197  1.00  0.00    -0.248 OA 
HETATM   16  O   UNL     2     -10.530  11.720  69.301  1.00  0.00    -0.096 OA 
HETATM   17  C   UNL     2     -10.947  10.530  68.863  1.00  0.00    -0.246 C  
HETATM   18  C   UNL     2     -11.212  15.530  68.342  1.00  0.00    -0.341 C  
HETATM   19  C   UNL     2     -11.430  15.165  66.857  1.00  0.00    -0.214 C  
HETATM   20  O   UNL     2     -11.380  16.673  68.738  1.00  0.00    -0.274 OA 
HETATM   21  O   UNL     2     -11.250   9.638  69.641  1.00  0.00    -0.220 OA 
HETATM   22  C   UNL     2     -11.115  10.385  67.407  1.00  0.00    -0.226 C  
ENDBRANCH   5   6
TORSDOF 1
ENDMDL
MODEL       47
REMARK 921   NORMALIZED FREE ENERGY PREDICTED BY IDOCK:   -4.62 KCAL/MOL
REMARK 922        TOTAL FREE ENERGY PREDICTED BY IDOCK:   -4.56 KCAL/MOL
REMARK 923 INTER-LIGAND FREE ENERGY PREDICTED BY IDOCK:   -4.89 KCAL/MOL
REMARK 924 INTRA-LIGAND FREE ENERGY PREDICTED BY IDOCK:    0.33 KCAL/MOL
REMARK 927      BINDING AFFINITY PREDICTED BY RF-SCORE:    0.00 PKD
ROOT
HETATM    1 NA   UNL     1      -9.879   4.634  70.811  1.00  0.00    -0.127 Na 
HETATM    2  O   UNL     2     -11.432   6.188  69.106  1.00  0.00    -0.379 OA 
HETATM    3  C   UNL     2     -11.059   7.233  69.872  1.00  0.00    -0.212 C  
HETATM    4  O   UNL     2     -11.213   7.162  71.076  1.00  0.00    -0.253 OA 
HETATM    5  C   UNL     2     -10.443   8.435  69.192  1.00  0.00    -0.206 C  
ENDROOT
BRANCH   5   6
HETATM    6  N   UNL     2     -10.070   9.618  70.046  1.00  0.00    -0.236 N  
HETATM    7  C   UNL     2     -11.285  10.255  70.587  1.00  0.00    -0.325 C  
HETATM    8  C   UNL     2     -12.071  10.859  69.435  1.00  0.00    -0.290 C  
HETATM    9  N   UNL     2     -11.099  11.542  68.565  1.00  0.00    -0.216 N  
HETATM   10  C   UNL     2     -11.262  11.310  67.097  1.00  0.00    -0.275 C  
HETATM   11  C   UNL     2     -10.059  10.584  66.547  1.00  0.00    -0.225 C  
HETATM   12  O   UNL     2      -8.905  10.635  67.235  1.00  0.00    -0.136 OA 
HETATM   13  O   UNL     2     -10.124   9.964  65.499  1.00  0.00    -0.303 OA 
HETATM   14 FE   UNL     2      -9.220  11.147  68.994  1.00  0.00    -0.153 Fe 
HETATM   15  O   UNL     2      -8.522  12.742  68.379  1.00  0.00    -0.164 OA 
HETATM   16  O   UNL     2      -7.669  10.386  69.744  1.00  0.00    -0.158 OA 
HETATM   17  C   UNL     2      -7.807   9.575  70.795  1.00  0.00    -0.055 C  
HETATM   18  C   UNL     2      -9.623  13.539  68.277  1.00  0.00    -0.218 C  
HETATM   19  C   UNL     2     -10.972  13.008  68.810  1.00  0.00    -0.258 C  
HETATM   20  O   UNL     2      -9.548  14.631  67.738  1.00  0.00    -0.209 OA 
HETATM   21  O   UNL     2      -6.842   9.235  71.464  1.00  0.00    -0.260 OA 
HETATM   22  C   UNL     2      -9.182   9.197  71.161  1.00  0.00    -0.231 C  
ENDBRANCH   5   6
TORSDOF 1
ENDMDL
MODEL       48
REMARK 921   NORMALIZED FREE ENERGY PREDICTED BY IDOCK:   -4.62 KCAL/MOL
REMARK 922        TOTAL FREE ENERGY PREDICTED BY IDOCK:   -4.56 KCAL/MOL
REMARK 923 INTER-LIGAND FREE ENERGY PREDICTED BY IDOCK:   -4.92 KCAL/MOL
REMARK 924 INTRA-LIGAND FREE ENERGY PREDICTED BY IDOCK:    0.36 KCAL/MOL
REMARK 927      BINDING AFFINITY PREDICTED BY RF-SCORE:    0.00 PKD
ROOT
HETATM    1 NA   UNL     1      -8.206  14.841  66.033  1.00  0.00    -0.382 Na 
HETATM    2  O   UNL     2      -8.607  14.119  68.688  1.00  0.00    -0.171 OA 
HETATM    3  C   UNL     2      -9.529  13.257  68.216  1.00  0.00    -0.209 C  
HETATM    4  O   UNL     2     -10.397  13.674  67.474  1.00  0.00    -0.238 OA 
HETATM    5  C   UNL     2      -9.422  11.803  68.617  1.00  0.00    -0.100 C  
ENDROOT
BRANCH   5   6
HETATM    6  N   UNL     2     -10.480  10.851  68.125  1.00  0.00    -0.173 N  
HETATM    7  C   UNL     2     -11.748  11.090  68.840  1.00  0.00    -0.330 C  
HETATM    8  C   UNL     2     -11.559  10.716  70.301  1.00  0.00    -0.336 C  
HETATM    9  N   UNL     2     -10.826   9.438  70.325  1.00  0.00    -0.242 N  
HETATM   10  C   UNL     2      -9.703   9.351  71.306  1.00  0.00    -0.139 C  
HETATM   11  C   UNL     2      -8.388   9.189  70.582  1.00  0.00    -0.205 C  
HETATM   12  O   UNL     2      -8.401   8.721  69.322  1.00  0.00    -0.116 OA 
HETATM   13  O   UNL     2      -7.333   9.471  71.123  1.00  0.00    -0.318 OA 
HETATM   14 FE   UNL     2     -10.096   8.899  68.580  1.00  0.00    -0.155 Fe 
HETATM   15  O   UNL     2     -10.136   7.078  68.887  1.00  0.00    -0.163 OA 
HETATM   16  O   UNL     2      -9.564   8.907  66.773  1.00  0.00    -0.169 OA 
HETATM   17  C   UNL     2      -9.989   9.903  65.993  1.00  0.00    -0.268 C  
HETATM   18  C   UNL     2     -10.959   6.968  69.967  1.00  0.00    -0.270 C  
HETATM   19  C   UNL     2     -11.691   8.232  70.471  1.00  0.00    -0.066 C  
HETATM   20  O   UNL     2     -11.081   5.900  70.545  1.00  0.00    -0.311 OA 
HETATM   21  O   UNL     2      -9.875   9.849  64.778  1.00  0.00    -0.307 OA 
HETATM   22  C   UNL     2     -10.687  11.014  66.662  1.00  0.00    -0.249 C  
ENDBRANCH   5   6
TORSDOF 1
ENDMDL
MODEL       49
REMARK 921   NORMALIZED FREE ENERGY PREDICTED BY IDOCK:   -4.56 KCAL/MOL
REMARK 922        TOTAL FREE ENERGY PREDICTED BY IDOCK:   -4.50 KCAL/MOL
REMARK 923 INTER-LIGAND FREE ENERGY PREDICTED BY IDOCK:   -4.82 KCAL/MOL
REMARK 924 INTRA-LIGAND FREE ENERGY PREDICTED BY IDOCK:    0.32 KCAL/MOL
REMARK 927      BINDING AFFINITY PREDICTED BY RF-SCORE:    0.00 PKD
ROOT
HETATM    1 NA   UNL     1     -10.776  11.781  64.402  1.00  0.00    -0.248 Na 
HETATM    2  O   UNL     2      -9.749   9.378  65.354  1.00  0.00    -0.280 OA 
HETATM    3  C   UNL     2      -9.527  10.039  66.508  1.00  0.00    -0.175 C  
HETATM    4  O   UNL     2      -8.914  11.089  66.474  1.00  0.00    -0.162 OA 
HETATM    5  C   UNL     2     -10.076   9.450  67.787  1.00  0.00    -0.198 C  
ENDROOT
BRANCH   5   6
HETATM    6  N   UNL     2      -9.787  10.167  69.080  1.00  0.00    -0.194 N  
HETATM    7  C   UNL     2      -8.336  10.172  69.342  1.00  0.00    -0.168 C  
HETATM    8  C   UNL     2      -7.884   8.743  69.599  1.00  0.00    -0.090 C  
HETATM    9  N   UNL     2      -8.883   8.132  70.493  1.00  0.00    -0.141 N  
HETATM   10  C   UNL     2      -9.325   6.752  70.129  1.00  0.00    -0.159 C  
HETATM   11  C   UNL     2     -10.793   6.750  69.777  1.00  0.00    -0.272 C  
HETATM   12  O   UNL     2     -11.564   7.755  70.226  1.00  0.00    -0.181 OA 
HETATM   13  O   UNL     2     -11.277   5.857  69.103  1.00  0.00    -0.340 OA 
HETATM   14 FE   UNL     2     -10.515   9.205  70.726  1.00  0.00    -0.176 Fe 
HETATM   15  O   UNL     2     -10.933   8.592  72.417  1.00  0.00    -0.357 OA 
HETATM   16  O   UNL     2     -11.837  10.533  70.532  1.00  0.00    -0.291 OA 
HETATM   17  C   UNL     2     -11.554  11.603  69.786  1.00  0.00    -0.315 C  
HETATM   18  C   UNL     2      -9.772   8.007  72.826  1.00  0.00    -0.280 C  
HETATM   19  C   UNL     2      -8.516   8.157  71.938  1.00  0.00    -0.150 C  
HETATM   20  O   UNL     2      -9.740   7.346  73.851  1.00  0.00    -0.281 OA 
HETATM   21  O   UNL     2     -12.268  12.595  69.804  1.00  0.00    -0.244 OA 
HETATM   22  C   UNL     2     -10.294  11.563  69.025  1.00  0.00    -0.118 C  
ENDBRANCH   5   6
TORSDOF 1
ENDMDL
MODEL       50
REMARK 921   NORMALIZED FREE ENERGY PREDICTED BY IDOCK:   -4.46 KCAL/MOL
REMARK 922        TOTAL FREE ENERGY PREDICTED BY IDOCK:   -4.39 KCAL/MOL
REMARK 923 INTER-LIGAND FREE ENERGY PREDICTED BY IDOCK:   -4.71 KCAL/MOL
REMARK 924 INTRA-LIGAND FREE ENERGY PREDICTED BY IDOCK:    0.32 KCAL/MOL
REMARK 927      BINDING AFFINITY PREDICTED BY RF-SCORE:    0.00 PKD
ROOT
HETATM    1 NA   UNL     1     -12.175  16.226  64.070  1.00  0.00    -0.508 Na 
HETATM    2  O   UNL     2     -10.864  15.658  66.457  1.00  0.00    -0.311 OA 
HETATM    3  C   UNL     2     -11.184  14.371  66.216  1.00  0.00    -0.338 C  
HETATM    4  O   UNL     2     -12.342  14.088  65.978  1.00  0.00    -0.445 OA 
HETATM    5  C   UNL     2     -10.074  13.344  66.231  1.00  0.00    -0.299 C  
ENDROOT
BRANCH   5   6
HETATM    6  N   UNL     2     -10.441  11.900  66.006  1.00  0.00    -0.237 N  
HETATM    7  C   UNL     2     -11.399  11.456  67.037  1.00  0.00    -0.236 C  
HETATM    8  C   UNL     2     -10.697  11.458  68.385  1.00  0.00    -0.203 C  
HETATM    9  N   UNL     2      -9.369  10.855  68.177  1.00  0.00    -0.160 N  
HETATM   10  C   UNL     2      -8.224  11.564  68.826  1.00  0.00    -0.082 C  
HETATM   11  C   UNL     2      -7.278  12.096  67.776  1.00  0.00    -0.113 C  
HETATM   12  O   UNL     2      -7.300  11.545  66.551  1.00  0.00    -0.108 OA 
HETATM   13  O   UNL     2      -6.506  13.005  68.029  1.00  0.00    -0.090 OA 
HETATM   14 FE   UNL     2      -8.885  10.610  66.287  1.00  0.00    -0.137 Fe 
HETATM   15  O   UNL     2      -7.768   9.162  66.540  1.00  0.00    -0.095 OA 
HETATM   16  O   UNL     2      -8.893  10.684  64.405  1.00  0.00    -0.190 OA 
HETATM   17  C   UNL     2      -9.990  11.137  63.794  1.00  0.00    -0.350 C  
HETATM   18  C   UNL     2      -8.091   8.741  67.795  1.00  0.00    -0.107 C  
HETATM   19  C   UNL     2      -9.290   9.404  68.511  1.00  0.00    -0.138 C  
HETATM   20  O   UNL     2      -7.421   7.888  68.353  1.00  0.00    -0.095 OA 
HETATM   21  O   UNL     2     -10.148  10.998  62.590  1.00  0.00    -0.157 OA 
HETATM   22  C   UNL     2     -11.033  11.717  64.656  1.00  0.00    -0.310 C  
ENDBRANCH   5   6
TORSDOF 1
ENDMDL
MODEL       51
REMARK 921   NORMALIZED FREE ENERGY PREDICTED BY IDOCK:   -4.45 KCAL/MOL
REMARK 922        TOTAL FREE ENERGY PREDICTED BY IDOCK:   -4.38 KCAL/MOL
REMARK 923 INTER-LIGAND FREE ENERGY PREDICTED BY IDOCK:   -4.73 KCAL/MOL
REMARK 924 INTRA-LIGAND FREE ENERGY PREDICTED BY IDOCK:    0.35 KCAL/MOL
REMARK 927      BINDING AFFINITY PREDICTED BY RF-SCORE:    0.00 PKD
ROOT
HETATM    1 NA   UNL     1      -9.645   6.176  72.070  1.00  0.00    -0.149 Na 
HETATM    2  O   UNL     2      -9.375   8.942  72.168  1.00  0.00    -0.348 OA 
HETATM    3  C   UNL     2      -8.989   8.856  70.880  1.00  0.00    -0.222 C  
HETATM    4  O   UNL     2      -8.098   8.083  70.584  1.00  0.00    -0.099 OA 
HETATM    5  C   UNL     2      -9.705   9.711  69.859  1.00  0.00    -0.231 C  
ENDROOT
BRANCH   5   6
HETATM    6  N   UNL     2      -9.241   9.645  68.427  1.00  0.00    -0.133 N  
HETATM    7  C   UNL     2      -7.933  10.312  68.289  1.00  0.00    -0.106 C  
HETATM    8  C   UNL     2      -8.114  11.797  68.556  1.00  0.00    -0.140 C  
HETATM    9  N   UNL     2      -9.333  12.215  67.842  1.00  0.00    -0.185 N  
HETATM   10  C   UNL     2     -10.267  13.094  68.609  1.00  0.00    -0.170 C  
HETATM   11  C   UNL     2     -11.584  12.389  68.828  1.00  0.00    -0.326 C  
HETATM   12  O   UNL     2     -11.914  11.372  68.015  1.00  0.00    -0.613 OA 
HETATM   13  O   UNL     2     -12.339  12.732  69.722  1.00  0.00    -0.170 OA 
HETATM   14 FE   UNL     2     -10.406  10.722  67.143  1.00  0.00    -0.173 Fe 
HETATM   15  O   UNL     2     -11.150  11.641  65.725  1.00  0.00    -0.302 OA 
HETATM   16  O   UNL     2     -11.064   8.994  66.785  1.00  0.00     0.154 OA 
HETATM   17  C   UNL     2     -10.324   7.946  67.153  1.00  0.00    -0.328 C  
HETATM   18  C   UNL     2     -10.354  12.742  65.622  1.00  0.00    -0.279 C  
HETATM   19  C   UNL     2      -9.086  12.823  66.503  1.00  0.00    -0.147 C  
HETATM   20  O   UNL     2     -10.661  13.661  64.879  1.00  0.00    -0.359 OA 
HETATM   21  O   UNL     2     -10.577   6.820  66.753  1.00  0.00    -0.269 OA 
HETATM   22  C   UNL     2      -9.138   8.233  67.978  1.00  0.00    -0.137 C  
ENDBRANCH   5   6
TORSDOF 1
ENDMDL
MODEL       52
REMARK 921   NORMALIZED FREE ENERGY PREDICTED BY IDOCK:   -4.37 KCAL/MOL
REMARK 922        TOTAL FREE ENERGY PREDICTED BY IDOCK:   -4.30 KCAL/MOL
REMARK 923 INTER-LIGAND FREE ENERGY PREDICTED BY IDOCK:   -4.64 KCAL/MOL
REMARK 924 INTRA-LIGAND FREE ENERGY PREDICTED BY IDOCK:    0.34 KCAL/MOL
REMARK 927      BINDING AFFINITY PREDICTED BY RF-SCORE:    0.00 PKD
ROOT
HETATM    1 NA   UNL     1      -8.335   3.192  71.185  1.00  0.00    -0.055 Na 
HETATM    2  O   UNL     2      -7.327   5.140  69.477  1.00  0.00    -0.055 OA 
HETATM    3  C   UNL     2      -8.613   5.455  69.228  1.00  0.00    -0.102 C  
HETATM    4  O   UNL     2      -9.380   4.571  68.895  1.00  0.00    -0.124 OA 
HETATM    5  C   UNL     2      -9.046   6.893  69.401  1.00  0.00    -0.141 C  
ENDROOT
BRANCH   5   6
HETATM    6  N   UNL     2     -10.473   7.248  69.079  1.00  0.00    -0.209 N  
HETATM    7  C   UNL     2     -10.701   7.159  67.624  1.00  0.00    -0.244 C  
HETATM    8  C   UNL     2      -9.882   8.241  66.938  1.00  0.00    -0.247 C  
HETATM    9  N   UNL     2     -10.054   9.473  67.726  1.00  0.00    -0.185 N  
HETATM   10  C   UNL     2      -8.807  10.253  67.995  1.00  0.00    -0.122 C  
HETATM   11  C   UNL     2      -8.519  10.281  69.476  1.00  0.00    -0.142 C  
HETATM   12  O   UNL     2      -9.526  10.045  70.333  1.00  0.00    -0.123 OA 
HETATM   13  O   UNL     2      -7.397  10.515  69.894  1.00  0.00    -0.154 OA 
HETATM   14 FE   UNL     2     -10.934   9.199  69.464  1.00  0.00    -0.214 Fe 
HETATM   15  O   UNL     2     -11.681  10.883  69.591  1.00  0.00    -0.275 OA 
HETATM   16  O   UNL     2     -11.702   8.393  70.983  1.00  0.00    -0.277 OA 
HETATM   17  C   UNL     2     -11.941   7.080  70.950  1.00  0.00    -0.364 C  
HETATM   18  C   UNL     2     -11.587  11.357  68.316  1.00  0.00    -0.306 C  
HETATM   19  C   UNL     2     -11.100  10.399  67.206  1.00  0.00    -0.179 C  
HETATM   20  O   UNL     2     -11.843  12.524  68.070  1.00  0.00    -0.346 OA 
HETATM   21  O   UNL     2     -12.637   6.541  71.797  1.00  0.00    -0.335 OA 
HETATM   22  C   UNL     2     -11.410   6.341  69.792  1.00  0.00    -0.436 C  
ENDBRANCH   5   6
TORSDOF 1
ENDMDL
MODEL       53
REMARK 921   NORMALIZED FREE ENERGY PREDICTED BY IDOCK:   -4.33 KCAL/MOL
REMARK 922        TOTAL FREE ENERGY PREDICTED BY IDOCK:   -4.25 KCAL/MOL
REMARK 923 INTER-LIGAND FREE ENERGY PREDICTED BY IDOCK:   -4.78 KCAL/MOL
REMARK 924 INTRA-LIGAND FREE ENERGY PREDICTED BY IDOCK:    0.52 KCAL/MOL
REMARK 927      BINDING AFFINITY PREDICTED BY RF-SCORE:    0.00 PKD
ROOT
HETATM    1 NA   UNL     1     -11.205  11.150  66.614  1.00  0.00    -0.247 Na 
HETATM    2  O   UNL     2      -9.057   9.528  67.311  1.00  0.00    -0.130 OA 
HETATM    3  C   UNL     2      -9.463   9.698  68.585  1.00  0.00    -0.146 C  
HETATM    4  O   UNL     2      -9.640  10.828  68.998  1.00  0.00    -0.197 OA 
HETATM    5  C   UNL     2      -9.702   8.468  69.430  1.00  0.00    -0.177 C  
ENDROOT
BRANCH   5   6
HETATM    6  N   UNL     2     -10.112   8.663  70.866  1.00  0.00    -0.199 N  
HETATM    7  C   UNL     2      -8.917   8.823  71.716  1.00  0.00    -0.212 C  
HETATM    8  C   UNL     2      -8.146   7.513  71.722  1.00  0.00    -0.102 C  
HETATM    9  N   UNL     2      -9.137   6.434  71.885  1.00  0.00    -0.146 N  
HETATM   10  C   UNL     2      -8.963   5.251  70.988  1.00  0.00    -0.138 C  
HETATM   11  C   UNL     2     -10.143   5.125  70.056  1.00  0.00    -0.275 C  
HETATM   12  O   UNL     2     -11.299   5.719  70.396  1.00  0.00    -0.242 OA 
HETATM   13  O   UNL     2     -10.057   4.496  69.015  1.00  0.00    -0.129 OA 
HETATM   14 FE   UNL     2     -11.004   7.021  71.690  1.00  0.00    -0.220 Fe 
HETATM   15  O   UNL     2     -11.747   5.733  72.783  1.00  0.00    -0.264 OA 
HETATM   16  O   UNL     2     -12.533   8.061  71.334  1.00  0.00    -0.311 OA 
HETATM   17  C   UNL     2     -12.375   9.369  71.122  1.00  0.00    -0.308 C  
HETATM   18  C   UNL     2     -10.669   5.252  73.465  1.00  0.00    -0.289 C  
HETATM   19  C   UNL     2      -9.306   5.957  73.287  1.00  0.00    -0.135 C  
HETATM   20  O   UNL     2     -10.775   4.260  74.169  1.00  0.00    -0.246 OA 
HETATM   21  O   UNL     2     -13.330  10.130  71.114  1.00  0.00    -0.376 OA 
HETATM   22  C   UNL     2     -10.990   9.854  71.000  1.00  0.00    -0.290 C  
ENDBRANCH   5   6
TORSDOF 1
ENDMDL
MODEL       54
REMARK 921   NORMALIZED FREE ENERGY PREDICTED BY IDOCK:   -4.32 KCAL/MOL
REMARK 922        TOTAL FREE ENERGY PREDICTED BY IDOCK:   -4.25 KCAL/MOL
REMARK 923 INTER-LIGAND FREE ENERGY PREDICTED BY IDOCK:   -4.56 KCAL/MOL
REMARK 924 INTRA-LIGAND FREE ENERGY PREDICTED BY IDOCK:    0.32 KCAL/MOL
REMARK 927      BINDING AFFINITY PREDICTED BY RF-SCORE:    0.00 PKD
ROOT
HETATM    1 NA   UNL     1      -8.691   8.592  74.560  1.00  0.00    -0.275 Na 
HETATM    2  O   UNL     2      -7.222   8.601  72.199  1.00  0.00    -0.194 OA 
HETATM    3  C   UNL     2      -8.410   8.503  71.570  1.00  0.00    -0.162 C  
HETATM    4  O   UNL     2      -9.180   7.622  71.903  1.00  0.00    -0.130 OA 
HETATM    5  C   UNL     2      -8.736   9.513  70.493  1.00  0.00    -0.197 C  
ENDROOT
BRANCH   5   6
HETATM    6  N   UNL     2     -10.045   9.373  69.762  1.00  0.00    -0.198 N  
HETATM    7  C   UNL     2     -10.073   8.101  69.015  1.00  0.00    -0.205 C  
HETATM    8  C   UNL     2      -9.032   8.163  67.910  1.00  0.00    -0.133 C  
HETATM    9  N   UNL     2      -9.152   9.492  67.283  1.00  0.00    -0.130 N  
HETATM   10  C   UNL     2      -7.865  10.204  67.017  1.00  0.00    -0.102 C  
HETATM   11  C   UNL     2      -7.789  11.467  67.839  1.00  0.00    -0.123 C  
HETATM   12  O   UNL     2      -8.930  12.004  68.304  1.00  0.00    -0.184 OA 
HETATM   13  O   UNL     2      -6.717  11.997  68.079  1.00  0.00    -0.062 OA 
HETATM   14 FE   UNL     2     -10.298  10.746  68.273  1.00  0.00    -0.151 Fe 
HETATM   15  O   UNL     2     -10.830  11.744  66.814  1.00  0.00    -0.245 OA 
HETATM   16  O   UNL     2     -11.372  11.531  69.607  1.00  0.00    -0.266 OA 
HETATM   17  C   UNL     2     -11.773  10.769  70.627  1.00  0.00    -0.342 C  
HETATM   18  C   UNL     2     -10.495  10.948  65.760  1.00  0.00    -0.210 C  
HETATM   19  C   UNL     2      -9.985   9.518  66.046  1.00  0.00    -0.278 C  
HETATM   20  O   UNL     2     -10.560  11.374  64.618  1.00  0.00    -0.290 OA 
HETATM   21  O   UNL     2     -12.646  11.145  71.394  1.00  0.00    -0.385 OA 
HETATM   22  C   UNL     2     -11.183   9.422  70.716  1.00  0.00    -0.302 C  
ENDBRANCH   5   6
TORSDOF 1
ENDMDL
MODEL       55
REMARK 921   NORMALIZED FREE ENERGY PREDICTED BY IDOCK:   -4.32 KCAL/MOL
REMARK 922        TOTAL FREE ENERGY PREDICTED BY IDOCK:   -4.24 KCAL/MOL
REMARK 923 INTER-LIGAND FREE ENERGY PREDICTED BY IDOCK:   -4.61 KCAL/MOL
REMARK 924 INTRA-LIGAND FREE ENERGY PREDICTED BY IDOCK:    0.37 KCAL/MOL
REMARK 927      BINDING AFFINITY PREDICTED BY RF-SCORE:    0.00 PKD
ROOT
HETATM    1 NA   UNL     1     -14.161   8.776  73.895  1.00  0.00    -0.827 Na 
HETATM    2  O   UNL     2     -14.022   8.667  71.120  1.00  0.00    -0.220 OA 
HETATM    3  C   UNL     2     -12.752   9.096  71.261  1.00  0.00    -0.278 C  
HETATM    4  O   UNL     2     -12.540  10.092  71.926  1.00  0.00    -0.396 OA 
HETATM    5  C   UNL     2     -11.650   8.300  70.601  1.00  0.00    -0.191 C  
ENDROOT
BRANCH   5   6
HETATM    6  N   UNL     2     -10.237   8.808  70.722  1.00  0.00    -0.199 N  
HETATM    7  C   UNL     2     -10.167  10.216  70.287  1.00  0.00    -0.120 C  
HETATM    8  C   UNL     2     -10.461  10.279  68.797  1.00  0.00    -0.203 C  
HETATM    9  N   UNL     2      -9.707   9.181  68.166  1.00  0.00    -0.151 N  
HETATM   10  C   UNL     2     -10.456   8.377  67.152  1.00  0.00    -0.310 C  
HETATM   11  C   UNL     2     -10.606   6.952  67.625  1.00  0.00    -0.261 C  
HETATM   12  O   UNL     2      -9.756   6.490  68.557  1.00  0.00    -0.129 OA 
HETATM   13  O   UNL     2     -11.476   6.228  67.172  1.00  0.00    -0.130 OA 
HETATM   14 FE   UNL     2      -8.932   7.901  69.442  1.00  0.00    -0.133 Fe 
HETATM   15  O   UNL     2      -7.506   7.387  68.386  1.00  0.00    -0.100 OA 
HETATM   16  O   UNL     2      -8.508   6.975  71.025  1.00  0.00    -0.130 OA 
HETATM   17  C   UNL     2      -8.881   7.509  72.191  1.00  0.00    -0.125 C  
HETATM   18  C   UNL     2      -7.461   8.363  67.436  1.00  0.00    -0.093 C  
HETATM   19  C   UNL     2      -8.394   9.586  67.587  1.00  0.00    -0.125 C  
HETATM   20  O   UNL     2      -6.728   8.250  66.467  1.00  0.00    -0.061 OA 
HETATM   21  O   UNL     2      -8.445   7.085  73.251  1.00  0.00    -0.117 OA 
HETATM   22  C   UNL     2      -9.759   8.689  72.124  1.00  0.00    -0.313 C  
ENDBRANCH   5   6
TORSDOF 1
ENDMDL
MODEL       56
REMARK 921   NORMALIZED FREE ENERGY PREDICTED BY IDOCK:   -4.29 KCAL/MOL
REMARK 922        TOTAL FREE ENERGY PREDICTED BY IDOCK:   -4.21 KCAL/MOL
REMARK 923 INTER-LIGAND FREE ENERGY PREDICTED BY IDOCK:   -4.53 KCAL/MOL
REMARK 924 INTRA-LIGAND FREE ENERGY PREDICTED BY IDOCK:    0.32 KCAL/MOL
REMARK 927      BINDING AFFINITY PREDICTED BY RF-SCORE:    0.00 PKD
ROOT
HETATM    1 NA   UNL     1     -10.890  14.160  64.723  1.00  0.00    -0.299 Na 
HETATM    2  O   UNL     2     -12.244  12.240  66.212  1.00  0.00    -0.628 OA 
HETATM    3  C   UNL     2     -11.155  11.468  66.032  1.00  0.00    -0.230 C  
HETATM    4  O   UNL     2     -10.735  11.299  64.903  1.00  0.00    -0.303 OA 
HETATM    5  C   UNL     2     -10.493  10.868  67.252  1.00  0.00    -0.232 C  
ENDROOT
BRANCH   5   6
HETATM    6  N   UNL     2      -9.302   9.969  67.043  1.00  0.00    -0.152 N  
HETATM    7  C   UNL     2      -9.711   8.749  66.321  1.00  0.00    -0.272 C  
HETATM    8  C   UNL     2     -10.636   7.942  67.217  1.00  0.00    -0.295 C  
HETATM    9  N   UNL     2     -10.038   7.943  68.563  1.00  0.00    -0.192 N  
HETATM   10  C   UNL     2     -10.981   8.200  69.694  1.00  0.00    -0.088 C  
HETATM   11  C   UNL     2     -10.623   9.491  70.390  1.00  0.00    -0.276 C  
HETATM   12  O   UNL     2      -9.377   9.973  70.250  1.00  0.00    -0.162 OA 
HETATM   13  O   UNL     2     -11.442  10.087  71.068  1.00  0.00    -0.348 OA 
HETATM   14 FE   UNL     2      -8.544   9.204  68.777  1.00  0.00    -0.114 Fe 
HETATM   15  O   UNL     2      -7.659   8.264  70.096  1.00  0.00    -0.072 OA 
HETATM   16  O   UNL     2      -7.292  10.577  68.468  1.00  0.00    -0.081 OA 
HETATM   17  C   UNL     2      -7.212  11.097  67.241  1.00  0.00    -0.113 C  
HETATM   18  C   UNL     2      -8.230   7.028  70.027  1.00  0.00    -0.133 C  
HETATM   19  C   UNL     2      -9.222   6.736  68.879  1.00  0.00    -0.131 C  
HETATM   20  O   UNL     2      -7.993   6.188  70.880  1.00  0.00    -0.111 OA 
HETATM   21  O   UNL     2      -6.279  11.817  66.918  1.00  0.00    -0.143 OA 
HETATM   22  C   UNL     2      -8.243  10.676  66.278  1.00  0.00    -0.153 C  
ENDBRANCH   5   6
TORSDOF 1
ENDMDL
MODEL       57
REMARK 921   NORMALIZED FREE ENERGY PREDICTED BY IDOCK:   -4.26 KCAL/MOL
REMARK 922        TOTAL FREE ENERGY PREDICTED BY IDOCK:   -4.18 KCAL/MOL
REMARK 923 INTER-LIGAND FREE ENERGY PREDICTED BY IDOCK:   -4.49 KCAL/MOL
REMARK 924 INTRA-LIGAND FREE ENERGY PREDICTED BY IDOCK:    0.32 KCAL/MOL
REMARK 927      BINDING AFFINITY PREDICTED BY RF-SCORE:    0.00 PKD
ROOT
HETATM    1 NA   UNL     1     -11.182  13.739  71.090  1.00  0.00    -0.505 Na 
HETATM    2  O   UNL     2     -12.359  11.630  69.713  1.00  0.00    -0.227 OA 
HETATM    3  C   UNL     2     -11.159  11.469  69.122  1.00  0.00    -0.259 C  
HETATM    4  O   UNL     2     -10.630  12.431  68.596  1.00  0.00    -0.226 OA 
HETATM    5  C   UNL     2     -10.516  10.101  69.164  1.00  0.00    -0.222 C  
ENDROOT
BRANCH   5   6
HETATM    6  N   UNL     2      -9.196   9.915  68.464  1.00  0.00    -0.133 N  
HETATM    7  C   UNL     2      -9.365  10.096  67.010  1.00  0.00    -0.154 C  
HETATM    8  C   UNL     2     -10.233   8.967  66.478  1.00  0.00    -0.248 C  
HETATM    9  N   UNL     2      -9.751   7.724  67.105  1.00  0.00    -0.170 N  
HETATM   10  C   UNL     2     -10.808   6.805  67.625  1.00  0.00    -0.289 C  
HETATM   11  C   UNL     2     -10.696   6.677  69.125  1.00  0.00    -0.264 C  
HETATM   12  O   UNL     2      -9.526   6.978  69.711  1.00  0.00    -0.147 OA 
HETATM   13  O   UNL     2     -11.644   6.306  69.796  1.00  0.00    -0.436 OA 
HETATM   14 FE   UNL     2      -8.476   8.009  68.575  1.00  0.00    -0.114 Fe 
HETATM   15  O   UNL     2      -7.572   6.410  68.385  1.00  0.00    -0.096 OA 
HETATM   16  O   UNL     2      -7.415   8.820  69.903  1.00  0.00    -0.050 OA 
HETATM   17  C   UNL     2      -7.312  10.151  69.906  1.00  0.00    -0.165 C  
HETATM   18  C   UNL     2      -7.952   5.989  67.146  1.00  0.00    -0.102 C  
HETATM   19  C   UNL     2      -8.797   6.940  66.268  1.00  0.00    -0.148 C  
HETATM   20  O   UNL     2      -7.664   4.868  66.758  1.00  0.00    -0.090 OA 
HETATM   21  O   UNL     2      -6.471  10.721  70.585  1.00  0.00    -0.326 OA 
HETATM   22  C   UNL     2      -8.192  10.882  68.979  1.00  0.00    -0.124 C  
ENDBRANCH   5   6
TORSDOF 1
ENDMDL
MODEL       58
REMARK 921   NORMALIZED FREE ENERGY PREDICTED BY IDOCK:   -4.25 KCAL/MOL
REMARK 922        TOTAL FREE ENERGY PREDICTED BY IDOCK:   -4.17 KCAL/MOL
REMARK 923 INTER-LIGAND FREE ENERGY PREDICTED BY IDOCK:   -5.26 KCAL/MOL
REMARK 924 INTRA-LIGAND FREE ENERGY PREDICTED BY IDOCK:    1.09 KCAL/MOL
REMARK 927      BINDING AFFINITY PREDICTED BY RF-SCORE:    0.00 PKD
ROOT
HETATM    1 NA   UNL     1      -8.584   9.653  66.718  1.00  0.00    -0.120 Na 
HETATM    2  O   UNL     2      -8.364  10.933  64.258  1.00  0.00    -0.009 OA 
HETATM    3  C   UNL     2      -9.509  11.562  64.589  1.00  0.00    -0.100 C  
HETATM    4  O   UNL     2     -10.464  10.896  64.940  1.00  0.00    -0.311 OA 
HETATM    5  C   UNL     2      -9.539  13.073  64.530  1.00  0.00     0.377 C  
ENDROOT
BRANCH   5   6
HETATM    6  N   UNL     2     -10.834  13.770  64.857  1.00  0.00    -0.367 N  
HETATM    7  C   UNL     2     -10.628  15.230  64.886  1.00  0.00    -0.351 C  
HETATM    8  C   UNL     2      -9.715  15.569  66.053  1.00  0.00    -0.345 C  
HETATM    9  N   UNL     2     -10.182  14.778  67.206  1.00  0.00    -0.240 N  
HETATM   10  C   UNL     2      -9.115  14.104  68.006  1.00  0.00    -0.191 C  
HETATM   11  C   UNL     2      -9.266  12.604  67.917  1.00  0.00    -0.201 C  
HETATM   12  O   UNL     2     -10.460  12.096  67.569  1.00  0.00    -0.205 OA 
HETATM   13  O   UNL     2      -8.328  11.863  68.156  1.00  0.00    -0.146 OA 
HETATM   14 FE   UNL     2     -11.505  13.397  66.749  1.00  0.00    -0.277 Fe 
HETATM   15  O   UNL     2     -12.359  13.371  68.385  1.00  0.00    -0.193 OA 
HETATM   16  O   UNL     2     -12.624  12.229  65.785  1.00  0.00    -0.455 OA 
HETATM   17  C   UNL     2     -12.763  12.424  64.472  1.00  0.00    -0.314 C  
HETATM   18  C   UNL     2     -11.933  14.526  68.971  1.00  0.00    -0.299 C  
HETATM   19  C   UNL     2     -11.090  15.513  68.132  1.00  0.00    -0.325 C  
HETATM   20  O   UNL     2     -12.180  14.752  70.145  1.00  0.00    -0.304 OA 
HETATM   21  O   UNL     2     -13.638  11.856  63.835  1.00  0.00    -0.448 OA 
HETATM   22  C   UNL     2     -11.877  13.427  63.857  1.00  0.00    -0.439 C  
ENDBRANCH   5   6
TORSDOF 1
ENDMDL
MODEL       59
REMARK 921   NORMALIZED FREE ENERGY PREDICTED BY IDOCK:   -4.25 KCAL/MOL
REMARK 922        TOTAL FREE ENERGY PREDICTED BY IDOCK:   -4.17 KCAL/MOL
REMARK 923 INTER-LIGAND FREE ENERGY PREDICTED BY IDOCK:   -4.63 KCAL/MOL
REMARK 924 INTRA-LIGAND FREE ENERGY PREDICTED BY IDOCK:    0.46 KCAL/MOL
REMARK 927      BINDING AFFINITY PREDICTED BY RF-SCORE:    0.00 PKD
ROOT
HETATM    1 NA   UNL     1      -5.502  13.490  71.381  1.00  0.00    -0.113 Na 
HETATM    2  O   UNL     2      -7.348  15.409  70.580  1.00  0.00     0.364 OA 
HETATM    3  C   UNL     2      -7.324  14.795  69.380  1.00  0.00    -0.162 C  
HETATM    4  O   UNL     2      -6.251  14.599  68.842  1.00  0.00    -0.083 OA 
HETATM    5  C   UNL     2      -8.638  14.358  68.773  1.00  0.00    -0.125 C  
ENDROOT
BRANCH   5   6
HETATM    6  N   UNL     2      -8.611  13.712  67.413  1.00  0.00    -0.198 N  
HETATM    7  C   UNL     2      -8.547  14.748  66.364  1.00  0.00     0.077 C  
HETATM    8  C   UNL     2      -9.846  15.536  66.379  1.00  0.00    -0.278 C  
HETATM    9  N   UNL     2     -10.940  14.556  66.506  1.00  0.00    -0.315 N  
HETATM   10  C   UNL     2     -12.011  14.901  67.489  1.00  0.00    -0.131 C  
HETATM   11  C   UNL     2     -12.032  13.893  68.613  1.00  0.00    -0.366 C  
HETATM   12  O   UNL     2     -11.484  12.684  68.404  1.00  0.00    -0.263 OA 
HETATM   13  O   UNL     2     -12.536  14.163  69.689  1.00  0.00    -0.262 OA 
HETATM   14 FE   UNL     2     -10.339  12.734  66.940  1.00  0.00    -0.221 Fe 
HETATM   15  O   UNL     2     -11.748  11.850  66.139  1.00  0.00    -0.484 OA 
HETATM   16  O   UNL     2      -9.270  11.261  67.424  1.00  0.00    -0.159 OA 
HETATM   17  C   UNL     2      -7.945  11.424  67.457  1.00  0.00    -0.127 C  
HETATM   18  C   UNL     2     -12.301  12.810  65.346  1.00  0.00    -0.470 C  
HETATM   19  C   UNL     2     -11.576  14.168  65.214  1.00  0.00    -0.341 C  
HETATM   20  O   UNL     2     -13.367  12.612  64.787  1.00  0.00    -0.787 OA 
HETATM   21  O   UNL     2      -7.191  10.466  67.537  1.00  0.00    -0.085 OA 
HETATM   22  C   UNL     2      -7.445  12.799  67.292  1.00  0.00    -0.097 C  
ENDBRANCH   5   6
TORSDOF 1
ENDMDL
MODEL       60
REMARK 921   NORMALIZED FREE ENERGY PREDICTED BY IDOCK:   -4.23 KCAL/MOL
REMARK 922        TOTAL FREE ENERGY PREDICTED BY IDOCK:   -4.15 KCAL/MOL
REMARK 923 INTER-LIGAND FREE ENERGY PREDICTED BY IDOCK:   -4.49 KCAL/MOL
REMARK 924 INTRA-LIGAND FREE ENERGY PREDICTED BY IDOCK:    0.34 KCAL/MOL
REMARK 927      BINDING AFFINITY PREDICTED BY RF-SCORE:    0.00 PKD
ROOT
HETATM    1 NA   UNL     1     -13.861   8.849  73.668  1.00  0.00    -0.823 Na 
HETATM    2  O   UNL     2     -13.497   6.986  71.636  1.00  0.00    -0.365 OA 
HETATM    3  C   UNL     2     -12.409   7.706  71.299  1.00  0.00    -0.309 C  
HETATM    4  O   UNL     2     -12.530   8.904  71.126  1.00  0.00    -0.291 OA 
HETATM    5  C   UNL     2     -11.085   6.989  71.175  1.00  0.00    -0.258 C  
ENDROOT
BRANCH   5   6
HETATM    6  N   UNL     2      -9.880   7.789  70.753  1.00  0.00    -0.181 N  
HETATM    7  C   UNL     2     -10.145   8.461  69.467  1.00  0.00    -0.200 C  
HETATM    8  C   UNL     2     -10.287   7.401  68.386  1.00  0.00    -0.194 C  
HETATM    9  N   UNL     2      -9.205   6.424  68.600  1.00  0.00    -0.126 N  
HETATM   10  C   UNL     2      -9.601   4.985  68.508  1.00  0.00    -0.146 C  
HETATM   11  C   UNL     2      -9.412   4.307  69.843  1.00  0.00    -0.189 C  
HETATM   12  O   UNL     2      -8.572   4.860  70.734  1.00  0.00    -0.109 OA 
HETATM   13  O   UNL     2     -10.005   3.276  70.113  1.00  0.00     0.015 OA 
HETATM   14 FE   UNL     2      -8.253   6.641  70.307  1.00  0.00    -0.104 Fe 
HETATM   15  O   UNL     2      -6.640   5.944  69.740  1.00  0.00    -0.043 OA 
HETATM   16  O   UNL     2      -7.765   7.215  72.033  1.00  0.00    -0.090 OA 
HETATM   17  C   UNL     2      -8.387   8.278  72.546  1.00  0.00    -0.174 C  
HETATM   18  C   UNL     2      -6.759   5.963  68.383  1.00  0.00    -0.060 C  
HETATM   19  C   UNL     2      -7.995   6.647  67.758  1.00  0.00    -0.112 C  
HETATM   20  O   UNL     2      -5.925   5.413  67.682  1.00  0.00    -0.023 OA 
HETATM   21  O   UNL     2      -7.968   8.836  73.549  1.00  0.00    -0.409 OA 
HETATM   22  C   UNL     2      -9.538   8.799  71.788  1.00  0.00    -0.301 C  
ENDBRANCH   5   6
TORSDOF 1
ENDMDL
MODEL       61
REMARK 921   NORMALIZED FREE ENERGY PREDICTED BY IDOCK:   -4.19 KCAL/MOL
REMARK 922        TOTAL FREE ENERGY PREDICTED BY IDOCK:   -4.11 KCAL/MOL
REMARK 923 INTER-LIGAND FREE ENERGY PREDICTED BY IDOCK:   -4.51 KCAL/MOL
REMARK 924 INTRA-LIGAND FREE ENERGY PREDICTED BY IDOCK:    0.40 KCAL/MOL
REMARK 927      BINDING AFFINITY PREDICTED BY RF-SCORE:    0.00 PKD
ROOT
HETATM    1 NA   UNL     1      -9.512  20.720  66.873  1.00  0.00    -0.333 Na 
HETATM    2  O   UNL     2      -8.385  18.548  68.193  1.00  0.00    -0.279 OA 
HETATM    3  C   UNL     2      -9.525  17.894  67.893  1.00  0.00    -0.272 C  
HETATM    4  O   UNL     2     -10.589  18.406  68.186  1.00  0.00    -0.356 OA 
HETATM    5  C   UNL     2      -9.423  16.563  67.184  1.00  0.00    -0.239 C  
ENDROOT
BRANCH   5   6
HETATM    6  N   UNL     2     -10.698  15.815  66.892  1.00  0.00    -0.315 N  
HETATM    7  C   UNL     2     -11.519  15.718  68.114  1.00  0.00    -0.302 C  
HETATM    8  C   UNL     2     -10.791  14.840  69.119  1.00  0.00    -0.260 C  
HETATM    9  N   UNL     2     -10.275  13.677  68.377  1.00  0.00    -0.242 N  
HETATM   10  C   UNL     2      -8.867  13.282  68.683  1.00  0.00     0.038 C  
HETATM   11  C   UNL     2      -7.998  13.456  67.461  1.00  0.00    -0.183 C  
HETATM   12  O   UNL     2      -8.586  13.486  66.253  1.00  0.00     0.225 OA 
HETATM   13  O   UNL     2      -6.788  13.564  67.560  1.00  0.00    -0.166 OA 
HETATM   14 FE   UNL     2     -10.401  13.851  66.422  1.00  0.00    -0.255 Fe 
HETATM   15  O   UNL     2     -10.531  12.046  66.055  1.00  0.00    -0.236 OA 
HETATM   16  O   UNL     2     -10.664  14.549  64.692  1.00  0.00    -0.399 OA 
HETATM   17  C   UNL     2     -11.249  15.743  64.574  1.00  0.00    -0.322 C  
HETATM   18  C   UNL     2     -10.843  11.510  67.268  1.00  0.00    -0.256 C  
HETATM   19  C   UNL     2     -11.143  12.466  68.445  1.00  0.00    -0.250 C  
HETATM   20  O   UNL     2     -10.845  10.300  67.427  1.00  0.00    -0.279 OA 
HETATM   21  O   UNL     2     -11.653  16.147  63.494  1.00  0.00    -0.538 OA 
HETATM   22  C   UNL     2     -11.468  16.497  65.820  1.00  0.00     0.710 C  
ENDBRANCH   5   6
TORSDOF 1
ENDMDL
MODEL       62
REMARK 921   NORMALIZED FREE ENERGY PREDICTED BY IDOCK:   -4.17 KCAL/MOL
REMARK 922        TOTAL FREE ENERGY PREDICTED BY IDOCK:   -4.09 KCAL/MOL
REMARK 923 INTER-LIGAND FREE ENERGY PREDICTED BY IDOCK:   -5.19 KCAL/MOL
REMARK 924 INTRA-LIGAND FREE ENERGY PREDICTED BY IDOCK:    1.09 KCAL/MOL
REMARK 927      BINDING AFFINITY PREDICTED BY RF-SCORE:    0.00 PKD
ROOT
HETATM    1 NA   UNL     1      -9.384  12.660  63.416  1.00  0.00    -0.523 Na 
HETATM    2  O   UNL     2      -9.951  10.184  64.547  1.00  0.00    -0.326 OA 
HETATM    3  C   UNL     2      -9.496  10.711  65.700  1.00  0.00    -0.212 C  
HETATM    4  O   UNL     2      -8.402  11.243  65.711  1.00  0.00    -0.106 OA 
HETATM    5  C   UNL     2     -10.383  10.636  66.922  1.00  0.00    -0.236 C  
ENDROOT
BRANCH   5   6
HETATM    6  N   UNL     2      -9.852  11.186  68.220  1.00  0.00    -0.182 N  
HETATM    7  C   UNL     2     -10.911  11.170  69.246  1.00  0.00    -0.229 C  
HETATM    8  C   UNL     2     -11.997  12.153  68.839  1.00  0.00    -0.242 C  
HETATM    9  N   UNL     2     -11.317  13.374  68.374  1.00  0.00    -0.273 N  
HETATM   10  C   UNL     2     -11.848  13.974  67.112  1.00  0.00    -0.411 C  
HETATM   11  C   UNL     2     -10.799  13.921  66.028  1.00  0.00    -0.290 C  
HETATM   12  O   UNL     2      -9.509  13.796  66.385  1.00  0.00    -0.278 OA 
HETATM   13  O   UNL     2     -11.108  13.992  64.851  1.00  0.00    -0.340 OA 
HETATM   14 FE   UNL     2      -9.376  13.169  68.130  1.00  0.00    -0.166 Fe 
HETATM   15  O   UNL     2      -8.934  14.933  68.452  1.00  0.00    -0.170 OA 
HETATM   16  O   UNL     2      -7.651  12.428  67.985  1.00  0.00    -0.107 OA 
HETATM   17  C   UNL     2      -7.473  11.160  68.362  1.00  0.00    -0.102 C  
HETATM   18  C   UNL     2     -10.057  15.426  69.044  1.00  0.00    -0.234 C  
HETATM   19  C   UNL     2     -11.196  14.445  69.404  1.00  0.00    -0.281 C  
HETATM   20  O   UNL     2     -10.174  16.624  69.247  1.00  0.00    -0.283 OA 
HETATM   21  O   UNL     2      -6.353  10.694  68.509  1.00  0.00    -0.053 OA 
HETATM   22  C   UNL     2      -8.687  10.391  68.685  1.00  0.00    -0.138 C  
ENDBRANCH   5   6
TORSDOF 1
ENDMDL
MODEL       63
REMARK 921   NORMALIZED FREE ENERGY PREDICTED BY IDOCK:   -4.17 KCAL/MOL
REMARK 922        TOTAL FREE ENERGY PREDICTED BY IDOCK:   -4.08 KCAL/MOL
REMARK 923 INTER-LIGAND FREE ENERGY PREDICTED BY IDOCK:   -4.40 KCAL/MOL
REMARK 924 INTRA-LIGAND FREE ENERGY PREDICTED BY IDOCK:    0.32 KCAL/MOL
REMARK 927      BINDING AFFINITY PREDICTED BY RF-SCORE:    0.00 PKD
ROOT
HETATM    1 NA   UNL     1      -7.924  12.119  65.935  1.00  0.00    -0.353 Na 
HETATM    2  O   UNL     2      -7.891  11.901  68.707  1.00  0.00    -0.122 OA 
HETATM    3  C   UNL     2      -8.991  11.134  68.566  1.00  0.00    -0.168 C  
HETATM    4  O   UNL     2      -9.925  11.563  67.916  1.00  0.00    -0.176 OA 
HETATM    5  C   UNL     2      -8.995   9.764  69.205  1.00  0.00    -0.173 C  
ENDROOT
BRANCH   5   6
HETATM    6  N   UNL     2     -10.243   8.929  69.083  1.00  0.00    -0.201 N  
HETATM    7  C   UNL     2     -11.381   9.625  69.711  1.00  0.00    -0.120 C  
HETATM    8  C   UNL     2     -11.133   9.710  71.208  1.00  0.00    -0.355 C  
HETATM    9  N   UNL     2     -10.635   8.391  71.635  1.00  0.00    -0.239 N  
HETATM   10  C   UNL     2      -9.462   8.406  72.561  1.00  0.00    -0.289 C  
HETATM   11  C   UNL     2      -8.265   7.769  71.897  1.00  0.00    -0.109 C  
HETATM   12  O   UNL     2      -8.470   6.935  70.864  1.00  0.00    -0.132 OA 
HETATM   13  O   UNL     2      -7.133   8.000  72.287  1.00  0.00    -0.072 OA 
HETATM   14 FE   UNL     2     -10.166   7.190  70.149  1.00  0.00    -0.180 Fe 
HETATM   15  O   UNL     2     -10.496   5.608  71.043  1.00  0.00    -0.227 OA 
HETATM   16  O   UNL     2      -9.803   6.516  68.429  1.00  0.00    -0.134 OA 
HETATM   17  C   UNL     2     -10.115   7.272  67.374  1.00  0.00    -0.204 C  
HETATM   18  C   UNL     2     -11.228   6.012  72.119  1.00  0.00    -0.291 C  
HETATM   19  C   UNL     2     -11.681   7.487  72.195  1.00  0.00    -0.303 C  
HETATM   20  O   UNL     2     -11.483   5.230  73.022  1.00  0.00    -0.313 OA 
HETATM   21  O   UNL     2     -10.119   6.810  66.242  1.00  0.00    -0.035 OA 
HETATM   22  C   UNL     2     -10.546   8.652  67.655  1.00  0.00    -0.203 C  
ENDBRANCH   5   6
TORSDOF 1
ENDMDL
MODEL       64
REMARK 921   NORMALIZED FREE ENERGY PREDICTED BY IDOCK:   -4.16 KCAL/MOL
REMARK 922        TOTAL FREE ENERGY PREDICTED BY IDOCK:   -4.07 KCAL/MOL
REMARK 923 INTER-LIGAND FREE ENERGY PREDICTED BY IDOCK:   -4.58 KCAL/MOL
REMARK 924 INTRA-LIGAND FREE ENERGY PREDICTED BY IDOCK:    0.51 KCAL/MOL
REMARK 927      BINDING AFFINITY PREDICTED BY RF-SCORE:    0.00 PKD
ROOT
HETATM    1 NA   UNL     1     -14.358   9.368  70.442  1.00  0.00    -0.622 Na 
HETATM    2  O   UNL     2     -12.463  11.399  70.306  1.00  0.00    -0.282 OA 
HETATM    3  C   UNL     2     -11.566  10.418  70.085  1.00  0.00    -0.312 C  
HETATM    4  O   UNL     2     -11.520   9.479  70.857  1.00  0.00    -0.283 OA 
HETATM    5  C   UNL     2     -10.674  10.524  68.869  1.00  0.00    -0.220 C  
ENDROOT
BRANCH   5   6
HETATM    6  N   UNL     2      -9.642   9.449  68.650  1.00  0.00    -0.146 N  
HETATM    7  C   UNL     2      -8.414   9.765  69.405  1.00  0.00    -0.159 C  
HETATM    8  C   UNL     2      -7.786  11.014  68.808  1.00  0.00    -0.135 C  
HETATM    9  N   UNL     2      -7.839  10.862  67.344  1.00  0.00    -0.110 N  
HETATM   10  C   UNL     2      -8.285  12.067  66.580  1.00  0.00    -0.056 C  
HETATM   11  C   UNL     2      -9.586  11.781  65.869  1.00  0.00    -0.230 C  
HETATM   12  O   UNL     2      -9.923  10.502  65.633  1.00  0.00    -0.239 OA 
HETATM   13  O   UNL     2     -10.319  12.687  65.512  1.00  0.00    -0.276 OA 
HETATM   14 FE   UNL     2      -8.951   9.360  66.731  1.00  0.00    -0.119 Fe 
HETATM   15  O   UNL     2      -8.038   9.047  65.157  1.00  0.00    -0.116 OA 
HETATM   16  O   UNL     2     -10.156   7.913  66.695  1.00  0.00    -0.260 OA 
HETATM   17  C   UNL     2     -10.559   7.396  67.858  1.00  0.00    -0.190 C  
HETATM   18  C   UNL     2      -6.867   9.720  65.344  1.00  0.00    -0.101 C  
HETATM   19  C   UNL     2      -6.583  10.340  66.731  1.00  0.00    -0.075 C  
HETATM   20  O   UNL     2      -6.081   9.862  64.421  1.00  0.00    -0.101 OA 
HETATM   21  O   UNL     2     -11.150   6.327  67.905  1.00  0.00    -0.332 OA 
HETATM   22  C   UNL     2     -10.169   8.126  69.076  1.00  0.00    -0.220 C  
ENDBRANCH   5   6
TORSDOF 1
ENDMDL
MODEL       65
REMARK 921   NORMALIZED FREE ENERGY PREDICTED BY IDOCK:   -4.15 KCAL/MOL
REMARK 922        TOTAL FREE ENERGY PREDICTED BY IDOCK:   -4.06 KCAL/MOL
REMARK 923 INTER-LIGAND FREE ENERGY PREDICTED BY IDOCK:   -4.38 KCAL/MOL
REMARK 924 INTRA-LIGAND FREE ENERGY PREDICTED BY IDOCK:    0.31 KCAL/MOL
REMARK 927      BINDING AFFINITY PREDICTED BY RF-SCORE:    0.00 PKD
ROOT
HETATM    1 NA   UNL     1      -5.691  15.925  69.480  1.00  0.00    -0.104 Na 
HETATM    2  O   UNL     2      -7.870  15.303  67.869  1.00  0.00    -0.125 OA 
HETATM    3  C   UNL     2      -7.335  14.069  67.784  1.00  0.00    -0.167 C  
HETATM    4  O   UNL     2      -6.171  13.955  67.449  1.00  0.00    -0.335 OA 
HETATM    5  C   UNL     2      -8.207  12.884  68.135  1.00  0.00    -0.163 C  
ENDROOT
BRANCH   5   6
HETATM    6  N   UNL     2      -7.619  11.504  67.996  1.00  0.00    -0.106 N  
HETATM    7  C   UNL     2      -7.266  11.245  66.587  1.00  0.00    -0.126 C  
HETATM    8  C   UNL     2      -8.546  11.192  65.768  1.00  0.00    -0.113 C  
HETATM    9  N   UNL     2      -9.514  10.390  66.538  1.00  0.00    -0.163 N  
HETATM   10  C   UNL     2     -10.900  10.944  66.617  1.00  0.00    -0.197 C  
HETATM   11  C   UNL     2     -11.242  11.291  68.045  1.00  0.00    -0.287 C  
HETATM   12  O   UNL     2     -10.547  10.705  69.035  1.00  0.00    -0.193 OA 
HETATM   13  O   UNL     2     -12.132  12.083  68.304  1.00  0.00    -0.447 OA 
HETATM   14 FE   UNL     2      -8.952  10.008  68.383  1.00  0.00    -0.112 Fe 
HETATM   15  O   UNL     2      -9.876   8.419  68.562  1.00  0.00    -0.164 OA 
HETATM   16  O   UNL     2      -8.008  10.013  70.013  1.00  0.00    -0.175 OA 
HETATM   17  C   UNL     2      -6.810  10.602  70.049  1.00  0.00    -0.148 C  
HETATM   18  C   UNL     2     -10.182   8.097  67.273  1.00  0.00    -0.278 C  
HETATM   19  C   UNL     2      -9.588   8.957  66.135  1.00  0.00    -0.265 C  
HETATM   20  O   UNL     2     -10.943   7.174  67.031  1.00  0.00    -0.369 OA 
HETATM   21  O   UNL     2      -6.054  10.445  70.996  1.00  0.00    -0.282 OA 
HETATM   22  C   UNL     2      -6.413  11.363  68.852  1.00  0.00    -0.062 C  
ENDBRANCH   5   6
TORSDOF 1
ENDMDL
MODEL       66
REMARK 921   NORMALIZED FREE ENERGY PREDICTED BY IDOCK:   -4.14 KCAL/MOL
REMARK 922        TOTAL FREE ENERGY PREDICTED BY IDOCK:   -4.06 KCAL/MOL
REMARK 923 INTER-LIGAND FREE ENERGY PREDICTED BY IDOCK:   -4.39 KCAL/MOL
REMARK 924 INTRA-LIGAND FREE ENERGY PREDICTED BY IDOCK:    0.33 KCAL/MOL
REMARK 927      BINDING AFFINITY PREDICTED BY RF-SCORE:    0.00 PKD
ROOT
HETATM    1 NA   UNL     1     -12.244  11.162  62.767  1.00  0.00    -0.767 Na 
HETATM    2  O   UNL     2      -9.657  10.291  63.301  1.00  0.00    -0.304 OA 
HETATM    3  C   UNL     2      -9.727  11.060  64.405  1.00  0.00    -0.280 C  
HETATM    4  O   UNL     2     -10.055  12.226  64.289  1.00  0.00    -0.308 OA 
HETATM    5  C   UNL     2      -9.416  10.425  65.741  1.00  0.00    -0.198 C  
ENDROOT
BRANCH   5   6
HETATM    6  N   UNL     2      -9.451  11.298  66.968  1.00  0.00    -0.170 N  
HETATM    7  C   UNL     2      -8.519  12.430  66.810  1.00  0.00    -0.095 C  
HETATM    8  C   UNL     2      -7.099  11.888  66.777  1.00  0.00    -0.003 C  
HETATM    9  N   UNL     2      -7.000  10.880  67.847  1.00  0.00    -0.072 N  
HETATM   10  C   UNL     2      -6.312   9.605  67.479  1.00  0.00    -0.064 C  
HETATM   11  C   UNL     2      -7.280   8.449  67.557  1.00  0.00    -0.088 C  
HETATM   12  O   UNL     2      -8.386   8.585  68.308  1.00  0.00    -0.122 OA 
HETATM   13  O   UNL     2      -7.068   7.410  66.956  1.00  0.00    -0.079 OA 
HETATM   14 FE   UNL     2      -8.728  10.381  68.642  1.00  0.00    -0.103 Fe 
HETATM   15  O   UNL     2      -8.073   9.928  70.308  1.00  0.00    -0.181 OA 
HETATM   16  O   UNL     2     -10.575  10.214  68.969  1.00  0.00    -0.199 OA 
HETATM   17  C   UNL     2     -11.413  11.002  68.291  1.00  0.00    -0.304 C  
HETATM   18  C   UNL     2      -6.829  10.485  70.309  1.00  0.00    -0.090 C  
HETATM   19  C   UNL     2      -6.423  11.390  69.124  1.00  0.00    -0.085 C  
HETATM   20  O   UNL     2      -6.042  10.238  71.209  1.00  0.00    -0.306 OA 
HETATM   21  O   UNL     2     -12.586  11.107  68.613  1.00  0.00    -0.318 OA 
HETATM   22  C   UNL     2     -10.827  11.807  67.205  1.00  0.00    -0.253 C  
ENDBRANCH   5   6
TORSDOF 1
ENDMDL
MODEL       67
REMARK 921   NORMALIZED FREE ENERGY PREDICTED BY IDOCK:   -4.11 KCAL/MOL
REMARK 922        TOTAL FREE ENERGY PREDICTED BY IDOCK:   -4.02 KCAL/MOL
REMARK 923 INTER-LIGAND FREE ENERGY PREDICTED BY IDOCK:   -4.34 KCAL/MOL
REMARK 924 INTRA-LIGAND FREE ENERGY PREDICTED BY IDOCK:    0.32 KCAL/MOL
REMARK 927      BINDING AFFINITY PREDICTED BY RF-SCORE:    0.00 PKD
ROOT
HETATM    1 NA   UNL     1      -5.699  11.612  63.173  1.00  0.00    -0.340 Na 
HETATM    2  O   UNL     2      -6.374   9.307  64.576  1.00  0.00    -0.074 OA 
HETATM    3  C   UNL     2      -6.555  10.119  65.636  1.00  0.00    -0.112 C  
HETATM    4  O   UNL     2      -5.662  10.883  65.949  1.00  0.00    -0.132 OA 
HETATM    5  C   UNL     2      -7.875  10.054  66.371  1.00  0.00    -0.113 C  
ENDROOT
BRANCH   5   6
HETATM    6  N   UNL     2      -8.056  10.930  67.583  1.00  0.00    -0.114 N  
HETATM    7  C   UNL     2      -7.048  10.593  68.606  1.00  0.00    -0.075 C  
HETATM    8  C   UNL     2      -7.324   9.188  69.115  1.00  0.00    -0.071 C  
HETATM    9  N   UNL     2      -8.779   9.087  69.325  1.00  0.00    -0.135 N  
HETATM   10  C   UNL     2      -9.424   7.836  68.821  1.00  0.00    -0.149 C  
HETATM   11  C   UNL     2     -10.398   8.160  67.715  1.00  0.00    -0.233 C  
HETATM   12  O   UNL     2     -10.882   9.411  67.629  1.00  0.00    -0.267 OA 
HETATM   13  O   UNL     2     -10.746   7.309  66.915  1.00  0.00    -0.338 OA 
HETATM   14 FE   UNL     2      -9.805  10.591  68.580  1.00  0.00    -0.140 Fe 
HETATM   15  O   UNL     2     -11.210  10.502  69.774  1.00  0.00    -0.255 OA 
HETATM   16  O   UNL     2     -10.279  12.153  67.642  1.00  0.00    -0.193 OA 
HETATM   17  C   UNL     2      -9.302  12.915  67.144  1.00  0.00    -0.229 C  
HETATM   18  C   UNL     2     -10.711   9.725  70.776  1.00  0.00    -0.323 C  
HETATM   19  C   UNL     2      -9.219   9.326  70.730  1.00  0.00    -0.253 C  
HETATM   20  O   UNL     2     -11.441   9.323  71.668  1.00  0.00    -0.355 OA 
HETATM   21  O   UNL     2      -9.525  14.043  66.732  1.00  0.00    -0.262 OA 
HETATM   22  C   UNL     2      -7.938  12.364  67.211  1.00  0.00    -0.178 C  
ENDBRANCH   5   6
TORSDOF 1
ENDMDL
MODEL       68
REMARK 921   NORMALIZED FREE ENERGY PREDICTED BY IDOCK:   -4.02 KCAL/MOL
REMARK 922        TOTAL FREE ENERGY PREDICTED BY IDOCK:   -3.92 KCAL/MOL
REMARK 923 INTER-LIGAND FREE ENERGY PREDICTED BY IDOCK:   -4.35 KCAL/MOL
REMARK 924 INTRA-LIGAND FREE ENERGY PREDICTED BY IDOCK:    0.43 KCAL/MOL
REMARK 927      BINDING AFFINITY PREDICTED BY RF-SCORE:    0.00 PKD
ROOT
HETATM    1 NA   UNL     1     -13.369  12.987  71.105  1.00  0.00    -0.320 Na 
HETATM    2  O   UNL     2     -13.093  10.488  72.292  1.00  0.00    -0.394 OA 
HETATM    3  C   UNL     2     -12.442  10.130  71.168  1.00  0.00    -0.387 C  
HETATM    4  O   UNL     2     -12.974  10.331  70.093  1.00  0.00    -0.162 OA 
HETATM    5  C   UNL     2     -11.067   9.516  71.301  1.00  0.00    -0.379 C  
ENDROOT
BRANCH   5   6
HETATM    6  N   UNL     2     -10.362   9.076  70.045  1.00  0.00    -0.198 N  
HETATM    7  C   UNL     2     -10.890   7.773  69.599  1.00  0.00    -0.184 C  
HETATM    8  C   UNL     2     -10.514   6.719  70.628  1.00  0.00    -0.215 C  
HETATM    9  N   UNL     2      -9.106   6.959  70.992  1.00  0.00    -0.155 N  
HETATM   10  C   UNL     2      -8.793   6.903  72.452  1.00  0.00    -0.129 C  
HETATM   11  C   UNL     2      -8.330   8.255  72.938  1.00  0.00    -0.180 C  
HETATM   12  O   UNL     2      -7.851   9.133  72.041  1.00  0.00    -0.325 OA 
HETATM   13  O   UNL     2      -8.384   8.550  74.120  1.00  0.00    -0.301 OA 
HETATM   14 FE   UNL     2      -8.383   8.661  70.323  1.00  0.00    -0.094 Fe 
HETATM   15  O   UNL     2      -6.623   8.114  70.210  1.00  0.00    -0.036 OA 
HETATM   16  O   UNL     2      -8.236  10.373  69.551  1.00  0.00    -0.164 OA 
HETATM   17  C   UNL     2      -9.286  10.858  68.883  1.00  0.00    -0.160 C  
HETATM   18  C   UNL     2      -6.720   6.756  70.278  1.00  0.00    -0.053 C  
HETATM   19  C   UNL     2      -8.124   6.113  70.254  1.00  0.00    -0.112 C  
HETATM   20  O   UNL     2      -5.717   6.070  70.396  1.00  0.00    -0.013 OA 
HETATM   21  O   UNL     2      -9.183  11.847  68.173  1.00  0.00    -0.176 OA 
HETATM   22  C   UNL     2     -10.536  10.085  68.968  1.00  0.00    -0.214 C  
ENDBRANCH   5   6
TORSDOF 1
ENDMDL
MODEL       69
REMARK 921   NORMALIZED FREE ENERGY PREDICTED BY IDOCK:   -4.00 KCAL/MOL
REMARK 922        TOTAL FREE ENERGY PREDICTED BY IDOCK:   -3.91 KCAL/MOL
REMARK 923 INTER-LIGAND FREE ENERGY PREDICTED BY IDOCK:   -4.27 KCAL/MOL
REMARK 924 INTRA-LIGAND FREE ENERGY PREDICTED BY IDOCK:    0.37 KCAL/MOL
REMARK 927      BINDING AFFINITY PREDICTED BY RF-SCORE:    0.00 PKD
ROOT
HETATM    1 NA   UNL     1      -6.537   4.112  65.957  1.00  0.00    -0.033 Na 
HETATM    2  O   UNL     2      -6.446   6.882  66.189  1.00  0.00    -0.048 OA 
HETATM    3  C   UNL     2      -7.752   6.803  66.512  1.00  0.00    -0.102 C  
HETATM    4  O   UNL     2      -8.504   6.194  65.774  1.00  0.00    -0.137 OA 
HETATM    5  C   UNL     2      -8.214   7.459  67.793  1.00  0.00    -0.119 C  
ENDROOT
BRANCH   5   6
HETATM    6  N   UNL     2      -9.682   7.408  68.128  1.00  0.00    -0.149 N  
HETATM    7  C   UNL     2     -10.476   7.917  66.994  1.00  0.00    -0.349 C  
HETATM    8  C   UNL     2     -10.183   9.398  66.822  1.00  0.00    -0.250 C  
HETATM    9  N   UNL     2     -10.190   9.995  68.169  1.00  0.00    -0.166 N  
HETATM   10  C   UNL     2      -9.072  10.942  68.466  1.00  0.00    -0.173 C  
HETATM   11  C   UNL     2      -8.202  10.392  69.570  1.00  0.00    -0.126 C  
HETATM   12  O   UNL     2      -8.717   9.464  70.394  1.00  0.00    -0.208 OA 
HETATM   13  O   UNL     2      -7.056  10.779  69.720  1.00  0.00    -0.146 OA 
HETATM   14 FE   UNL     2     -10.220   8.680  69.631  1.00  0.00    -0.177 Fe 
HETATM   15  O   UNL     2     -11.083   9.751  70.862  1.00  0.00    -0.308 OA 
HETATM   16  O   UNL     2     -10.162   7.064  70.597  1.00  0.00    -0.191 OA 
HETATM   17  C   UNL     2     -10.199   5.917  69.915  1.00  0.00    -0.218 C  
HETATM   18  C   UNL     2     -11.596  10.751  70.092  1.00  0.00    -0.337 C  
HETATM   19  C   UNL     2     -11.480  10.634  68.555  1.00  0.00    -0.265 C  
HETATM   20  O   UNL     2     -12.098  11.735  70.610  1.00  0.00    -0.368 OA 
HETATM   21  O   UNL     2     -10.394   4.851  70.478  1.00  0.00    -0.239 OA 
HETATM   22  C   UNL     2     -10.095   6.017  68.449  1.00  0.00    -0.164 C  
ENDBRANCH   5   6
TORSDOF 1
ENDMDL
MODEL       70
REMARK 921   NORMALIZED FREE ENERGY PREDICTED BY IDOCK:   -3.97 KCAL/MOL
REMARK 922        TOTAL FREE ENERGY PREDICTED BY IDOCK:   -3.87 KCAL/MOL
REMARK 923 INTER-LIGAND FREE ENERGY PREDICTED BY IDOCK:   -4.19 KCAL/MOL
REMARK 924 INTRA-LIGAND FREE ENERGY PREDICTED BY IDOCK:    0.32 KCAL/MOL
REMARK 927      BINDING AFFINITY PREDICTED BY RF-SCORE:    0.00 PKD
ROOT
HETATM    1 NA   UNL     1     -14.360   9.011  73.510  1.00  0.00    -0.647 Na 
HETATM    2  O   UNL     2     -13.217   9.378  71.002  1.00  0.00    -0.261 OA 
HETATM    3  C   UNL     2     -12.113   8.809  71.526  1.00  0.00    -0.329 C  
HETATM    4  O   UNL     2     -11.661   9.252  72.564  1.00  0.00     0.038 OA 
HETATM    5  C   UNL     2     -11.506   7.627  70.804  1.00  0.00    -0.277 C  
ENDROOT
BRANCH   5   6
HETATM    6  N   UNL     2     -10.247   7.022  71.368  1.00  0.00    -0.197 N  
HETATM    7  C   UNL     2      -9.180   8.039  71.428  1.00  0.00    -0.144 C  
HETATM    8  C   UNL     2      -8.803   8.432  70.009  1.00  0.00    -0.137 C  
HETATM    9  N   UNL     2      -8.712   7.185  69.230  1.00  0.00    -0.136 N  
HETATM   10  C   UNL     2      -9.358   7.211  67.882  1.00  0.00    -0.128 C  
HETATM   11  C   UNL     2     -10.506   6.232  67.835  1.00  0.00    -0.230 C  
HETATM   12  O   UNL     2     -10.531   5.226  68.725  1.00  0.00    -0.173 OA 
HETATM   13  O   UNL     2     -11.394   6.344  67.007  1.00  0.00    -0.314 OA 
HETATM   14 FE   UNL     2      -9.413   5.602  70.162  1.00  0.00    -0.134 Fe 
HETATM   15  O   UNL     2      -8.339   4.363  69.314  1.00  0.00    -0.073 OA 
HETATM   16  O   UNL     2     -10.259   4.484  71.420  1.00  0.00    -0.182 OA 
HETATM   17  C   UNL     2     -10.622   5.011  72.592  1.00  0.00    -0.220 C  
HETATM   18  C   UNL     2      -7.365   5.134  68.755  1.00  0.00    -0.062 C  
HETATM   19  C   UNL     2      -7.330   6.642  69.093  1.00  0.00    -0.093 C  
HETATM   20  O   UNL     2      -6.564   4.648  67.972  1.00  0.00    -0.044 OA 
HETATM   21  O   UNL     2     -10.962   4.302  73.527  1.00  0.00    -0.237 OA 
HETATM   22  C   UNL     2     -10.496   6.472  72.726  1.00  0.00    -0.215 C  
ENDBRANCH   5   6
TORSDOF 1
ENDMDL
MODEL       71
REMARK 921   NORMALIZED FREE ENERGY PREDICTED BY IDOCK:   -3.93 KCAL/MOL
REMARK 922        TOTAL FREE ENERGY PREDICTED BY IDOCK:   -3.83 KCAL/MOL
REMARK 923 INTER-LIGAND FREE ENERGY PREDICTED BY IDOCK:   -4.54 KCAL/MOL
REMARK 924 INTRA-LIGAND FREE ENERGY PREDICTED BY IDOCK:    0.71 KCAL/MOL
REMARK 927      BINDING AFFINITY PREDICTED BY RF-SCORE:    0.00 PKD
ROOT
HETATM    1 NA   UNL     1     -11.678  18.444  67.367  1.00  0.00    -0.219 Na 
HETATM    2  O   UNL     2      -9.972  16.751  65.967  1.00  0.00    -0.336 OA 
HETATM    3  C   UNL     2      -9.626  16.257  67.172  1.00  0.00    -0.233 C  
HETATM    4  O   UNL     2      -9.273  17.029  68.043  1.00  0.00    -0.231 OA 
HETATM    5  C   UNL     2      -9.717  14.764  67.387  1.00  0.00    -0.214 C  
ENDROOT
BRANCH   5   6
HETATM    6  N   UNL     2      -9.286  14.211  68.720  1.00  0.00    -0.135 N  
HETATM    7  C   UNL     2      -7.895  13.725  68.640  1.00  0.00    -0.108 C  
HETATM    8  C   UNL     2      -7.852  12.526  67.706  1.00  0.00    -0.151 C  
HETATM    9  N   UNL     2      -9.006  11.676  68.049  1.00  0.00    -0.169 N  
HETATM   10  C   UNL     2      -9.791  11.148  66.892  1.00  0.00    -0.194 C  
HETATM   11  C   UNL     2     -11.194  11.704  66.916  1.00  0.00    -0.313 C  
HETATM   12  O   UNL     2     -11.680  12.174  68.077  1.00  0.00    -0.331 OA 
HETATM   13  O   UNL     2     -11.878  11.727  65.908  1.00  0.00    -0.414 OA 
HETATM   14 FE   UNL     2     -10.296  12.524  69.268  1.00  0.00    -0.283 Fe 
HETATM   15  O   UNL     2     -10.915  10.965  70.039  1.00  0.00    -0.248 OA 
HETATM   16  O   UNL     2     -11.205  13.788  70.326  1.00  0.00     0.006 OA 
HETATM   17  C   UNL     2     -10.623  14.970  70.542  1.00  0.00    -0.004 C  
HETATM   18  C   UNL     2      -9.966  10.052  69.687  1.00  0.00    -0.236 C  
HETATM   19  C   UNL     2      -8.690  10.549  68.973  1.00  0.00    -0.156 C  
HETATM   20  O   UNL     2     -10.144   8.863  69.897  1.00  0.00    -0.185 OA 
HETATM   21  O   UNL     2     -11.044  15.738  71.393  1.00  0.00    -0.315 OA 
HETATM   22  C   UNL     2      -9.397  15.251  69.775  1.00  0.00    -0.075 C  
ENDBRANCH   5   6
TORSDOF 1
ENDMDL
MODEL       72
REMARK 921   NORMALIZED FREE ENERGY PREDICTED BY IDOCK:   -3.93 KCAL/MOL
REMARK 922        TOTAL FREE ENERGY PREDICTED BY IDOCK:   -3.83 KCAL/MOL
REMARK 923 INTER-LIGAND FREE ENERGY PREDICTED BY IDOCK:   -4.21 KCAL/MOL
REMARK 924 INTRA-LIGAND FREE ENERGY PREDICTED BY IDOCK:    0.38 KCAL/MOL
REMARK 927      BINDING AFFINITY PREDICTED BY RF-SCORE:    0.00 PKD
ROOT
HETATM    1 NA   UNL     1     -14.267   5.164  72.502  1.00  0.00    -0.141 Na 
HETATM    2  O   UNL     2     -13.697   7.790  71.787  1.00  0.00    -0.347 OA 
HETATM    3  C   UNL     2     -12.421   7.376  71.649  1.00  0.00    -0.349 C  
HETATM    4  O   UNL     2     -11.895   6.779  72.569  1.00  0.00    -0.218 OA 
HETATM    5  C   UNL     2     -11.715   7.656  70.342  1.00  0.00    -0.059 C  
ENDROOT
BRANCH   5   6
HETATM    6  N   UNL     2     -10.276   7.232  70.208  1.00  0.00    -0.197 N  
HETATM    7  C   UNL     2      -9.489   7.748  71.345  1.00  0.00    -0.148 C  
HETATM    8  C   UNL     2      -9.443   9.264  71.254  1.00  0.00    -0.175 C  
HETATM    9  N   UNL     2      -9.176   9.601  69.845  1.00  0.00    -0.215 N  
HETATM   10  C   UNL     2     -10.010  10.700  69.269  1.00  0.00    -0.193 C  
HETATM   11  C   UNL     2     -10.881  10.165  68.158  1.00  0.00    -0.262 C  
HETATM   12  O   UNL     2     -10.525   9.018  67.556  1.00  0.00    -0.250 OA 
HETATM   13  O   UNL     2     -11.887  10.759  67.808  1.00  0.00    -0.538 OA 
HETATM   14 FE   UNL     2      -9.322   8.075  68.613  1.00  0.00    -0.140 Fe 
HETATM   15  O   UNL     2      -8.126   8.703  67.354  1.00  0.00    -0.101 OA 
HETATM   16  O   UNL     2      -9.669   6.367  67.901  1.00  0.00    -0.121 OA 
HETATM   17  C   UNL     2      -9.962   5.376  68.746  1.00  0.00    -0.170 C  
HETATM   18  C   UNL     2      -7.465   9.688  68.025  1.00  0.00    -0.082 C  
HETATM   19  C   UNL     2      -7.742   9.869  69.534  1.00  0.00    -0.135 C  
HETATM   20  O   UNL     2      -6.702  10.434  67.433  1.00  0.00    -0.070 OA 
HETATM   21  O   UNL     2      -9.972   4.210  68.378  1.00  0.00    -0.063 OA 
HETATM   22  C   UNL     2     -10.172   5.751  70.155  1.00  0.00    -0.236 C  
ENDBRANCH   5   6
TORSDOF 1
ENDMDL
MODEL       73
REMARK 921   NORMALIZED FREE ENERGY PREDICTED BY IDOCK:   -3.89 KCAL/MOL
REMARK 922        TOTAL FREE ENERGY PREDICTED BY IDOCK:   -3.79 KCAL/MOL
REMARK 923 INTER-LIGAND FREE ENERGY PREDICTED BY IDOCK:   -4.12 KCAL/MOL
REMARK 924 INTRA-LIGAND FREE ENERGY PREDICTED BY IDOCK:    0.33 KCAL/MOL
REMARK 927      BINDING AFFINITY PREDICTED BY RF-SCORE:    0.00 PKD
ROOT
HETATM    1 NA   UNL     1      -9.737   5.463  63.670  1.00  0.00    -0.356 Na 
HETATM    2  O   UNL     2     -10.661   4.639  66.160  1.00  0.00    -0.295 OA 
HETATM    3  C   UNL     2      -9.582   5.269  66.664  1.00  0.00    -0.152 C  
HETATM    4  O   UNL     2      -8.484   5.007  66.212  1.00  0.00    -0.112 OA 
HETATM    5  C   UNL     2      -9.796   6.293  67.756  1.00  0.00    -0.121 C  
ENDROOT
BRANCH   5   6
HETATM    6  N   UNL     2      -8.583   6.963  68.348  1.00  0.00    -0.126 N  
HETATM    7  C   UNL     2      -7.662   5.949  68.895  1.00  0.00    -0.091 C  
HETATM    8  C   UNL     2      -8.333   5.273  70.081  1.00  0.00    -0.098 C  
HETATM    9  N   UNL     2      -8.959   6.339  70.883  1.00  0.00    -0.146 N  
HETATM   10  C   UNL     2     -10.350   6.065  71.356  1.00  0.00    -0.220 C  
HETATM   11  C   UNL     2     -11.315   7.046  70.737  1.00  0.00    -0.298 C  
HETATM   12  O   UNL     2     -10.836   8.209  70.263  1.00  0.00    -0.240 OA 
HETATM   13  O   UNL     2     -12.506   6.797  70.667  1.00  0.00    -0.320 OA 
HETATM   14 FE   UNL     2      -9.000   8.094  69.995  1.00  0.00    -0.128 Fe 
HETATM   15  O   UNL     2      -8.975   9.111  71.536  1.00  0.00    -0.319 OA 
HETATM   16  O   UNL     2      -8.862   9.460  68.707  1.00  0.00    -0.129 OA 
HETATM   17  C   UNL     2      -8.242   9.186  67.557  1.00  0.00    -0.108 C  
HETATM   18  C   UNL     2      -8.579   8.218  72.486  1.00  0.00    -0.208 C  
HETATM   19  C   UNL     2      -8.139   6.807  72.037  1.00  0.00    -0.101 C  
HETATM   20  O   UNL     2      -8.613   8.518  73.669  1.00  0.00    -0.325 OA 
HETATM   21  O   UNL     2      -7.919  10.074  66.783  1.00  0.00    -0.112 OA 
HETATM   22  C   UNL     2      -7.884   7.777  67.321  1.00  0.00    -0.117 C  
ENDBRANCH   5   6
TORSDOF 1
ENDMDL
MODEL       74
REMARK 921   NORMALIZED FREE ENERGY PREDICTED BY IDOCK:   -3.86 KCAL/MOL
REMARK 922        TOTAL FREE ENERGY PREDICTED BY IDOCK:   -3.76 KCAL/MOL
REMARK 923 INTER-LIGAND FREE ENERGY PREDICTED BY IDOCK:   -4.13 KCAL/MOL
REMARK 924 INTRA-LIGAND FREE ENERGY PREDICTED BY IDOCK:    0.37 KCAL/MOL
REMARK 927      BINDING AFFINITY PREDICTED BY RF-SCORE:    0.00 PKD
ROOT
HETATM    1 NA   UNL     1     -11.779   5.231  65.200  1.00  0.00    -0.675 Na 
HETATM    2  O   UNL     2     -11.323   6.610  67.571  1.00  0.00    -0.271 OA 
HETATM    3  C   UNL     2     -10.330   7.234  66.907  1.00  0.00    -0.288 C  
HETATM    4  O   UNL     2      -9.499   6.562  66.326  1.00  0.00    -0.157 OA 
HETATM    5  C   UNL     2     -10.313   8.746  66.898  1.00  0.00    -0.274 C  
ENDROOT
BRANCH   5   6
HETATM    6  N   UNL     2      -9.177   9.439  66.193  1.00  0.00    -0.175 N  
HETATM    7  C   UNL     2      -7.886   8.927  66.690  1.00  0.00    -0.100 C  
HETATM    8  C   UNL     2      -7.729   9.336  68.146  1.00  0.00    -0.088 C  
HETATM    9  N   UNL     2      -8.150  10.744  68.242  1.00  0.00    -0.116 N  
HETATM   10  C   UNL     2      -9.038  11.080  69.397  1.00  0.00     0.221 C  
HETATM   11  C   UNL     2     -10.392  11.528  68.902  1.00  0.00    -0.169 C  
HETATM   12  O   UNL     2     -10.500  11.978  67.641  1.00  0.00    -0.200 OA 
HETATM   13  O   UNL     2     -11.371  11.487  69.627  1.00  0.00    -0.266 OA 
HETATM   14 FE   UNL     2      -9.041  11.429  66.627  1.00  0.00    -0.151 Fe 
HETATM   15  O   UNL     2      -8.553  13.196  66.848  1.00  0.00    -0.191 OA 
HETATM   16  O   UNL     2      -9.871  11.535  64.940  1.00  0.00    -0.242 OA 
HETATM   17  C   UNL     2      -9.817  10.467  64.140  1.00  0.00    -0.337 C  
HETATM   18  C   UNL     2      -7.548  13.123  67.766  1.00  0.00    -0.155 C  
HETATM   19  C   UNL     2      -7.032  11.729  68.189  1.00  0.00    -0.076 C  
HETATM   20  O   UNL     2      -7.098  14.138  68.271  1.00  0.00    -0.091 OA 
HETATM   21  O   UNL     2     -10.129  10.543  62.961  1.00  0.00    -0.230 OA 
HETATM   22  C   UNL     2      -9.271   9.231  64.725  1.00  0.00    -0.095 C  
ENDBRANCH   5   6
TORSDOF 1
ENDMDL
MODEL       75
REMARK 921   NORMALIZED FREE ENERGY PREDICTED BY IDOCK:   -3.85 KCAL/MOL
REMARK 922        TOTAL FREE ENERGY PREDICTED BY IDOCK:   -3.75 KCAL/MOL
REMARK 923 INTER-LIGAND FREE ENERGY PREDICTED BY IDOCK:   -4.06 KCAL/MOL
REMARK 924 INTRA-LIGAND FREE ENERGY PREDICTED BY IDOCK:    0.31 KCAL/MOL
REMARK 927      BINDING AFFINITY PREDICTED BY RF-SCORE:    0.00 PKD
ROOT
HETATM    1 NA   UNL     1      -9.117   7.504  64.237  1.00  0.00    -0.364 Na 
HETATM    2  O   UNL     2      -9.682   9.016  66.501  1.00  0.00    -0.201 OA 
HETATM    3  C   UNL     2     -10.037   7.849  67.076  1.00  0.00    -0.277 C  
HETATM    4  O   UNL     2     -10.837   7.133  66.504  1.00  0.00    -0.095 OA 
HETATM    5  C   UNL     2      -9.401   7.479  68.397  1.00  0.00    -0.141 C  
ENDROOT
BRANCH   5   6
HETATM    6  N   UNL     2      -9.834   6.196  69.057  1.00  0.00    -0.137 N  
HETATM    7  C   UNL     2     -11.270   6.258  69.390  1.00  0.00    -0.420 C  
HETATM    8  C   UNL     2     -11.475   7.319  70.460  1.00  0.00    -0.279 C  
HETATM    9  N   UNL     2     -10.404   7.135  71.455  1.00  0.00    -0.202 N  
HETATM   10  C   UNL     2      -9.725   8.383  71.918  1.00  0.00    -0.261 C  
HETATM   11  C   UNL     2      -8.272   8.368  71.510  1.00  0.00    -0.144 C  
HETATM   12  O   UNL     2      -7.693   7.188  71.231  1.00  0.00    -0.090 OA 
HETATM   13  O   UNL     2      -7.629   9.402  71.436  1.00  0.00    -0.340 OA 
HETATM   14 FE   UNL     2      -8.985   5.896  70.889  1.00  0.00    -0.127 Fe 
HETATM   15  O   UNL     2      -8.502   5.339  72.582  1.00  0.00    -0.116 OA 
HETATM   16  O   UNL     2      -7.907   4.750  69.855  1.00  0.00    -0.061 OA 
HETATM   17  C   UNL     2      -8.354   4.372  68.655  1.00  0.00    -0.084 C  
HETATM   18  C   UNL     2      -9.554   5.743  73.349  1.00  0.00    -0.143 C  
HETATM   19  C   UNL     2     -10.799   6.329  72.646  1.00  0.00    -0.242 C  
HETATM   20  O   UNL     2      -9.493   5.678  74.566  1.00  0.00    -0.134 OA 
HETATM   21  O   UNL     2      -7.821   3.461  68.038  1.00  0.00    -0.067 OA 
HETATM   22  C   UNL     2      -9.573   5.037  68.166  1.00  0.00    -0.138 C  
ENDBRANCH   5   6
TORSDOF 1
ENDMDL
MODEL       76
REMARK 921   NORMALIZED FREE ENERGY PREDICTED BY IDOCK:   -3.85 KCAL/MOL
REMARK 922        TOTAL FREE ENERGY PREDICTED BY IDOCK:   -3.75 KCAL/MOL
REMARK 923 INTER-LIGAND FREE ENERGY PREDICTED BY IDOCK:   -4.87 KCAL/MOL
REMARK 924 INTRA-LIGAND FREE ENERGY PREDICTED BY IDOCK:    1.12 KCAL/MOL
REMARK 927      BINDING AFFINITY PREDICTED BY RF-SCORE:    0.00 PKD
ROOT
HETATM    1 NA   UNL     1     -11.090  18.598  68.672  1.00  0.00    -0.295 Na 
HETATM    2  O   UNL     2      -9.844  20.621  67.227  1.00  0.00    -0.471 OA 
HETATM    3  C   UNL     2      -8.699  20.193  67.797  1.00  0.00    -0.258 C  
HETATM    4  O   UNL     2      -8.653  20.077  69.007  1.00  0.00    -0.022 OA 
HETATM    5  C   UNL     2      -7.534  19.855  66.895  1.00  0.00    -0.251 C  
ENDROOT
BRANCH   5   6
HETATM    6  N   UNL     2      -6.242  19.421  67.537  1.00  0.00    -0.194 N  
HETATM    7  C   UNL     2      -5.302  18.940  66.508  1.00  0.00    -0.142 C  
HETATM    8  C   UNL     2      -5.862  17.667  65.895  1.00  0.00    -0.138 C  
HETATM    9  N   UNL     2      -6.361  16.840  67.008  1.00  0.00    -0.173 N  
HETATM   10  C   UNL     2      -7.701  16.210  66.800  1.00  0.00    -0.253 C  
HETATM   11  C   UNL     2      -8.694  16.756  67.797  1.00  0.00    -0.210 C  
HETATM   12  O   UNL     2      -8.230  17.320  68.925  1.00  0.00    -0.255 OA 
HETATM   13  O   UNL     2      -9.893  16.689  67.590  1.00  0.00    -0.248 OA 
HETATM   14 FE   UNL     2      -6.439  17.779  68.734  1.00  0.00    -0.168 Fe 
HETATM   15  O   UNL     2      -6.213  16.287  69.798  1.00  0.00    -0.192 OA 
HETATM   16  O   UNL     2      -6.396  19.122  70.053  1.00  0.00    -0.231 OA 
HETATM   17  C   UNL     2      -5.915  20.322  69.720  1.00  0.00    -0.359 C  
HETATM   18  C   UNL     2      -5.746  15.354  68.921  1.00  0.00    -0.098 C  
HETATM   19  C   UNL     2      -5.405  15.798  67.481  1.00  0.00    -0.040 C  
HETATM   20  O   UNL     2      -5.641  14.186  69.258  1.00  0.00    -0.081 OA 
HETATM   21  O   UNL     2      -5.648  21.157  70.571  1.00  0.00    -0.521 OA 
HETATM   22  C   UNL     2      -5.632  20.546  68.292  1.00  0.00    -0.268 C  
ENDBRANCH   5   6
TORSDOF 1
ENDMDL
MODEL       77
REMARK 921   NORMALIZED FREE ENERGY PREDICTED BY IDOCK:   -3.80 KCAL/MOL
REMARK 922        TOTAL FREE ENERGY PREDICTED BY IDOCK:   -3.70 KCAL/MOL
REMARK 923 INTER-LIGAND FREE ENERGY PREDICTED BY IDOCK:   -4.95 KCAL/MOL
REMARK 924 INTRA-LIGAND FREE ENERGY PREDICTED BY IDOCK:    1.25 KCAL/MOL
REMARK 927      BINDING AFFINITY PREDICTED BY RF-SCORE:    0.00 PKD
ROOT
HETATM    1 NA   UNL     1     -12.806  10.134  70.092  1.00  0.00    -0.325 Na 
HETATM    2  O   UNL     2     -10.144   9.694  70.766  1.00  0.00    -0.278 OA 
HETATM    3  C   UNL     2      -9.876   9.913  69.463  1.00  0.00    -0.223 C  
HETATM    4  O   UNL     2     -10.491   9.284  68.623  1.00  0.00    -0.207 OA 
HETATM    5  C   UNL     2      -8.836  10.953  69.111  1.00  0.00    -0.037 C  
ENDROOT
BRANCH   5   6
HETATM    6  N   UNL     2      -8.507  11.163  67.656  1.00  0.00    -0.121 N  
HETATM    7  C   UNL     2      -7.411  12.141  67.522  1.00  0.00    -0.148 C  
HETATM    8  C   UNL     2      -7.910  13.497  67.992  1.00  0.00    -0.147 C  
HETATM    9  N   UNL     2      -9.255  13.681  67.420  1.00  0.00    -0.213 N  
HETATM   10  C   UNL     2     -10.293  14.213  68.354  1.00  0.00    -0.249 C  
HETATM   11  C   UNL     2     -11.380  13.187  68.565  1.00  0.00    -0.286 C  
HETATM   12  O   UNL     2     -11.537  12.218  67.648  1.00  0.00    -0.319 OA 
HETATM   13  O   UNL     2     -12.106  13.233  69.543  1.00  0.00    -0.303 OA 
HETATM   14 FE   UNL     2     -10.008  12.059  66.602  1.00  0.00    -0.188 Fe 
HETATM   15  O   UNL     2     -11.079  12.920  65.368  1.00  0.00    -0.276 OA 
HETATM   16  O   UNL     2     -10.273  10.273  66.065  1.00  0.00    -0.253 OA 
HETATM   17  C   UNL     2      -9.276   9.404  66.243  1.00  0.00    -0.180 C  
HETATM   18  C   UNL     2     -10.577  14.187  65.359  1.00  0.00    -0.346 C  
HETATM   19  C   UNL     2      -9.286  14.477  66.159  1.00  0.00    -0.209 C  
HETATM   20  O   UNL     2     -11.160  15.079  64.765  1.00  0.00    -0.387 OA 
HETATM   21  O   UNL     2      -9.294   8.301  65.716  1.00  0.00    -0.145 OA 
HETATM   22  C   UNL     2      -8.118   9.878  67.019  1.00  0.00    -0.110 C  
ENDBRANCH   5   6
TORSDOF 1
ENDMDL
MODEL       78
REMARK 921   NORMALIZED FREE ENERGY PREDICTED BY IDOCK:   -3.80 KCAL/MOL
REMARK 922        TOTAL FREE ENERGY PREDICTED BY IDOCK:   -3.70 KCAL/MOL
REMARK 923 INTER-LIGAND FREE ENERGY PREDICTED BY IDOCK:   -4.12 KCAL/MOL
REMARK 924 INTRA-LIGAND FREE ENERGY PREDICTED BY IDOCK:    0.42 KCAL/MOL
REMARK 927      BINDING AFFINITY PREDICTED BY RF-SCORE:    0.00 PKD
ROOT
HETATM    1 NA   UNL     1      -8.417  13.078  69.455  1.00  0.00    -0.336 Na 
HETATM    2  O   UNL     2     -10.355  11.109  69.142  1.00  0.00    -0.211 OA 
HETATM    3  C   UNL     2      -9.357  10.226  69.346  1.00  0.00    -0.199 C  
HETATM    4  O   UNL     2      -8.347  10.317  68.673  1.00  0.00    -0.109 OA 
HETATM    5  C   UNL     2      -9.534   9.179  70.421  1.00  0.00    -0.227 C  
ENDROOT
BRANCH   5   6
HETATM    6  N   UNL     2      -8.436   8.167  70.615  1.00  0.00    -0.124 N  
HETATM    7  C   UNL     2      -8.050   7.585  69.316  1.00  0.00    -0.126 C  
HETATM    8  C   UNL     2      -9.218   6.771  68.782  1.00  0.00    -0.130 C  
HETATM    9  N   UNL     2      -9.747   5.989  69.913  1.00  0.00    -0.160 N  
HETATM   10  C   UNL     2     -11.235   5.970  70.052  1.00  0.00    -0.355 C  
HETATM   11  C   UNL     2     -11.647   6.639  71.341  1.00  0.00    -0.313 C  
HETATM   12  O   UNL     2     -10.743   6.743  72.330  1.00  0.00    -0.212 OA 
HETATM   13  O   UNL     2     -12.775   7.075  71.491  1.00  0.00    -0.368 OA 
HETATM   14 FE   UNL     2      -9.022   6.517  71.664  1.00  0.00    -0.133 Fe 
HETATM   15  O   UNL     2      -9.205   4.869  72.475  1.00  0.00    -0.131 OA 
HETATM   16  O   UNL     2      -8.115   7.447  73.028  1.00  0.00    -0.098 OA 
HETATM   17  C   UNL     2      -7.266   8.415  72.677  1.00  0.00    -0.077 C  
HETATM   18  C   UNL     2      -9.391   4.027  71.420  1.00  0.00    -0.144 C  
HETATM   19  C   UNL     2      -9.237   4.590  69.989  1.00  0.00    -0.128 C  
HETATM   20  O   UNL     2      -9.711   2.864  71.605  1.00  0.00    -0.144 OA 
HETATM   21  O   UNL     2      -6.484   8.895  73.484  1.00  0.00    -0.298 OA 
HETATM   22  C   UNL     2      -7.253   8.798  71.255  1.00  0.00    -0.095 C  
ENDBRANCH   5   6
TORSDOF 1
ENDMDL
MODEL       79
REMARK 921   NORMALIZED FREE ENERGY PREDICTED BY IDOCK:   -3.79 KCAL/MOL
REMARK 922        TOTAL FREE ENERGY PREDICTED BY IDOCK:   -3.68 KCAL/MOL
REMARK 923 INTER-LIGAND FREE ENERGY PREDICTED BY IDOCK:   -4.03 KCAL/MOL
REMARK 924 INTRA-LIGAND FREE ENERGY PREDICTED BY IDOCK:    0.35 KCAL/MOL
REMARK 927      BINDING AFFINITY PREDICTED BY RF-SCORE:    0.00 PKD
ROOT
HETATM    1 NA   UNL     1      -9.188  13.932  66.360  1.00  0.00    -0.224 Na 
HETATM    2  O   UNL     2     -11.052  11.970  67.000  1.00  0.00    -0.264 OA 
HETATM    3  C   UNL     2      -9.993  11.157  67.184  1.00  0.00    -0.186 C  
HETATM    4  O   UNL     2      -9.164  11.063  66.298  1.00  0.00    -0.171 OA 
HETATM    5  C   UNL     2      -9.876  10.420  68.499  1.00  0.00    -0.167 C  
ENDROOT
BRANCH   5   6
HETATM    6  N   UNL     2      -8.715   9.477  68.683  1.00  0.00    -0.126 N  
HETATM    7  C   UNL     2      -8.899   8.278  67.843  1.00  0.00    -0.138 C  
HETATM    8  C   UNL     2     -10.098   7.501  68.363  1.00  0.00    -0.180 C  
HETATM    9  N   UNL     2      -9.984   7.472  69.832  1.00  0.00    -0.187 N  
HETATM   10  C   UNL     2     -11.242   7.756  70.587  1.00  0.00    -0.268 C  
HETATM   11  C   UNL     2     -11.094   9.028  71.387  1.00  0.00    -0.329 C  
HETATM   12  O   UNL     2      -9.858   9.464  71.680  1.00  0.00    -0.219 OA 
HETATM   13  O   UNL     2     -12.072   9.651  71.764  1.00  0.00    -0.378 OA 
HETATM   14 FE   UNL     2      -8.606   8.674  70.556  1.00  0.00    -0.106 Fe 
HETATM   15  O   UNL     2      -8.245   7.692  72.077  1.00  0.00    -0.098 OA 
HETATM   16  O   UNL     2      -7.278  10.000  70.709  1.00  0.00    -0.328 OA 
HETATM   17  C   UNL     2      -6.774  10.524  69.589  1.00  0.00    -0.108 C  
HETATM   18  C   UNL     2      -8.802   6.480  71.798  1.00  0.00    -0.138 C  
HETATM   19  C   UNL     2      -9.362   6.232  70.379  1.00  0.00    -0.161 C  
HETATM   20  O   UNL     2      -8.892   5.626  72.665  1.00  0.00    -0.124 OA 
HETATM   21  O   UNL     2      -5.764  11.211  69.609  1.00  0.00    -0.050 OA 
HETATM   22  C   UNL     2      -7.438  10.149  68.329  1.00  0.00    -0.082 C  
ENDBRANCH   5   6
TORSDOF 1
ENDMDL
MODEL       80
REMARK 921   NORMALIZED FREE ENERGY PREDICTED BY IDOCK:   -3.79 KCAL/MOL
REMARK 922        TOTAL FREE ENERGY PREDICTED BY IDOCK:   -3.68 KCAL/MOL
REMARK 923 INTER-LIGAND FREE ENERGY PREDICTED BY IDOCK:   -4.79 KCAL/MOL
REMARK 924 INTRA-LIGAND FREE ENERGY PREDICTED BY IDOCK:    1.11 KCAL/MOL
REMARK 927      BINDING AFFINITY PREDICTED BY RF-SCORE:    0.00 PKD
ROOT
HETATM    1 NA   UNL     1      -7.151   8.794  72.555  1.00  0.00    -0.097 Na 
HETATM    2  O   UNL     2      -7.452   6.339  71.283  1.00  0.00    -0.089 OA 
HETATM    3  C   UNL     2      -8.700   6.753  70.985  1.00  0.00    -0.137 C  
HETATM    4  O   UNL     2      -9.413   7.160  71.882  1.00  0.00    -0.147 OA 
HETATM    5  C   UNL     2      -9.141   6.713  69.539  1.00  0.00    -0.144 C  
ENDROOT
BRANCH   5   6
HETATM    6  N   UNL     2     -10.551   7.134  69.216  1.00  0.00    -0.218 N  
HETATM    7  C   UNL     2     -10.756   7.134  67.755  1.00  0.00    -0.212 C  
HETATM    8  C   UNL     2      -9.891   8.223  67.143  1.00  0.00    -0.217 C  
HETATM    9  N   UNL     2     -10.035   9.415  67.996  1.00  0.00    -0.168 N  
HETATM   10  C   UNL     2      -8.768  10.136  68.327  1.00  0.00    -0.120 C  
HETATM   11  C   UNL     2      -8.504  10.072  69.812  1.00  0.00    -0.172 C  
HETATM   12  O   UNL     2      -9.533   9.823  70.639  1.00  0.00    -0.196 OA 
HETATM   13  O   UNL     2      -7.383  10.244  70.259  1.00  0.00    -0.198 OA 
HETATM   14 FE   UNL     2     -10.954   9.075  69.702  1.00  0.00    -0.215 Fe 
HETATM   15  O   UNL     2     -11.647  10.773  69.912  1.00  0.00    -0.274 OA 
HETATM   16  O   UNL     2     -11.773   8.212  71.162  1.00  0.00    -0.280 OA 
HETATM   17  C   UNL     2     -12.055   6.912  71.052  1.00  0.00    -0.380 C  
HETATM   18  C   UNL     2     -11.515  11.314  68.668  1.00  0.00    -0.297 C  
HETATM   19  C   UNL     2     -11.042  10.403  67.513  1.00  0.00    -0.267 C  
HETATM   20  O   UNL     2     -11.729  12.501  68.483  1.00  0.00    -0.290 OA 
HETATM   21  O   UNL     2     -12.783   6.351  71.857  1.00  0.00    -0.280 OA 
HETATM   22  C   UNL     2     -11.528   6.221  69.863  1.00  0.00    -0.389 C  
ENDBRANCH   5   6
TORSDOF 1
ENDMDL
MODEL       81
REMARK 921   NORMALIZED FREE ENERGY PREDICTED BY IDOCK:   -3.77 KCAL/MOL
REMARK 922        TOTAL FREE ENERGY PREDICTED BY IDOCK:   -3.67 KCAL/MOL
REMARK 923 INTER-LIGAND FREE ENERGY PREDICTED BY IDOCK:   -4.94 KCAL/MOL
REMARK 924 INTRA-LIGAND FREE ENERGY PREDICTED BY IDOCK:    1.27 KCAL/MOL
REMARK 927      BINDING AFFINITY PREDICTED BY RF-SCORE:    0.00 PKD
ROOT
HETATM    1 NA   UNL     1      -9.119  10.383  63.202  1.00  0.00    -0.149 Na 
HETATM    2  O   UNL     2     -10.063   9.279  65.573  1.00  0.00    -0.150 OA 
HETATM    3  C   UNL     2      -9.593  10.393  66.169  1.00  0.00    -0.196 C  
HETATM    4  O   UNL     2      -8.440  10.723  65.970  1.00  0.00    -0.160 OA 
HETATM    5  C   UNL     2     -10.537  11.193  67.038  1.00  0.00    -0.252 C  
ENDROOT
BRANCH   5   6
HETATM    6  N   UNL     2      -9.996  12.412  67.738  1.00  0.00    -0.200 N  
HETATM    7  C   UNL     2     -11.024  12.980  68.631  1.00  0.00    -0.265 C  
HETATM    8  C   UNL     2     -12.165  13.513  67.779  1.00  0.00    -0.157 C  
HETATM    9  N   UNL     2     -11.555  14.241  66.653  1.00  0.00    -0.368 N  
HETATM   10  C   UNL     2     -12.148  13.973  65.307  1.00  0.00    -0.408 C  
HETATM   11  C   UNL     2     -11.129  13.315  64.410  1.00  0.00    -0.384 C  
HETATM   12  O   UNL     2      -9.826  13.450  64.708  1.00  0.00    -0.168 OA 
HETATM   13  O   UNL     2     -11.473  12.674  63.432  1.00  0.00    -0.487 OA 
HETATM   14 FE   UNL     2      -9.615  13.972  66.479  1.00  0.00    -0.222 Fe 
HETATM   15  O   UNL     2      -9.246  15.597  65.684  1.00  0.00    -0.276 OA 
HETATM   16  O   UNL     2      -7.862  13.324  66.711  1.00  0.00     0.109 OA 
HETATM   17  C   UNL     2      -7.615  12.524  67.750  1.00  0.00    -0.138 C  
HETATM   18  C   UNL     2     -10.374  16.321  65.929  1.00  0.00    -0.365 C  
HETATM   19  C   UNL     2     -11.455  15.716  66.852  1.00  0.00     0.081 C  
HETATM   20  O   UNL     2     -10.540  17.407  65.396  1.00  0.00    -0.638 OA 
HETATM   21  O   UNL     2      -6.471  12.257  68.087  1.00  0.00    -0.054 OA 
HETATM   22  C   UNL     2      -8.782  12.066  68.523  1.00  0.00    -0.095 C  
ENDBRANCH   5   6
TORSDOF 1
ENDMDL
MODEL       82
REMARK 921   NORMALIZED FREE ENERGY PREDICTED BY IDOCK:   -3.77 KCAL/MOL
REMARK 922        TOTAL FREE ENERGY PREDICTED BY IDOCK:   -3.66 KCAL/MOL
REMARK 923 INTER-LIGAND FREE ENERGY PREDICTED BY IDOCK:   -3.98 KCAL/MOL
REMARK 924 INTRA-LIGAND FREE ENERGY PREDICTED BY IDOCK:    0.31 KCAL/MOL
REMARK 927      BINDING AFFINITY PREDICTED BY RF-SCORE:    0.00 PKD
ROOT
HETATM    1 NA   UNL     1      -6.995  13.607  71.508  1.00  0.00    -0.242 Na 
HETATM    2  O   UNL     2      -6.456  12.459  69.034  1.00  0.00    -0.084 OA 
HETATM    3  C   UNL     2      -6.932  11.315  69.566  1.00  0.00    -0.089 C  
HETATM    4  O   UNL     2      -6.475  10.926  70.625  1.00  0.00    -0.335 OA 
HETATM    5  C   UNL     2      -8.031  10.585  68.829  1.00  0.00    -0.127 C  
ENDROOT
BRANCH   5   6
HETATM    6  N   UNL     2      -8.528   9.284  69.404  1.00  0.00    -0.130 N  
HETATM    7  C   UNL     2      -7.438   8.291  69.425  1.00  0.00    -0.090 C  
HETATM    8  C   UNL     2      -7.066   7.948  67.991  1.00  0.00    -0.085 C  
HETATM    9  N   UNL     2      -8.328   7.774  67.251  1.00  0.00    -0.118 N  
HETATM   10  C   UNL     2      -8.391   8.426  65.908  1.00  0.00    -0.134 C  
HETATM   11  C   UNL     2      -9.448   9.503  65.900  1.00  0.00    -0.244 C  
HETATM   12  O   UNL     2     -10.424   9.454  66.822  1.00  0.00    -0.243 OA 
HETATM   13  O   UNL     2      -9.425  10.400  65.074  1.00  0.00    -0.208 OA 
HETATM   14 FE   UNL     2      -9.925   8.359  68.239  1.00  0.00    -0.153 Fe 
HETATM   15  O   UNL     2     -11.114   7.205  67.424  1.00  0.00    -0.247 OA 
HETATM   16  O   UNL     2     -11.057   9.120  69.537  1.00  0.00    -0.177 OA 
HETATM   17  C   UNL     2     -10.520   9.514  70.694  1.00  0.00    -0.308 C  
HETATM   18  C   UNL     2     -10.295   6.289  66.834  1.00  0.00    -0.244 C  
HETATM   19  C   UNL     2      -8.779   6.358  67.123  1.00  0.00    -0.110 C  
HETATM   20  O   UNL     2     -10.749   5.460  66.062  1.00  0.00    -0.170 OA 
HETATM   21  O   UNL     2     -11.220   9.799  71.654  1.00  0.00    -0.331 OA 
HETATM   22  C   UNL     2      -9.050   9.489  70.780  1.00  0.00    -0.110 C  
ENDBRANCH   5   6
TORSDOF 1
ENDMDL
MODEL       83
REMARK 921   NORMALIZED FREE ENERGY PREDICTED BY IDOCK:   -3.77 KCAL/MOL
REMARK 922        TOTAL FREE ENERGY PREDICTED BY IDOCK:   -3.66 KCAL/MOL
REMARK 923 INTER-LIGAND FREE ENERGY PREDICTED BY IDOCK:   -4.10 KCAL/MOL
REMARK 924 INTRA-LIGAND FREE ENERGY PREDICTED BY IDOCK:    0.44 KCAL/MOL
REMARK 927      BINDING AFFINITY PREDICTED BY RF-SCORE:    0.00 PKD
ROOT
HETATM    1 NA   UNL     1     -12.255  12.079  66.038  1.00  0.00    -0.379 Na 
HETATM    2  O   UNL     2     -10.367  10.246  65.138  1.00  0.00    -0.286 OA 
HETATM    3  C   UNL     2      -9.991  10.143  66.428  1.00  0.00    -0.234 C  
HETATM    4  O   UNL     2      -9.731  11.157  67.046  1.00  0.00    -0.182 OA 
HETATM    5  C   UNL     2      -9.934   8.766  67.049  1.00  0.00    -0.240 C  
ENDROOT
BRANCH   5   6
HETATM    6  N   UNL     2      -9.469   8.650  68.477  1.00  0.00    -0.141 N  
HETATM    7  C   UNL     2      -7.997   8.711  68.536  1.00  0.00    -0.116 C  
HETATM    8  C   UNL     2      -7.432   7.474  67.858  1.00  0.00    -0.105 C  
HETATM    9  N   UNL     2      -8.230   6.327  68.326  1.00  0.00    -0.115 N  
HETATM   10  C   UNL     2      -8.653   5.355  67.272  1.00  0.00    -0.108 C  
HETATM   11  C   UNL     2     -10.157   5.345  67.145  1.00  0.00    -0.198 C  
HETATM   12  O   UNL     2     -10.894   5.791  68.176  1.00  0.00    -0.241 OA 
HETATM   13  O   UNL     2     -10.699   4.938  66.132  1.00  0.00    -0.317 OA 
HETATM   14 FE   UNL     2      -9.854   6.829  69.316  1.00  0.00    -0.147 Fe 
HETATM   15  O   UNL     2      -9.946   5.309  70.359  1.00  0.00    -0.197 OA 
HETATM   16  O   UNL     2     -11.259   7.826  70.077  1.00  0.00    -0.224 OA 
HETATM   17  C   UNL     2     -11.166   9.157  70.074  1.00  0.00    -0.150 C  
HETATM   18  C   UNL     2      -8.702   4.769  70.222  1.00  0.00    -0.093 C  
HETATM   19  C   UNL     2      -7.625   5.575  69.463  1.00  0.00    -0.071 C  
HETATM   20  O   UNL     2      -8.461   3.654  70.656  1.00  0.00    -0.067 OA 
HETATM   21  O   UNL     2     -11.918   9.847  70.745  1.00  0.00    -0.291 OA 
HETATM   22  C   UNL     2     -10.052   9.738  69.304  1.00  0.00    -0.198 C  
ENDBRANCH   5   6
TORSDOF 1
ENDMDL
MODEL       84
REMARK 921   NORMALIZED FREE ENERGY PREDICTED BY IDOCK:   -3.76 KCAL/MOL
REMARK 922        TOTAL FREE ENERGY PREDICTED BY IDOCK:   -3.66 KCAL/MOL
REMARK 923 INTER-LIGAND FREE ENERGY PREDICTED BY IDOCK:   -3.99 KCAL/MOL
REMARK 924 INTRA-LIGAND FREE ENERGY PREDICTED BY IDOCK:    0.33 KCAL/MOL
REMARK 927      BINDING AFFINITY PREDICTED BY RF-SCORE:    0.00 PKD
ROOT
HETATM    1 NA   UNL     1      -9.542  13.855  64.259  1.00  0.00    -0.561 Na 
HETATM    2  O   UNL     2      -9.490  13.448  67.010  1.00  0.00    -0.230 OA 
HETATM    3  C   UNL     2      -9.949  12.210  66.740  1.00  0.00    -0.203 C  
HETATM    4  O   UNL     2     -10.938  12.090  66.042  1.00  0.00    -0.281 OA 
HETATM    5  C   UNL     2      -9.195  11.027  67.304  1.00  0.00    -0.148 C  
ENDROOT
BRANCH   5   6
HETATM    6  N   UNL     2      -9.737   9.647  67.038  1.00  0.00    -0.172 N  
HETATM    7  C   UNL     2     -11.120   9.543  67.539  1.00  0.00     0.091 C  
HETATM    8  C   UNL     2     -11.098   9.650  69.055  1.00  0.00    -0.070 C  
HETATM    9  N   UNL     2      -9.983   8.810  69.527  1.00  0.00    -0.190 N  
HETATM   10  C   UNL     2      -9.111   9.417  70.579  1.00  0.00    -0.256 C  
HETATM   11  C   UNL     2      -7.710   9.605  70.049  1.00  0.00    -0.157 C  
HETATM   12  O   UNL     2      -7.316   8.872  68.995  1.00  0.00    -0.071 OA 
HETATM   13  O   UNL     2      -6.946  10.403  70.564  1.00  0.00    -0.305 OA 
HETATM   14 FE   UNL     2      -8.789   8.181  68.096  1.00  0.00    -0.123 Fe 
HETATM   15  O   UNL     2      -8.248   6.630  68.938  1.00  0.00    -0.117 OA 
HETATM   16  O   UNL     2      -7.957   7.945  66.423  1.00  0.00    -0.097 OA 
HETATM   17  C   UNL     2      -8.546   8.466  65.344  1.00  0.00    -0.167 C  
HETATM   18  C   UNL     2      -9.172   6.481  69.928  1.00  0.00    -0.149 C  
HETATM   19  C   UNL     2     -10.382   7.441  69.961  1.00  0.00    -0.219 C  
HETATM   20  O   UNL     2      -9.021   5.632  70.792  1.00  0.00    -0.139 OA 
HETATM   21  O   UNL     2      -8.188   8.160  64.217  1.00  0.00    -0.153 OA 
HETATM   22  C   UNL     2      -9.703   9.345  65.584  1.00  0.00    -0.266 C  
ENDBRANCH   5   6
TORSDOF 1
ENDMDL
MODEL       85
REMARK 921   NORMALIZED FREE ENERGY PREDICTED BY IDOCK:   -3.73 KCAL/MOL
REMARK 922        TOTAL FREE ENERGY PREDICTED BY IDOCK:   -3.62 KCAL/MOL
REMARK 923 INTER-LIGAND FREE ENERGY PREDICTED BY IDOCK:   -4.78 KCAL/MOL
REMARK 924 INTRA-LIGAND FREE ENERGY PREDICTED BY IDOCK:    1.16 KCAL/MOL
REMARK 927      BINDING AFFINITY PREDICTED BY RF-SCORE:    0.00 PKD
ROOT
HETATM    1 NA   UNL     1     -12.811  12.165  63.527  1.00  0.00    -0.403 Na 
HETATM    2  O   UNL     2     -11.853  14.340  64.971  1.00  0.00    -0.360 OA 
HETATM    3  C   UNL     2     -11.517  13.442  65.919  1.00  0.00    -0.321 C  
HETATM    4  O   UNL     2     -12.363  12.665  66.318  1.00  0.00    -0.550 OA 
HETATM    5  C   UNL     2     -10.091  13.432  66.423  1.00  0.00    -0.292 C  
ENDROOT
BRANCH   5   6
HETATM    6  N   UNL     2      -9.732  12.458  67.514  1.00  0.00    -0.189 N  
HETATM    7  C   UNL     2      -8.293  12.556  67.825  1.00  0.00    -0.170 C  
HETATM    8  C   UNL     2      -7.502  12.077  66.619  1.00  0.00     0.119 C  
HETATM    9  N   UNL     2      -8.160  10.850  66.135  1.00  0.00    -0.164 N  
HETATM   10  C   UNL     2      -8.351  10.754  64.656  1.00  0.00     0.021 C  
HETATM   11  C   UNL     2      -9.822  10.737  64.320  1.00  0.00    -0.326 C  
HETATM   12  O   UNL     2     -10.696  10.375  65.274  1.00  0.00    -0.099 OA 
HETATM   13  O   UNL     2     -10.216  11.041  63.207  1.00  0.00    -0.339 OA 
HETATM   14 FE   UNL     2      -9.914  10.504  66.955  1.00  0.00    -0.163 Fe 
HETATM   15  O   UNL     2      -9.867   8.666  66.787  1.00  0.00    -0.205 OA 
HETATM   16  O   UNL     2     -11.506  10.695  67.943  1.00  0.00    -0.432 OA 
HETATM   17  C   UNL     2     -11.606  11.722  68.789  1.00  0.00    -0.307 C  
HETATM   18  C   UNL     2      -8.552   8.415  66.536  1.00  0.00    -0.120 C  
HETATM   19  C   UNL     2      -7.545   9.584  66.627  1.00  0.00    -0.097 C  
HETATM   20  O   UNL     2      -8.187   7.297  66.207  1.00  0.00    -0.112 OA 
HETATM   21  O   UNL     2     -12.503  11.776  69.618  1.00  0.00    -0.119 OA 
HETATM   22  C   UNL     2     -10.531  12.727  68.737  1.00  0.00    -0.156 C  
ENDBRANCH   5   6
TORSDOF 1
ENDMDL
MODEL       86
REMARK 921   NORMALIZED FREE ENERGY PREDICTED BY IDOCK:   -3.73 KCAL/MOL
REMARK 922        TOTAL FREE ENERGY PREDICTED BY IDOCK:   -3.62 KCAL/MOL
REMARK 923 INTER-LIGAND FREE ENERGY PREDICTED BY IDOCK:   -3.93 KCAL/MOL
REMARK 924 INTRA-LIGAND FREE ENERGY PREDICTED BY IDOCK:    0.31 KCAL/MOL
REMARK 927      BINDING AFFINITY PREDICTED BY RF-SCORE:    0.00 PKD
ROOT
HETATM    1 NA   UNL     1     -12.861  12.997  70.683  1.00  0.00    -0.302 Na 
HETATM    2  O   UNL     2     -12.059  10.523  69.697  1.00  0.00    -0.252 OA 
HETATM    3  C   UNL     2     -11.544  11.210  68.658  1.00  0.00    -0.315 C  
HETATM    4  O   UNL     2     -12.257  11.995  68.062  1.00  0.00    -0.454 OA 
HETATM    5  C   UNL     2     -10.092  10.986  68.301  1.00  0.00    -0.177 C  
ENDROOT
BRANCH   5   6
HETATM    6  N   UNL     2      -9.532  11.722  67.112  1.00  0.00    -0.173 N  
HETATM    7  C   UNL     2     -10.234  11.305  65.883  1.00  0.00    -0.249 C  
HETATM    8  C   UNL     2      -9.907   9.845  65.609  1.00  0.00    -0.298 C  
HETATM    9  N   UNL     2      -8.459   9.683  65.828  1.00  0.00    -0.130 N  
HETATM   10  C   UNL     2      -8.052   8.476  66.610  1.00  0.00    -0.104 C  
HETATM   11  C   UNL     2      -7.405   8.891  67.910  1.00  0.00    -0.084 C  
HETATM   12  O   UNL     2      -6.895  10.130  68.009  1.00  0.00    -0.069 OA 
HETATM   13  O   UNL     2      -7.342   8.121  68.853  1.00  0.00    -0.086 OA 
HETATM   14 FE   UNL     2      -7.598  11.229  66.685  1.00  0.00    -0.107 Fe 
HETATM   15  O   UNL     2      -5.924  10.974  65.950  1.00  0.00    -0.137 OA 
HETATM   16  O   UNL     2      -7.314  12.870  67.564  1.00  0.00    -0.137 OA 
HETATM   17  C   UNL     2      -8.347  13.707  67.692  1.00  0.00    -0.182 C  
HETATM   18  C   UNL     2      -6.168  10.108  64.926  1.00  0.00    -0.125 C  
HETATM   19  C   UNL     2      -7.634   9.757  64.588  1.00  0.00    -0.134 C  
HETATM   20  O   UNL     2      -5.244   9.592  64.318  1.00  0.00    -0.057 OA 
HETATM   21  O   UNL     2      -8.184  14.867  68.041  1.00  0.00    -0.130 OA 
HETATM   22  C   UNL     2      -9.668  13.190  67.296  1.00  0.00    -0.230 C  
ENDBRANCH   5   6
TORSDOF 1
ENDMDL
MODEL       87
REMARK 921   NORMALIZED FREE ENERGY PREDICTED BY IDOCK:   -3.72 KCAL/MOL
REMARK 922        TOTAL FREE ENERGY PREDICTED BY IDOCK:   -3.60 KCAL/MOL
REMARK 923 INTER-LIGAND FREE ENERGY PREDICTED BY IDOCK:   -3.96 KCAL/MOL
REMARK 924 INTRA-LIGAND FREE ENERGY PREDICTED BY IDOCK:    0.36 KCAL/MOL
REMARK 927      BINDING AFFINITY PREDICTED BY RF-SCORE:    0.00 PKD
ROOT
HETATM    1 NA   UNL     1     -12.692  11.068  68.265  1.00  0.00    -0.157 Na 
HETATM    2  O   UNL     2     -11.217  11.041  70.623  1.00  0.00    -0.094 OA 
HETATM    3  C   UNL     2     -11.552   9.738  70.707  1.00  0.00    -0.339 C  
HETATM    4  O   UNL     2     -12.725   9.427  70.620  1.00  0.00    -0.087 OA 
HETATM    5  C   UNL     2     -10.445   8.723  70.881  1.00  0.00    -0.221 C  
ENDROOT
BRANCH   5   6
HETATM    6  N   UNL     2     -10.828   7.273  71.020  1.00  0.00    -0.236 N  
HETATM    7  C   UNL     2     -11.808   7.111  72.111  1.00  0.00    -0.277 C  
HETATM    8  C   UNL     2     -11.128   7.447  73.429  1.00  0.00    -0.133 C  
HETATM    9  N   UNL     2      -9.805   6.800  73.405  1.00  0.00    -0.185 N  
HETATM   10  C   UNL     2      -8.661   7.639  73.875  1.00  0.00    -0.251 C  
HETATM   11  C   UNL     2      -7.692   7.881  72.744  1.00  0.00    -0.116 C  
HETATM   12  O   UNL     2      -7.700   7.039  71.697  1.00  0.00    -0.092 OA 
HETATM   13  O   UNL     2      -6.912   8.818  72.774  1.00  0.00    -0.305 OA 
HETATM   14 FE   UNL     2      -9.293   6.082  71.646  1.00  0.00    -0.141 Fe 
HETATM   15  O   UNL     2      -8.199   4.735  72.277  1.00  0.00    -0.110 OA 
HETATM   16  O   UNL     2      -9.269   5.679  69.807  1.00  0.00    -0.134 OA 
HETATM   17  C   UNL     2     -10.350   5.973  69.080  1.00  0.00    -0.229 C  
HETATM   18  C   UNL     2      -8.549   4.647  73.591  1.00  0.00    -0.104 C  
HETATM   19  C   UNL     2      -9.750   5.479  74.094  1.00  0.00    -0.168 C  
HETATM   20  O   UNL     2      -7.899   3.956  74.359  1.00  0.00    -0.079 OA 
HETATM   21  O   UNL     2     -10.490   5.536  67.948  1.00  0.00    -0.207 OA 
HETATM   22  C   UNL     2     -11.400   6.761  69.748  1.00  0.00    -0.296 C  
ENDBRANCH   5   6
TORSDOF 1
ENDMDL
MODEL       88
REMARK 921   NORMALIZED FREE ENERGY PREDICTED BY IDOCK:   -3.71 KCAL/MOL
REMARK 922        TOTAL FREE ENERGY PREDICTED BY IDOCK:   -3.60 KCAL/MOL
REMARK 923 INTER-LIGAND FREE ENERGY PREDICTED BY IDOCK:   -3.93 KCAL/MOL
REMARK 924 INTRA-LIGAND FREE ENERGY PREDICTED BY IDOCK:    0.33 KCAL/MOL
REMARK 927      BINDING AFFINITY PREDICTED BY RF-SCORE:    0.00 PKD
ROOT
HETATM    1 NA   UNL     1     -10.362  17.065  68.467  1.00  0.00    -0.240 Na 
HETATM    2  O   UNL     2      -8.219  15.303  68.654  1.00  0.00    -0.141 OA 
HETATM    3  C   UNL     2      -9.147  14.325  68.674  1.00  0.00    -0.160 C  
HETATM    4  O   UNL     2     -10.057  14.396  69.477  1.00  0.00    -0.020 OA 
HETATM    5  C   UNL     2      -9.020  13.198  67.675  1.00  0.00    -0.192 C  
ENDROOT
BRANCH   5   6
HETATM    6  N   UNL     2     -10.033  12.084  67.730  1.00  0.00    -0.191 N  
HETATM    7  C   UNL     2     -10.032  11.465  69.069  1.00  0.00    -0.067 C  
HETATM    8  C   UNL     2      -8.697  10.768  69.281  1.00  0.00    -0.030 C  
HETATM    9  N   UNL     2      -8.391  10.043  68.036  1.00  0.00    -0.116 N  
HETATM   10  C   UNL     2      -6.988  10.169  67.537  1.00  0.00    -0.085 C  
HETATM   11  C   UNL     2      -6.969  10.876  66.204  1.00  0.00    -0.099 C  
HETATM   12  O   UNL     2      -8.094  10.893  65.469  1.00  0.00    -0.129 OA 
HETATM   13  O   UNL     2      -5.958  11.419  65.795  1.00  0.00    -0.063 OA 
HETATM   14 FE   UNL     2      -9.569  10.500  66.529  1.00  0.00    -0.153 Fe 
HETATM   15  O   UNL     2      -9.437   8.879  65.656  1.00  0.00    -0.229 OA 
HETATM   16  O   UNL     2     -10.866  11.339  65.451  1.00  0.00    -0.261 OA 
HETATM   17  C   UNL     2     -11.691  12.220  66.022  1.00  0.00    -0.388 C  
HETATM   18  C   UNL     2      -8.921   8.057  66.612  1.00  0.00    -0.150 C  
HETATM   19  C   UNL     2      -8.771   8.601  68.051  1.00  0.00    -0.141 C  
HETATM   20  O   UNL     2      -8.548   6.931  66.325  1.00  0.00    -0.124 OA 
HETATM   21  O   UNL     2     -12.688  12.623  65.443  1.00  0.00    -0.635 OA 
HETATM   22  C   UNL     2     -11.390  12.598  67.414  1.00  0.00    -0.313 C  
ENDBRANCH   5   6
TORSDOF 1
ENDMDL
MODEL       89
REMARK 921   NORMALIZED FREE ENERGY PREDICTED BY IDOCK:   -3.70 KCAL/MOL
REMARK 922        TOTAL FREE ENERGY PREDICTED BY IDOCK:   -3.59 KCAL/MOL
REMARK 923 INTER-LIGAND FREE ENERGY PREDICTED BY IDOCK:   -3.92 KCAL/MOL
REMARK 924 INTRA-LIGAND FREE ENERGY PREDICTED BY IDOCK:    0.33 KCAL/MOL
REMARK 927      BINDING AFFINITY PREDICTED BY RF-SCORE:    0.00 PKD
ROOT
HETATM    1 NA   UNL     1     -11.581  15.496  68.758  1.00  0.00    -0.246 Na 
HETATM    2  O   UNL     2     -12.267  12.911  69.521  1.00  0.00    -0.233 OA 
HETATM    3  C   UNL     2     -11.439  12.503  68.538  1.00  0.00    -0.305 C  
HETATM    4  O   UNL     2     -11.588  12.957  67.420  1.00  0.00    -0.318 OA 
HETATM    5  C   UNL     2     -10.349  11.515  68.885  1.00  0.00    -0.169 C  
ENDROOT
BRANCH   5   6
HETATM    6  N   UNL     2      -9.455  11.027  67.775  1.00  0.00    -0.160 N  
HETATM    7  C   UNL     2     -10.225  10.187  66.838  1.00  0.00    -0.236 C  
HETATM    8  C   UNL     2     -10.651   8.919  67.560  1.00  0.00    -0.237 C  
HETATM    9  N   UNL     2      -9.482   8.447  68.322  1.00  0.00    -0.138 N  
HETATM   10  C   UNL     2      -9.754   8.013  69.727  1.00  0.00    -0.176 C  
HETATM   11  C   UNL     2      -9.036   8.918  70.699  1.00  0.00    -0.207 C  
HETATM   12  O   UNL     2      -7.985   9.630  70.261  1.00  0.00    -0.159 OA 
HETATM   13  O   UNL     2      -9.396   9.003  71.861  1.00  0.00    -0.341 OA 
HETATM   14 FE   UNL     2      -8.002   9.739  68.405  1.00  0.00    -0.082 Fe 
HETATM   15  O   UNL     2      -6.646   8.498  68.580  1.00  0.00    -0.053 OA 
HETATM   16  O   UNL     2      -6.978  11.312  68.250  1.00  0.00    -0.066 OA 
HETATM   17  C   UNL     2      -7.466  12.316  67.518  1.00  0.00    -0.149 C  
HETATM   18  C   UNL     2      -7.248   7.333  68.207  1.00  0.00    -0.094 C  
HETATM   19  C   UNL     2      -8.683   7.392  67.636  1.00  0.00    -0.125 C  
HETATM   20  O   UNL     2      -6.677   6.266  68.361  1.00  0.00    -0.062 OA 
HETATM   21  O   UNL     2      -6.765  13.261  67.191  1.00  0.00    -0.162 OA 
HETATM   22  C   UNL     2      -8.855  12.174  67.047  1.00  0.00    -0.203 C  
ENDBRANCH   5   6
TORSDOF 1
ENDMDL
MODEL       90
REMARK 921   NORMALIZED FREE ENERGY PREDICTED BY IDOCK:   -3.68 KCAL/MOL
REMARK 922        TOTAL FREE ENERGY PREDICTED BY IDOCK:   -3.57 KCAL/MOL
REMARK 923 INTER-LIGAND FREE ENERGY PREDICTED BY IDOCK:   -3.89 KCAL/MOL
REMARK 924 INTRA-LIGAND FREE ENERGY PREDICTED BY IDOCK:    0.32 KCAL/MOL
REMARK 927      BINDING AFFINITY PREDICTED BY RF-SCORE:    0.00 PKD
ROOT
HETATM    1 NA   UNL     1      -6.157   3.280  66.978  1.00  0.00    -0.019 Na 
HETATM    2  O   UNL     2      -6.555   5.991  67.458  1.00  0.00    -0.052 OA 
HETATM    3  C   UNL     2      -7.806   5.646  67.823  1.00  0.00    -0.097 C  
HETATM    4  O   UNL     2      -8.474   4.972  67.063  1.00  0.00    -0.107 OA 
HETATM    5  C   UNL     2      -8.306   6.097  69.176  1.00  0.00    -0.116 C  
ENDROOT
BRANCH   5   6
HETATM    6  N   UNL     2      -9.720   5.749  69.562  1.00  0.00    -0.146 N  
HETATM    7  C   UNL     2     -10.667   6.334  68.594  1.00  0.00    -0.298 C  
HETATM    8  C   UNL     2     -10.609   7.849  68.713  1.00  0.00    -0.127 C  
HETATM    9  N   UNL     2     -10.598   8.165  70.153  1.00  0.00    -0.233 N  
HETATM   10  C   UNL     2      -9.612   9.202  70.584  1.00  0.00    -0.255 C  
HETATM   11  C   UNL     2      -8.587   8.594  71.511  1.00  0.00    -0.195 C  
HETATM   12  O   UNL     2      -8.895   7.454  72.151  1.00  0.00    -0.122 OA 
HETATM   13  O   UNL     2      -7.502   9.123  71.682  1.00  0.00    -0.326 OA 
HETATM   14 FE   UNL     2     -10.321   6.603  71.316  1.00  0.00    -0.192 Fe 
HETATM   15  O   UNL     2     -11.233   7.264  72.779  1.00  0.00    -0.296 OA 
HETATM   16  O   UNL     2      -9.951   4.862  71.929  1.00  0.00    -0.176 OA 
HETATM   17  C   UNL     2      -9.872   3.877  71.030  1.00  0.00    -0.149 C  
HETATM   18  C   UNL     2     -11.946   8.299  72.253  1.00  0.00    -0.386 C  
HETATM   19  C   UNL     2     -11.935   8.503  70.721  1.00  0.00    -0.112 C  
HETATM   20  O   UNL     2     -12.545   9.072  72.984  1.00  0.00    -0.157 OA 
HETATM   21  O   UNL     2      -9.864   2.705  71.374  1.00  0.00    -0.156 OA 
HETATM   22  C   UNL     2      -9.898   4.275  69.613  1.00  0.00    -0.174 C  
ENDBRANCH   5   6
TORSDOF 1
ENDMDL
MODEL       91
REMARK 921   NORMALIZED FREE ENERGY PREDICTED BY IDOCK:   -3.66 KCAL/MOL
REMARK 922        TOTAL FREE ENERGY PREDICTED BY IDOCK:   -3.55 KCAL/MOL
REMARK 923 INTER-LIGAND FREE ENERGY PREDICTED BY IDOCK:   -3.89 KCAL/MOL
REMARK 924 INTRA-LIGAND FREE ENERGY PREDICTED BY IDOCK:    0.34 KCAL/MOL
REMARK 927      BINDING AFFINITY PREDICTED BY RF-SCORE:    0.00 PKD
ROOT
HETATM    1 NA   UNL     1     -10.525   3.948  70.668  1.00  0.00    -0.180 Na 
HETATM    2  O   UNL     2     -10.384   5.239  68.209  1.00  0.00    -0.167 OA 
HETATM    3  C   UNL     2     -10.579   6.379  68.903  1.00  0.00    -0.252 C  
HETATM    4  O   UNL     2     -11.522   6.447  69.667  1.00  0.00    -0.416 OA 
HETATM    5  C   UNL     2      -9.595   7.510  68.711  1.00  0.00    -0.149 C  
ENDROOT
BRANCH   5   6
HETATM    6  N   UNL     2      -9.841   8.798  69.453  1.00  0.00    -0.182 N  
HETATM    7  C   UNL     2     -11.013   9.492  68.886  1.00  0.00    -0.086 C  
HETATM    8  C   UNL     2     -10.678   9.934  67.471  1.00  0.00    -0.272 C  
HETATM    9  N   UNL     2      -9.320  10.504  67.510  1.00  0.00    -0.149 N  
HETATM   10  C   UNL     2      -8.404  10.080  66.408  1.00  0.00    -0.126 C  
HETATM   11  C   UNL     2      -7.242   9.297  66.968  1.00  0.00    -0.087 C  
HETATM   12  O   UNL     2      -6.931   9.445  68.267  1.00  0.00    -0.070 OA 
HETATM   13  O   UNL     2      -6.593   8.544  66.262  1.00  0.00    -0.060 OA 
HETATM   14 FE   UNL     2      -8.362  10.181  69.197  1.00  0.00    -0.093 Fe 
HETATM   15  O   UNL     2      -7.296  11.687  69.127  1.00  0.00    -0.102 OA 
HETATM   16  O   UNL     2      -7.893   9.536  70.903  1.00  0.00    -0.299 OA 
HETATM   17  C   UNL     2      -8.814   8.869  71.603  1.00  0.00    -0.144 C  
HETATM   18  C   UNL     2      -7.913  12.456  68.187  1.00  0.00    -0.153 C  
HETATM   19  C   UNL     2      -9.277  11.990  67.630  1.00  0.00    -0.182 C  
HETATM   20  O   UNL     2      -7.377  13.469  67.767  1.00  0.00    -0.129 OA 
HETATM   21  O   UNL     2      -8.655   8.626  72.790  1.00  0.00    -0.394 OA 
HETATM   22  C   UNL     2     -10.062   8.532  70.898  1.00  0.00    -0.201 C  
ENDBRANCH   5   6
TORSDOF 1
ENDMDL
MODEL       92
REMARK 921   NORMALIZED FREE ENERGY PREDICTED BY IDOCK:   -3.65 KCAL/MOL
REMARK 922        TOTAL FREE ENERGY PREDICTED BY IDOCK:   -3.54 KCAL/MOL
REMARK 923 INTER-LIGAND FREE ENERGY PREDICTED BY IDOCK:   -3.86 KCAL/MOL
REMARK 924 INTRA-LIGAND FREE ENERGY PREDICTED BY IDOCK:    0.32 KCAL/MOL
REMARK 927      BINDING AFFINITY PREDICTED BY RF-SCORE:    0.00 PKD
ROOT
HETATM    1 NA   UNL     1      -5.949   5.026  69.214  1.00  0.00    -0.012 Na 
HETATM    2  O   UNL     2      -5.645   7.506  67.994  1.00  0.00    -0.025 OA 
HETATM    3  C   UNL     2      -6.934   7.377  67.624  1.00  0.00    -0.079 C  
HETATM    4  O   UNL     2      -7.281   6.361  67.051  1.00  0.00    -0.071 OA 
HETATM    5  C   UNL     2      -7.892   8.496  67.962  1.00  0.00    -0.103 C  
ENDROOT
BRANCH   5   6
HETATM    6  N   UNL     2      -9.322   8.368  67.507  1.00  0.00    -0.145 N  
HETATM    7  C   UNL     2      -9.386   8.378  66.033  1.00  0.00    -0.177 C  
HETATM    8  C   UNL     2      -8.957   9.749  65.537  1.00  0.00    -0.176 C  
HETATM    9  N   UNL     2      -9.620  10.743  66.399  1.00  0.00    -0.184 N  
HETATM   10  C   UNL     2      -8.760  11.870  66.873  1.00  0.00    -0.191 C  
HETATM   11  C   UNL     2      -8.620  11.822  68.375  1.00  0.00    -0.156 C  
HETATM   12  O   UNL     2      -9.541  11.152  69.087  1.00  0.00    -0.132 OA 
HETATM   13  O   UNL     2      -7.693  12.380  68.937  1.00  0.00    -0.053 OA 
HETATM   14 FE   UNL     2     -10.479   9.978  67.994  1.00  0.00    -0.155 Fe 
HETATM   15  O   UNL     2     -11.787  11.269  68.171  1.00  0.00    -0.553 OA 
HETATM   16  O   UNL     2     -11.026   8.782  69.343  1.00  0.00    -0.163 OA 
HETATM   17  C   UNL     2     -10.776   7.482  69.175  1.00  0.00    -0.151 C  
HETATM   18  C   UNL     2     -11.767  11.893  66.959  1.00  0.00    -0.227 C  
HETATM   19  C   UNL     2     -10.884  11.302  65.838  1.00  0.00    -0.202 C  
HETATM   20  O   UNL     2     -12.404  12.919  66.781  1.00  0.00    -0.405 OA 
HETATM   21  O   UNL     2     -11.298   6.639  69.889  1.00  0.00    -0.335 OA 
HETATM   22  C   UNL     2      -9.925   7.115  68.030  1.00  0.00    -0.158 C  
ENDBRANCH   5   6
TORSDOF 1
ENDMDL
MODEL       93
REMARK 921   NORMALIZED FREE ENERGY PREDICTED BY IDOCK:   -3.63 KCAL/MOL
REMARK 922        TOTAL FREE ENERGY PREDICTED BY IDOCK:   -3.52 KCAL/MOL
REMARK 923 INTER-LIGAND FREE ENERGY PREDICTED BY IDOCK:   -3.84 KCAL/MOL
REMARK 924 INTRA-LIGAND FREE ENERGY PREDICTED BY IDOCK:    0.33 KCAL/MOL
REMARK 927      BINDING AFFINITY PREDICTED BY RF-SCORE:    0.00 PKD
ROOT
HETATM    1 NA   UNL     1     -12.794  13.291  70.348  1.00  0.00    -0.293 Na 
HETATM    2  O   UNL     2     -12.797  10.512  70.451  1.00  0.00    -0.331 OA 
HETATM    3  C   UNL     2     -11.945  10.567  69.408  1.00  0.00    -0.158 C  
HETATM    4  O   UNL     2     -12.254  11.224  68.432  1.00  0.00    -0.604 OA 
HETATM    5  C   UNL     2     -10.633   9.824  69.516  1.00  0.00    -0.233 C  
ENDROOT
BRANCH   5   6
HETATM    6  N   UNL     2      -9.703   9.850  68.331  1.00  0.00    -0.147 N  
HETATM    7  C   UNL     2     -10.386   9.307  67.141  1.00  0.00    -0.260 C  
HETATM    8  C   UNL     2     -10.659   7.829  67.370  1.00  0.00    -0.275 C  
HETATM    9  N   UNL     2      -9.435   7.253  67.955  1.00  0.00    -0.136 N  
HETATM   10  C   UNL     2      -9.639   6.334  69.117  1.00  0.00    -0.135 C  
HETATM   11  C   UNL     2      -9.015   6.920  70.360  1.00  0.00    -0.152 C  
HETATM   12  O   UNL     2      -8.056   7.850  70.223  1.00  0.00    -0.110 OA 
HETATM   13  O   UNL     2      -9.368   6.559  71.470  1.00  0.00    -0.148 OA 
HETATM   14 FE   UNL     2      -8.108   8.591  68.519  1.00  0.00    -0.102 Fe 
HETATM   15  O   UNL     2      -6.619   7.522  68.293  1.00  0.00    -0.047 OA 
HETATM   16  O   UNL     2      -7.269  10.223  68.943  1.00  0.00    -0.076 OA 
HETATM   17  C   UNL     2      -7.875  11.358  68.589  1.00  0.00    -0.139 C  
HETATM   18  C   UNL     2      -7.091   6.499  67.525  1.00  0.00    -0.081 C  
HETATM   19  C   UNL     2      -8.530   6.594  66.970  1.00  0.00    -0.113 C  
HETATM   20  O   UNL     2      -6.402   5.513  67.318  1.00  0.00    -0.036 OA 
HETATM   21  O   UNL     2      -7.288  12.429  68.626  1.00  0.00    -0.105 OA 
HETATM   22  C   UNL     2      -9.244  11.236  68.059  1.00  0.00    -0.160 C  
ENDBRANCH   5   6
TORSDOF 1
ENDMDL
MODEL       94
REMARK 921   NORMALIZED FREE ENERGY PREDICTED BY IDOCK:   -3.63 KCAL/MOL
REMARK 922        TOTAL FREE ENERGY PREDICTED BY IDOCK:   -3.51 KCAL/MOL
REMARK 923 INTER-LIGAND FREE ENERGY PREDICTED BY IDOCK:   -3.92 KCAL/MOL
REMARK 924 INTRA-LIGAND FREE ENERGY PREDICTED BY IDOCK:    0.41 KCAL/MOL
REMARK 927      BINDING AFFINITY PREDICTED BY RF-SCORE:    0.00 PKD
ROOT
HETATM    1 NA   UNL     1     -10.349  15.764  66.480  1.00  0.00    -0.246 Na 
HETATM    2  O   UNL     2      -9.636  14.399  68.795  1.00  0.00    -0.214 OA 
HETATM    3  C   UNL     2     -10.303  13.352  68.271  1.00  0.00    -0.249 C  
HETATM    4  O   UNL     2     -11.446  13.516  67.888  1.00  0.00    -0.282 OA 
HETATM    5  C   UNL     2      -9.585  12.026  68.163  1.00  0.00    -0.200 C  
ENDROOT
BRANCH   5   6
HETATM    6  N   UNL     2     -10.348  10.847  67.618  1.00  0.00    -0.189 N  
HETATM    7  C   UNL     2     -11.248  10.306  68.654  1.00  0.00    -0.208 C  
HETATM    8  C   UNL     2     -10.403   9.719  69.773  1.00  0.00    -0.246 C  
HETATM    9  N   UNL     2      -9.321   8.949  69.134  1.00  0.00    -0.148 N  
HETATM   10  C   UNL     2      -7.955   9.148  69.707  1.00  0.00    -0.098 C  
HETATM   11  C   UNL     2      -7.046   9.779  68.680  1.00  0.00    -0.071 C  
HETATM   12  O   UNL     2      -7.371   9.675  67.381  1.00  0.00    -0.086 OA 
HETATM   13  O   UNL     2      -6.034  10.371  69.016  1.00  0.00    -0.041 OA 
HETATM   14 FE   UNL     2      -9.168   9.237  67.194  1.00  0.00    -0.121 Fe 
HETATM   15  O   UNL     2      -8.454   7.583  66.790  1.00  0.00    -0.118 OA 
HETATM   16  O   UNL     2      -9.400   9.920  65.454  1.00  0.00    -0.200 OA 
HETATM   17  C   UNL     2     -10.406  10.769  65.236  1.00  0.00    -0.258 C  
HETATM   18  C   UNL     2      -8.712   6.855  67.913  1.00  0.00    -0.121 C  
HETATM   19  C   UNL     2      -9.589   7.487  69.018  1.00  0.00    -0.153 C  
HETATM   20  O   UNL     2      -8.227   5.745  68.055  1.00  0.00    -0.104 OA 
HETATM   21  O   UNL     2     -10.750  11.067  64.102  1.00  0.00    -0.378 OA 
HETATM   22  C   UNL     2     -11.137  11.245  66.423  1.00  0.00    -0.193 C  
ENDBRANCH   5   6
TORSDOF 1
ENDMDL
MODEL       95
REMARK 921   NORMALIZED FREE ENERGY PREDICTED BY IDOCK:   -3.62 KCAL/MOL
REMARK 922        TOTAL FREE ENERGY PREDICTED BY IDOCK:   -3.50 KCAL/MOL
REMARK 923 INTER-LIGAND FREE ENERGY PREDICTED BY IDOCK:   -4.60 KCAL/MOL
REMARK 924 INTRA-LIGAND FREE ENERGY PREDICTED BY IDOCK:    1.10 KCAL/MOL
REMARK 927      BINDING AFFINITY PREDICTED BY RF-SCORE:    0.00 PKD
ROOT
HETATM    1 NA   UNL     1      -8.343   6.292  67.494  1.00  0.00    -0.105 Na 
HETATM    2  O   UNL     2      -7.394   4.768  69.618  1.00  0.00    -0.054 OA 
HETATM    3  C   UNL     2      -7.724   5.817  70.396  1.00  0.00    -0.095 C  
HETATM    4  O   UNL     2      -7.311   6.922  70.098  1.00  0.00    -0.077 OA 
HETATM    5  C   UNL     2      -8.615   5.570  71.592  1.00  0.00    -0.132 C  
ENDROOT
BRANCH   5   6
HETATM    6  N   UNL     2      -8.945   6.737  72.485  1.00  0.00    -0.131 N  
HETATM    7  C   UNL     2      -9.951   6.339  73.487  1.00  0.00    -0.193 C  
HETATM    8  C   UNL     2     -11.257   6.034  72.770  1.00  0.00    -0.261 C  
HETATM    9  N   UNL     2     -11.459   7.104  71.778  1.00  0.00    -0.258 N  
HETATM   10  C   UNL     2     -11.897   6.657  70.420  1.00  0.00    -0.346 C  
HETATM   11  C   UNL     2     -10.837   6.986  69.397  1.00  0.00    -0.227 C  
HETATM   12  O   UNL     2      -9.940   7.944  69.683  1.00  0.00    -0.184 OA 
HETATM   13  O   UNL     2     -10.792   6.400  68.328  1.00  0.00    -0.258 OA 
HETATM   14 FE   UNL     2      -9.892   8.263  71.514  1.00  0.00    -0.147 Fe 
HETATM   15  O   UNL     2     -10.828   9.773  71.012  1.00  0.00    -0.326 OA 
HETATM   16  O   UNL     2      -8.150   8.974  71.586  1.00  0.00    -0.329 OA 
HETATM   17  C   UNL     2      -7.288   8.451  72.461  1.00  0.00    -0.079 C  
HETATM   18  C   UNL     2     -12.101   9.491  71.408  1.00  0.00    -0.378 C  
HETATM   19  C   UNL     2     -12.351   8.209  72.233  1.00  0.00    -0.323 C  
HETATM   20  O   UNL     2     -13.026  10.217  71.080  1.00  0.00    -0.353 OA 
HETATM   21  O   UNL     2      -6.231   9.006  72.719  1.00  0.00    -0.257 OA 
HETATM   22  C   UNL     2      -7.722   7.233  73.167  1.00  0.00    -0.086 C  
ENDBRANCH   5   6
TORSDOF 1
ENDMDL
MODEL       96
REMARK 921   NORMALIZED FREE ENERGY PREDICTED BY IDOCK:   -3.62 KCAL/MOL
REMARK 922        TOTAL FREE ENERGY PREDICTED BY IDOCK:   -3.50 KCAL/MOL
REMARK 923 INTER-LIGAND FREE ENERGY PREDICTED BY IDOCK:   -3.82 KCAL/MOL
REMARK 924 INTRA-LIGAND FREE ENERGY PREDICTED BY IDOCK:    0.31 KCAL/MOL
REMARK 927      BINDING AFFINITY PREDICTED BY RF-SCORE:    0.00 PKD
ROOT
HETATM    1 NA   UNL     1      -8.052  17.180  68.710  1.00  0.00    -0.202 Na 
HETATM    2  O   UNL     2     -10.284  15.521  68.669  1.00  0.00    -0.208 OA 
HETATM    3  C   UNL     2      -9.527  14.678  67.939  1.00  0.00    -0.210 C  
HETATM    4  O   UNL     2      -8.963  15.104  66.949  1.00  0.00    -0.218 OA 
HETATM    5  C   UNL     2      -9.399  13.245  68.404  1.00  0.00    -0.157 C  
ENDROOT
BRANCH   5   6
HETATM    6  N   UNL     2      -8.589  12.296  67.560  1.00  0.00    -0.164 N  
HETATM    7  C   UNL     2      -9.204  12.155  66.226  1.00  0.00    -0.183 C  
HETATM    8  C   UNL     2     -10.549  11.464  66.382  1.00  0.00    -0.263 C  
HETATM    9  N   UNL     2     -10.350  10.346  67.322  1.00  0.00    -0.215 N  
HETATM   10  C   UNL     2     -11.396  10.190  68.377  1.00  0.00    -0.113 C  
HETATM   11  C   UNL     2     -10.796  10.414  69.744  1.00  0.00    -0.292 C  
HETATM   12  O   UNL     2      -9.467  10.277  69.894  1.00  0.00    -0.169 OA 
HETATM   13  O   UNL     2     -11.496  10.711  70.697  1.00  0.00    -0.324 OA 
HETATM   14 FE   UNL     2      -8.614  10.373  68.246  1.00  0.00    -0.110 Fe 
HETATM   15  O   UNL     2      -8.481   8.550  68.501  1.00  0.00    -0.129 OA 
HETATM   16  O   UNL     2      -6.925  10.910  68.884  1.00  0.00    -0.070 OA 
HETATM   17  C   UNL     2      -6.359  11.992  68.344  1.00  0.00    -0.053 C  
HETATM   18  C   UNL     2      -9.413   8.051  67.641  1.00  0.00    -0.145 C  
HETATM   19  C   UNL     2     -10.119   9.025  66.671  1.00  0.00    -0.285 C  
HETATM   20  O   UNL     2      -9.710   6.868  67.668  1.00  0.00    -0.124 OA 
HETATM   21  O   UNL     2      -5.183  12.259  68.545  1.00  0.00    -0.050 OA 
HETATM   22  C   UNL     2      -7.192  12.782  67.423  1.00  0.00    -0.132 C  
ENDBRANCH   5   6
TORSDOF 1
ENDMDL
MODEL       97
REMARK 921   NORMALIZED FREE ENERGY PREDICTED BY IDOCK:   -3.57 KCAL/MOL
REMARK 922        TOTAL FREE ENERGY PREDICTED BY IDOCK:   -3.45 KCAL/MOL
REMARK 923 INTER-LIGAND FREE ENERGY PREDICTED BY IDOCK:   -3.78 KCAL/MOL
REMARK 924 INTRA-LIGAND FREE ENERGY PREDICTED BY IDOCK:    0.33 KCAL/MOL
REMARK 927      BINDING AFFINITY PREDICTED BY RF-SCORE:    0.00 PKD
ROOT
HETATM    1 NA   UNL     1      -8.480  14.708  66.020  1.00  0.00    -0.388 Na 
HETATM    2  O   UNL     2      -8.087  12.761  67.966  1.00  0.00    -0.140 OA 
HETATM    3  C   UNL     2      -8.951  12.010  67.254  1.00  0.00    -0.180 C  
HETATM    4  O   UNL     2     -10.031  12.482  66.955  1.00  0.00    -0.218 OA 
HETATM    5  C   UNL     2      -8.520  10.621  66.841  1.00  0.00    -0.127 C  
ENDROOT
BRANCH   5   6
HETATM    6  N   UNL     2      -9.504   9.768  66.085  1.00  0.00    -0.188 N  
HETATM    7  C   UNL     2     -10.624   9.387  66.966  1.00  0.00    -0.201 C  
HETATM    8  C   UNL     2     -10.095   8.469  68.056  1.00  0.00    -0.200 C  
HETATM    9  N   UNL     2      -9.193   7.504  67.403  1.00  0.00    -0.131 N  
HETATM   10  C   UNL     2      -7.895   7.252  68.100  1.00  0.00    -0.118 C  
HETATM   11  C   UNL     2      -6.743   7.714  67.241  1.00  0.00    -0.068 C  
HETATM   12  O   UNL     2      -6.939   7.848  65.919  1.00  0.00    -0.056 OA 
HETATM   13  O   UNL     2      -5.654   7.961  67.731  1.00  0.00    -0.034 OA 
HETATM   14 FE   UNL     2      -8.755   7.949  65.538  1.00  0.00    -0.122 Fe 
HETATM   15  O   UNL     2      -8.466   6.217  64.968  1.00  0.00    -0.138 OA 
HETATM   16  O   UNL     2      -8.603   8.856  63.894  1.00  0.00    -0.175 OA 
HETATM   17  C   UNL     2      -9.317   9.970  63.717  1.00  0.00    -0.257 C  
HETATM   18  C   UNL     2      -9.032   5.471  65.959  1.00  0.00    -0.152 C  
HETATM   19  C   UNL     2      -9.825   6.196  67.069  1.00  0.00    -0.149 C  
HETATM   20  O   UNL     2      -8.878   4.261  65.986  1.00  0.00    -0.116 OA 
HETATM   21  O   UNL     2      -9.441  10.475  62.611  1.00  0.00    -0.290 OA 
HETATM   22  C   UNL     2     -10.021  10.497  64.898  1.00  0.00    -0.334 C  
ENDBRANCH   5   6
TORSDOF 1
ENDMDL
MODEL       98
REMARK 921   NORMALIZED FREE ENERGY PREDICTED BY IDOCK:   -3.57 KCAL/MOL
REMARK 922        TOTAL FREE ENERGY PREDICTED BY IDOCK:   -3.45 KCAL/MOL
REMARK 923 INTER-LIGAND FREE ENERGY PREDICTED BY IDOCK:   -3.78 KCAL/MOL
REMARK 924 INTRA-LIGAND FREE ENERGY PREDICTED BY IDOCK:    0.34 KCAL/MOL
REMARK 927      BINDING AFFINITY PREDICTED BY RF-SCORE:    0.00 PKD
ROOT
HETATM    1 NA   UNL     1      -5.357  10.650  67.894  1.00  0.00    -0.038 Na 
HETATM    2  O   UNL     2      -6.420  10.160  70.416  1.00  0.00    -0.107 OA 
HETATM    3  C   UNL     2      -7.624  10.201  69.813  1.00  0.00    -0.170 C  
HETATM    4  O   UNL     2      -7.901  11.162  69.121  1.00  0.00    -0.132 OA 
HETATM    5  C   UNL     2      -8.565   9.034  70.011  1.00  0.00    -0.151 C  
ENDROOT
BRANCH   5   6
HETATM    6  N   UNL     2      -9.927   9.105  69.373  1.00  0.00    -0.185 N  
HETATM    7  C   UNL     2     -10.634  10.320  69.822  1.00  0.00    -0.271 C  
HETATM    8  C   UNL     2     -10.923  10.191  71.309  1.00  0.00     0.172 C  
HETATM    9  N   UNL     2     -11.414   8.820  71.532  1.00  0.00    -0.282 N  
HETATM   10  C   UNL     2     -10.838   8.107  72.713  1.00  0.00    -0.320 C  
HETATM   11  C   UNL     2     -10.043   6.907  72.259  1.00  0.00    -0.176 C  
HETATM   12  O   UNL     2     -10.292   6.391  71.044  1.00  0.00    -0.199 OA 
HETATM   13  O   UNL     2      -9.192   6.409  72.977  1.00  0.00    -0.134 OA 
HETATM   14 FE   UNL     2     -11.193   7.626  69.986  1.00  0.00    -0.240 Fe 
HETATM   15  O   UNL     2     -12.620   6.519  70.367  1.00  0.00    -0.002 OA 
HETATM   16  O   UNL     2     -10.681   6.925  68.315  1.00  0.00    -0.216 OA 
HETATM   17  C   UNL     2     -10.135   7.753  67.421  1.00  0.00    -0.222 C  
HETATM   18  C   UNL     2     -13.334   7.241  71.275  1.00  0.00    -0.268 C  
HETATM   19  C   UNL     2     -12.900   8.695  71.570  1.00  0.00    -0.319 C  
HETATM   20  O   UNL     2     -14.271   6.734  71.870  1.00  0.00    -0.267 OA 
HETATM   21  O   UNL     2      -9.994   7.421  66.253  1.00  0.00    -0.088 OA 
HETATM   22  C   UNL     2      -9.809   9.110  67.892  1.00  0.00    -0.169 C  
ENDBRANCH   5   6
TORSDOF 1
ENDMDL
MODEL       99
REMARK 921   NORMALIZED FREE ENERGY PREDICTED BY IDOCK:   -3.56 KCAL/MOL
REMARK 922        TOTAL FREE ENERGY PREDICTED BY IDOCK:   -3.44 KCAL/MOL
REMARK 923 INTER-LIGAND FREE ENERGY PREDICTED BY IDOCK:   -3.80 KCAL/MOL
REMARK 924 INTRA-LIGAND FREE ENERGY PREDICTED BY IDOCK:    0.36 KCAL/MOL
REMARK 927      BINDING AFFINITY PREDICTED BY RF-SCORE:    0.00 PKD
ROOT
HETATM    1 NA   UNL     1     -11.800  12.239  62.371  1.00  0.00    -0.546 Na 
HETATM    2  O   UNL     2     -10.553  13.551  64.483  1.00  0.00    -0.406 OA 
HETATM    3  C   UNL     2     -10.524  12.348  65.089  1.00  0.00    -0.292 C  
HETATM    4  O   UNL     2     -11.556  11.712  65.182  1.00  0.00    -0.195 OA 
HETATM    5  C   UNL     2      -9.197  11.838  65.604  1.00  0.00    -0.100 C  
ENDROOT
BRANCH   5   6
HETATM    6  N   UNL     2      -9.176  10.513  66.320  1.00  0.00    -0.164 N  
HETATM    7  C   UNL     2     -10.151  10.521  67.427  1.00  0.00    -0.197 C  
HETATM    8  C   UNL     2      -9.688  11.521  68.475  1.00  0.00    -0.189 C  
HETATM    9  N   UNL     2      -8.240  11.316  68.652  1.00  0.00    -0.149 N  
HETATM   10  C   UNL     2      -7.408  12.557  68.703  1.00  0.00    -0.099 C  
HETATM   11  C   UNL     2      -6.462  12.600  67.528  1.00  0.00    -0.158 C  
HETATM   12  O   UNL     2      -6.163  11.451  66.900  1.00  0.00    -0.106 OA 
HETATM   13  O   UNL     2      -5.974  13.652  67.152  1.00  0.00    -0.247 OA 
HETATM   14 FE   UNL     2      -7.423  10.144  67.300  1.00  0.00    -0.083 Fe 
HETATM   15  O   UNL     2      -6.051   9.516  68.364  1.00  0.00    -0.044 OA 
HETATM   16  O   UNL     2      -7.155   9.079  65.770  1.00  0.00    -0.083 OA 
HETATM   17  C   UNL     2      -8.218   8.750  65.033  1.00  0.00    -0.155 C  
HETATM   18  C   UNL     2      -6.459   9.854  69.620  1.00  0.00    -0.052 C  
HETATM   19  C   UNL     2      -7.876  10.442  69.804  1.00  0.00    -0.095 C  
HETATM   20  O   UNL     2      -5.702   9.731  70.569  1.00  0.00    -0.044 OA 
HETATM   21  O   UNL     2      -8.150   7.885  64.172  1.00  0.00    -0.146 OA 
HETATM   22  C   UNL     2      -9.490   9.407  65.380  1.00  0.00    -0.253 C  
ENDBRANCH   5   6
TORSDOF 1
ENDMDL
MODEL      100
REMARK 921   NORMALIZED FREE ENERGY PREDICTED BY IDOCK:   -3.54 KCAL/MOL
REMARK 922        TOTAL FREE ENERGY PREDICTED BY IDOCK:   -3.42 KCAL/MOL
REMARK 923 INTER-LIGAND FREE ENERGY PREDICTED BY IDOCK:   -3.74 KCAL/MOL
REMARK 924 INTRA-LIGAND FREE ENERGY PREDICTED BY IDOCK:    0.32 KCAL/MOL
REMARK 927      BINDING AFFINITY PREDICTED BY RF-SCORE:    0.00 PKD
ROOT
HETATM    1 NA   UNL     1     -12.548  10.684  72.436  1.00  0.00    -0.377 Na 
HETATM    2  O   UNL     2     -10.286   9.187  71.825  1.00  0.00    -0.338 OA 
HETATM    3  C   UNL     2     -10.706   9.249  70.546  1.00  0.00    -0.257 C  
HETATM    4  O   UNL     2     -11.847   8.918  70.285  1.00  0.00    -0.064 OA 
HETATM    5  C   UNL     2      -9.739   9.754  69.499  1.00  0.00    -0.212 C  
ENDROOT
BRANCH   5   6
HETATM    6  N   UNL     2     -10.196   9.781  68.064  1.00  0.00    -0.179 N  
HETATM    7  C   UNL     2     -10.565   8.421  67.626  1.00  0.00    -0.195 C  
HETATM    8  C   UNL     2      -9.311   7.562  67.603  1.00  0.00    -0.137 C  
HETATM    9  N   UNL     2      -8.249   8.371  66.980  1.00  0.00    -0.106 N  
HETATM   10  C   UNL     2      -6.920   8.337  67.663  1.00  0.00    -0.079 C  
HETATM   11  C   UNL     2      -6.569   9.708  68.189  1.00  0.00    -0.061 C  
HETATM   12  O   UNL     2      -7.176  10.779  67.650  1.00  0.00    -0.089 OA 
HETATM   13  O   UNL     2      -5.752   9.848  69.083  1.00  0.00    -0.035 OA 
HETATM   14 FE   UNL     2      -8.716  10.267  66.745  1.00  0.00    -0.121 Fe 
HETATM   15  O   UNL     2      -7.640  10.570  65.276  1.00  0.00    -0.141 OA 
HETATM   16  O   UNL     2      -9.608  11.923  66.837  1.00  0.00    -0.193 OA 
HETATM   17  C   UNL     2     -10.854  11.946  67.314  1.00  0.00    -0.247 C  
HETATM   18  C   UNL     2      -7.344   9.310  64.849  1.00  0.00    -0.103 C  
HETATM   19  C   UNL     2      -8.051   8.114  65.524  1.00  0.00    -0.130 C  
HETATM   20  O   UNL     2      -6.506   9.134  63.979  1.00  0.00    -0.086 OA 
HETATM   21  O   UNL     2     -11.563  12.933  67.190  1.00  0.00    -0.322 OA 
HETATM   22  C   UNL     2     -11.357  10.694  67.904  1.00  0.00    -0.268 C  
ENDBRANCH   5   6
TORSDOF 1
ENDMDL
MODEL      101
REMARK 921   NORMALIZED FREE ENERGY PREDICTED BY IDOCK:   -3.51 KCAL/MOL
REMARK 922        TOTAL FREE ENERGY PREDICTED BY IDOCK:   -3.38 KCAL/MOL
REMARK 923 INTER-LIGAND FREE ENERGY PREDICTED BY IDOCK:   -4.51 KCAL/MOL
REMARK 924 INTRA-LIGAND FREE ENERGY PREDICTED BY IDOCK:    1.13 KCAL/MOL
REMARK 927      BINDING AFFINITY PREDICTED BY RF-SCORE:    0.00 PKD
ROOT
HETATM    1 NA   UNL     1      -8.287  10.404  70.556  1.00  0.00    -0.279 Na 
HETATM    2  O   UNL     2      -8.410   8.923  72.907  1.00  0.00    -0.372 OA 
HETATM    3  C   UNL     2      -9.378   8.211  72.296  1.00  0.00    -0.224 C  
HETATM    4  O   UNL     2     -10.318   8.803  71.801  1.00  0.00    -0.286 OA 
HETATM    5  C   UNL     2      -9.233   6.708  72.238  1.00  0.00    -0.136 C  
ENDROOT
BRANCH   5   6
HETATM    6  N   UNL     2     -10.339   5.913  71.595  1.00  0.00    -0.212 N  
HETATM    7  C   UNL     2      -9.976   4.483  71.553  1.00  0.00    -0.189 C  
HETATM    8  C   UNL     2      -8.794   4.310  70.613  1.00  0.00    -0.088 C  
HETATM    9  N   UNL     2      -9.075   5.125  69.418  1.00  0.00    -0.105 N  
HETATM   10  C   UNL     2      -7.935   5.950  68.911  1.00  0.00    -0.102 C  
HETATM   11  C   UNL     2      -8.263   7.419  69.026  1.00  0.00    -0.128 C  
HETATM   12  O   UNL     2      -9.553   7.786  69.112  1.00  0.00    -0.155 OA 
HETATM   13  O   UNL     2      -7.381   8.260  69.038  1.00  0.00    -0.084 OA 
HETATM   14 FE   UNL     2     -10.608   6.341  69.617  1.00  0.00    -0.165 Fe 
HETATM   15  O   UNL     2     -11.073   6.391  67.831  1.00  0.00    -0.322 OA 
HETATM   16  O   UNL     2     -12.033   7.332  70.347  1.00  0.00    -0.201 OA 
HETATM   17  C   UNL     2     -12.440   7.040  71.584  1.00  0.00    -0.374 C  
HETATM   18  C   UNL     2     -10.404   5.323  67.311  1.00  0.00    -0.199 C  
HETATM   19  C   UNL     2      -9.668   4.369  68.278  1.00  0.00    -0.107 C  
HETATM   20  O   UNL     2     -10.357   5.151  66.104  1.00  0.00    -0.233 OA 
HETATM   21  O   UNL     2     -13.491   7.478  72.027  1.00  0.00    -0.249 OA 
HETATM   22  C   UNL     2     -11.610   6.088  72.343  1.00  0.00    -0.300 C  
ENDBRANCH   5   6
TORSDOF 1
ENDMDL
MODEL      102
REMARK 921   NORMALIZED FREE ENERGY PREDICTED BY IDOCK:   -3.51 KCAL/MOL
REMARK 922        TOTAL FREE ENERGY PREDICTED BY IDOCK:   -3.38 KCAL/MOL
REMARK 923 INTER-LIGAND FREE ENERGY PREDICTED BY IDOCK:   -3.70 KCAL/MOL
REMARK 924 INTRA-LIGAND FREE ENERGY PREDICTED BY IDOCK:    0.32 KCAL/MOL
REMARK 927      BINDING AFFINITY PREDICTED BY RF-SCORE:    0.00 PKD
ROOT
HETATM    1 NA   UNL     1      -8.260  11.946  69.560  1.00  0.00    -0.334 Na 
HETATM    2  O   UNL     2      -8.403   9.237  70.174  1.00  0.00    -0.138 OA 
HETATM    3  C   UNL     2      -9.131   9.116  69.046  1.00  0.00    -0.143 C  
HETATM    4  O   UNL     2     -10.094   9.842  68.889  1.00  0.00    -0.169 OA 
HETATM    5  C   UNL     2      -8.696   8.095  68.019  1.00  0.00    -0.128 C  
ENDROOT
BRANCH   5   6
HETATM    6  N   UNL     2      -9.538   7.932  66.781  1.00  0.00    -0.198 N  
HETATM    7  C   UNL     2     -10.879   7.437  67.143  1.00  0.00    -0.270 C  
HETATM    8  C   UNL     2     -10.744   6.026  67.693  1.00  0.00    -0.296 C  
HETATM    9  N   UNL     2      -9.810   5.309  66.806  1.00  0.00    -0.157 N  
HETATM   10  C   UNL     2      -8.767   4.485  67.490  1.00  0.00    -0.104 C  
HETATM   11  C   UNL     2      -7.393   5.033  67.193  1.00  0.00    -0.082 C  
HETATM   12  O   UNL     2      -7.229   5.808  66.108  1.00  0.00    -0.073 OA 
HETATM   13  O   UNL     2      -6.445   4.779  67.917  1.00  0.00    -0.042 OA 
HETATM   14 FE   UNL     2      -8.867   6.467  65.527  1.00  0.00    -0.141 Fe 
HETATM   15  O   UNL     2      -8.624   5.187  64.220  1.00  0.00    -0.140 OA 
HETATM   16  O   UNL     2      -8.206   7.980  64.620  1.00  0.00    -0.148 OA 
HETATM   17  C   UNL     2      -8.731   9.172  64.912  1.00  0.00    -0.182 C  
HETATM   18  C   UNL     2      -9.498   4.207  64.585  1.00  0.00    -0.168 C  
HETATM   19  C   UNL     2     -10.469   4.481  65.755  1.00  0.00    -0.233 C  
HETATM   20  O   UNL     2      -9.483   3.124  64.023  1.00  0.00    -0.122 OA 
HETATM   21  O   UNL     2      -8.516  10.149  64.209  1.00  0.00    -0.158 OA 
HETATM   22  C   UNL     2      -9.656   9.224  66.057  1.00  0.00    -0.270 C  
ENDBRANCH   5   6
TORSDOF 1
ENDMDL
MODEL      103
REMARK 921   NORMALIZED FREE ENERGY PREDICTED BY IDOCK:   -3.50 KCAL/MOL
REMARK 922        TOTAL FREE ENERGY PREDICTED BY IDOCK:   -3.38 KCAL/MOL
REMARK 923 INTER-LIGAND FREE ENERGY PREDICTED BY IDOCK:   -3.73 KCAL/MOL
REMARK 924 INTRA-LIGAND FREE ENERGY PREDICTED BY IDOCK:    0.36 KCAL/MOL
REMARK 927      BINDING AFFINITY PREDICTED BY RF-SCORE:    0.00 PKD
ROOT
HETATM    1 NA   UNL     1     -13.800   5.208  72.918  1.00  0.00    -0.476 Na 
HETATM    2  O   UNL     2     -13.087   7.380  71.334  1.00  0.00    -0.364 OA 
HETATM    3  C   UNL     2     -11.813   6.982  71.528  1.00  0.00    -0.314 C  
HETATM    4  O   UNL     2     -11.423   6.796  72.664  1.00  0.00    -0.247 OA 
HETATM    5  C   UNL     2     -10.939   6.763  70.314  1.00  0.00    -0.291 C  
ENDROOT
BRANCH   5   6
HETATM    6  N   UNL     2      -9.504   6.363  70.535  1.00  0.00    -0.162 N  
HETATM    7  C   UNL     2      -8.846   7.322  71.442  1.00  0.00    -0.130 C  
HETATM    8  C   UNL     2      -8.755   8.668  70.742  1.00  0.00    -0.173 C  
HETATM    9  N   UNL     2      -8.316   8.403  69.361  1.00  0.00    -0.119 N  
HETATM   10  C   UNL     2      -9.051   9.144  68.291  1.00  0.00    -0.132 C  
HETATM   11  C   UNL     2      -9.797   8.176  67.405  1.00  0.00    -0.184 C  
HETATM   12  O   UNL     2      -9.399   6.893  67.373  1.00  0.00    -0.129 OA 
HETATM   13  O   UNL     2     -10.741   8.545  66.727  1.00  0.00    -0.238 OA 
HETATM   14 FE   UNL     2      -8.350   6.502  68.857  1.00  0.00    -0.107 Fe 
HETATM   15  O   UNL     2      -7.000   6.590  67.601  1.00  0.00    -0.073 OA 
HETATM   16  O   UNL     2      -8.650   4.643  68.876  1.00  0.00    -0.084 OA 
HETATM   17  C   UNL     2      -9.062   4.079  70.013  1.00  0.00    -0.119 C  
HETATM   18  C   UNL     2      -6.401   7.782  67.880  1.00  0.00    -0.051 C  
HETATM   19  C   UNL     2      -6.850   8.560  69.137  1.00  0.00    -0.058 C  
HETATM   20  O   UNL     2      -5.557   8.241  67.127  1.00  0.00    -0.036 OA 
HETATM   21  O   UNL     2      -9.055   2.866  70.159  1.00  0.00    -0.093 OA 
HETATM   22  C   UNL     2      -9.428   4.994  71.108  1.00  0.00    -0.155 C  
ENDBRANCH   5   6
TORSDOF 1
ENDMDL
MODEL      104
REMARK 921   NORMALIZED FREE ENERGY PREDICTED BY IDOCK:   -3.50 KCAL/MOL
REMARK 922        TOTAL FREE ENERGY PREDICTED BY IDOCK:   -3.37 KCAL/MOL
REMARK 923 INTER-LIGAND FREE ENERGY PREDICTED BY IDOCK:   -3.81 KCAL/MOL
REMARK 924 INTRA-LIGAND FREE ENERGY PREDICTED BY IDOCK:    0.44 KCAL/MOL
REMARK 927      BINDING AFFINITY PREDICTED BY RF-SCORE:    0.00 PKD
ROOT
HETATM    1 NA   UNL     1      -9.552  11.784  65.779  1.00  0.00    -0.198 Na 
HETATM    2  O   UNL     2     -11.211   9.966  67.072  1.00  0.00    -0.027 OA 
HETATM    3  C   UNL     2     -10.077   9.356  67.469  1.00  0.00    -0.215 C  
HETATM    4  O   UNL     2      -9.245   9.060  66.632  1.00  0.00    -0.149 OA 
HETATM    5  C   UNL     2      -9.885   9.091  68.945  1.00  0.00    -0.175 C  
ENDROOT
BRANCH   5   6
HETATM    6  N   UNL     2      -8.636   8.369  69.380  1.00  0.00    -0.128 N  
HETATM    7  C   UNL     2      -8.424   7.175  68.541  1.00  0.00    -0.125 C  
HETATM    8  C   UNL     2      -9.544   6.184  68.814  1.00  0.00    -0.125 C  
HETATM    9  N   UNL     2      -9.733   6.143  70.275  1.00  0.00    -0.163 N  
HETATM   10  C   UNL     2     -11.149   6.181  70.750  1.00  0.00    -0.309 C  
HETATM   11  C   UNL     2     -11.401   7.441  71.542  1.00  0.00    -0.256 C  
HETATM   12  O   UNL     2     -10.351   8.086  72.077  1.00  0.00    -0.205 OA 
HETATM   13  O   UNL     2     -12.531   7.869  71.699  1.00  0.00    -0.301 OA 
HETATM   14 FE   UNL     2      -8.773   7.558  71.248  1.00  0.00    -0.115 Fe 
HETATM   15  O   UNL     2      -8.562   6.624  72.827  1.00  0.00    -0.123 OA 
HETATM   16  O   UNL     2      -7.766   9.098  71.651  1.00  0.00    -0.338 OA 
HETATM   17  C   UNL     2      -7.145   9.728  70.651  1.00  0.00    -0.087 C  
HETATM   18  C   UNL     2      -8.822   5.338  72.458  1.00  0.00    -0.127 C  
HETATM   19  C   UNL     2      -9.023   5.024  70.959  1.00  0.00    -0.132 C  
HETATM   20  O   UNL     2      -8.932   4.463  73.302  1.00  0.00    -0.111 OA 
HETATM   21  O   UNL     2      -6.302  10.584  70.868  1.00  0.00    -0.331 OA 
HETATM   22  C   UNL     2      -7.456   9.267  69.287  1.00  0.00    -0.075 C  
ENDBRANCH   5   6
TORSDOF 1
ENDMDL
MODEL      105
REMARK 921   NORMALIZED FREE ENERGY PREDICTED BY IDOCK:   -3.49 KCAL/MOL
REMARK 922        TOTAL FREE ENERGY PREDICTED BY IDOCK:   -3.37 KCAL/MOL
REMARK 923 INTER-LIGAND FREE ENERGY PREDICTED BY IDOCK:   -3.72 KCAL/MOL
REMARK 924 INTRA-LIGAND FREE ENERGY PREDICTED BY IDOCK:    0.35 KCAL/MOL
REMARK 927      BINDING AFFINITY PREDICTED BY RF-SCORE:    0.00 PKD
ROOT
HETATM    1 NA   UNL     1     -12.554   8.887  73.420  1.00  0.00    -0.307 Na 
HETATM    2  O   UNL     2     -12.649   7.278  71.154  1.00  0.00    -0.351 OA 
HETATM    3  C   UNL     2     -11.780   8.153  70.612  1.00  0.00    -0.143 C  
HETATM    4  O   UNL     2     -12.051   9.338  70.631  1.00  0.00    -0.224 OA 
HETATM    5  C   UNL     2     -10.494   7.615  70.026  1.00  0.00    -0.229 C  
ENDROOT
BRANCH   5   6
HETATM    6  N   UNL     2      -9.546   8.591  69.380  1.00  0.00    -0.169 N  
HETATM    7  C   UNL     2     -10.247   9.362  68.336  1.00  0.00    -0.197 C  
HETATM    8  C   UNL     2     -10.634   8.416  67.211  1.00  0.00    -0.257 C  
HETATM    9  N   UNL     2      -9.467   7.554  66.956  1.00  0.00    -0.153 N  
HETATM   10  C   UNL     2      -9.758   6.097  66.789  1.00  0.00    -0.158 C  
HETATM   11  C   UNL     2      -9.113   5.305  67.900  1.00  0.00    -0.110 C  
HETATM   12  O   UNL     2      -8.084   5.853  68.568  1.00  0.00    -0.104 OA 
HETATM   13  O   UNL     2      -9.510   4.189  68.189  1.00  0.00    -0.151 OA 
HETATM   14 FE   UNL     2      -8.052   7.695  68.316  1.00  0.00    -0.105 Fe 
HETATM   15  O   UNL     2      -6.645   7.256  67.204  1.00  0.00    -0.058 OA 
HETATM   16  O   UNL     2      -7.100   8.133  69.880  1.00  0.00    -0.057 OA 
HETATM   17  C   UNL     2      -7.614   9.055  70.697  1.00  0.00    -0.119 C  
HETATM   18  C   UNL     2      -7.180   7.406  65.959  1.00  0.00    -0.070 C  
HETATM   19  C   UNL     2      -8.598   8.006  65.831  1.00  0.00    -0.152 C  
HETATM   20  O   UNL     2      -6.564   7.037  64.973  1.00  0.00    -0.045 OA 
HETATM   21  O   UNL     2      -6.949   9.546  71.596  1.00  0.00    -0.313 OA 
HETATM   22  C   UNL     2      -8.979   9.517  70.395  1.00  0.00    -0.243 C  
ENDBRANCH   5   6
TORSDOF 1
ENDMDL
MODEL      106
REMARK 921   NORMALIZED FREE ENERGY PREDICTED BY IDOCK:   -3.49 KCAL/MOL
REMARK 922        TOTAL FREE ENERGY PREDICTED BY IDOCK:   -3.36 KCAL/MOL
REMARK 923 INTER-LIGAND FREE ENERGY PREDICTED BY IDOCK:   -3.75 KCAL/MOL
REMARK 924 INTRA-LIGAND FREE ENERGY PREDICTED BY IDOCK:    0.39 KCAL/MOL
REMARK 927      BINDING AFFINITY PREDICTED BY RF-SCORE:    0.00 PKD
ROOT
HETATM    1 NA   UNL     1     -13.138  11.388  70.042  1.00  0.00    -0.175 Na 
HETATM    2  O   UNL     2     -11.549  10.522  67.929  1.00  0.00    -0.461 OA 
HETATM    3  C   UNL     2     -10.744   9.996  68.874  1.00  0.00    -0.219 C  
HETATM    4  O   UNL     2     -10.361  10.709  69.782  1.00  0.00    -0.205 OA 
HETATM    5  C   UNL     2     -10.378   8.533  68.768  1.00  0.00    -0.213 C  
ENDROOT
BRANCH   5   6
HETATM    6  N   UNL     2      -9.442   7.960  69.800  1.00  0.00    -0.163 N  
HETATM    7  C   UNL     2      -8.058   8.387  69.521  1.00  0.00    -0.113 C  
HETATM    8  C   UNL     2      -7.608   7.754  68.215  1.00  0.00    -0.109 C  
HETATM    9  N   UNL     2      -8.047   6.348  68.248  1.00  0.00    -0.112 N  
HETATM   10  C   UNL     2      -8.679   5.834  66.994  1.00  0.00    -0.109 C  
HETATM   11  C   UNL     2     -10.121   5.470  67.248  1.00  0.00    -0.183 C  
HETATM   12  O   UNL     2     -10.511   5.224  68.510  1.00  0.00    -0.157 OA 
HETATM   13  O   UNL     2     -10.921   5.396  66.331  1.00  0.00    -0.243 OA 
HETATM   14 FE   UNL     2      -9.285   5.926  69.717  1.00  0.00    -0.128 Fe 
HETATM   15  O   UNL     2      -8.821   4.147  69.882  1.00  0.00    -0.074 OA 
HETATM   16  O   UNL     2     -10.458   6.088  71.181  1.00  0.00    -0.212 OA 
HETATM   17  C   UNL     2     -10.540   7.268  71.800  1.00  0.00    -0.205 C  
HETATM   18  C   UNL     2      -7.642   4.074  69.203  1.00  0.00    -0.054 C  
HETATM   19  C   UNL     2      -7.000   5.383  68.692  1.00  0.00    -0.060 C  
HETATM   20  O   UNL     2      -7.129   2.991  68.969  1.00  0.00    -0.047 OA 
HETATM   21  O   UNL     2     -11.099   7.380  72.881  1.00  0.00    -0.319 OA 
HETATM   22  C   UNL     2      -9.840   8.397  71.163  1.00  0.00    -0.192 C  
ENDBRANCH   5   6
TORSDOF 1
ENDMDL
MODEL      107
REMARK 921   NORMALIZED FREE ENERGY PREDICTED BY IDOCK:   -3.43 KCAL/MOL
REMARK 922        TOTAL FREE ENERGY PREDICTED BY IDOCK:   -3.31 KCAL/MOL
REMARK 923 INTER-LIGAND FREE ENERGY PREDICTED BY IDOCK:   -4.41 KCAL/MOL
REMARK 924 INTRA-LIGAND FREE ENERGY PREDICTED BY IDOCK:    1.10 KCAL/MOL
REMARK 927      BINDING AFFINITY PREDICTED BY RF-SCORE:    0.00 PKD
ROOT
HETATM    1 NA   UNL     1     -12.601   8.191  73.560  1.00  0.00    -0.602 Na 
HETATM    2  O   UNL     2     -13.104   7.017  71.089  1.00  0.00    -0.345 OA 
HETATM    3  C   UNL     2     -11.916   7.529  70.710  1.00  0.00    -0.197 C  
HETATM    4  O   UNL     2     -11.705   8.714  70.884  1.00  0.00    -0.282 OA 
HETATM    5  C   UNL     2     -10.892   6.593  70.108  1.00  0.00    -0.279 C  
ENDROOT
BRANCH   5   6
HETATM    6  N   UNL     2      -9.583   7.177  69.645  1.00  0.00    -0.155 N  
HETATM    7  C   UNL     2      -8.675   6.099  69.209  1.00  0.00    -0.122 C  
HETATM    8  C   UNL     2      -8.303   5.259  70.420  1.00  0.00    -0.111 C  
HETATM    9  N   UNL     2      -8.004   6.197  71.516  1.00  0.00    -0.109 N  
HETATM   10  C   UNL     2      -8.594   5.852  72.846  1.00  0.00    -0.121 C  
HETATM   11  C   UNL     2      -9.588   6.908  73.265  1.00  0.00    -0.166 C  
HETATM   12  O   UNL     2      -9.505   8.128  72.708  1.00  0.00    -0.234 OA 
HETATM   13  O   UNL     2     -10.450   6.666  74.093  1.00  0.00    -0.353 OA 
HETATM   14 FE   UNL     2      -8.510   8.060  71.140  1.00  0.00    -0.100 Fe 
HETATM   15  O   UNL     2      -7.237   8.848  72.221  1.00  0.00    -0.319 OA 
HETATM   16  O   UNL     2      -9.237   9.597  70.330  1.00  0.00    -0.242 OA 
HETATM   17  C   UNL     2      -9.717   9.491  69.088  1.00  0.00    -0.178 C  
HETATM   18  C   UNL     2      -6.362   7.830  72.455  1.00  0.00    -0.057 C  
HETATM   19  C   UNL     2      -6.555   6.499  71.694  1.00  0.00    -0.057 C  
HETATM   20  O   UNL     2      -5.470   7.958  73.278  1.00  0.00    -0.044 OA 
HETATM   21  O   UNL     2      -9.989  10.482  68.428  1.00  0.00    -0.155 OA 
HETATM   22  C   UNL     2      -9.805   8.132  68.528  1.00  0.00    -0.179 C  
ENDBRANCH   5   6
TORSDOF 1
ENDMDL
MODEL      108
REMARK 921   NORMALIZED FREE ENERGY PREDICTED BY IDOCK:   -3.43 KCAL/MOL
REMARK 922        TOTAL FREE ENERGY PREDICTED BY IDOCK:   -3.31 KCAL/MOL
REMARK 923 INTER-LIGAND FREE ENERGY PREDICTED BY IDOCK:   -3.71 KCAL/MOL
REMARK 924 INTRA-LIGAND FREE ENERGY PREDICTED BY IDOCK:    0.40 KCAL/MOL
REMARK 927      BINDING AFFINITY PREDICTED BY RF-SCORE:    0.00 PKD
ROOT
HETATM    1 NA   UNL     1      -9.445   5.751  63.788  1.00  0.00    -0.344 Na 
HETATM    2  O   UNL     2      -8.958   4.554  66.251  1.00  0.00    -0.115 OA 
HETATM    3  C   UNL     2      -8.612   5.786  66.674  1.00  0.00    -0.118 C  
HETATM    4  O   UNL     2      -7.790   6.417  66.037  1.00  0.00    -0.096 OA 
HETATM    5  C   UNL     2      -9.284   6.331  67.914  1.00  0.00    -0.116 C  
ENDROOT
BRANCH   5   6
HETATM    6  N   UNL     2      -8.862   7.689  68.410  1.00  0.00    -0.130 N  
HETATM    7  C   UNL     2      -7.392   7.756  68.512  1.00  0.00    -0.091 C  
HETATM    8  C   UNL     2      -6.937   6.801  69.603  1.00  0.00    -0.063 C  
HETATM    9  N   UNL     2      -7.852   6.985  70.743  1.00  0.00    -0.095 N  
HETATM   10  C   UNL     2      -8.346   5.732  71.390  1.00  0.00    -0.127 C  
HETATM   11  C   UNL     2      -9.841   5.611  71.220  1.00  0.00    -0.175 C  
HETATM   12  O   UNL     2     -10.551   6.721  70.960  1.00  0.00    -0.217 OA 
HETATM   13  O   UNL     2     -10.399   4.531  71.319  1.00  0.00    -0.145 OA 
HETATM   14 FE   UNL     2      -9.440   8.071  70.330  1.00  0.00    -0.153 Fe 
HETATM   15  O   UNL     2      -9.700   8.723  72.038  1.00  0.00    -0.299 OA 
HETATM   16  O   UNL     2     -10.756   9.052  69.409  1.00  0.00    -0.229 OA 
HETATM   17  C   UNL     2     -10.533   9.366  68.130  1.00  0.00    -0.220 C  
HETATM   18  C   UNL     2      -8.512   8.457  72.651  1.00  0.00    -0.154 C  
HETATM   19  C   UNL     2      -7.346   7.908  71.799  1.00  0.00    -0.073 C  
HETATM   20  O   UNL     2      -8.390   8.613  73.856  1.00  0.00    -0.349 OA 
HETATM   21  O   UNL     2     -11.229  10.185  67.548  1.00  0.00    -0.265 OA 
HETATM   22  C   UNL     2      -9.353   8.753  67.497  1.00  0.00    -0.136 C  
ENDBRANCH   5   6
TORSDOF 1
ENDMDL
MODEL      109
REMARK 921   NORMALIZED FREE ENERGY PREDICTED BY IDOCK:   -3.42 KCAL/MOL
REMARK 922        TOTAL FREE ENERGY PREDICTED BY IDOCK:   -3.29 KCAL/MOL
REMARK 923 INTER-LIGAND FREE ENERGY PREDICTED BY IDOCK:   -3.65 KCAL/MOL
REMARK 924 INTRA-LIGAND FREE ENERGY PREDICTED BY IDOCK:    0.36 KCAL/MOL
REMARK 927      BINDING AFFINITY PREDICTED BY RF-SCORE:    0.00 PKD
ROOT
HETATM    1 NA   UNL     1     -11.093   5.956  72.782  1.00  0.00    -0.198 Na 
HETATM    2  O   UNL     2     -11.692   6.247  70.081  1.00  0.00    -0.398 OA 
HETATM    3  C   UNL     2     -11.072   7.441  70.169  1.00  0.00    -0.246 C  
HETATM    4  O   UNL     2     -11.414   8.216  71.041  1.00  0.00    -0.274 OA 
HETATM    5  C   UNL     2      -9.962   7.745  69.189  1.00  0.00    -0.182 C  
ENDROOT
BRANCH   5   6
HETATM    6  N   UNL     2      -9.303   9.098  69.261  1.00  0.00    -0.154 N  
HETATM    7  C   UNL     2     -10.219  10.135  68.750  1.00  0.00    -0.186 C  
HETATM    8  C   UNL     2     -10.434   9.902  67.263  1.00  0.00    -0.258 C  
HETATM    9  N   UNL     2      -9.113   9.607  66.681  1.00  0.00    -0.145 N  
HETATM   10  C   UNL     2      -9.066   8.460  65.724  1.00  0.00    -0.139 C  
HETATM   11  C   UNL     2      -8.196   7.356  66.275  1.00  0.00    -0.126 C  
HETATM   12  O   UNL     2      -7.289   7.661  67.218  1.00  0.00    -0.087 OA 
HETATM   13  O   UNL     2      -8.307   6.210  65.875  1.00  0.00    -0.127 OA 
HETATM   14 FE   UNL     2      -7.700   9.291  68.012  1.00  0.00    -0.081 Fe 
HETATM   15  O   UNL     2      -6.290   9.861  66.965  1.00  0.00    -0.063 OA 
HETATM   16  O   UNL     2      -6.795   8.999  69.637  1.00  0.00    -0.048 OA 
HETATM   17  C   UNL     2      -7.465   9.180  70.777  1.00  0.00    -0.122 C  
HETATM   18  C   UNL     2      -6.910  10.545  65.963  1.00  0.00    -0.134 C  
HETATM   19  C   UNL     2      -8.434  10.782  66.062  1.00  0.00    -0.169 C  
HETATM   20  O   UNL     2      -6.279  10.925  64.990  1.00  0.00     0.017 OA 
HETATM   21  O   UNL     2      -6.886   9.232  71.852  1.00  0.00    -0.306 OA 
HETATM   22  C   UNL     2      -8.915   9.414  70.660  1.00  0.00    -0.228 C  
ENDBRANCH   5   6
TORSDOF 1
ENDMDL
MODEL      110
REMARK 921   NORMALIZED FREE ENERGY PREDICTED BY IDOCK:   -3.38 KCAL/MOL
REMARK 922        TOTAL FREE ENERGY PREDICTED BY IDOCK:   -3.25 KCAL/MOL
REMARK 923 INTER-LIGAND FREE ENERGY PREDICTED BY IDOCK:   -3.57 KCAL/MOL
REMARK 924 INTRA-LIGAND FREE ENERGY PREDICTED BY IDOCK:    0.32 KCAL/MOL
REMARK 927      BINDING AFFINITY PREDICTED BY RF-SCORE:    0.00 PKD
ROOT
HETATM    1 NA   UNL     1     -10.786  11.652  70.508  1.00  0.00    -0.440 Na 
HETATM    2  O   UNL     2      -9.892   9.337  71.762  1.00  0.00    -0.252 OA 
HETATM    3  C   UNL     2     -10.368   8.682  70.685  1.00  0.00    -0.202 C  
HETATM    4  O   UNL     2     -11.516   8.882  70.336  1.00  0.00    -0.246 OA 
HETATM    5  C   UNL     2      -9.438   7.747  69.947  1.00  0.00    -0.160 C  
ENDROOT
BRANCH   5   6
HETATM    6  N   UNL     2      -9.986   6.983  68.770  1.00  0.00    -0.156 N  
HETATM    7  C   UNL     2     -11.046   6.059  69.217  1.00  0.00    -0.354 C  
HETATM    8  C   UNL     2     -10.418   4.990  70.097  1.00  0.00    -0.165 C  
HETATM    9  N   UNL     2      -9.176   4.562  69.431  1.00  0.00    -0.116 N  
HETATM   10  C   UNL     2      -7.979   4.421  70.315  1.00  0.00    -0.062 C  
HETATM   11  C   UNL     2      -6.918   5.420  69.919  1.00  0.00    -0.061 C  
HETATM   12  O   UNL     2      -6.953   5.940  68.681  1.00  0.00    -0.067 OA 
HETATM   13  O   UNL     2      -6.043   5.750  70.701  1.00  0.00    -0.027 OA 
HETATM   14 FE   UNL     2      -8.636   5.706  67.925  1.00  0.00    -0.102 Fe 
HETATM   15  O   UNL     2      -7.740   4.400  66.976  1.00  0.00    -0.088 OA 
HETATM   16  O   UNL     2      -8.540   7.123  66.689  1.00  0.00    -0.115 OA 
HETATM   17  C   UNL     2      -9.533   8.015  66.670  1.00  0.00    -0.212 C  
HETATM   18  C   UNL     2      -8.181   3.247  67.553  1.00  0.00    -0.081 C  
HETATM   19  C   UNL     2      -9.312   3.329  68.602  1.00  0.00    -0.169 C  
HETATM   20  O   UNL     2      -7.662   2.178  67.273  1.00  0.00    -0.063 OA 
HETATM   21  O   UNL     2      -9.648   8.816  65.754  1.00  0.00    -0.219 OA 
HETATM   22  C   UNL     2     -10.529   7.917  67.750  1.00  0.00    -0.212 C  
ENDBRANCH   5   6
TORSDOF 1
ENDMDL
MODEL      111
REMARK 921   NORMALIZED FREE ENERGY PREDICTED BY IDOCK:   -3.37 KCAL/MOL
REMARK 922        TOTAL FREE ENERGY PREDICTED BY IDOCK:   -3.24 KCAL/MOL
REMARK 923 INTER-LIGAND FREE ENERGY PREDICTED BY IDOCK:   -3.62 KCAL/MOL
REMARK 924 INTRA-LIGAND FREE ENERGY PREDICTED BY IDOCK:    0.38 KCAL/MOL
REMARK 927      BINDING AFFINITY PREDICTED BY RF-SCORE:    0.00 PKD
ROOT
HETATM    1 NA   UNL     1      -6.534   6.474  63.674  1.00  0.00    -0.032 Na 
HETATM    2  O   UNL     2      -6.214   5.625  66.303  1.00  0.00    -0.032 OA 
HETATM    3  C   UNL     2      -6.656   6.849  66.653  1.00  0.00    -0.048 C  
HETATM    4  O   UNL     2      -6.118   7.827  66.171  1.00  0.00    -0.037 OA 
HETATM    5  C   UNL     2      -7.821   6.942  67.613  1.00  0.00    -0.112 C  
ENDROOT
BRANCH   5   6
HETATM    6  N   UNL     2      -8.283   8.311  68.036  1.00  0.00    -0.127 N  
HETATM    7  C   UNL     2      -7.331   8.890  69.003  1.00  0.00    -0.073 C  
HETATM    8  C   UNL     2      -7.376   8.067  70.281  1.00  0.00    -0.060 C  
HETATM    9  N   UNL     2      -8.797   7.810  70.574  1.00  0.00    -0.144 N  
HETATM   10  C   UNL     2      -9.135   6.411  70.976  1.00  0.00    -0.154 C  
HETATM   11  C   UNL     2     -10.044   5.779  69.950  1.00  0.00    -0.209 C  
HETATM   12  O   UNL     2     -10.751   6.580  69.135  1.00  0.00    -0.224 OA 
HETATM   13  O   UNL     2     -10.143   4.567  69.859  1.00  0.00    -0.234 OA 
HETATM   14 FE   UNL     2     -10.019   8.289  69.110  1.00  0.00    -0.167 Fe 
HETATM   15  O   UNL     2     -11.488   8.651  70.169  1.00  0.00    -0.158 OA 
HETATM   16  O   UNL     2     -10.697   8.813  67.433  1.00  0.00    -0.267 OA 
HETATM   17  C   UNL     2      -9.843   9.298  66.528  1.00  0.00    -0.263 C  
HETATM   18  C   UNL     2     -10.945   8.774  71.413  1.00  0.00    -0.289 C  
HETATM   19  C   UNL     2      -9.406   8.755  71.554  1.00  0.00    -0.267 C  
HETATM   20  O   UNL     2     -11.664   8.855  72.396  1.00  0.00    -0.331 OA 
HETATM   21  O   UNL     2     -10.241   9.862  65.520  1.00  0.00    -0.273 OA 
HETATM   22  C   UNL     2      -8.411   9.206  66.857  1.00  0.00    -0.119 C  
ENDBRANCH   5   6
TORSDOF 1
ENDMDL
MODEL      112
REMARK 921   NORMALIZED FREE ENERGY PREDICTED BY IDOCK:   -3.37 KCAL/MOL
REMARK 922        TOTAL FREE ENERGY PREDICTED BY IDOCK:   -3.24 KCAL/MOL
REMARK 923 INTER-LIGAND FREE ENERGY PREDICTED BY IDOCK:   -4.34 KCAL/MOL
REMARK 924 INTRA-LIGAND FREE ENERGY PREDICTED BY IDOCK:    1.10 KCAL/MOL
REMARK 927      BINDING AFFINITY PREDICTED BY RF-SCORE:    0.00 PKD
ROOT
HETATM    1 NA   UNL     1      -9.626   9.599  67.635  1.00  0.00    -0.132 Na 
HETATM    2  O   UNL     2     -10.976   7.197  67.259  1.00  0.00    -0.310 OA 
HETATM    3  C   UNL     2     -10.189   6.710  68.240  1.00  0.00    -0.171 C  
HETATM    4  O   UNL     2      -8.984   6.849  68.149  1.00  0.00    -0.125 OA 
HETATM    5  C   UNL     2     -10.851   6.035  69.420  1.00  0.00    -0.363 C  
ENDROOT
BRANCH   5   6
HETATM    6  N   UNL     2      -9.967   5.453  70.491  1.00  0.00    -0.205 N  
HETATM    7  C   UNL     2     -10.786   4.994  71.629  1.00  0.00    -0.057 C  
HETATM    8  C   UNL     2     -11.423   6.207  72.288  1.00  0.00    -0.312 C  
HETATM    9  N   UNL     2     -10.377   7.240  72.387  1.00  0.00    -0.200 N  
HETATM   10  C   UNL     2     -10.788   8.622  71.994  1.00  0.00    -0.360 C  
HETATM   11  C   UNL     2     -10.014   9.071  70.778  1.00  0.00    -0.245 C  
HETATM   12  O   UNL     2      -8.851   8.461  70.494  1.00  0.00    -0.138 OA 
HETATM   13  O   UNL     2     -10.428   9.970  70.066  1.00  0.00    -0.256 OA 
HETATM   14 FE   UNL     2      -8.742   6.827  71.374  1.00  0.00    -0.121 Fe 
HETATM   15  O   UNL     2      -7.581   7.779  72.448  1.00  0.00    -0.078 OA 
HETATM   16  O   UNL     2      -7.507   6.012  70.209  1.00  0.00    -0.085 OA 
HETATM   17  C   UNL     2      -7.809   4.815  69.702  1.00  0.00    -0.066 C  
HETATM   18  C   UNL     2      -8.312   7.987  73.579  1.00  0.00    -0.233 C  
HETATM   19  C   UNL     2      -9.688   7.297  73.708  1.00  0.00    -0.298 C  
HETATM   20  O   UNL     2      -7.901   8.736  74.451  1.00  0.00    -0.399 OA 
HETATM   21  O   UNL     2      -6.968   4.136  69.132  1.00  0.00    -0.045 OA 
HETATM   22  C   UNL     2      -9.173   4.318  69.952  1.00  0.00    -0.138 C  
ENDBRANCH   5   6
TORSDOF 1
ENDMDL
MODEL      113
REMARK 921   NORMALIZED FREE ENERGY PREDICTED BY IDOCK:   -3.36 KCAL/MOL
REMARK 922        TOTAL FREE ENERGY PREDICTED BY IDOCK:   -3.23 KCAL/MOL
REMARK 923 INTER-LIGAND FREE ENERGY PREDICTED BY IDOCK:   -3.68 KCAL/MOL
REMARK 924 INTRA-LIGAND FREE ENERGY PREDICTED BY IDOCK:    0.45 KCAL/MOL
REMARK 927      BINDING AFFINITY PREDICTED BY RF-SCORE:    0.00 PKD
ROOT
HETATM    1 NA   UNL     1      -9.238  15.065  70.390  1.00  0.00    -0.407 Na 
HETATM    2  O   UNL     2      -8.963  14.402  67.703  1.00  0.00    -0.178 OA 
HETATM    3  C   UNL     2      -8.495  13.217  68.141  1.00  0.00    -0.173 C  
HETATM    4  O   UNL     2      -7.589  13.207  68.953  1.00  0.00    -0.073 OA 
HETATM    5  C   UNL     2      -9.139  11.954  67.615  1.00  0.00    -0.179 C  
ENDROOT
BRANCH   5   6
HETATM    6  N   UNL     2      -8.584  10.631  68.072  1.00  0.00    -0.120 N  
HETATM    7  C   UNL     2      -7.113  10.634  67.959  1.00  0.00    -0.085 C  
HETATM    8  C   UNL     2      -6.739  10.709  66.487  1.00  0.00    -0.116 C  
HETATM    9  N   UNL     2      -7.620   9.768  65.773  1.00  0.00    -0.104 N  
HETATM   10  C   UNL     2      -8.224  10.278  64.504  1.00  0.00    -0.158 C  
HETATM   11  C   UNL     2      -9.726  10.358  64.637  1.00  0.00    -0.329 C  
HETATM   12  O   UNL     2     -10.330   9.614  65.580  1.00  0.00    -0.130 OA 
HETATM   13  O   UNL     2     -10.384  11.077  63.906  1.00  0.00    -0.337 OA 
HETATM   14 FE   UNL     2      -9.100   9.069  66.863  1.00  0.00    -0.117 Fe 
HETATM   15  O   UNL     2      -9.278   7.461  65.974  1.00  0.00    -0.140 OA 
HETATM   16  O   UNL     2     -10.327   8.796  68.266  1.00  0.00    -0.203 OA 
HETATM   17  C   UNL     2     -10.089   9.387  69.439  1.00  0.00    -0.198 C  
HETATM   18  C   UNL     2      -8.115   7.371  65.270  1.00  0.00    -0.131 C  
HETATM   19  C   UNL     2      -7.016   8.429  65.517  1.00  0.00    -0.070 C  
HETATM   20  O   UNL     2      -7.965   6.495  64.433  1.00  0.00    -0.115 OA 
HETATM   21  O   UNL     2     -10.709   9.074  70.444  1.00  0.00    -0.208 OA 
HETATM   22  C   UNL     2      -8.980  10.356  69.477  1.00  0.00    -0.106 C  
ENDBRANCH   5   6
TORSDOF 1
ENDMDL
MODEL      114
REMARK 921   NORMALIZED FREE ENERGY PREDICTED BY IDOCK:   -3.34 KCAL/MOL
REMARK 922        TOTAL FREE ENERGY PREDICTED BY IDOCK:   -3.21 KCAL/MOL
REMARK 923 INTER-LIGAND FREE ENERGY PREDICTED BY IDOCK:   -4.31 KCAL/MOL
REMARK 924 INTRA-LIGAND FREE ENERGY PREDICTED BY IDOCK:    1.10 KCAL/MOL
REMARK 927      BINDING AFFINITY PREDICTED BY RF-SCORE:    0.00 PKD
ROOT
HETATM    1 NA   UNL     1     -11.180   6.094  65.883  1.00  0.00    -0.487 Na 
HETATM    2  O   UNL     2      -9.268   8.114  65.892  1.00  0.00    -0.171 OA 
HETATM    3  C   UNL     2      -9.584   8.278  67.192  1.00  0.00    -0.180 C  
HETATM    4  O   UNL     2     -10.752   8.428  67.498  1.00  0.00    -0.240 OA 
HETATM    5  C   UNL     2      -8.468   8.242  68.210  1.00  0.00    -0.136 C  
ENDROOT
BRANCH   5   6
HETATM    6  N   UNL     2      -8.819   8.471  69.657  1.00  0.00    -0.136 N  
HETATM    7  C   UNL     2      -7.641   8.223  70.509  1.00  0.00    -0.076 C  
HETATM    8  C   UNL     2      -7.292   6.745  70.437  1.00  0.00    -0.081 C  
HETATM    9  N   UNL     2      -8.559   6.000  70.544  1.00  0.00    -0.135 N  
HETATM   10  C   UNL     2      -8.733   4.870  69.582  1.00  0.00    -0.086 C  
HETATM   11  C   UNL     2      -9.886   5.151  68.649  1.00  0.00    -0.160 C  
HETATM   12  O   UNL     2     -10.818   6.041  69.028  1.00  0.00    -0.289 OA 
HETATM   13  O   UNL     2      -9.978   4.583  67.574  1.00  0.00    -0.163 OA 
HETATM   14 FE   UNL     2     -10.166   7.124  70.391  1.00  0.00    -0.182 Fe 
HETATM   15  O   UNL     2     -11.271   6.055  71.414  1.00  0.00    -0.284 OA 
HETATM   16  O   UNL     2     -11.315   8.588  70.102  1.00  0.00    -0.198 OA 
HETATM   17  C   UNL     2     -10.774   9.800  69.963  1.00  0.00    -0.283 C  
HETATM   18  C   UNL     2     -10.393   5.240  72.063  1.00  0.00    -0.215 C  
HETATM   19  C   UNL     2      -8.880   5.519  71.918  1.00  0.00    -0.135 C  
HETATM   20  O   UNL     2     -10.796   4.287  72.710  1.00  0.00    -0.172 OA 
HETATM   21  O   UNL     2     -11.461  10.810  70.002  1.00  0.00    -0.281 OA 
HETATM   22  C   UNL     2      -9.306   9.859  69.862  1.00  0.00    -0.216 C  
ENDBRANCH   5   6
TORSDOF 1
ENDMDL
MODEL      115
REMARK 921   NORMALIZED FREE ENERGY PREDICTED BY IDOCK:   -3.34 KCAL/MOL
REMARK 922        TOTAL FREE ENERGY PREDICTED BY IDOCK:   -3.21 KCAL/MOL
REMARK 923 INTER-LIGAND FREE ENERGY PREDICTED BY IDOCK:   -3.56 KCAL/MOL
REMARK 924 INTRA-LIGAND FREE ENERGY PREDICTED BY IDOCK:    0.35 KCAL/MOL
REMARK 927      BINDING AFFINITY PREDICTED BY RF-SCORE:    0.00 PKD
ROOT
HETATM    1 NA   UNL     1     -11.568   7.830  73.919  1.00  0.00    -0.506 Na 
HETATM    2  O   UNL     2     -10.953   9.519  71.797  1.00  0.00    -0.333 OA 
HETATM    3  C   UNL     2      -9.965   8.647  71.513  1.00  0.00    -0.274 C  
HETATM    4  O   UNL     2      -9.189   8.331  72.394  1.00  0.00    -0.206 OA 
HETATM    5  C   UNL     2      -9.889   8.084  70.111  1.00  0.00    -0.184 C  
ENDROOT
BRANCH   5   6
HETATM    6  N   UNL     2      -8.758   7.145  69.785  1.00  0.00    -0.141 N  
HETATM    7  C   UNL     2      -7.466   7.775  70.115  1.00  0.00    -0.083 C  
HETATM    8  C   UNL     2      -7.250   8.958  69.185  1.00  0.00    -0.067 C  
HETATM    9  N   UNL     2      -7.630   8.514  67.833  1.00  0.00    -0.097 N  
HETATM   10  C   UNL     2      -8.469   9.468  67.046  1.00  0.00    -0.128 C  
HETATM   11  C   UNL     2      -9.826   8.866  66.772  1.00  0.00    -0.241 C  
HETATM   12  O   UNL     2      -9.963   7.530  66.836  1.00  0.00    -0.206 OA 
HETATM   13  O   UNL     2     -10.782   9.570  66.496  1.00  0.00    -0.109 OA 
HETATM   14 FE   UNL     2      -8.554   6.778  67.787  1.00  0.00    -0.114 Fe 
HETATM   15  O   UNL     2      -8.011   6.293  66.090  1.00  0.00    -0.105 OA 
HETATM   16  O   UNL     2      -9.435   5.196  68.305  1.00  0.00    -0.117 OA 
HETATM   17  C   UNL     2      -9.436   4.867  69.599  1.00  0.00    -0.148 C  
HETATM   18  C   UNL     2      -6.979   7.148  65.843  1.00  0.00    -0.065 C  
HETATM   19  C   UNL     2      -6.487   8.064  66.986  1.00  0.00    -0.056 C  
HETATM   20  O   UNL     2      -6.485   7.215  64.729  1.00  0.00    -0.036 OA 
HETATM   21  O   UNL     2      -9.784   3.756  69.970  1.00  0.00    -0.197 OA 
HETATM   22  C   UNL     2      -8.904   5.872  70.536  1.00  0.00    -0.144 C  
ENDBRANCH   5   6
TORSDOF 1
ENDMDL
MODEL      116
REMARK 921   NORMALIZED FREE ENERGY PREDICTED BY IDOCK:   -3.33 KCAL/MOL
REMARK 922        TOTAL FREE ENERGY PREDICTED BY IDOCK:   -3.19 KCAL/MOL
REMARK 923 INTER-LIGAND FREE ENERGY PREDICTED BY IDOCK:   -4.90 KCAL/MOL
REMARK 924 INTRA-LIGAND FREE ENERGY PREDICTED BY IDOCK:    1.71 KCAL/MOL
REMARK 927      BINDING AFFINITY PREDICTED BY RF-SCORE:    0.00 PKD
ROOT
HETATM    1 NA   UNL     1      -8.339   9.029  74.399  1.00  0.00    -0.192 Na 
HETATM    2  O   UNL     2      -8.868   6.422  73.590  1.00  0.00    -0.123 OA 
HETATM    3  C   UNL     2      -9.894   6.947  72.891  1.00  0.00    -0.172 C  
HETATM    4  O   UNL     2     -10.687   7.668  73.465  1.00  0.00    -0.348 OA 
HETATM    5  C   UNL     2      -9.992   6.630  71.416  1.00  0.00    -0.183 C  
ENDROOT
BRANCH   5   6
HETATM    6  N   UNL     2     -11.164   7.182  70.648  1.00  0.00    -0.270 N  
HETATM    7  C   UNL     2     -11.569   6.233  69.593  1.00  0.00    -0.217 C  
HETATM    8  C   UNL     2     -10.454   6.148  68.563  1.00  0.00    -0.237 C  
HETATM    9  N   UNL     2     -10.003   7.526  68.305  1.00  0.00    -0.167 N  
HETATM   10  C   UNL     2      -8.523   7.729  68.260  1.00  0.00    -0.124 C  
HETATM   11  C   UNL     2      -8.086   8.633  69.387  1.00  0.00    -0.111 C  
HETATM   12  O   UNL     2      -8.996   9.442  69.954  1.00  0.00    -0.166 OA 
HETATM   13  O   UNL     2      -6.931   8.636  69.778  1.00  0.00    -0.045 OA 
HETATM   14 FE   UNL     2     -10.717   8.855  69.568  1.00  0.00    -0.201 Fe 
HETATM   15  O   UNL     2     -10.668  10.294  68.412  1.00  0.00    -0.199 OA 
HETATM   16  O   UNL     2     -11.577   9.655  71.039  1.00  0.00    -0.300 OA 
HETATM   17  C   UNL     2     -12.348   8.890  71.816  1.00  0.00    -0.357 C  
HETATM   18  C   UNL     2     -10.527   9.702  67.192  1.00  0.00    -0.249 C  
HETATM   19  C   UNL     2     -10.615   8.162  67.103  1.00  0.00    -0.285 C  
HETATM   20  O   UNL     2     -10.295  10.376  66.201  1.00  0.00    -0.242 OA 
HETATM   21  O   UNL     2     -13.106   9.382  72.638  1.00  0.00    -0.358 OA 
HETATM   22  C   UNL     2     -12.309   7.440  71.559  1.00  0.00    -0.353 C  
ENDBRANCH   5   6
TORSDOF 1
ENDMDL
MODEL      117
REMARK 921   NORMALIZED FREE ENERGY PREDICTED BY IDOCK:   -3.32 KCAL/MOL
REMARK 922        TOTAL FREE ENERGY PREDICTED BY IDOCK:   -3.19 KCAL/MOL
REMARK 923 INTER-LIGAND FREE ENERGY PREDICTED BY IDOCK:   -3.51 KCAL/MOL
REMARK 924 INTRA-LIGAND FREE ENERGY PREDICTED BY IDOCK:    0.32 KCAL/MOL
REMARK 927      BINDING AFFINITY PREDICTED BY RF-SCORE:    0.00 PKD
ROOT
HETATM    1 NA   UNL     1     -13.988   6.105  72.895  1.00  0.00    -0.518 Na 
HETATM    2  O   UNL     2     -13.159   7.213  70.483  1.00  0.00     0.062 OA 
HETATM    3  C   UNL     2     -11.920   6.817  70.835  1.00  0.00    -0.383 C  
HETATM    4  O   UNL     2     -11.490   7.135  71.927  1.00  0.00    -0.255 OA 
HETATM    5  C   UNL     2     -11.135   5.972  69.858  1.00  0.00    -0.399 C  
ENDROOT
BRANCH   5   6
HETATM    6  N   UNL     2      -9.733   5.568  70.236  1.00  0.00    -0.172 N  
HETATM    7  C   UNL     2      -8.861   6.756  70.285  1.00  0.00    -0.152 C  
HETATM    8  C   UNL     2      -8.723   7.317  68.879  1.00  0.00    -0.128 C  
HETATM    9  N   UNL     2      -8.504   6.169  67.981  1.00  0.00    -0.116 N  
HETATM   10  C   UNL     2      -9.294   6.177  66.712  1.00  0.00    -0.140 C  
HETATM   11  C   UNL     2     -10.251   5.009  66.687  1.00  0.00    -0.263 C  
HETATM   12  O   UNL     2      -9.999   3.952  67.477  1.00  0.00    -0.095 OA 
HETATM   13  O   UNL     2     -11.233   5.018  65.964  1.00  0.00    -0.053 OA 
HETATM   14 FE   UNL     2      -8.808   4.419  68.825  1.00  0.00    -0.086 Fe 
HETATM   15  O   UNL     2      -7.637   3.465  67.763  1.00  0.00    -0.064 OA 
HETATM   16  O   UNL     2      -9.297   3.075  70.050  1.00  0.00    -0.141 OA 
HETATM   17  C   UNL     2      -9.610   3.437  71.296  1.00  0.00    -0.161 C  
HETATM   18  C   UNL     2      -6.883   4.442  67.185  1.00  0.00    -0.052 C  
HETATM   19  C   UNL     2      -7.074   5.900  67.658  1.00  0.00    -0.074 C  
HETATM   20  O   UNL     2      -6.104   4.171  66.285  1.00  0.00    -0.029 OA 
HETATM   21  O   UNL     2      -9.712   2.610  72.190  1.00  0.00    -0.123 OA 
HETATM   22  C   UNL     2      -9.726   4.882  71.553  1.00  0.00    -0.172 C  
ENDBRANCH   5   6
TORSDOF 1
ENDMDL
MODEL      118
REMARK 921   NORMALIZED FREE ENERGY PREDICTED BY IDOCK:   -3.32 KCAL/MOL
REMARK 922        TOTAL FREE ENERGY PREDICTED BY IDOCK:   -3.18 KCAL/MOL
REMARK 923 INTER-LIGAND FREE ENERGY PREDICTED BY IDOCK:   -3.73 KCAL/MOL
REMARK 924 INTRA-LIGAND FREE ENERGY PREDICTED BY IDOCK:    0.54 KCAL/MOL
REMARK 927      BINDING AFFINITY PREDICTED BY RF-SCORE:    0.00 PKD
ROOT
HETATM    1 NA   UNL     1     -10.834   7.575  72.860  1.00  0.00    -0.203 Na 
HETATM    2  O   UNL     2      -8.610   9.089  72.154  1.00  0.00    -0.364 OA 
HETATM    3  C   UNL     2      -8.553   8.317  71.050  1.00  0.00    -0.144 C  
HETATM    4  O   UNL     2      -8.555   7.108  71.179  1.00  0.00    -0.127 OA 
HETATM    5  C   UNL     2      -8.514   8.999  69.701  1.00  0.00    -0.128 C  
ENDROOT
BRANCH   5   6
HETATM    6  N   UNL     2      -8.405   8.135  68.472  1.00  0.00    -0.125 N  
HETATM    7  C   UNL     2      -6.987   7.864  68.169  1.00  0.00    -0.073 C  
HETATM    8  C   UNL     2      -6.318   9.169  67.770  1.00  0.00    -0.055 C  
HETATM    9  N   UNL     2      -7.241   9.860  66.852  1.00  0.00    -0.090 N  
HETATM   10  C   UNL     2      -7.433  11.321  67.101  1.00  0.00    -0.130 C  
HETATM   11  C   UNL     2      -8.863  11.600  67.493  1.00  0.00    -0.158 C  
HETATM   12  O   UNL     2      -9.809  10.704  67.161  1.00  0.00    -0.168 OA 
HETATM   13  O   UNL     2      -9.163  12.616  68.097  1.00  0.00    -0.201 OA 
HETATM   14 FE   UNL     2      -9.036   9.060  66.766  1.00  0.00    -0.118 Fe 
HETATM   15  O   UNL     2      -9.420   9.589  65.039  1.00  0.00    -0.267 OA 
HETATM   16  O   UNL     2     -10.548   7.996  67.120  1.00  0.00    -0.320 OA 
HETATM   17  C   UNL     2     -10.414   6.961  67.953  1.00  0.00    -0.212 C  
HETATM   18  C   UNL     2      -8.198   9.932  64.545  1.00  0.00    -0.162 C  
HETATM   19  C   UNL     2      -6.946   9.650  65.406  1.00  0.00    -0.095 C  
HETATM   20  O   UNL     2      -8.103  10.488  63.463  1.00  0.00    -0.146 OA 
HETATM   21  O   UNL     2     -11.281   6.106  68.046  1.00  0.00    -0.310 OA 
HETATM   22  C   UNL     2      -9.132   6.854  68.670  1.00  0.00    -0.131 C  
ENDBRANCH   5   6
TORSDOF 1
ENDMDL
MODEL      119
REMARK 921   NORMALIZED FREE ENERGY PREDICTED BY IDOCK:   -3.31 KCAL/MOL
REMARK 922        TOTAL FREE ENERGY PREDICTED BY IDOCK:   -3.17 KCAL/MOL
REMARK 923 INTER-LIGAND FREE ENERGY PREDICTED BY IDOCK:   -4.27 KCAL/MOL
REMARK 924 INTRA-LIGAND FREE ENERGY PREDICTED BY IDOCK:    1.09 KCAL/MOL
REMARK 927      BINDING AFFINITY PREDICTED BY RF-SCORE:    0.00 PKD
ROOT
HETATM    1 NA   UNL     1      -6.717   9.415  71.223  1.00  0.00    -0.065 Na 
HETATM    2  O   UNL     2      -8.863  10.094  69.589  1.00  0.00    -0.195 OA 
HETATM    3  C   UNL     2      -9.172   8.782  69.611  1.00  0.00    -0.150 C  
HETATM    4  O   UNL     2      -8.312   7.971  69.323  1.00  0.00    -0.130 OA 
HETATM    5  C   UNL     2     -10.573   8.383  70.017  1.00  0.00    -0.235 C  
ENDROOT
BRANCH   5   6
HETATM    6  N   UNL     2     -10.928   6.920  69.996  1.00  0.00    -0.264 N  
HETATM    7  C   UNL     2     -12.271   6.717  70.572  1.00  0.00    -0.195 C  
HETATM    8  C   UNL     2     -12.224   7.070  72.050  1.00  0.00    -0.282 C  
HETATM    9  N   UNL     2     -10.993   6.470  72.594  1.00  0.00    -0.245 N  
HETATM   10  C   UNL     2     -10.185   7.347  73.495  1.00  0.00    -0.349 C  
HETATM   11  C   UNL     2      -8.838   7.630  72.877  1.00  0.00    -0.160 C  
HETATM   12  O   UNL     2      -8.374   6.793  71.933  1.00  0.00    -0.109 OA 
HETATM   13  O   UNL     2      -8.177   8.593  73.225  1.00  0.00    -0.411 OA 
HETATM   14 FE   UNL     2      -9.762   5.780  71.224  1.00  0.00    -0.152 Fe 
HETATM   15  O   UNL     2      -8.992   4.469  72.272  1.00  0.00    -0.122 OA 
HETATM   16  O   UNL     2      -8.949   5.388  69.571  1.00  0.00    -0.103 OA 
HETATM   17  C   UNL     2      -9.631   5.647  68.453  1.00  0.00    -0.126 C  
HETATM   18  C   UNL     2      -9.861   4.362  73.316  1.00  0.00    -0.134 C  
HETATM   19  C   UNL     2     -11.190   5.148  73.255  1.00  0.00    -0.321 C  
HETATM   20  O   UNL     2      -9.573   3.690  74.293  1.00  0.00    -0.095 OA 
HETATM   21  O   UNL     2      -9.264   5.212  67.372  1.00  0.00    -0.113 OA 
HETATM   22  C   UNL     2     -10.891   6.394  68.607  1.00  0.00    -0.314 C  
ENDBRANCH   5   6
TORSDOF 1
ENDMDL
MODEL      120
REMARK 921   NORMALIZED FREE ENERGY PREDICTED BY IDOCK:   -3.28 KCAL/MOL
REMARK 922        TOTAL FREE ENERGY PREDICTED BY IDOCK:   -3.14 KCAL/MOL
REMARK 923 INTER-LIGAND FREE ENERGY PREDICTED BY IDOCK:   -3.56 KCAL/MOL
REMARK 924 INTRA-LIGAND FREE ENERGY PREDICTED BY IDOCK:    0.41 KCAL/MOL
REMARK 927      BINDING AFFINITY PREDICTED BY RF-SCORE:    0.00 PKD
ROOT
HETATM    1 NA   UNL     1     -10.566  11.905  66.414  1.00  0.00    -0.214 Na 
HETATM    2  O   UNL     2      -9.823   9.593  65.059  1.00  0.00    -0.268 OA 
HETATM    3  C   UNL     2      -9.365   9.155  66.248  1.00  0.00    -0.216 C  
HETATM    4  O   UNL     2      -8.604   9.862  66.881  1.00  0.00    -0.127 OA 
HETATM    5  C   UNL     2      -9.844   7.811  66.749  1.00  0.00    -0.241 C  
ENDROOT
BRANCH   5   6
HETATM    6  N   UNL     2      -9.296   7.306  68.058  1.00  0.00    -0.131 N  
HETATM    7  C   UNL     2      -7.825   7.411  68.064  1.00  0.00    -0.118 C  
HETATM    8  C   UNL     2      -7.265   6.450  67.028  1.00  0.00    -0.074 C  
HETATM    9  N   UNL     2      -8.003   5.183  67.175  1.00  0.00    -0.100 N  
HETATM   10  C   UNL     2      -8.457   4.543  65.903  1.00  0.00    -0.114 C  
HETATM   11  C   UNL     2      -9.965   4.505  65.848  1.00  0.00    -0.244 C  
HETATM   12  O   UNL     2     -10.654   4.599  66.997  1.00  0.00    -0.069 OA 
HETATM   13  O   UNL     2     -10.552   4.388  64.786  1.00  0.00    -0.164 OA 
HETATM   14 FE   UNL     2      -9.581   5.304  68.342  1.00  0.00    -0.108 Fe 
HETATM   15  O   UNL     2      -9.570   3.544  68.897  1.00  0.00    -0.165 OA 
HETATM   16  O   UNL     2     -10.969   5.973  69.426  1.00  0.00    -0.332 OA 
HETATM   17  C   UNL     2     -10.913   7.251  69.809  1.00  0.00    -0.216 C  
HETATM   18  C   UNL     2      -8.322   3.121  68.551  1.00  0.00    -0.073 C  
HETATM   19  C   UNL     2      -7.313   4.160  68.012  1.00  0.00    -0.064 C  
HETATM   20  O   UNL     2      -8.025   1.940  68.627  1.00  0.00    -0.052 OA 
HETATM   21  O   UNL     2     -11.645   7.682  70.687  1.00  0.00    -0.285 OA 
HETATM   22  C   UNL     2      -9.862   8.079  69.193  1.00  0.00    -0.178 C  
ENDBRANCH   5   6
TORSDOF 1
ENDMDL
MODEL      121
REMARK 921   NORMALIZED FREE ENERGY PREDICTED BY IDOCK:   -3.25 KCAL/MOL
REMARK 922        TOTAL FREE ENERGY PREDICTED BY IDOCK:   -3.11 KCAL/MOL
REMARK 923 INTER-LIGAND FREE ENERGY PREDICTED BY IDOCK:   -3.43 KCAL/MOL
REMARK 924 INTRA-LIGAND FREE ENERGY PREDICTED BY IDOCK:    0.32 KCAL/MOL
REMARK 927      BINDING AFFINITY PREDICTED BY RF-SCORE:    0.00 PKD
ROOT
HETATM    1 NA   UNL     1      -6.020   4.807  63.024  1.00  0.00    -0.014 Na 
HETATM    2  O   UNL     2      -7.427   6.939  64.125  1.00  0.00    -0.086 OA 
HETATM    3  C   UNL     2      -8.125   6.006  64.801  1.00  0.00    -0.132 C  
HETATM    4  O   UNL     2      -8.631   5.088  64.183  1.00  0.00    -0.139 OA 
HETATM    5  C   UNL     2      -8.225   6.135  66.304  1.00  0.00    -0.116 C  
ENDROOT
BRANCH   5   6
HETATM    6  N   UNL     2      -9.044   5.116  67.052  1.00  0.00    -0.112 N  
HETATM    7  C   UNL     2     -10.467   5.245  66.687  1.00  0.00    -0.290 C  
HETATM    8  C   UNL     2     -10.980   6.583  67.195  1.00  0.00    -0.408 C  
HETATM    9  N   UNL     2     -10.461   6.748  68.564  1.00  0.00    -0.190 N  
HETATM   10  C   UNL     2      -9.900   8.095  68.889  1.00  0.00    -0.176 C  
HETATM   11  C   UNL     2      -8.423   7.987  69.184  1.00  0.00    -0.136 C  
HETATM   12  O   UNL     2      -7.924   6.794  69.547  1.00  0.00    -0.119 OA 
HETATM   13  O   UNL     2      -7.693   8.960  69.100  1.00  0.00    -0.088 OA 
HETATM   14 FE   UNL     2      -9.092   5.429  69.068  1.00  0.00    -0.106 Fe 
HETATM   15  O   UNL     2      -9.439   5.445  70.882  1.00  0.00    -0.158 OA 
HETATM   16  O   UNL     2      -7.820   4.042  68.999  1.00  0.00    -0.057 OA 
HETATM   17  C   UNL     2      -7.758   3.294  67.894  1.00  0.00    -0.064 C  
HETATM   18  C   UNL     2     -10.661   6.044  70.953  1.00  0.00    -0.267 C  
HETATM   19  C   UNL     2     -11.414   6.349  69.639  1.00  0.00    -0.378 C  
HETATM   20  O   UNL     2     -11.129   6.368  72.033  1.00  0.00    -0.241 OA 
HETATM   21  O   UNL     2      -7.125   2.249  67.871  1.00  0.00    -0.046 OA 
HETATM   22  C   UNL     2      -8.568   3.742  66.749  1.00  0.00    -0.108 C  
ENDBRANCH   5   6
TORSDOF 1
ENDMDL
MODEL      122
REMARK 921   NORMALIZED FREE ENERGY PREDICTED BY IDOCK:   -3.23 KCAL/MOL
REMARK 922        TOTAL FREE ENERGY PREDICTED BY IDOCK:   -3.09 KCAL/MOL
REMARK 923 INTER-LIGAND FREE ENERGY PREDICTED BY IDOCK:   -3.46 KCAL/MOL
REMARK 924 INTRA-LIGAND FREE ENERGY PREDICTED BY IDOCK:    0.37 KCAL/MOL
REMARK 927      BINDING AFFINITY PREDICTED BY RF-SCORE:    0.00 PKD
ROOT
HETATM    1 NA   UNL     1     -14.125   9.555  71.198  1.00  0.00    -0.380 Na 
HETATM    2  O   UNL     2     -12.172   8.415  72.817  1.00  0.00    -0.339 OA 
HETATM    3  C   UNL     2     -11.895   7.622  71.763  1.00  0.00    -0.290 C  
HETATM    4  O   UNL     2     -12.802   7.008  71.235  1.00  0.00    -0.377 OA 
HETATM    5  C   UNL     2     -10.466   7.557  71.273  1.00  0.00    -0.207 C  
ENDROOT
BRANCH   5   6
HETATM    6  N   UNL     2     -10.152   6.636  70.123  1.00  0.00    -0.177 N  
HETATM    7  C   UNL     2     -10.643   5.276  70.416  1.00  0.00    -0.208 C  
HETATM    8  C   UNL     2      -9.843   4.710  71.578  1.00  0.00    -0.190 C  
HETATM    9  N   UNL     2      -8.430   5.041  71.326  1.00  0.00    -0.119 N  
HETATM   10  C   UNL     2      -7.665   5.563  72.499  1.00  0.00    -0.102 C  
HETATM   11  C   UNL     2      -7.227   6.985  72.244  1.00  0.00    -0.073 C  
HETATM   12  O   UNL     2      -7.160   7.421  70.975  1.00  0.00    -0.058 OA 
HETATM   13  O   UNL     2      -6.936   7.728  73.166  1.00  0.00    -0.072 OA 
HETATM   14 FE   UNL     2      -8.153   6.318  69.856  1.00  0.00    -0.097 Fe 
HETATM   15  O   UNL     2      -6.471   5.728  69.376  1.00  0.00    -0.038 OA 
HETATM   16  O   UNL     2      -8.454   7.576  68.488  1.00  0.00    -0.128 OA 
HETATM   17  C   UNL     2      -9.708   7.781  68.080  1.00  0.00    -0.154 C  
HETATM   18  C   UNL     2      -6.387   4.513  69.986  1.00  0.00    -0.027 C  
HETATM   19  C   UNL     2      -7.644   3.947  70.685  1.00  0.00    -0.044 C  
HETATM   20  O   UNL     2      -5.328   3.906  70.014  1.00  0.00    -0.007 OA 
HETATM   21  O   UNL     2      -9.949   8.403  67.056  1.00  0.00    -0.202 OA 
HETATM   22  C   UNL     2     -10.772   7.137  68.869  1.00  0.00    -0.175 C  
ENDBRANCH   5   6
TORSDOF 1
ENDMDL
MODEL      123
REMARK 921   NORMALIZED FREE ENERGY PREDICTED BY IDOCK:   -3.22 KCAL/MOL
REMARK 922        TOTAL FREE ENERGY PREDICTED BY IDOCK:   -3.08 KCAL/MOL
REMARK 923 INTER-LIGAND FREE ENERGY PREDICTED BY IDOCK:   -3.40 KCAL/MOL
REMARK 924 INTRA-LIGAND FREE ENERGY PREDICTED BY IDOCK:    0.32 KCAL/MOL
REMARK 927      BINDING AFFINITY PREDICTED BY RF-SCORE:    0.00 PKD
ROOT
HETATM    1 NA   UNL     1      -6.007   7.194  62.391  1.00  0.00    -0.039 Na 
HETATM    2  O   UNL     2      -6.410   6.908  65.127  1.00  0.00    -0.038 OA 
HETATM    3  C   UNL     2      -6.748   8.212  65.119  1.00  0.00    -0.052 C  
HETATM    4  O   UNL     2      -5.986   9.013  64.611  1.00  0.00    -0.064 OA 
HETATM    5  C   UNL     2      -8.075   8.612  65.722  1.00  0.00    -0.114 C  
ENDROOT
BRANCH   5   6
HETATM    6  N   UNL     2      -8.429  10.076  65.751  1.00  0.00    -0.134 N  
HETATM    7  C   UNL     2      -7.505  10.802  66.642  1.00  0.00    -0.135 C  
HETATM    8  C   UNL     2      -7.737  10.333  68.069  1.00  0.00    -0.089 C  
HETATM    9  N   UNL     2      -9.196  10.270  68.267  1.00  0.00    -0.136 N  
HETATM   10  C   UNL     2      -9.706   9.047  68.959  1.00  0.00    -0.167 C  
HETATM   11  C   UNL     2     -10.588   8.251  68.028  1.00  0.00    -0.127 C  
HETATM   12  O   UNL     2     -11.141   8.875  66.974  1.00  0.00     0.065 OA 
HETATM   13  O   UNL     2     -10.802   7.067  68.223  1.00  0.00    -0.198 OA 
HETATM   14 FE   UNL     2     -10.240  10.460  66.611  1.00  0.00    -0.176 Fe 
HETATM   15  O   UNL     2     -11.745  11.190  67.393  1.00  0.00    -0.564 OA 
HETATM   16  O   UNL     2     -10.723  10.598  64.796  1.00  0.00    -0.225 OA 
HETATM   17  C   UNL     2      -9.753  10.772  63.895  1.00  0.00    -0.313 C  
HETATM   18  C   UNL     2     -11.296  11.578  68.620  1.00  0.00    -0.269 C  
HETATM   19  C   UNL     2      -9.783  11.475  68.920  1.00  0.00    -0.054 C  
HETATM   20  O   UNL     2     -12.080  11.959  69.473  1.00  0.00    -0.282 OA 
HETATM   21  O   UNL     2     -10.008  11.095  62.744  1.00  0.00    -0.258 OA 
HETATM   22  C   UNL     2      -8.369  10.654  64.384  1.00  0.00    -0.032 C  
ENDBRANCH   5   6
TORSDOF 1
ENDMDL
MODEL      124
REMARK 921   NORMALIZED FREE ENERGY PREDICTED BY IDOCK:   -3.19 KCAL/MOL
REMARK 922        TOTAL FREE ENERGY PREDICTED BY IDOCK:   -3.05 KCAL/MOL
REMARK 923 INTER-LIGAND FREE ENERGY PREDICTED BY IDOCK:   -3.55 KCAL/MOL
REMARK 924 INTRA-LIGAND FREE ENERGY PREDICTED BY IDOCK:    0.50 KCAL/MOL
REMARK 927      BINDING AFFINITY PREDICTED BY RF-SCORE:    0.00 PKD
ROOT
HETATM    1 NA   UNL     1      -7.479  12.866  69.705  1.00  0.00    -0.317 Na 
HETATM    2  O   UNL     2      -6.666  10.412  68.680  1.00  0.00    -0.052 OA 
HETATM    3  C   UNL     2      -7.247   9.871  69.769  1.00  0.00    -0.118 C  
HETATM    4  O   UNL     2      -6.945  10.296  70.868  1.00  0.00    -0.321 OA 
HETATM    5  C   UNL     2      -8.267   8.774  69.566  1.00  0.00    -0.111 C  
ENDROOT
BRANCH   5   6
HETATM    6  N   UNL     2      -8.881   8.141  70.788  1.00  0.00    -0.137 N  
HETATM    7  C   UNL     2      -7.834   7.850  71.786  1.00  0.00    -0.099 C  
HETATM    8  C   UNL     2      -6.917   6.774  71.228  1.00  0.00    -0.074 C  
HETATM    9  N   UNL     2      -7.781   5.750  70.615  1.00  0.00    -0.091 N  
HETATM   10  C   UNL     2      -7.349   5.253  69.272  1.00  0.00    -0.058 C  
HETATM   11  C   UNL     2      -8.375   5.618  68.227  1.00  0.00    -0.102 C  
HETATM   12  O   UNL     2      -9.629   5.894  68.623  1.00  0.00    -0.119 OA 
HETATM   13  O   UNL     2      -8.079   5.662  67.045  1.00  0.00    -0.102 OA 
HETATM   14 FE   UNL     2      -9.664   6.288  70.439  1.00  0.00    -0.152 Fe 
HETATM   15  O   UNL     2     -10.380   4.589  70.528  1.00  0.00    -0.152 OA 
HETATM   16  O   UNL     2     -11.250   7.304  70.431  1.00  0.00    -0.269 OA 
HETATM   17  C   UNL     2     -11.226   8.520  70.980  1.00  0.00    -0.268 C  
HETATM   18  C   UNL     2      -9.350   3.848  71.026  1.00  0.00    -0.152 C  
HETATM   19  C   UNL     2      -8.071   4.580  71.493  1.00  0.00    -0.100 C  
HETATM   20  O   UNL     2      -9.424   2.631  71.062  1.00  0.00    -0.136 OA 
HETATM   21  O   UNL     2     -12.258   9.132  71.212  1.00  0.00    -0.307 OA 
HETATM   22  C   UNL     2      -9.906   9.038  71.380  1.00  0.00    -0.311 C  
ENDBRANCH   5   6
TORSDOF 1
ENDMDL
MODEL      125
REMARK 921   NORMALIZED FREE ENERGY PREDICTED BY IDOCK:   -3.18 KCAL/MOL
REMARK 922        TOTAL FREE ENERGY PREDICTED BY IDOCK:   -3.04 KCAL/MOL
REMARK 923 INTER-LIGAND FREE ENERGY PREDICTED BY IDOCK:   -4.25 KCAL/MOL
REMARK 924 INTRA-LIGAND FREE ENERGY PREDICTED BY IDOCK:    1.21 KCAL/MOL
REMARK 927      BINDING AFFINITY PREDICTED BY RF-SCORE:    0.00 PKD
ROOT
HETATM    1 NA   UNL     1     -12.477   8.081  72.908  1.00  0.00    -0.419 Na 
HETATM    2  O   UNL     2     -12.157  10.343  71.322  1.00  0.00    -0.360 OA 
HETATM    3  C   UNL     2     -10.976   9.805  70.959  1.00  0.00    -0.332 C  
HETATM    4  O   UNL     2     -10.200   9.453  71.827  1.00  0.00    -0.228 OA 
HETATM    5  C   UNL     2     -10.685   9.646  69.484  1.00  0.00    -0.232 C  
ENDROOT
BRANCH   5   6
HETATM    6  N   UNL     2      -9.346   9.087  69.081  1.00  0.00    -0.147 N  
HETATM    7  C   UNL     2      -9.344   8.764  67.642  1.00  0.00    -0.137 C  
HETATM    8  C   UNL     2     -10.316   7.620  67.400  1.00  0.00    -0.277 C  
HETATM    9  N   UNL     2     -10.087   6.631  68.468  1.00  0.00    -0.153 N  
HETATM   10  C   UNL     2     -11.315   6.070  69.109  1.00  0.00    -0.126 C  
HETATM   11  C   UNL     2     -11.369   6.464  70.565  1.00  0.00    -0.375 C  
HETATM   12  O   UNL     2     -10.229   6.825  71.178  1.00  0.00    -0.193 OA 
HETATM   13  O   UNL     2     -12.422   6.455  71.180  1.00  0.00    -0.160 OA 
HETATM   14 FE   UNL     2      -8.932   7.275  69.924  1.00  0.00    -0.132 Fe 
HETATM   15  O   UNL     2      -8.263   5.624  70.410  1.00  0.00    -0.102 OA 
HETATM   16  O   UNL     2      -7.896   8.381  71.041  1.00  0.00    -0.082 OA 
HETATM   17  C   UNL     2      -7.596   9.610  70.614  1.00  0.00    -0.078 C  
HETATM   18  C   UNL     2      -8.580   4.839  69.342  1.00  0.00    -0.082 C  
HETATM   19  C   UNL     2      -9.184   5.507  68.086  1.00  0.00    -0.109 C  
HETATM   20  O   UNL     2      -8.426   3.629  69.396  1.00  0.00    -0.062 OA 
HETATM   21  O   UNL     2      -6.749  10.288  71.176  1.00  0.00    -0.312 OA 
HETATM   22  C   UNL     2      -8.264  10.060  69.381  1.00  0.00    -0.155 C  
ENDBRANCH   5   6
TORSDOF 1
ENDMDL
MODEL      126
REMARK 921   NORMALIZED FREE ENERGY PREDICTED BY IDOCK:   -3.18 KCAL/MOL
REMARK 922        TOTAL FREE ENERGY PREDICTED BY IDOCK:   -3.03 KCAL/MOL
REMARK 923 INTER-LIGAND FREE ENERGY PREDICTED BY IDOCK:   -3.35 KCAL/MOL
REMARK 924 INTRA-LIGAND FREE ENERGY PREDICTED BY IDOCK:    0.31 KCAL/MOL
REMARK 927      BINDING AFFINITY PREDICTED BY RF-SCORE:    0.00 PKD
ROOT
HETATM    1 NA   UNL     1      -6.077   9.453  63.646  1.00  0.00    -0.080 Na 
HETATM    2  O   UNL     2      -7.327  10.526  65.886  1.00  0.00    -0.137 OA 
HETATM    3  C   UNL     2      -8.062   9.396  65.901  1.00  0.00    -0.114 C  
HETATM    4  O   UNL     2      -8.636   9.056  64.884  1.00  0.00    -0.169 OA 
HETATM    5  C   UNL     2      -8.116   8.593  67.180  1.00  0.00    -0.100 C  
ENDROOT
BRANCH   5   6
HETATM    6  N   UNL     2      -8.974   7.355  67.206  1.00  0.00    -0.123 N  
HETATM    7  C   UNL     2     -10.386   7.714  66.975  1.00  0.00    -0.330 C  
HETATM    8  C   UNL     2     -10.877   8.535  68.157  1.00  0.00     0.066 C  
HETATM    9  N   UNL     2     -10.383   7.871  69.375  1.00  0.00    -0.217 N  
HETATM   10  C   UNL     2      -9.798   8.770  70.415  1.00  0.00    -0.182 C  
HETATM   11  C   UNL     2      -8.331   8.467  70.601  1.00  0.00    -0.133 C  
HETATM   12  O   UNL     2      -7.867   7.266  70.216  1.00  0.00    -0.093 OA 
HETATM   13  O   UNL     2      -7.576   9.290  71.092  1.00  0.00    -0.261 OA 
HETATM   14 FE   UNL     2      -9.056   6.458  69.038  1.00  0.00    -0.124 Fe 
HETATM   15  O   UNL     2      -9.442   5.444  70.532  1.00  0.00    -0.154 OA 
HETATM   16  O   UNL     2      -7.816   5.322  68.191  1.00  0.00    -0.087 OA 
HETATM   17  C   UNL     2      -7.749   5.340  66.857  1.00  0.00    -0.096 C  
HETATM   18  C   UNL     2     -10.650   5.932  70.930  1.00  0.00    -0.256 C  
HETATM   19  C   UNL     2     -11.368   6.958  70.024  1.00  0.00    -0.294 C  
HETATM   20  O   UNL     2     -11.133   5.593  71.998  1.00  0.00    -0.254 OA 
HETATM   21  O   UNL     2      -7.141   4.478  66.242  1.00  0.00    -0.071 OA 
HETATM   22  C   UNL     2      -8.524   6.388  66.172  1.00  0.00    -0.140 C  
ENDBRANCH   5   6
TORSDOF 1
ENDMDL
MODEL      127
REMARK 921   NORMALIZED FREE ENERGY PREDICTED BY IDOCK:   -3.17 KCAL/MOL
REMARK 922        TOTAL FREE ENERGY PREDICTED BY IDOCK:   -3.03 KCAL/MOL
REMARK 923 INTER-LIGAND FREE ENERGY PREDICTED BY IDOCK:   -4.12 KCAL/MOL
REMARK 924 INTRA-LIGAND FREE ENERGY PREDICTED BY IDOCK:    1.09 KCAL/MOL
REMARK 927      BINDING AFFINITY PREDICTED BY RF-SCORE:    0.00 PKD
ROOT
HETATM    1 NA   UNL     1     -12.391   6.855  73.034  1.00  0.00    -0.482 Na 
HETATM    2  O   UNL     2      -9.935   5.697  73.636  1.00  0.00    -0.164 OA 
HETATM    3  C   UNL     2      -9.748   5.627  72.303  1.00  0.00    -0.155 C  
HETATM    4  O   UNL     2     -10.607   5.110  71.615  1.00  0.00    -0.212 OA 
HETATM    5  C   UNL     2      -8.483   6.221  71.726  1.00  0.00    -0.129 C  
ENDROOT
BRANCH   5   6
HETATM    6  N   UNL     2      -8.255   6.102  70.242  1.00  0.00    -0.122 N  
HETATM    7  C   UNL     2      -7.050   6.858  69.852  1.00  0.00    -0.071 C  
HETATM    8  C   UNL     2      -7.314   8.339  70.073  1.00  0.00    -0.063 C  
HETATM    9  N   UNL     2      -8.665   8.615  69.554  1.00  0.00    -0.137 N  
HETATM   10  C   UNL     2      -9.534   9.465  70.424  1.00  0.00    -0.268 C  
HETATM   11  C   UNL     2     -10.730   8.675  70.897  1.00  0.00    -0.219 C  
HETATM   12  O   UNL     2     -11.099   7.587  70.201  1.00  0.00    -0.260 OA 
HETATM   13  O   UNL     2     -11.355   9.014  71.887  1.00  0.00    -0.349 OA 
HETATM   14 FE   UNL     2      -9.704   7.003  69.120  1.00  0.00    -0.149 Fe 
HETATM   15  O   UNL     2     -10.748   7.770  67.805  1.00  0.00    -0.206 OA 
HETATM   16  O   UNL     2     -10.259   5.210  68.964  1.00  0.00    -0.202 OA 
HETATM   17  C   UNL     2      -9.380   4.247  69.253  1.00  0.00    -0.162 C  
HETATM   18  C   UNL     2     -10.078   8.921  67.516  1.00  0.00    -0.227 C  
HETATM   19  C   UNL     2      -8.695   9.155  68.165  1.00  0.00    -0.129 C  
HETATM   20  O   UNL     2     -10.581   9.765  66.791  1.00  0.00    -0.206 OA 
HETATM   21  O   UNL     2      -9.597   3.082  68.957  1.00  0.00    -0.147 OA 
HETATM   22  C   UNL     2      -8.105   4.677  69.851  1.00  0.00    -0.068 C  
ENDBRANCH   5   6
TORSDOF 1
ENDMDL
MODEL      128
REMARK 921   NORMALIZED FREE ENERGY PREDICTED BY IDOCK:   -3.15 KCAL/MOL
REMARK 922        TOTAL FREE ENERGY PREDICTED BY IDOCK:   -3.01 KCAL/MOL
REMARK 923 INTER-LIGAND FREE ENERGY PREDICTED BY IDOCK:   -3.44 KCAL/MOL
REMARK 924 INTRA-LIGAND FREE ENERGY PREDICTED BY IDOCK:    0.44 KCAL/MOL
REMARK 927      BINDING AFFINITY PREDICTED BY RF-SCORE:    0.00 PKD
ROOT
HETATM    1 NA   UNL     1     -10.733   7.269  74.250  1.00  0.00    -0.358 Na 
HETATM    2  O   UNL     2     -11.297   8.789  71.991  1.00  0.00    -0.339 OA 
HETATM    3  C   UNL     2      -9.993   8.642  71.682  1.00  0.00    -0.282 C  
HETATM    4  O   UNL     2      -9.157   8.928  72.518  1.00  0.00    -0.349 OA 
HETATM    5  C   UNL     2      -9.637   8.104  70.315  1.00  0.00    -0.171 C  
ENDROOT
BRANCH   5   6
HETATM    6  N   UNL     2      -8.179   7.984  69.958  1.00  0.00    -0.116 N  
HETATM    7  C   UNL     2      -7.648   9.299  69.549  1.00  0.00    -0.081 C  
HETATM    8  C   UNL     2      -8.320   9.711  68.249  1.00  0.00    -0.117 C  
HETATM    9  N   UNL     2      -8.336   8.521  67.380  1.00  0.00    -0.119 N  
HETATM   10  C   UNL     2      -9.623   8.253  66.668  1.00  0.00    -0.233 C  
HETATM   11  C   UNL     2     -10.218   6.948  67.139  1.00  0.00    -0.240 C  
HETATM   12  O   UNL     2      -9.410   6.044  67.719  1.00  0.00    -0.109 OA 
HETATM   13  O   UNL     2     -11.405   6.712  66.997  1.00  0.00    -0.348 OA 
HETATM   14 FE   UNL     2      -7.838   6.852  68.294  1.00  0.00    -0.095 Fe 
HETATM   15  O   UNL     2      -7.160   5.991  66.808  1.00  0.00    -0.066 OA 
HETATM   16  O   UNL     2      -7.397   5.593  69.623  1.00  0.00    -0.063 OA 
HETATM   17  C   UNL     2      -7.137   6.037  70.855  1.00  0.00    -0.069 C  
HETATM   18  C   UNL     2      -6.990   7.007  65.916  1.00  0.00    -0.064 C  
HETATM   19  C   UNL     2      -7.217   8.458  66.397  1.00  0.00    -0.072 C  
HETATM   20  O   UNL     2      -6.704   6.769  64.754  1.00  0.00    -0.041 OA 
HETATM   21  O   UNL     2      -6.627   5.312  71.696  1.00  0.00    -0.037 OA 
HETATM   22  C   UNL     2      -7.401   7.463  71.111  1.00  0.00    -0.072 C  
ENDBRANCH   5   6
TORSDOF 1
ENDMDL
MODEL      129
REMARK 921   NORMALIZED FREE ENERGY PREDICTED BY IDOCK:   -3.15 KCAL/MOL
REMARK 922        TOTAL FREE ENERGY PREDICTED BY IDOCK:   -3.00 KCAL/MOL
REMARK 923 INTER-LIGAND FREE ENERGY PREDICTED BY IDOCK:   -3.34 KCAL/MOL
REMARK 924 INTRA-LIGAND FREE ENERGY PREDICTED BY IDOCK:    0.33 KCAL/MOL
REMARK 927      BINDING AFFINITY PREDICTED BY RF-SCORE:    0.00 PKD
ROOT
HETATM    1 NA   UNL     1      -6.831   7.492  73.102  1.00  0.00    -0.061 Na 
HETATM    2  O   UNL     2      -5.899   7.070  70.516  1.00  0.00    -0.024 OA 
HETATM    3  C   UNL     2      -6.895   6.168  70.405  1.00  0.00    -0.054 C  
HETATM    4  O   UNL     2      -7.000   5.303  71.254  1.00  0.00    -0.050 OA 
HETATM    5  C   UNL     2      -7.849   6.295  69.240  1.00  0.00    -0.105 C  
ENDROOT
BRANCH   5   6
HETATM    6  N   UNL     2      -8.933   5.259  69.094  1.00  0.00    -0.102 N  
HETATM    7  C   UNL     2      -8.338   3.912  69.015  1.00  0.00    -0.072 C  
HETATM    8  C   UNL     2      -7.545   3.808  67.722  1.00  0.00    -0.067 C  
HETATM    9  N   UNL     2      -8.373   4.408  66.662  1.00  0.00    -0.105 N  
HETATM   10  C   UNL     2      -7.662   5.330  65.724  1.00  0.00    -0.091 C  
HETATM   11  C   UNL     2      -8.207   6.731  65.857  1.00  0.00    -0.132 C  
HETATM   12  O   UNL     2      -9.433   6.899  66.382  1.00  0.00    -0.171 OA 
HETATM   13  O   UNL     2      -7.556   7.696  65.494  1.00  0.00    -0.083 OA 
HETATM   14 FE   UNL     2      -9.947   5.383  67.327  1.00  0.00    -0.121 Fe 
HETATM   15  O   UNL     2     -11.001   5.128  65.833  1.00  0.00    -0.170 OA 
HETATM   16  O   UNL     2     -11.195   6.222  68.461  1.00  0.00    -0.352 OA 
HETATM   17  C   UNL     2     -11.083   6.030  69.777  1.00  0.00    -0.406 C  
HETATM   18  C   UNL     2     -10.361   4.121  65.175  1.00  0.00    -0.181 C  
HETATM   19  C   UNL     2      -9.166   3.428  65.866  1.00  0.00    -0.156 C  
HETATM   20  O   UNL     2     -10.702   3.806  64.046  1.00  0.00    -0.277 OA 
HETATM   21  O   UNL     2     -11.980   6.351  70.543  1.00  0.00    -0.341 OA 
HETATM   22  C   UNL     2      -9.875   5.327  70.241  1.00  0.00    -0.215 C  
ENDBRANCH   5   6
TORSDOF 1
ENDMDL
MODEL      130
REMARK 921   NORMALIZED FREE ENERGY PREDICTED BY IDOCK:   -3.11 KCAL/MOL
REMARK 922        TOTAL FREE ENERGY PREDICTED BY IDOCK:   -2.96 KCAL/MOL
REMARK 923 INTER-LIGAND FREE ENERGY PREDICTED BY IDOCK:   -3.29 KCAL/MOL
REMARK 924 INTRA-LIGAND FREE ENERGY PREDICTED BY IDOCK:    0.33 KCAL/MOL
REMARK 927      BINDING AFFINITY PREDICTED BY RF-SCORE:    0.00 PKD
ROOT
HETATM    1 NA   UNL     1     -10.693   7.466  74.483  1.00  0.00    -0.348 Na 
HETATM    2  O   UNL     2     -11.043   5.562  72.486  1.00  0.00    -0.247 OA 
HETATM    3  C   UNL     2     -10.766   6.556  71.620  1.00  0.00    -0.230 C  
HETATM    4  O   UNL     2     -11.391   7.597  71.702  1.00  0.00    -0.244 OA 
HETATM    5  C   UNL     2      -9.671   6.335  70.602  1.00  0.00    -0.176 C  
ENDROOT
BRANCH   5   6
HETATM    6  N   UNL     2      -9.395   7.431  69.607  1.00  0.00    -0.150 N  
HETATM    7  C   UNL     2     -10.532   7.568  68.677  1.00  0.00    -0.183 C  
HETATM    8  C   UNL     2     -10.621   6.308  67.831  1.00  0.00    -0.262 C  
HETATM    9  N   UNL     2      -9.248   5.975  67.412  1.00  0.00    -0.110 N  
HETATM   10  C   UNL     2      -8.864   4.536  67.530  1.00  0.00    -0.107 C  
HETATM   11  C   UNL     2      -7.755   4.373  68.542  1.00  0.00    -0.074 C  
HETATM   12  O   UNL     2      -6.997   5.441  68.844  1.00  0.00    -0.053 OA 
HETATM   13  O   UNL     2      -7.544   3.298  69.075  1.00  0.00    -0.049 OA 
HETATM   14 FE   UNL     2      -7.854   7.010  68.336  1.00  0.00    -0.098 Fe 
HETATM   15  O   UNL     2      -6.606   6.944  66.977  1.00  0.00    -0.044 OA 
HETATM   16  O   UNL     2      -6.966   8.163  69.531  1.00  0.00    -0.048 OA 
HETATM   17  C   UNL     2      -7.703   8.955  70.314  1.00  0.00    -0.090 C  
HETATM   18  C   UNL     2      -7.346   6.558  65.900  1.00  0.00    -0.079 C  
HETATM   19  C   UNL     2      -8.881   6.465  66.053  1.00  0.00    -0.150 C  
HETATM   20  O   UNL     2      -6.800   6.254  64.852  1.00  0.00    -0.048 OA 
HETATM   21  O   UNL     2      -7.200   9.877  70.937  1.00  0.00    -0.330 OA 
HETATM   22  C   UNL     2      -9.157   8.721  70.305  1.00  0.00    -0.170 C  
ENDBRANCH   5   6
TORSDOF 1
ENDMDL
MODEL      131
REMARK 921   NORMALIZED FREE ENERGY PREDICTED BY IDOCK:   -3.10 KCAL/MOL
REMARK 922        TOTAL FREE ENERGY PREDICTED BY IDOCK:   -2.95 KCAL/MOL
REMARK 923 INTER-LIGAND FREE ENERGY PREDICTED BY IDOCK:   -4.05 KCAL/MOL
REMARK 924 INTRA-LIGAND FREE ENERGY PREDICTED BY IDOCK:    1.09 KCAL/MOL
REMARK 927      BINDING AFFINITY PREDICTED BY RF-SCORE:    0.00 PKD
ROOT
HETATM    1 NA   UNL     1      -5.988   7.097  73.125  1.00  0.00    -0.050 Na 
HETATM    2  O   UNL     2      -5.791   5.999  70.577  1.00  0.00    -0.020 OA 
HETATM    3  C   UNL     2      -7.099   5.701  70.707  1.00  0.00    -0.069 C  
HETATM    4  O   UNL     2      -7.468   5.095  71.696  1.00  0.00    -0.089 OA 
HETATM    5  C   UNL     2      -8.048   6.158  69.623  1.00  0.00    -0.112 C  
ENDROOT
BRANCH   5   6
HETATM    6  N   UNL     2      -9.502   5.784  69.750  1.00  0.00    -0.145 N  
HETATM    7  C   UNL     2     -10.289   6.452  68.696  1.00  0.00    -0.199 C  
HETATM    8  C   UNL     2     -10.265   7.951  68.948  1.00  0.00    -0.205 C  
HETATM    9  N   UNL     2     -10.485   8.146  70.391  1.00  0.00    -0.211 N  
HETATM   10  C   UNL     2      -9.590   9.140  71.058  1.00  0.00    -0.280 C  
HETATM   11  C   UNL     2      -8.719   8.453  72.082  1.00  0.00    -0.205 C  
HETATM   12  O   UNL     2      -9.113   7.264  72.569  1.00  0.00    -0.131 OA 
HETATM   13  O   UNL     2      -7.680   8.962  72.466  1.00  0.00    -0.362 OA 
HETATM   14 FE   UNL     2     -10.381   6.492  71.450  1.00  0.00    -0.191 Fe 
HETATM   15  O   UNL     2     -11.520   7.031  72.800  1.00  0.00    -0.250 OA 
HETATM   16  O   UNL     2     -10.096   4.704  71.968  1.00  0.00    -0.185 OA 
HETATM   17  C   UNL     2      -9.867   3.797  71.015  1.00  0.00    -0.134 C  
HETATM   18  C   UNL     2     -12.150   8.110  72.255  1.00  0.00    -0.364 C  
HETATM   19  C   UNL     2     -11.898   8.440  70.767  1.00  0.00    -0.163 C  
HETATM   20  O   UNL     2     -12.865   8.821  72.943  1.00  0.00    -0.313 OA 
HETATM   21  O   UNL     2      -9.902   2.600  71.257  1.00  0.00    -0.154 OA 
HETATM   22  C   UNL     2      -9.672   4.311  69.649  1.00  0.00    -0.214 C  
ENDBRANCH   5   6
TORSDOF 1
ENDMDL
MODEL      132
REMARK 921   NORMALIZED FREE ENERGY PREDICTED BY IDOCK:   -3.10 KCAL/MOL
REMARK 922        TOTAL FREE ENERGY PREDICTED BY IDOCK:   -2.95 KCAL/MOL
REMARK 923 INTER-LIGAND FREE ENERGY PREDICTED BY IDOCK:   -3.31 KCAL/MOL
REMARK 924 INTRA-LIGAND FREE ENERGY PREDICTED BY IDOCK:    0.36 KCAL/MOL
REMARK 927      BINDING AFFINITY PREDICTED BY RF-SCORE:    0.00 PKD
ROOT
HETATM    1 NA   UNL     1     -11.623   9.199  71.893  1.00  0.00    -0.256 Na 
HETATM    2  O   UNL     2      -9.964   7.060  71.255  1.00  0.00    -0.189 OA 
HETATM    3  C   UNL     2     -10.447   7.181  70.002  1.00  0.00    -0.221 C  
HETATM    4  O   UNL     2     -11.652   7.196  69.837  1.00  0.00    -0.171 OA 
HETATM    5  C   UNL     2      -9.461   7.317  68.864  1.00  0.00    -0.143 C  
ENDROOT
BRANCH   5   6
HETATM    6  N   UNL     2     -10.004   7.406  67.462  1.00  0.00    -0.160 N  
HETATM    7  C   UNL     2     -10.899   6.266  67.193  1.00  0.00    -0.381 C  
HETATM    8  C   UNL     2     -10.074   4.989  67.194  1.00  0.00    -0.199 C  
HETATM    9  N   UNL     2      -8.846   5.273  66.431  1.00  0.00    -0.120 N  
HETATM   10  C   UNL     2      -7.573   4.781  67.040  1.00  0.00    -0.087 C  
HETATM   11  C   UNL     2      -6.681   5.946  67.396  1.00  0.00    -0.058 C  
HETATM   12  O   UNL     2      -6.882   7.123  66.780  1.00  0.00    -0.064 OA 
HETATM   13  O   UNL     2      -5.794   5.828  68.224  1.00  0.00    -0.014 OA 
HETATM   14 FE   UNL     2      -8.577   7.178  66.020  1.00  0.00    -0.107 Fe 
HETATM   15  O   UNL     2      -7.606   6.926  64.470  1.00  0.00    -0.092 OA 
HETATM   16  O   UNL     2      -8.760   9.051  65.982  1.00  0.00    -0.142 OA 
HETATM   17  C   UNL     2      -9.855   9.592  66.522  1.00  0.00    -0.240 C  
HETATM   18  C   UNL     2      -7.851   5.620  64.165  1.00  0.00    -0.112 C  
HETATM   19  C   UNL     2      -8.894   4.847  65.002  1.00  0.00    -0.154 C  
HETATM   20  O   UNL     2      -7.227   5.066  63.274  1.00  0.00    -0.046 OA 
HETATM   21  O   UNL     2     -10.144  10.764  66.331  1.00  0.00    -0.212 OA 
HETATM   22  C   UNL     2     -10.740   8.682  67.269  1.00  0.00    -0.139 C  
ENDBRANCH   5   6
TORSDOF 1
ENDMDL
MODEL      133
REMARK 921   NORMALIZED FREE ENERGY PREDICTED BY IDOCK:   -3.09 KCAL/MOL
REMARK 922        TOTAL FREE ENERGY PREDICTED BY IDOCK:   -2.94 KCAL/MOL
REMARK 923 INTER-LIGAND FREE ENERGY PREDICTED BY IDOCK:   -4.31 KCAL/MOL
REMARK 924 INTRA-LIGAND FREE ENERGY PREDICTED BY IDOCK:    1.37 KCAL/MOL
REMARK 927      BINDING AFFINITY PREDICTED BY RF-SCORE:    0.00 PKD
ROOT
HETATM    1 NA   UNL     1      -5.479  10.783  68.873  1.00  0.00    -0.042 Na 
HETATM    2  O   UNL     2      -5.832   9.965  66.238  1.00  0.00    -0.055 OA 
HETATM    3  C   UNL     2      -7.137   9.840  66.551  1.00  0.00    -0.090 C  
HETATM    4  O   UNL     2      -7.447   9.184  67.527  1.00  0.00    -0.087 OA 
HETATM    5  C   UNL     2      -8.153  10.547  65.682  1.00  0.00    -0.161 C  
ENDROOT
BRANCH   5   6
HETATM    6  N   UNL     2      -9.613  10.368  66.008  1.00  0.00    -0.190 N  
HETATM    7  C   UNL     2     -10.445  10.954  64.940  1.00  0.00    -0.282 C  
HETATM    8  C   UNL     2     -10.243  12.461  64.939  1.00  0.00    -0.278 C  
HETATM    9  N   UNL     2     -10.277  12.898  66.345  1.00  0.00    -0.261 N  
HETATM   10  C   UNL     2      -9.217  13.871  66.749  1.00  0.00    -0.254 C  
HETATM   11  C   UNL     2      -8.307  13.252  67.783  1.00  0.00    -0.171 C  
HETATM   12  O   UNL     2      -8.759  12.206  68.495  1.00  0.00    -0.157 OA 
HETATM   13  O   UNL     2      -7.186  13.690  67.976  1.00  0.00    -0.098 OA 
HETATM   14 FE   UNL     2     -10.217  11.424  67.646  1.00  0.00    -0.168 Fe 
HETATM   15  O   UNL     2     -11.135  12.293  68.993  1.00  0.00    -0.238 OA 
HETATM   16  O   UNL     2     -10.054   9.715  68.421  1.00  0.00    -0.163 OA 
HETATM   17  C   UNL     2     -10.026   8.654  67.612  1.00  0.00    -0.194 C  
HETATM   18  C   UNL     2     -11.713  13.341  68.342  1.00  0.00    -0.354 C  
HETATM   19  C   UNL     2     -11.601  13.408  66.802  1.00  0.00    -0.365 C  
HETATM   20  O   UNL     2     -12.271  14.227  68.970  1.00  0.00    -0.311 OA 
HETATM   21  O   UNL     2     -10.152   7.520  68.049  1.00  0.00    -0.168 OA 
HETATM   22  C   UNL     2      -9.938   8.927  66.167  1.00  0.00    -0.220 C  
ENDBRANCH   5   6
TORSDOF 1
ENDMDL
MODEL      134
REMARK 921   NORMALIZED FREE ENERGY PREDICTED BY IDOCK:   -3.08 KCAL/MOL
REMARK 922        TOTAL FREE ENERGY PREDICTED BY IDOCK:   -2.93 KCAL/MOL
REMARK 923 INTER-LIGAND FREE ENERGY PREDICTED BY IDOCK:   -4.15 KCAL/MOL
REMARK 924 INTRA-LIGAND FREE ENERGY PREDICTED BY IDOCK:    1.21 KCAL/MOL
REMARK 927      BINDING AFFINITY PREDICTED BY RF-SCORE:    0.00 PKD
ROOT
HETATM    1 NA   UNL     1     -11.482   8.909  70.499  1.00  0.00    -0.239 Na 
HETATM    2  O   UNL     2      -8.853   9.526  71.161  1.00  0.00    -0.249 OA 
HETATM    3  C   UNL     2      -8.617   9.522  69.834  1.00  0.00    -0.204 C  
HETATM    4  O   UNL     2      -8.958   8.555  69.180  1.00  0.00    -0.144 OA 
HETATM    5  C   UNL     2      -7.960  10.738  69.220  1.00  0.00    -0.106 C  
ENDROOT
BRANCH   5   6
HETATM    6  N   UNL     2      -7.658  10.711  67.744  1.00  0.00    -0.095 N  
HETATM    7  C   UNL     2      -7.269  12.057  67.284  1.00  0.00    -0.150 C  
HETATM    8  C   UNL     2      -8.472  12.978  67.403  1.00  0.00    -0.200 C  
HETATM    9  N   UNL     2      -9.634  12.233  66.887  1.00  0.00    -0.207 N  
HETATM   10  C   UNL     2     -10.880  12.321  67.707  1.00  0.00    -0.221 C  
HETATM   11  C   UNL     2     -11.243  10.962  68.253  1.00  0.00    -0.286 C  
HETATM   12  O   UNL     2     -10.752   9.870  67.642  1.00  0.00    -0.254 OA 
HETATM   13  O   UNL     2     -11.968  10.849  69.227  1.00  0.00    -0.321 OA 
HETATM   14 FE   UNL     2      -9.291  10.320  66.584  1.00  0.00    -0.144 Fe 
HETATM   15  O   UNL     2     -10.530  10.093  65.234  1.00  0.00    -0.193 OA 
HETATM   16  O   UNL     2      -8.481   8.620  66.564  1.00  0.00    -0.109 OA 
HETATM   17  C   UNL     2      -7.194   8.528  66.907  1.00  0.00    -0.075 C  
HETATM   18  C   UNL     2     -10.805  11.372  64.854  1.00  0.00    -0.257 C  
HETATM   19  C   UNL     2      -9.971  12.521  65.463  1.00  0.00    -0.234 C  
HETATM   20  O   UNL     2     -11.720  11.604  64.079  1.00  0.00    -0.340 OA 
HETATM   21  O   UNL     2      -6.554   7.508  66.698  1.00  0.00    -0.051 OA 
HETATM   22  C   UNL     2      -6.568   9.744  67.453  1.00  0.00    -0.070 C  
ENDBRANCH   5   6
TORSDOF 1
ENDMDL
MODEL      135
REMARK 921   NORMALIZED FREE ENERGY PREDICTED BY IDOCK:   -3.04 KCAL/MOL
REMARK 922        TOTAL FREE ENERGY PREDICTED BY IDOCK:   -2.89 KCAL/MOL
REMARK 923 INTER-LIGAND FREE ENERGY PREDICTED BY IDOCK:   -3.30 KCAL/MOL
REMARK 924 INTRA-LIGAND FREE ENERGY PREDICTED BY IDOCK:    0.42 KCAL/MOL
REMARK 927      BINDING AFFINITY PREDICTED BY RF-SCORE:    0.00 PKD
ROOT
HETATM    1 NA   UNL     1     -11.828   9.624  67.962  1.00  0.00    -0.531 Na 
HETATM    2  O   UNL     2      -9.676   7.934  67.470  1.00  0.00    -0.146 OA 
HETATM    3  C   UNL     2      -9.431   8.015  68.793  1.00  0.00    -0.147 C  
HETATM    4  O   UNL     2      -9.345   9.114  69.308  1.00  0.00    -0.152 OA 
HETATM    5  C   UNL     2      -9.299   6.730  69.577  1.00  0.00    -0.146 C  
ENDROOT
BRANCH   5   6
HETATM    6  N   UNL     2      -8.981   6.824  71.047  1.00  0.00    -0.145 N  
HETATM    7  C   UNL     2      -7.545   7.101  71.236  1.00  0.00    -0.081 C  
HETATM    8  C   UNL     2      -6.751   5.896  70.758  1.00  0.00    -0.053 C  
HETATM    9  N   UNL     2      -7.437   4.699  71.276  1.00  0.00    -0.073 N  
HETATM   10  C   UNL     2      -7.610   3.577  70.304  1.00  0.00    -0.044 C  
HETATM   11  C   UNL     2      -9.077   3.338  70.038  1.00  0.00    -0.127 C  
HETATM   12  O   UNL     2      -9.973   3.775  70.938  1.00  0.00    -0.168 OA 
HETATM   13  O   UNL     2      -9.447   2.760  69.031  1.00  0.00    -0.161 OA 
HETATM   14 FE   UNL     2      -9.211   5.059  72.045  1.00  0.00    -0.124 Fe 
HETATM   15  O   UNL     2      -9.213   3.652  73.242  1.00  0.00    -0.101 OA 
HETATM   16  O   UNL     2     -10.809   5.914  72.554  1.00  0.00    -0.219 OA 
HETATM   17  C   UNL     2     -10.893   7.238  72.409  1.00  0.00    -0.255 C  
HETATM   18  C   UNL     2      -7.901   3.285  73.284  1.00  0.00    -0.069 C  
HETATM   19  C   UNL     2      -6.864   4.158  72.542  1.00  0.00    -0.050 C  
HETATM   20  O   UNL     2      -7.563   2.264  73.862  1.00  0.00    -0.039 OA 
HETATM   21  O   UNL     2     -11.799   7.877  72.924  1.00  0.00    -0.307 OA 
HETATM   22  C   UNL     2      -9.790   7.894  71.687  1.00  0.00    -0.167 C  
ENDBRANCH   5   6
TORSDOF 1
ENDMDL
MODEL      136
REMARK 921   NORMALIZED FREE ENERGY PREDICTED BY IDOCK:   -3.03 KCAL/MOL
REMARK 922        TOTAL FREE ENERGY PREDICTED BY IDOCK:   -2.88 KCAL/MOL
REMARK 923 INTER-LIGAND FREE ENERGY PREDICTED BY IDOCK:   -3.20 KCAL/MOL
REMARK 924 INTRA-LIGAND FREE ENERGY PREDICTED BY IDOCK:    0.32 KCAL/MOL
REMARK 927      BINDING AFFINITY PREDICTED BY RF-SCORE:    0.00 PKD
ROOT
HETATM    1 NA   UNL     1     -12.943  12.879  70.689  1.00  0.00    -0.289 Na 
HETATM    2  O   UNL     2     -13.486  10.262  71.457  1.00  0.00    -0.329 OA 
HETATM    3  C   UNL     2     -12.542   9.904  70.564  1.00  0.00    -0.085 C  
HETATM    4  O   UNL     2     -12.623  10.322  69.425  1.00  0.00    -0.001 OA 
HETATM    5  C   UNL     2     -11.412   9.016  71.034  1.00  0.00    -0.295 C  
ENDROOT
BRANCH   5   6
HETATM    6  N   UNL     2     -10.384   8.581  70.023  1.00  0.00    -0.205 N  
HETATM    7  C   UNL     2     -11.034   7.837  68.927  1.00  0.00     0.115 C  
HETATM    8  C   UNL     2     -11.585   6.535  69.485  1.00  0.00    -0.233 C  
HETATM    9  N   UNL     2     -10.543   5.971  70.362  1.00  0.00    -0.246 N  
HETATM   10  C   UNL     2     -11.016   5.445  71.679  1.00  0.00    -0.113 C  
HETATM   11  C   UNL     2     -10.421   6.252  72.807  1.00  0.00    -0.214 C  
HETATM   12  O   UNL     2      -9.304   6.960  72.572  1.00  0.00    -0.140 OA 
HETATM   13  O   UNL     2     -10.937   6.264  73.911  1.00  0.00    -0.073 OA 
HETATM   14 FE   UNL     2      -9.061   7.205  70.745  1.00  0.00    -0.140 Fe 
HETATM   15  O   UNL     2      -7.770   5.911  71.008  1.00  0.00    -0.097 OA 
HETATM   16  O   UNL     2      -7.991   8.751  70.853  1.00  0.00    -0.106 OA 
HETATM   17  C   UNL     2      -8.351   9.821  70.140  1.00  0.00    -0.175 C  
HETATM   18  C   UNL     2      -8.340   4.797  70.469  1.00  0.00    -0.095 C  
HETATM   19  C   UNL     2      -9.679   4.943  69.713  1.00  0.00    -0.192 C  
HETATM   20  O   UNL     2      -7.819   3.703  70.617  1.00  0.00    -0.052 OA 
HETATM   21  O   UNL     2      -7.590  10.764  69.985  1.00  0.00    -0.023 OA 
HETATM   22  C   UNL     2      -9.663   9.759  69.474  1.00  0.00    -0.212 C  
ENDBRANCH   5   6
TORSDOF 1
ENDMDL
MODEL      137
REMARK 921   NORMALIZED FREE ENERGY PREDICTED BY IDOCK:   -3.00 KCAL/MOL
REMARK 922        TOTAL FREE ENERGY PREDICTED BY IDOCK:   -2.84 KCAL/MOL
REMARK 923 INTER-LIGAND FREE ENERGY PREDICTED BY IDOCK:   -3.20 KCAL/MOL
REMARK 924 INTRA-LIGAND FREE ENERGY PREDICTED BY IDOCK:    0.36 KCAL/MOL
REMARK 927      BINDING AFFINITY PREDICTED BY RF-SCORE:    0.00 PKD
ROOT
HETATM    1 NA   UNL     1      -9.372  12.934  69.497  1.00  0.00    -0.349 Na 
HETATM    2  O   UNL     2      -9.038  11.170  67.373  1.00  0.00    -0.142 OA 
HETATM    3  C   UNL     2      -8.361  10.396  68.245  1.00  0.00    -0.119 C  
HETATM    4  O   UNL     2      -7.452  10.890  68.884  1.00  0.00    -0.098 OA 
HETATM    5  C   UNL     2      -8.785   8.954  68.401  1.00  0.00    -0.134 C  
ENDROOT
BRANCH   5   6
HETATM    6  N   UNL     2      -7.998   8.081  69.342  1.00  0.00    -0.114 N  
HETATM    7  C   UNL     2      -6.683   7.760  68.754  1.00  0.00    -0.054 C  
HETATM    8  C   UNL     2      -6.900   6.888  67.528  1.00  0.00    -0.077 C  
HETATM    9  N   UNL     2      -7.910   5.879  67.893  1.00  0.00    -0.103 N  
HETATM   10  C   UNL     2      -8.986   5.640  66.884  1.00  0.00    -0.112 C  
HETATM   11  C   UNL     2     -10.327   6.043  67.446  1.00  0.00    -0.216 C  
HETATM   12  O   UNL     2     -10.471   6.116  68.780  1.00  0.00    -0.191 OA 
HETATM   13  O   UNL     2     -11.266   6.296  66.711  1.00  0.00    -0.310 OA 
HETATM   14 FE   UNL     2      -8.810   6.227  69.607  1.00  0.00    -0.121 Fe 
HETATM   15  O   UNL     2      -9.185   4.465  70.012  1.00  0.00    -0.106 OA 
HETATM   16  O   UNL     2      -9.391   7.051  71.197  1.00  0.00    -0.158 OA 
HETATM   17  C   UNL     2      -8.775   8.167  71.595  1.00  0.00    -0.145 C  
HETATM   18  C   UNL     2      -8.371   3.776  69.163  1.00  0.00    -0.068 C  
HETATM   19  C   UNL     2      -7.346   4.565  68.319  1.00  0.00    -0.065 C  
HETATM   20  O   UNL     2      -8.480   2.566  69.047  1.00  0.00    -0.061 OA 
HETATM   21  O   UNL     2      -8.943   8.619  72.717  1.00  0.00    -0.356 OA 
HETATM   22  C   UNL     2      -7.812   8.760  70.651  1.00  0.00    -0.107 C  
ENDBRANCH   5   6
TORSDOF 1
ENDMDL
MODEL      138
REMARK 921   NORMALIZED FREE ENERGY PREDICTED BY IDOCK:   -2.99 KCAL/MOL
REMARK 922        TOTAL FREE ENERGY PREDICTED BY IDOCK:   -2.84 KCAL/MOL
REMARK 923 INTER-LIGAND FREE ENERGY PREDICTED BY IDOCK:   -3.15 KCAL/MOL
REMARK 924 INTRA-LIGAND FREE ENERGY PREDICTED BY IDOCK:    0.31 KCAL/MOL
REMARK 927      BINDING AFFINITY PREDICTED BY RF-SCORE:    0.00 PKD
ROOT
HETATM    1 NA   UNL     1      -5.233  10.366  72.062  1.00  0.00    -0.077 Na 
HETATM    2  O   UNL     2      -7.388   8.625  72.297  1.00  0.00    -0.241 OA 
HETATM    3  C   UNL     2      -7.639   8.911  71.004  1.00  0.00    -0.118 C  
HETATM    4  O   UNL     2      -7.724  10.076  70.667  1.00  0.00    -0.268 OA 
HETATM    5  C   UNL     2      -7.778   7.763  70.031  1.00  0.00    -0.091 C  
ENDROOT
BRANCH   5   6
HETATM    6  N   UNL     2      -8.104   8.085  68.596  1.00  0.00    -0.123 N  
HETATM    7  C   UNL     2      -9.420   8.746  68.512  1.00  0.00    -0.145 C  
HETATM    8  C   UNL     2     -10.491   7.750  68.924  1.00  0.00    -0.194 C  
HETATM    9  N   UNL     2     -10.165   6.473  68.264  1.00  0.00    -0.158 N  
HETATM   10  C   UNL     2     -10.268   5.253  69.121  1.00  0.00    -0.210 C  
HETATM   11  C   UNL     2      -8.911   4.613  69.283  1.00  0.00    -0.089 C  
HETATM   12  O   UNL     2      -7.957   4.888  68.376  1.00  0.00    -0.085 OA 
HETATM   13  O   UNL     2      -8.678   3.859  70.212  1.00  0.00    -0.070 OA 
HETATM   14 FE   UNL     2      -8.384   6.431  67.432  1.00  0.00    -0.105 Fe 
HETATM   15  O   UNL     2      -8.792   5.201  66.117  1.00  0.00    -0.125 OA 
HETATM   16  O   UNL     2      -6.631   6.884  66.913  1.00  0.00    -0.044 OA 
HETATM   17  C   UNL     2      -6.193   8.119  67.171  1.00  0.00    -0.055 C  
HETATM   18  C   UNL     2     -10.155   5.197  66.116  1.00  0.00    -0.207 C  
HETATM   19  C   UNL     2     -10.899   6.232  66.989  1.00  0.00    -0.383 C  
HETATM   20  O   UNL     2     -10.770   4.364  65.469  1.00  0.00    -0.256 OA 
HETATM   21  O   UNL     2      -5.166   8.545  66.665  1.00  0.00    -0.030 OA 
HETATM   22  C   UNL     2      -7.060   8.964  68.009  1.00  0.00    -0.079 C  
ENDBRANCH   5   6
TORSDOF 1
ENDMDL
MODEL      139
REMARK 921   NORMALIZED FREE ENERGY PREDICTED BY IDOCK:   -2.97 KCAL/MOL
REMARK 922        TOTAL FREE ENERGY PREDICTED BY IDOCK:   -2.82 KCAL/MOL
REMARK 923 INTER-LIGAND FREE ENERGY PREDICTED BY IDOCK:   -3.26 KCAL/MOL
REMARK 924 INTRA-LIGAND FREE ENERGY PREDICTED BY IDOCK:    0.45 KCAL/MOL
REMARK 927      BINDING AFFINITY PREDICTED BY RF-SCORE:    0.00 PKD
ROOT
HETATM    1 NA   UNL     1     -14.004   8.599  73.440  1.00  0.00    -0.623 Na 
HETATM    2  O   UNL     2     -13.710   6.348  71.834  1.00  0.00     0.002 OA 
HETATM    3  C   UNL     2     -12.508   6.858  71.501  1.00  0.00    -0.375 C  
HETATM    4  O   UNL     2     -12.447   8.006  71.103  1.00  0.00    -0.284 OA 
HETATM    5  C   UNL     2     -11.287   5.981  71.665  1.00  0.00    -0.252 C  
ENDROOT
BRANCH   5   6
HETATM    6  N   UNL     2      -9.951   6.539  71.249  1.00  0.00    -0.181 N  
HETATM    7  C   UNL     2      -9.787   6.424  69.788  1.00  0.00    -0.165 C  
HETATM    8  C   UNL     2      -9.707   4.950  69.424  1.00  0.00    -0.191 C  
HETATM    9  N   UNL     2      -8.814   4.314  70.408  1.00  0.00    -0.081 N  
HETATM   10  C   UNL     2      -9.285   3.010  70.967  1.00  0.00    -0.130 C  
HETATM   11  C   UNL     2      -9.536   3.139  72.449  1.00  0.00    -0.121 C  
HETATM   12  O   UNL     2      -8.937   4.138  73.120  1.00  0.00    -0.107 OA 
HETATM   13  O   UNL     2     -10.263   2.354  73.034  1.00  0.00    -0.119 OA 
HETATM   14 FE   UNL     2      -8.365   5.458  71.943  1.00  0.00    -0.104 Fe 
HETATM   15  O   UNL     2      -6.721   4.699  72.301  1.00  0.00    -0.046 OA 
HETATM   16  O   UNL     2      -8.336   6.880  73.177  1.00  0.00    -0.113 OA 
HETATM   17  C   UNL     2      -8.988   8.003  72.866  1.00  0.00    -0.239 C  
HETATM   18  C   UNL     2      -6.451   4.002  71.161  1.00  0.00    -0.026 C  
HETATM   19  C   UNL     2      -7.401   4.163  69.953  1.00  0.00    -0.049 C  
HETATM   20  O   UNL     2      -5.502   3.236  71.114  1.00  0.00    -0.007 OA 
HETATM   21  O   UNL     2      -8.822   9.031  73.506  1.00  0.00     0.114 OA 
HETATM   22  C   UNL     2      -9.831   7.962  71.659  1.00  0.00    -0.167 C  
ENDBRANCH   5   6
TORSDOF 1
ENDMDL
MODEL      140
REMARK 921   NORMALIZED FREE ENERGY PREDICTED BY IDOCK:   -2.97 KCAL/MOL
REMARK 922        TOTAL FREE ENERGY PREDICTED BY IDOCK:   -2.82 KCAL/MOL
REMARK 923 INTER-LIGAND FREE ENERGY PREDICTED BY IDOCK:   -3.35 KCAL/MOL
REMARK 924 INTRA-LIGAND FREE ENERGY PREDICTED BY IDOCK:    0.53 KCAL/MOL
REMARK 927      BINDING AFFINITY PREDICTED BY RF-SCORE:    0.00 PKD
ROOT
HETATM    1 NA   UNL     1      -6.399   9.157  74.179  1.00  0.00    -0.127 Na 
HETATM    2  O   UNL     2      -8.236   7.092  73.863  1.00  0.00    -0.116 OA 
HETATM    3  C   UNL     2      -8.655   7.759  72.769  1.00  0.00    -0.153 C  
HETATM    4  O   UNL     2      -8.947   8.935  72.874  1.00  0.00    -0.264 OA 
HETATM    5  C   UNL     2      -8.717   7.012  71.456  1.00  0.00    -0.121 C  
ENDROOT
BRANCH   5   6
HETATM    6  N   UNL     2      -9.229   7.748  70.245  1.00  0.00    -0.156 N  
HETATM    7  C   UNL     2     -10.700   7.652  70.179  1.00  0.00    -0.240 C  
HETATM    8  C   UNL     2     -11.081   6.202  69.925  1.00  0.00    -0.410 C  
HETATM    9  N   UNL     2     -10.173   5.698  68.880  1.00  0.00    -0.191 N  
HETATM   10  C   UNL     2      -9.590   4.343  69.124  1.00  0.00    -0.181 C  
HETATM   11  C   UNL     2      -8.091   4.440  69.276  1.00  0.00    -0.068 C  
HETATM   12  O   UNL     2      -7.460   5.514  68.771  1.00  0.00    -0.076 OA 
HETATM   13  O   UNL     2      -7.459   3.565  69.841  1.00  0.00    -0.045 OA 
HETATM   14 FE   UNL     2      -8.667   6.898  68.477  1.00  0.00    -0.118 Fe 
HETATM   15  O   UNL     2      -8.442   6.372  66.721  1.00  0.00    -0.109 OA 
HETATM   16  O   UNL     2      -7.427   8.313  68.549  1.00  0.00    -0.091 OA 
HETATM   17  C   UNL     2      -7.680   9.335  69.371  1.00  0.00    -0.082 C  
HETATM   18  C   UNL     2      -9.604   5.716  66.447  1.00  0.00    -0.157 C  
HETATM   19  C   UNL     2     -10.734   5.742  67.500  1.00  0.00    -0.236 C  
HETATM   20  O   UNL     2      -9.729   5.088  65.408  1.00  0.00    -0.123 OA 
HETATM   21  O   UNL     2      -7.046  10.377  69.300  1.00  0.00    -0.069 OA 
HETATM   22  C   UNL     2      -8.819   9.175  70.291  1.00  0.00    -0.213 C  
ENDBRANCH   5   6
TORSDOF 1
ENDMDL
MODEL      141
REMARK 921   NORMALIZED FREE ENERGY PREDICTED BY IDOCK:   -2.97 KCAL/MOL
REMARK 922        TOTAL FREE ENERGY PREDICTED BY IDOCK:   -2.81 KCAL/MOL
REMARK 923 INTER-LIGAND FREE ENERGY PREDICTED BY IDOCK:   -3.15 KCAL/MOL
REMARK 924 INTRA-LIGAND FREE ENERGY PREDICTED BY IDOCK:    0.33 KCAL/MOL
REMARK 927      BINDING AFFINITY PREDICTED BY RF-SCORE:    0.00 PKD
ROOT
HETATM    1 NA   UNL     1     -10.194   5.060  74.240  1.00  0.00    -0.139 Na 
HETATM    2  O   UNL     2     -10.387   4.250  71.587  1.00  0.00    -0.131 OA 
HETATM    3  C   UNL     2     -10.317   5.561  71.280  1.00  0.00    -0.233 C  
HETATM    4  O   UNL     2     -11.081   6.333  71.826  1.00  0.00    -0.250 OA 
HETATM    5  C   UNL     2      -9.269   6.009  70.287  1.00  0.00    -0.155 C  
ENDROOT
BRANCH   5   6
HETATM    6  N   UNL     2      -9.222   7.467  69.913  1.00  0.00    -0.148 N  
HETATM    7  C   UNL     2     -10.532   7.896  69.386  1.00  0.00    -0.220 C  
HETATM    8  C   UNL     2     -10.783   7.179  68.069  1.00  0.00    -0.171 C  
HETATM    9  N   UNL     2      -9.526   7.238  67.303  1.00  0.00    -0.133 N  
HETATM   10  C   UNL     2      -9.108   5.965  66.641  1.00  0.00    -0.134 C  
HETATM   11  C   UNL     2      -7.809   5.472  67.231  1.00  0.00    -0.101 C  
HETATM   12  O   UNL     2      -7.017   6.350  67.868  1.00  0.00    -0.071 OA 
HETATM   13  O   UNL     2      -7.477   4.303  67.131  1.00  0.00    -0.075 OA 
HETATM   14 FE   UNL     2      -7.980   7.867  68.344  1.00  0.00    -0.100 Fe 
HETATM   15  O   UNL     2      -7.046   8.587  66.923  1.00  0.00    -0.073 OA 
HETATM   16  O   UNL     2      -6.873   8.416  69.765  1.00  0.00    -0.042 OA 
HETATM   17  C   UNL     2      -7.437   8.659  70.950  1.00  0.00    -0.083 C  
HETATM   18  C   UNL     2      -7.993   8.671  65.946  1.00  0.00    -0.105 C  
HETATM   19  C   UNL     2      -9.459   8.346  66.308  1.00  0.00    -0.224 C  
HETATM   20  O   UNL     2      -7.678   8.958  64.803  1.00  0.00    -0.102 OA 
HETATM   21  O   UNL     2      -6.824   9.230  71.839  1.00  0.00    -0.306 OA 
HETATM   22  C   UNL     2      -8.857   8.295  71.091  1.00  0.00    -0.151 C  
ENDBRANCH   5   6
TORSDOF 1
ENDMDL
MODEL      142
REMARK 921   NORMALIZED FREE ENERGY PREDICTED BY IDOCK:   -2.93 KCAL/MOL
REMARK 922        TOTAL FREE ENERGY PREDICTED BY IDOCK:   -2.78 KCAL/MOL
REMARK 923 INTER-LIGAND FREE ENERGY PREDICTED BY IDOCK:   -3.25 KCAL/MOL
REMARK 924 INTRA-LIGAND FREE ENERGY PREDICTED BY IDOCK:    0.47 KCAL/MOL
REMARK 927      BINDING AFFINITY PREDICTED BY RF-SCORE:    0.00 PKD
ROOT
HETATM    1 NA   UNL     1      -8.240   3.417  65.289  1.00  0.00    -0.088 Na 
HETATM    2  O   UNL     2      -8.874   6.095  65.683  1.00  0.00    -0.153 OA 
HETATM    3  C   UNL     2      -9.376   5.704  66.871  1.00  0.00    -0.125 C  
HETATM    4  O   UNL     2     -10.179   4.791  66.897  1.00  0.00    -0.216 OA 
HETATM    5  C   UNL     2      -8.893   6.408  68.119  1.00  0.00    -0.114 C  
ENDROOT
BRANCH   5   6
HETATM    6  N   UNL     2      -9.489   5.998  69.440  1.00  0.00    -0.133 N  
HETATM    7  C   UNL     2     -10.775   6.690  69.650  1.00  0.00    -0.260 C  
HETATM    8  C   UNL     2     -10.506   8.179  69.806  1.00  0.00    -0.227 C  
HETATM    9  N   UNL     2      -9.341   8.311  70.699  1.00  0.00    -0.154 N  
HETATM   10  C   UNL     2      -8.302   9.297  70.270  1.00  0.00    -0.186 C  
HETATM   11  C   UNL     2      -7.003   8.589  69.972  1.00  0.00    -0.043 C  
HETATM   12  O   UNL     2      -6.794   7.374  70.506  1.00  0.00    -0.050 OA 
HETATM   13  O   UNL     2      -6.155   9.104  69.264  1.00  0.00    -0.040 OA 
HETATM   14 FE   UNL     2      -8.403   6.619  71.053  1.00  0.00    -0.108 Fe 
HETATM   15  O   UNL     2      -7.753   7.081  72.718  1.00  0.00    -0.088 OA 
HETATM   16  O   UNL     2      -7.856   4.819  70.984  1.00  0.00    -0.078 OA 
HETATM   17  C   UNL     2      -8.604   3.956  70.292  1.00  0.00    -0.068 C  
HETATM   18  C   UNL     2      -8.507   8.167  73.050  1.00  0.00    -0.209 C  
HETATM   19  C   UNL     2      -9.683   8.561  72.129  1.00  0.00    -0.317 C  
HETATM   20  O   UNL     2      -8.230   8.834  74.034  1.00  0.00    -0.329 OA 
HETATM   21  O   UNL     2      -8.438   2.749  70.394  1.00  0.00    -0.050 OA 
HETATM   22  C   UNL     2      -9.695   4.528  69.485  1.00  0.00    -0.212 C  
ENDBRANCH   5   6
TORSDOF 1
ENDMDL
MODEL      143
REMARK 921   NORMALIZED FREE ENERGY PREDICTED BY IDOCK:   -2.93 KCAL/MOL
REMARK 922        TOTAL FREE ENERGY PREDICTED BY IDOCK:   -2.77 KCAL/MOL
REMARK 923 INTER-LIGAND FREE ENERGY PREDICTED BY IDOCK:   -3.09 KCAL/MOL
REMARK 924 INTRA-LIGAND FREE ENERGY PREDICTED BY IDOCK:    0.33 KCAL/MOL
REMARK 927      BINDING AFFINITY PREDICTED BY RF-SCORE:    0.00 PKD
ROOT
HETATM    1 NA   UNL     1      -9.706  12.131  68.086  1.00  0.00    -0.162 Na 
HETATM    2  O   UNL     2     -11.309  10.457  69.623  1.00  0.00    -0.242 OA 
HETATM    3  C   UNL     2     -10.664   9.440  69.017  1.00  0.00    -0.187 C  
HETATM    4  O   UNL     2     -10.608   9.421  67.802  1.00  0.00    -0.252 OA 
HETATM    5  C   UNL     2     -10.020   8.382  69.884  1.00  0.00    -0.190 C  
ENDROOT
BRANCH   5   6
HETATM    6  N   UNL     2      -9.339   7.224  69.203  1.00  0.00    -0.146 N  
HETATM    7  C   UNL     2     -10.337   6.387  68.511  1.00  0.00    -0.197 C  
HETATM    8  C   UNL     2     -11.232   5.735  69.553  1.00  0.00    -0.069 C  
HETATM    9  N   UNL     2     -10.351   5.249  70.630  1.00  0.00    -0.257 N  
HETATM   10  C   UNL     2     -10.810   5.532  72.024  1.00  0.00    -0.226 C  
HETATM   11  C   UNL     2      -9.837   6.456  72.716  1.00  0.00    -0.169 C  
HETATM   12  O   UNL     2      -8.582   6.539  72.245  1.00  0.00    -0.123 OA 
HETATM   13  O   UNL     2     -10.176   7.113  73.685  1.00  0.00    -0.304 OA 
HETATM   14 FE   UNL     2      -8.497   5.894  70.503  1.00  0.00    -0.106 Fe 
HETATM   15  O   UNL     2      -7.713   4.454  71.352  1.00  0.00    -0.075 OA 
HETATM   16  O   UNL     2      -6.953   6.835  69.977  1.00  0.00    -0.059 OA 
HETATM   17  C   UNL     2      -7.005   7.561  68.857  1.00  0.00    -0.077 C  
HETATM   18  C   UNL     2      -8.695   3.510  71.324  1.00  0.00    -0.078 C  
HETATM   19  C   UNL     2      -9.984   3.808  70.525  1.00  0.00     0.054 C  
HETATM   20  O   UNL     2      -8.573   2.471  71.951  1.00  0.00    -0.066 OA 
HETATM   21  O   UNL     2      -5.990   8.004  68.342  1.00  0.00    -0.038 OA 
HETATM   22  C   UNL     2      -8.329   7.712  68.230  1.00  0.00    -0.125 C  
ENDBRANCH   5   6
TORSDOF 1
ENDMDL
MODEL      144
REMARK 921   NORMALIZED FREE ENERGY PREDICTED BY IDOCK:   -2.89 KCAL/MOL
REMARK 922        TOTAL FREE ENERGY PREDICTED BY IDOCK:   -2.73 KCAL/MOL
REMARK 923 INTER-LIGAND FREE ENERGY PREDICTED BY IDOCK:   -3.83 KCAL/MOL
REMARK 924 INTRA-LIGAND FREE ENERGY PREDICTED BY IDOCK:    1.09 KCAL/MOL
REMARK 927      BINDING AFFINITY PREDICTED BY RF-SCORE:    0.00 PKD
ROOT
HETATM    1 NA   UNL     1      -8.449  10.934  68.335  1.00  0.00    -0.103 Na 
HETATM    2  O   UNL     2      -6.654   8.823  68.578  1.00  0.00    -0.057 OA 
HETATM    3  C   UNL     2      -7.280   8.549  69.739  1.00  0.00    -0.052 C  
HETATM    4  O   UNL     2      -7.417   9.439  70.557  1.00  0.00    -0.116 OA 
HETATM    5  C   UNL     2      -7.804   7.147  69.957  1.00  0.00    -0.113 C  
ENDROOT
BRANCH   5   6
HETATM    6  N   UNL     2      -8.463   6.833  71.275  1.00  0.00    -0.124 N  
HETATM    7  C   UNL     2      -9.048   5.479  71.237  1.00  0.00    -0.142 C  
HETATM    8  C   UNL     2     -10.192   5.473  70.235  1.00  0.00    -0.255 C  
HETATM    9  N   UNL     2     -10.970   6.702  70.466  1.00  0.00    -0.266 N  
HETATM   10  C   UNL     2     -11.369   7.459  69.241  1.00  0.00     0.226 C  
HETATM   11  C   UNL     2     -10.709   8.817  69.227  1.00  0.00    -0.151 C  
HETATM   12  O   UNL     2     -10.270   9.331  70.388  1.00  0.00    -0.199 OA 
HETATM   13  O   UNL     2     -10.577   9.441  68.189  1.00  0.00    -0.221 OA 
HETATM   14 FE   UNL     2     -10.096   7.992  71.667  1.00  0.00    -0.163 Fe 
HETATM   15  O   UNL     2     -11.644   8.766  72.310  1.00  0.00    -0.365 OA 
HETATM   16  O   UNL     2      -8.827   8.864  72.752  1.00  0.00    -0.324 OA 
HETATM   17  C   UNL     2      -7.708   8.209  73.068  1.00  0.00    -0.148 C  
HETATM   18  C   UNL     2     -12.606   7.869  71.952  1.00  0.00    -0.319 C  
HETATM   19  C   UNL     2     -12.168   6.522  71.335  1.00  0.00    -0.247 C  
HETATM   20  O   UNL     2     -13.787   8.146  72.080  1.00  0.00    -0.306 OA 
HETATM   21  O   UNL     2      -6.959   8.620  73.942  1.00  0.00    -0.294 OA 
HETATM   22  C   UNL     2      -7.479   6.925  72.384  1.00  0.00    -0.087 C  
ENDBRANCH   5   6
TORSDOF 1
ENDMDL
MODEL      145
REMARK 921   NORMALIZED FREE ENERGY PREDICTED BY IDOCK:   -2.87 KCAL/MOL
REMARK 922        TOTAL FREE ENERGY PREDICTED BY IDOCK:   -2.71 KCAL/MOL
REMARK 923 INTER-LIGAND FREE ENERGY PREDICTED BY IDOCK:   -3.83 KCAL/MOL
REMARK 924 INTRA-LIGAND FREE ENERGY PREDICTED BY IDOCK:    1.12 KCAL/MOL
REMARK 927      BINDING AFFINITY PREDICTED BY RF-SCORE:    0.00 PKD
ROOT
HETATM    1 NA   UNL     1     -12.505  14.350  62.462  1.00  0.00    -0.929 Na 
HETATM    2  O   UNL     2     -13.560  12.055  63.626  1.00  0.00    -0.295 OA 
HETATM    3  C   UNL     2     -12.407  11.991  64.320  1.00  0.00    -0.302 C  
HETATM    4  O   UNL     2     -11.353  12.038  63.713  1.00  0.00    -0.375 OA 
HETATM    5  C   UNL     2     -12.482  11.887  65.826  1.00  0.00     1.172 C  
ENDROOT
BRANCH   5   6
HETATM    6  N   UNL     2     -11.191  11.770  66.595  1.00  0.00    -0.315 N  
HETATM    7  C   UNL     2     -11.452  11.886  68.042  1.00  0.00    -0.323 C  
HETATM    8  C   UNL     2     -11.936  13.297  68.336  1.00  0.00    -0.301 C  
HETATM    9  N   UNL     2     -11.068  14.214  67.577  1.00  0.00    -0.283 N  
HETATM   10  C   UNL     2     -11.766  15.317  66.849  1.00  0.00     0.014 C  
HETATM   11  C   UNL     2     -11.575  15.161  65.360  1.00  0.00    -0.171 C  
HETATM   12  O   UNL     2     -10.542  14.426  64.916  1.00  0.00    -0.405 OA 
HETATM   13  O   UNL     2     -12.337  15.692  64.570  1.00  0.00    -0.127 OA 
HETATM   14 FE   UNL     2      -9.904  13.320  66.268  1.00  0.00    -0.232 Fe 
HETATM   15  O   UNL     2      -8.549  14.574  66.297  1.00  0.00     0.045 OA 
HETATM   16  O   UNL     2      -9.114  12.020  65.158  1.00  0.00     0.110 OA 
HETATM   17  C   UNL     2      -9.436  10.739  65.354  1.00  0.00    -0.214 C  
HETATM   18  C   UNL     2      -8.815  15.285  67.429  1.00  0.00    -0.179 C  
HETATM   19  C   UNL     2      -9.941  14.792  68.365  1.00  0.00    -0.223 C  
HETATM   20  O   UNL     2      -8.200  16.310  67.673  1.00  0.00    -0.149 OA 
HETATM   21  O   UNL     2      -8.797   9.838  64.833  1.00  0.00    -0.169 OA 
HETATM   22  C   UNL     2     -10.529  10.472  66.305  1.00  0.00    -0.183 C  
ENDBRANCH   5   6
TORSDOF 1
ENDMDL
MODEL      146
REMARK 921   NORMALIZED FREE ENERGY PREDICTED BY IDOCK:   -2.87 KCAL/MOL
REMARK 922        TOTAL FREE ENERGY PREDICTED BY IDOCK:   -2.71 KCAL/MOL
REMARK 923 INTER-LIGAND FREE ENERGY PREDICTED BY IDOCK:   -3.84 KCAL/MOL
REMARK 924 INTRA-LIGAND FREE ENERGY PREDICTED BY IDOCK:    1.13 KCAL/MOL
REMARK 927      BINDING AFFINITY PREDICTED BY RF-SCORE:    0.00 PKD
ROOT
HETATM    1 NA   UNL     1      -7.589   8.034  64.508  1.00  0.00    -0.075 Na 
HETATM    2  O   UNL     2      -8.977   6.871  66.619  1.00  0.00    -0.133 OA 
HETATM    3  C   UNL     2      -8.712   8.006  67.295  1.00  0.00    -0.131 C  
HETATM    4  O   UNL     2      -7.562   8.399  67.355  1.00  0.00    -0.095 OA 
HETATM    5  C   UNL     2      -9.867   8.750  67.927  1.00  0.00    -0.169 C  
ENDROOT
BRANCH   5   6
HETATM    6  N   UNL     2      -9.561   9.994  68.720  1.00  0.00    -0.162 N  
HETATM    7  C   UNL     2     -10.815  10.623  69.176  1.00  0.00    -0.237 C  
HETATM    8  C   UNL     2     -11.574  11.131  67.961  1.00  0.00    -0.263 C  
HETATM    9  N   UNL     2     -10.589  11.792  67.086  1.00  0.00    -0.223 N  
HETATM   10  C   UNL     2     -10.689  11.466  65.631  1.00  0.00    -0.242 C  
HETATM   11  C   UNL     2      -9.445  10.747  65.171  1.00  0.00    -0.226 C  
HETATM   12  O   UNL     2      -8.321  10.876  65.895  1.00  0.00    -0.163 OA 
HETATM   13  O   UNL     2      -9.451  10.063  64.161  1.00  0.00    -0.277 OA 
HETATM   14 FE   UNL     2      -8.718  11.483  67.607  1.00  0.00    -0.124 Fe 
HETATM   15  O   UNL     2      -8.044  13.059  66.922  1.00  0.00    -0.085 OA 
HETATM   16  O   UNL     2      -7.175  10.818  68.458  1.00  0.00    -0.080 OA 
HETATM   17  C   UNL     2      -7.329  10.067  69.551  1.00  0.00    -0.112 C  
HETATM   18  C   UNL     2      -9.163  13.813  66.731  1.00  0.00    -0.244 C  
HETATM   19  C   UNL     2     -10.516  13.272  67.247  1.00  0.00    -0.247 C  
HETATM   20  O   UNL     2      -9.100  14.873  66.129  1.00  0.00    -0.266 OA 
HETATM   21  O   UNL     2      -6.381   9.799  70.274  1.00  0.00    -0.063 OA 
HETATM   22  C   UNL     2      -8.706   9.668  69.890  1.00  0.00    -0.219 C  
ENDBRANCH   5   6
TORSDOF 1
ENDMDL
MODEL      147
REMARK 921   NORMALIZED FREE ENERGY PREDICTED BY IDOCK:   -2.86 KCAL/MOL
REMARK 922        TOTAL FREE ENERGY PREDICTED BY IDOCK:   -2.70 KCAL/MOL
REMARK 923 INTER-LIGAND FREE ENERGY PREDICTED BY IDOCK:   -3.02 KCAL/MOL
REMARK 924 INTRA-LIGAND FREE ENERGY PREDICTED BY IDOCK:    0.32 KCAL/MOL
REMARK 927      BINDING AFFINITY PREDICTED BY RF-SCORE:    0.00 PKD
ROOT
HETATM    1 NA   UNL     1      -6.025  10.384  62.355  1.00  0.00    -0.090 Na 
HETATM    2  O   UNL     2      -6.036   7.964  63.725  1.00  0.00    -0.056 OA 
HETATM    3  C   UNL     2      -6.451   8.678  64.791  1.00  0.00    -0.065 C  
HETATM    4  O   UNL     2      -5.814   9.659  65.124  1.00  0.00    -0.064 OA 
HETATM    5  C   UNL     2      -7.706   8.232  65.506  1.00  0.00    -0.101 C  
ENDROOT
BRANCH   5   6
HETATM    6  N   UNL     2      -8.142   9.005  66.723  1.00  0.00    -0.110 N  
HETATM    7  C   UNL     2      -7.082   8.971  67.749  1.00  0.00    -0.079 C  
HETATM    8  C   UNL     2      -6.934   7.542  68.247  1.00  0.00    -0.068 C  
HETATM    9  N   UNL     2      -8.295   7.015  68.447  1.00  0.00    -0.124 N  
HETATM   10  C   UNL     2      -8.540   5.634  67.931  1.00  0.00    -0.101 C  
HETATM   11  C   UNL     2      -9.564   5.667  66.821  1.00  0.00    -0.146 C  
HETATM   12  O   UNL     2     -10.394   6.720  66.742  1.00  0.00    -0.230 OA 
HETATM   13  O   UNL     2      -9.643   4.758  66.013  1.00  0.00    -0.154 OA 
HETATM   14 FE   UNL     2      -9.716   8.156  67.708  1.00  0.00    -0.138 Fe 
HETATM   15  O   UNL     2     -11.036   7.646  68.893  1.00  0.00    -0.075 OA 
HETATM   16  O   UNL     2     -10.627   9.518  66.780  1.00  0.00    -0.212 OA 
HETATM   17  C   UNL     2      -9.916  10.538  66.293  1.00  0.00    -0.221 C  
HETATM   18  C   UNL     2     -10.333   7.042  69.893  1.00  0.00    -0.210 C  
HETATM   19  C   UNL     2      -8.790   7.101  69.851  1.00  0.00    -0.142 C  
HETATM   20  O   UNL     2     -10.914   6.435  70.777  1.00  0.00    -0.256 OA 
HETATM   21  O   UNL     2     -10.460  11.554  65.888  1.00  0.00    -0.241 OA 
HETATM   22  C   UNL     2      -8.450  10.413  66.364  1.00  0.00    -0.138 C  
ENDBRANCH   5   6
TORSDOF 1
ENDMDL
MODEL      148
REMARK 921   NORMALIZED FREE ENERGY PREDICTED BY IDOCK:   -2.85 KCAL/MOL
REMARK 922        TOTAL FREE ENERGY PREDICTED BY IDOCK:   -2.69 KCAL/MOL
REMARK 923 INTER-LIGAND FREE ENERGY PREDICTED BY IDOCK:   -3.01 KCAL/MOL
REMARK 924 INTRA-LIGAND FREE ENERGY PREDICTED BY IDOCK:    0.32 KCAL/MOL
REMARK 927      BINDING AFFINITY PREDICTED BY RF-SCORE:    0.00 PKD
ROOT
HETATM    1 NA   UNL     1      -6.896   6.365  72.011  1.00  0.00    -0.056 Na 
HETATM    2  O   UNL     2      -5.915   8.435  70.434  1.00  0.00    -0.028 OA 
HETATM    3  C   UNL     2      -6.564   7.840  69.414  1.00  0.00    -0.039 C  
HETATM    4  O   UNL     2      -6.370   6.657  69.205  1.00  0.00    -0.032 OA 
HETATM    5  C   UNL     2      -7.524   8.671  68.595  1.00  0.00    -0.096 C  
ENDROOT
BRANCH   5   6
HETATM    6  N   UNL     2      -8.214   8.014  67.428  1.00  0.00    -0.121 N  
HETATM    7  C   UNL     2      -7.222   7.620  66.410  1.00  0.00    -0.078 C  
HETATM    8  C   UNL     2      -6.605   8.879  65.820  1.00  0.00    -0.064 C  
HETATM    9  N   UNL     2      -7.710   9.822  65.574  1.00  0.00    -0.116 N  
HETATM   10  C   UNL     2      -7.466  11.235  65.997  1.00  0.00     0.117 C  
HETATM   11  C   UNL     2      -8.423  11.623  67.097  1.00  0.00    -0.162 C  
HETATM   12  O   UNL     2      -9.559  10.921  67.240  1.00  0.00    -0.163 OA 
HETATM   13  O   UNL     2      -8.177  12.555  67.843  1.00  0.00    -0.142 OA 
HETATM   14 FE   UNL     2      -9.422   9.280  66.377  1.00  0.00    -0.141 Fe 
HETATM   15  O   UNL     2     -10.510  10.130  65.150  1.00  0.00    -0.178 OA 
HETATM   16  O   UNL     2     -10.727   8.371  67.386  1.00  0.00    -0.269 OA 
HETATM   17  C   UNL     2     -10.396   7.205  67.945  1.00  0.00    -0.198 C  
HETATM   18  C   UNL     2      -9.660  10.393  64.118  1.00  0.00    -0.322 C  
HETATM   19  C   UNL     2      -8.227   9.818  64.176  1.00  0.00    -0.158 C  
HETATM   20  O   UNL     2     -10.014  11.103  63.191  1.00  0.00    -0.331 OA 
HETATM   21  O   UNL     2     -11.246   6.462  68.412  1.00  0.00    -0.320 OA 
HETATM   22  C   UNL     2      -8.976   6.821  67.878  1.00  0.00    -0.113 C  
ENDBRANCH   5   6
TORSDOF 1
ENDMDL
MODEL      149
REMARK 921   NORMALIZED FREE ENERGY PREDICTED BY IDOCK:   -2.77 KCAL/MOL
REMARK 922        TOTAL FREE ENERGY PREDICTED BY IDOCK:   -2.60 KCAL/MOL
REMARK 923 INTER-LIGAND FREE ENERGY PREDICTED BY IDOCK:   -2.95 KCAL/MOL
REMARK 924 INTRA-LIGAND FREE ENERGY PREDICTED BY IDOCK:    0.35 KCAL/MOL
REMARK 927      BINDING AFFINITY PREDICTED BY RF-SCORE:    0.00 PKD
ROOT
HETATM    1 NA   UNL     1      -5.660   3.374  68.575  1.00  0.00    -0.012 Na 
HETATM    2  O   UNL     2      -5.980   5.902  69.689  1.00  0.00    -0.022 OA 
HETATM    3  C   UNL     2      -6.475   6.265  68.489  1.00  0.00    -0.049 C  
HETATM    4  O   UNL     2      -5.824   6.026  67.489  1.00  0.00    -0.015 OA 
HETATM    5  C   UNL     2      -7.831   6.932  68.445  1.00  0.00    -0.121 C  
ENDROOT
BRANCH   5   6
HETATM    6  N   UNL     2      -8.360   7.376  67.107  1.00  0.00    -0.117 N  
HETATM    7  C   UNL     2      -7.382   8.260  66.445  1.00  0.00    -0.080 C  
HETATM    8  C   UNL     2      -7.268   9.546  67.248  1.00  0.00    -0.087 C  
HETATM    9  N   UNL     2      -8.639   9.951  67.604  1.00  0.00    -0.122 N  
HETATM   10  C   UNL     2      -8.840  10.392  69.018  1.00  0.00    -0.172 C  
HETATM   11  C   UNL     2      -9.776   9.447  69.731  1.00  0.00    -0.199 C  
HETATM   12  O   UNL     2     -10.601   8.681  68.996  1.00  0.00    -0.217 OA 
HETATM   13  O   UNL     2      -9.791   9.376  70.948  1.00  0.00    -0.276 OA 
HETATM   14 FE   UNL     2     -10.002   8.582  67.239  1.00  0.00    -0.145 Fe 
HETATM   15  O   UNL     2     -11.408   9.748  66.970  1.00  0.00     0.110 OA 
HETATM   16  O   UNL     2     -10.844   6.957  66.793  1.00  0.00    -0.321 OA 
HETATM   17  C   UNL     2     -10.101   5.984  66.261  1.00  0.00    -0.011 C  
HETATM   18  C   UNL     2     -10.782  10.945  66.788  1.00  0.00    -0.252 C  
HETATM   19  C   UNL     2      -9.240  10.966  66.691  1.00  0.00    -0.168 C  
HETATM   20  O   UNL     2     -11.427  11.980  66.744  1.00  0.00    -0.337 OA 
HETATM   21  O   UNL     2     -10.616   5.004  65.744  1.00  0.00    -0.203 OA 
HETATM   22  C   UNL     2      -8.645   6.202  66.243  1.00  0.00    -0.136 C  
ENDBRANCH   5   6
TORSDOF 1
ENDMDL
MODEL      150
REMARK 921   NORMALIZED FREE ENERGY PREDICTED BY IDOCK:   -2.76 KCAL/MOL
REMARK 922        TOTAL FREE ENERGY PREDICTED BY IDOCK:   -2.59 KCAL/MOL
REMARK 923 INTER-LIGAND FREE ENERGY PREDICTED BY IDOCK:   -2.91 KCAL/MOL
REMARK 924 INTRA-LIGAND FREE ENERGY PREDICTED BY IDOCK:    0.32 KCAL/MOL
REMARK 927      BINDING AFFINITY PREDICTED BY RF-SCORE:    0.00 PKD
ROOT
HETATM    1 NA   UNL     1      -9.032  12.931  66.347  1.00  0.00    -0.201 Na 
HETATM    2  O   UNL     2      -9.601  11.336  68.553  1.00  0.00    -0.188 OA 
HETATM    3  C   UNL     2      -9.773  10.336  67.666  1.00  0.00    -0.164 C  
HETATM    4  O   UNL     2     -10.523  10.508  66.725  1.00  0.00    -0.239 OA 
HETATM    5  C   UNL     2      -9.001   9.052  67.876  1.00  0.00    -0.132 C  
ENDROOT
BRANCH   5   6
HETATM    6  N   UNL     2      -9.230   7.921  66.909  1.00  0.00    -0.147 N  
HETATM    7  C   UNL     2     -10.625   7.449  67.004  1.00  0.00    -0.344 C  
HETATM    8  C   UNL     2     -10.833   6.820  68.372  1.00  0.00    -0.223 C  
HETATM    9  N   UNL     2      -9.655   5.975  68.638  1.00  0.00    -0.123 N  
HETATM   10  C   UNL     2      -9.068   6.090  70.008  1.00  0.00    -0.146 C  
HETATM   11  C   UNL     2      -7.669   6.651  69.930  1.00  0.00    -0.109 C  
HETATM   12  O   UNL     2      -7.000   6.555  68.768  1.00  0.00    -0.074 OA 
HETATM   13  O   UNL     2      -7.148   7.178  70.898  1.00  0.00    -0.066 OA 
HETATM   14 FE   UNL     2      -8.178   6.232  67.366  1.00  0.00    -0.101 Fe 
HETATM   15  O   UNL     2      -7.474   4.532  67.511  1.00  0.00    -0.072 OA 
HETATM   16  O   UNL     2      -7.093   6.911  65.984  1.00  0.00    -0.069 OA 
HETATM   17  C   UNL     2      -7.614   7.822  65.159  1.00  0.00    -0.094 C  
HETATM   18  C   UNL     2      -8.481   3.834  68.107  1.00  0.00    -0.093 C  
HETATM   19  C   UNL     2      -9.844   4.532  68.313  1.00  0.00    -0.086 C  
HETATM   20  O   UNL     2      -8.294   2.695  68.506  1.00  0.00    -0.062 OA 
HETATM   21  O   UNL     2      -7.053   8.130  64.119  1.00  0.00    -0.078 OA 
HETATM   22  C   UNL     2      -8.939   8.356  65.519  1.00  0.00    -0.098 C  
ENDBRANCH   5   6
TORSDOF 1
ENDMDL
MODEL      151
REMARK 921   NORMALIZED FREE ENERGY PREDICTED BY IDOCK:   -2.75 KCAL/MOL
REMARK 922        TOTAL FREE ENERGY PREDICTED BY IDOCK:   -2.59 KCAL/MOL
REMARK 923 INTER-LIGAND FREE ENERGY PREDICTED BY IDOCK:   -3.05 KCAL/MOL
REMARK 924 INTRA-LIGAND FREE ENERGY PREDICTED BY IDOCK:    0.46 KCAL/MOL
REMARK 927      BINDING AFFINITY PREDICTED BY RF-SCORE:    0.00 PKD
ROOT
HETATM    1 NA   UNL     1     -11.860  11.208  66.655  1.00  0.00    -0.294 Na 
HETATM    2  O   UNL     2      -9.926  10.885  68.628  1.00  0.00    -0.174 OA 
HETATM    3  C   UNL     2     -10.520   9.702  68.883  1.00  0.00    -0.215 C  
HETATM    4  O   UNL     2     -11.720   9.678  69.080  1.00  0.00     0.176 OA 
HETATM    5  C   UNL     2      -9.663   8.457  68.889  1.00  0.00    -0.167 C  
ENDROOT
BRANCH   5   6
HETATM    6  N   UNL     2     -10.322   7.143  69.220  1.00  0.00    -0.197 N  
HETATM    7  C   UNL     2     -11.174   7.292  70.415  1.00  0.00    -0.276 C  
HETATM    8  C   UNL     2     -10.284   7.577  71.614  1.00  0.00    -0.184 C  
HETATM    9  N   UNL     2      -9.140   6.653  71.526  1.00  0.00    -0.143 N  
HETATM   10  C   UNL     2      -7.797   7.255  71.787  1.00  0.00    -0.091 C  
HETATM   11  C   UNL     2      -6.943   7.183  70.544  1.00  0.00    -0.058 C  
HETATM   12  O   UNL     2      -7.255   6.280  69.599  1.00  0.00    -0.073 OA 
HETATM   13  O   UNL     2      -5.986   7.923  70.396  1.00  0.00    -0.029 OA 
HETATM   14 FE   UNL     2      -9.008   5.698  69.811  1.00  0.00    -0.112 Fe 
HETATM   15  O   UNL     2      -8.154   4.199  70.469  1.00  0.00    -0.055 OA 
HETATM   16  O   UNL     2      -9.293   5.150  68.033  1.00  0.00    -0.113 OA 
HETATM   17  C   UNL     2     -10.368   5.614  67.391  1.00  0.00    -0.230 C  
HETATM   18  C   UNL     2      -8.352   4.299  71.814  1.00  0.00    -0.101 C  
HETATM   19  C   UNL     2      -9.281   5.414  72.343  1.00  0.00    -0.141 C  
HETATM   20  O   UNL     2      -7.774   3.547  72.581  1.00  0.00    -0.061 OA 
HETATM   21  O   UNL     2     -10.733   5.128  66.332  1.00  0.00    -0.308 OA 
HETATM   22  C   UNL     2     -11.139   6.667  68.074  1.00  0.00    -0.205 C  
ENDBRANCH   5   6
TORSDOF 1
ENDMDL
MODEL      152
REMARK 921   NORMALIZED FREE ENERGY PREDICTED BY IDOCK:   -2.75 KCAL/MOL
REMARK 922        TOTAL FREE ENERGY PREDICTED BY IDOCK:   -2.58 KCAL/MOL
REMARK 923 INTER-LIGAND FREE ENERGY PREDICTED BY IDOCK:   -3.70 KCAL/MOL
REMARK 924 INTRA-LIGAND FREE ENERGY PREDICTED BY IDOCK:    1.12 KCAL/MOL
REMARK 927      BINDING AFFINITY PREDICTED BY RF-SCORE:    0.00 PKD
ROOT
HETATM    1 NA   UNL     1      -9.793   9.790  62.953  1.00  0.00    -0.312 Na 
HETATM    2  O   UNL     2     -10.571  12.345  63.727  1.00  0.00    -0.399 OA 
HETATM    3  C   UNL     2     -10.455  11.895  64.992  1.00  0.00    -0.289 C  
HETATM    4  O   UNL     2     -11.031  10.871  65.306  1.00  0.00    -0.119 OA 
HETATM    5  C   UNL     2      -9.590  12.678  65.953  1.00  0.00    -0.153 C  
ENDROOT
BRANCH   5   6
HETATM    6  N   UNL     2      -9.498  12.198  67.378  1.00  0.00    -0.176 N  
HETATM    7  C   UNL     2      -8.461  12.957  68.102  1.00  0.00    -0.176 C  
HETATM    8  C   UNL     2      -7.105  12.618  67.505  1.00  0.00    -0.152 C  
HETATM    9  N   UNL     2      -7.075  11.157  67.312  1.00  0.00    -0.101 N  
HETATM   10  C   UNL     2      -6.532  10.685  66.002  1.00  0.00    -0.129 C  
HETATM   11  C   UNL     2      -7.609   9.978  65.215  1.00  0.00    -0.137 C  
HETATM   12  O   UNL     2      -8.671   9.487  65.875  1.00  0.00    -0.136 OA 
HETATM   13  O   UNL     2      -7.521   9.849  64.006  1.00  0.00    -0.127 OA 
HETATM   14 FE   UNL     2      -8.820  10.280  67.549  1.00  0.00    -0.121 Fe 
HETATM   15  O   UNL     2      -8.162   8.643  68.094  1.00  0.00    -0.114 OA 
HETATM   16  O   UNL     2     -10.663   9.981  67.791  1.00  0.00    -0.243 OA 
HETATM   17  C   UNL     2     -11.437  11.020  68.112  1.00  0.00    -0.302 C  
HETATM   18  C   UNL     2      -6.868   8.926  68.418  1.00  0.00    -0.065 C  
HETATM   19  C   UNL     2      -6.410  10.402  68.412  1.00  0.00    -0.051 C  
HETATM   20  O   UNL     2      -6.083   8.026  68.668  1.00  0.00    -0.041 OA 
HETATM   21  O   UNL     2     -12.583  10.860  68.503  1.00  0.00    -0.137 OA 
HETATM   22  C   UNL     2     -10.807  12.351  68.065  1.00  0.00    -0.221 C  
ENDBRANCH   5   6
TORSDOF 1
ENDMDL
MODEL      153
REMARK 921   NORMALIZED FREE ENERGY PREDICTED BY IDOCK:   -2.72 KCAL/MOL
REMARK 922        TOTAL FREE ENERGY PREDICTED BY IDOCK:   -2.55 KCAL/MOL
REMARK 923 INTER-LIGAND FREE ENERGY PREDICTED BY IDOCK:   -3.66 KCAL/MOL
REMARK 924 INTRA-LIGAND FREE ENERGY PREDICTED BY IDOCK:    1.11 KCAL/MOL
REMARK 927      BINDING AFFINITY PREDICTED BY RF-SCORE:    0.00 PKD
ROOT
HETATM    1 NA   UNL     1      -8.390   3.341  68.060  1.00  0.00    -0.075 Na 
HETATM    2  O   UNL     2      -9.223   2.030  70.367  1.00  0.00    -0.089 OA 
HETATM    3  C   UNL     2      -8.946   3.182  71.008  1.00  0.00    -0.097 C  
HETATM    4  O   UNL     2      -7.851   3.690  70.857  1.00  0.00    -0.047 OA 
HETATM    5  C   UNL     2     -10.025   3.801  71.868  1.00  0.00    -0.160 C  
ENDROOT
BRANCH   5   6
HETATM    6  N   UNL     2      -9.697   5.065  72.619  1.00  0.00    -0.150 N  
HETATM    7  C   UNL     2     -10.900   5.571  73.305  1.00  0.00    -0.293 C  
HETATM    8  C   UNL     2     -11.909   6.010  72.257  1.00  0.00    -0.250 C  
HETATM    9  N   UNL     2     -11.163   6.764  71.234  1.00  0.00    -0.264 N  
HETATM   10  C   UNL     2     -11.494   6.436  69.814  1.00  0.00    -0.399 C  
HETATM   11  C   UNL     2     -10.292   5.839  69.123  1.00  0.00    -0.248 C  
HETATM   12  O   UNL     2      -9.073   6.071  69.637  1.00  0.00    -0.133 OA 
HETATM   13  O   UNL     2     -10.418   5.162  68.117  1.00  0.00    -0.115 OA 
HETATM   14 FE   UNL     2      -9.208   6.631  71.404  1.00  0.00    -0.142 Fe 
HETATM   15  O   UNL     2      -8.817   8.266  70.643  1.00  0.00    -0.134 OA 
HETATM   16  O   UNL     2      -7.483   6.111  71.951  1.00  0.00    -0.092 OA 
HETATM   17  C   UNL     2      -7.367   5.345  73.038  1.00  0.00    -0.092 C  
HETATM   18  C   UNL     2     -10.017   8.912  70.671  1.00  0.00    -0.216 C  
HETATM   19  C   UNL     2     -11.199   8.245  71.409  1.00  0.00    -0.255 C  
HETATM   20  O   UNL     2     -10.160   9.976  70.090  1.00  0.00    -0.255 OA 
HETATM   21  O   UNL     2      -6.284   5.164  73.574  1.00  0.00    -0.047 OA 
HETATM   22  C   UNL     2      -8.618   4.817  73.609  1.00  0.00    -0.104 C  
ENDBRANCH   5   6
TORSDOF 1
ENDMDL
MODEL      154
REMARK 921   NORMALIZED FREE ENERGY PREDICTED BY IDOCK:   -2.69 KCAL/MOL
REMARK 922        TOTAL FREE ENERGY PREDICTED BY IDOCK:   -2.52 KCAL/MOL
REMARK 923 INTER-LIGAND FREE ENERGY PREDICTED BY IDOCK:   -3.01 KCAL/MOL
REMARK 924 INTRA-LIGAND FREE ENERGY PREDICTED BY IDOCK:    0.49 KCAL/MOL
REMARK 927      BINDING AFFINITY PREDICTED BY RF-SCORE:    0.00 PKD
ROOT
HETATM    1 NA   UNL     1     -11.377  16.200  67.273  1.00  0.00    -0.317 Na 
HETATM    2  O   UNL     2      -9.594  14.851  65.619  1.00  0.00    -0.325 OA 
HETATM    3  C   UNL     2      -9.209  14.192  66.730  1.00  0.00    -0.266 C  
HETATM    4  O   UNL     2      -8.891  14.834  67.713  1.00  0.00    -0.166 OA 
HETATM    5  C   UNL     2      -9.215  12.680  66.704  1.00  0.00    -0.218 C  
ENDROOT
BRANCH   5   6
HETATM    6  N   UNL     2      -8.741  11.947  67.932  1.00  0.00    -0.159 N  
HETATM    7  C   UNL     2      -7.495  12.556  68.434  1.00  0.00    -0.127 C  
HETATM    8  C   UNL     2      -6.394  12.324  67.412  1.00  0.00    -0.152 C  
HETATM    9  N   UNL     2      -6.509  10.923  66.970  1.00  0.00    -0.077 N  
HETATM   10  C   UNL     2      -6.400  10.695  65.497  1.00  0.00    -0.081 C  
HETATM   11  C   UNL     2      -7.699  10.149  64.956  1.00  0.00    -0.141 C  
HETATM   12  O   UNL     2      -8.550   9.551  65.807  1.00  0.00    -0.129 OA 
HETATM   13  O   UNL     2      -7.975  10.242  63.772  1.00  0.00    -0.154 OA 
HETATM   14 FE   UNL     2      -8.157  10.027  67.560  1.00  0.00    -0.101 Fe 
HETATM   15  O   UNL     2      -7.467   8.315  67.594  1.00  0.00    -0.091 OA 
HETATM   16  O   UNL     2      -9.865   9.699  68.283  1.00  0.00    -0.145 OA 
HETATM   17  C   UNL     2     -10.449  10.667  68.994  1.00  0.00    -0.214 C  
HETATM   18  C   UNL     2      -6.121   8.527  67.563  1.00  0.00    -0.052 C  
HETATM   19  C   UNL     2      -5.598   9.976  67.675  1.00  0.00    -0.042 C  
HETATM   20  O   UNL     2      -5.352   7.592  67.409  1.00  0.00    -0.025 OA 
HETATM   21  O   UNL     2     -11.439  10.445  69.674  1.00  0.00    -0.246 OA 
HETATM   22  C   UNL     2      -9.782  11.980  68.992  1.00  0.00     0.219 C  
ENDBRANCH   5   6
TORSDOF 1
ENDMDL
MODEL      155
REMARK 921   NORMALIZED FREE ENERGY PREDICTED BY IDOCK:   -2.60 KCAL/MOL
REMARK 922        TOTAL FREE ENERGY PREDICTED BY IDOCK:   -2.43 KCAL/MOL
REMARK 923 INTER-LIGAND FREE ENERGY PREDICTED BY IDOCK:   -3.56 KCAL/MOL
REMARK 924 INTRA-LIGAND FREE ENERGY PREDICTED BY IDOCK:    1.13 KCAL/MOL
REMARK 927      BINDING AFFINITY PREDICTED BY RF-SCORE:    0.00 PKD
ROOT
HETATM    1 NA   UNL     1      -9.222  11.970  68.628  1.00  0.00    -0.166 Na 
HETATM    2  O   UNL     2     -10.191  10.757  66.320  1.00  0.00    -0.231 OA 
HETATM    3  C   UNL     2      -9.487   9.674  66.708  1.00  0.00    -0.161 C  
HETATM    4  O   UNL     2      -8.309   9.805  66.979  1.00  0.00    -0.117 OA 
HETATM    5  C   UNL     2     -10.210   8.350  66.810  1.00  0.00    -0.306 C  
ENDROOT
BRANCH   5   6
HETATM    6  N   UNL     2      -9.411   7.134  67.199  1.00  0.00    -0.141 N  
HETATM    7  C   UNL     2     -10.301   5.964  67.329  1.00  0.00    -0.226 C  
HETATM    8  C   UNL     2     -11.234   6.192  68.507  1.00  0.00    -0.145 C  
HETATM    9  N   UNL     2     -10.413   6.730  69.605  1.00  0.00    -0.204 N  
HETATM   10  C   UNL     2     -10.996   7.892  70.345  1.00  0.00    -0.249 C  
HETATM   11  C   UNL     2     -10.137   9.117  70.151  1.00  0.00    -0.202 C  
HETATM   12  O   UNL     2      -8.855   8.954  69.782  1.00  0.00    -0.135 OA 
HETATM   13  O   UNL     2     -10.589  10.236  70.328  1.00  0.00    -0.282 OA 
HETATM   14 FE   UNL     2      -8.597   7.258  69.067  1.00  0.00    -0.118 Fe 
HETATM   15  O   UNL     2      -7.798   6.973  70.707  1.00  0.00    -0.094 OA 
HETATM   16  O   UNL     2      -7.074   7.665  68.036  1.00  0.00    -0.080 OA 
HETATM   17  C   UNL     2      -7.081   7.339  66.741  1.00  0.00    -0.082 C  
HETATM   18  C   UNL     2      -8.718   6.215  71.368  1.00  0.00    -0.135 C  
HETATM   19  C   UNL     2      -9.955   5.710  70.592  1.00  0.00    -0.200 C  
HETATM   20  O   UNL     2      -8.584   5.977  72.557  1.00  0.00    -0.120 OA 
HETATM   21  O   UNL     2      -6.056   7.364  66.076  1.00  0.00    -0.036 OA 
HETATM   22  C   UNL     2      -8.358   6.857  66.189  1.00  0.00    -0.130 C  
ENDBRANCH   5   6
TORSDOF 1
ENDMDL
MODEL      156
REMARK 921   NORMALIZED FREE ENERGY PREDICTED BY IDOCK:   -2.60 KCAL/MOL
REMARK 922        TOTAL FREE ENERGY PREDICTED BY IDOCK:   -2.42 KCAL/MOL
REMARK 923 INTER-LIGAND FREE ENERGY PREDICTED BY IDOCK:   -2.88 KCAL/MOL
REMARK 924 INTRA-LIGAND FREE ENERGY PREDICTED BY IDOCK:    0.46 KCAL/MOL
REMARK 927      BINDING AFFINITY PREDICTED BY RF-SCORE:    0.00 PKD
ROOT
HETATM    1 NA   UNL     1     -10.782   6.850  74.500  1.00  0.00    -0.352 Na 
HETATM    2  O   UNL     2     -10.193   8.505  72.344  1.00  0.00    -0.312 OA 
HETATM    3  C   UNL     2      -9.216   7.622  72.055  1.00  0.00    -0.138 C  
HETATM    4  O   UNL     2      -8.426   7.314  72.927  1.00  0.00    -0.107 OA 
HETATM    5  C   UNL     2      -9.166   7.040  70.661  1.00  0.00    -0.158 C  
ENDROOT
BRANCH   5   6
HETATM    6  N   UNL     2      -8.047   6.089  70.328  1.00  0.00    -0.109 N  
HETATM    7  C   UNL     2      -6.826   6.844  69.990  1.00  0.00    -0.057 C  
HETATM    8  C   UNL     2      -7.067   7.604  68.696  1.00  0.00    -0.080 C  
HETATM    9  N   UNL     2      -7.746   6.676  67.775  1.00  0.00    -0.106 N  
HETATM   10  C   UNL     2      -8.910   7.239  67.025  1.00  0.00    -0.128 C  
HETATM   11  C   UNL     2     -10.180   6.529  67.424  1.00  0.00    -0.177 C  
HETATM   12  O   UNL     2     -10.088   5.308  67.979  1.00  0.00    -0.160 OA 
HETATM   13  O   UNL     2     -11.271   7.044  67.247  1.00  0.00    -0.281 OA 
HETATM   14 FE   UNL     2      -8.369   5.015  68.622  1.00  0.00    -0.084 Fe 
HETATM   15  O   UNL     2      -8.267   3.955  67.114  1.00  0.00    -0.098 OA 
HETATM   16  O   UNL     2      -8.814   3.707  69.902  1.00  0.00    -0.076 OA 
HETATM   17  C   UNL     2      -8.396   3.881  71.158  1.00  0.00    -0.072 C  
HETATM   18  C   UNL     2      -7.491   4.695  66.272  1.00  0.00    -0.082 C  
HETATM   19  C   UNL     2      -6.838   5.987  66.813  1.00  0.00    -0.059 C  
HETATM   20  O   UNL     2      -7.352   4.362  65.106  1.00  0.00    -0.070 OA 
HETATM   21  O   UNL     2      -8.450   2.975  71.976  1.00  0.00    -0.068 OA 
HETATM   22  C   UNL     2      -7.778   5.181  71.473  1.00  0.00    -0.103 C  
ENDBRANCH   5   6
TORSDOF 1
ENDMDL
MODEL      157
REMARK 921   NORMALIZED FREE ENERGY PREDICTED BY IDOCK:   -2.58 KCAL/MOL
REMARK 922        TOTAL FREE ENERGY PREDICTED BY IDOCK:   -2.41 KCAL/MOL
REMARK 923 INTER-LIGAND FREE ENERGY PREDICTED BY IDOCK:   -3.00 KCAL/MOL
REMARK 924 INTRA-LIGAND FREE ENERGY PREDICTED BY IDOCK:    0.59 KCAL/MOL
REMARK 927      BINDING AFFINITY PREDICTED BY RF-SCORE:    0.00 PKD
ROOT
HETATM    1 NA   UNL     1     -11.895   5.563  65.377  1.00  0.00    -0.691 Na 
HETATM    2  O   UNL     2     -10.517   4.578  67.583  1.00  0.00     0.068 OA 
HETATM    3  C   UNL     2      -9.533   5.429  67.230  1.00  0.00    -0.123 C  
HETATM    4  O   UNL     2      -9.118   5.405  66.087  1.00  0.00    -0.142 OA 
HETATM    5  C   UNL     2      -9.010   6.391  68.272  1.00  0.00    -0.116 C  
ENDROOT
BRANCH   5   6
HETATM    6  N   UNL     2      -7.880   7.310  67.887  1.00  0.00    -0.116 N  
HETATM    7  C   UNL     2      -6.585   6.671  68.187  1.00  0.00    -0.059 C  
HETATM    8  C   UNL     2      -6.453   6.527  69.695  1.00  0.00    -0.047 C  
HETATM    9  N   UNL     2      -6.904   7.798  70.288  1.00  0.00    -0.045 N  
HETATM   10  C   UNL     2      -7.811   7.679  71.470  1.00  0.00    -0.086 C  
HETATM   11  C   UNL     2      -9.168   8.256  71.146  1.00  0.00    -0.162 C  
HETATM   12  O   UNL     2      -9.270   9.132  70.132  1.00  0.00    -0.174 OA 
HETATM   13  O   UNL     2     -10.154   7.940  71.789  1.00  0.00    -0.175 OA 
HETATM   14 FE   UNL     2      -7.789   9.008  69.015  1.00  0.00    -0.077 Fe 
HETATM   15  O   UNL     2      -7.340  10.582  69.870  1.00  0.00    -0.154 OA 
HETATM   16  O   UNL     2      -8.602   9.706  67.466  1.00  0.00    -0.125 OA 
HETATM   17  C   UNL     2      -8.517   9.003  66.335  1.00  0.00    -0.120 C  
HETATM   18  C   UNL     2      -6.344  10.196  70.717  1.00  0.00    -0.052 C  
HETATM   19  C   UNL     2      -5.805   8.752  70.615  1.00  0.00    -0.032 C  
HETATM   20  O   UNL     2      -5.920  10.966  71.564  1.00  0.00    -0.305 OA 
HETATM   21  O   UNL     2      -8.817   9.496  65.258  1.00  0.00    -0.159 OA 
HETATM   22  C   UNL     2      -7.953   7.647  66.442  1.00  0.00    -0.107 C  
ENDBRANCH   5   6
TORSDOF 1
ENDMDL
MODEL      158
REMARK 921   NORMALIZED FREE ENERGY PREDICTED BY IDOCK:   -2.56 KCAL/MOL
REMARK 922        TOTAL FREE ENERGY PREDICTED BY IDOCK:   -2.38 KCAL/MOL
REMARK 923 INTER-LIGAND FREE ENERGY PREDICTED BY IDOCK:   -2.69 KCAL/MOL
REMARK 924 INTRA-LIGAND FREE ENERGY PREDICTED BY IDOCK:    0.31 KCAL/MOL
REMARK 927      BINDING AFFINITY PREDICTED BY RF-SCORE:    0.00 PKD
ROOT
HETATM    1 NA   UNL     1      -7.244   7.101  74.468  1.00  0.00    -0.096 Na 
HETATM    2  O   UNL     2      -6.750   4.928  72.804  1.00  0.00    -0.059 OA 
HETATM    3  C   UNL     2      -7.845   5.321  72.123  1.00  0.00    -0.105 C  
HETATM    4  O   UNL     2      -8.882   5.505  72.733  1.00  0.00    -0.123 OA 
HETATM    5  C   UNL     2      -7.722   5.538  70.632  1.00  0.00    -0.090 C  
ENDROOT
BRANCH   5   6
HETATM    6  N   UNL     2      -8.958   5.933  69.868  1.00  0.00    -0.138 N  
HETATM    7  C   UNL     2      -9.973   4.866  69.962  1.00  0.00    -0.253 C  
HETATM    8  C   UNL     2      -9.456   3.639  69.229  1.00  0.00    -0.174 C  
HETATM    9  N   UNL     2      -8.870   4.111  67.962  1.00  0.00    -0.107 N  
HETATM   10  C   UNL     2      -7.548   3.518  67.596  1.00  0.00    -0.069 C  
HETATM   11  C   UNL     2      -6.483   4.589  67.578  1.00  0.00    -0.045 C  
HETATM   12  O   UNL     2      -6.861   5.871  67.441  1.00  0.00    -0.060 OA 
HETATM   13  O   UNL     2      -5.303   4.303  67.683  1.00  0.00    -0.011 OA 
HETATM   14 FE   UNL     2      -8.664   6.064  67.852  1.00  0.00    -0.111 Fe 
HETATM   15  O   UNL     2      -8.801   6.189  66.015  1.00  0.00    -0.150 OA 
HETATM   16  O   UNL     2      -8.611   7.894  68.294  1.00  0.00    -0.124 OA 
HETATM   17  C   UNL     2      -9.121   8.277  69.467  1.00  0.00    -0.154 C  
HETATM   18  C   UNL     2      -9.330   4.983  65.666  1.00  0.00    -0.154 C  
HETATM   19  C   UNL     2      -9.783   4.020  66.787  1.00  0.00    -0.190 C  
HETATM   20  O   UNL     2      -9.404   4.657  64.492  1.00  0.00    -0.144 OA 
HETATM   21  O   UNL     2      -9.325   9.456  69.715  1.00  0.00    -0.175 OA 
HETATM   22  C   UNL     2      -9.514   7.205  70.397  1.00  0.00    -0.162 C  
ENDBRANCH   5   6
TORSDOF 1
ENDMDL
MODEL      159
REMARK 921   NORMALIZED FREE ENERGY PREDICTED BY IDOCK:   -2.56 KCAL/MOL
REMARK 922        TOTAL FREE ENERGY PREDICTED BY IDOCK:   -2.38 KCAL/MOL
REMARK 923 INTER-LIGAND FREE ENERGY PREDICTED BY IDOCK:   -2.70 KCAL/MOL
REMARK 924 INTRA-LIGAND FREE ENERGY PREDICTED BY IDOCK:    0.33 KCAL/MOL
REMARK 927      BINDING AFFINITY PREDICTED BY RF-SCORE:    0.00 PKD
ROOT
HETATM    1 NA   UNL     1      -8.313   8.383  74.436  1.00  0.00    -0.194 Na 
HETATM    2  O   UNL     2      -9.559   6.784  72.532  1.00  0.00    -0.153 OA 
HETATM    3  C   UNL     2      -9.431   7.838  71.701  1.00  0.00    -0.144 C  
HETATM    4  O   UNL     2      -9.836   8.925  72.064  1.00  0.00    -0.325 OA 
HETATM    5  C   UNL     2      -8.763   7.616  70.362  1.00  0.00    -0.143 C  
ENDROOT
BRANCH   5   6
HETATM    6  N   UNL     2      -8.662   8.785  69.418  1.00  0.00    -0.140 N  
HETATM    7  C   UNL     2     -10.005   9.173  68.947  1.00  0.00    -0.180 C  
HETATM    8  C   UNL     2     -10.563   8.047  68.091  1.00  0.00    -0.116 C  
HETATM    9  N   UNL     2      -9.473   7.604  67.204  1.00  0.00    -0.147 N  
HETATM   10  C   UNL     2      -9.301   6.125  67.075  1.00  0.00    -0.124 C  
HETATM   11  C   UNL     2      -7.962   5.705  67.630  1.00  0.00    -0.101 C  
HETATM   12  O   UNL     2      -6.990   6.627  67.734  1.00  0.00    -0.077 OA 
HETATM   13  O   UNL     2      -7.758   4.554  67.977  1.00  0.00    -0.079 OA 
HETATM   14 FE   UNL     2      -7.709   8.339  67.669  1.00  0.00    -0.084 Fe 
HETATM   15  O   UNL     2      -7.002   8.290  65.964  1.00  0.00    -0.063 OA 
HETATM   16  O   UNL     2      -6.309   9.219  68.570  1.00  0.00    -0.052 OA 
HETATM   17  C   UNL     2      -6.616   9.992  69.615  1.00  0.00    -0.062 C  
HETATM   18  C   UNL     2      -8.106   8.132  65.180  1.00  0.00    -0.139 C  
HETATM   19  C   UNL     2      -9.500   8.208  65.841  1.00  0.00    -0.012 C  
HETATM   20  O   UNL     2      -7.989   7.895  63.988  1.00  0.00    -0.142 OA 
HETATM   21  O   UNL     2      -5.797  10.762  70.095  1.00  0.00    -0.067 OA 
HETATM   22  C   UNL     2      -8.010   9.940  70.087  1.00  0.00    -0.162 C  
ENDBRANCH   5   6
TORSDOF 1
ENDMDL
MODEL      160
REMARK 921   NORMALIZED FREE ENERGY PREDICTED BY IDOCK:   -2.50 KCAL/MOL
REMARK 922        TOTAL FREE ENERGY PREDICTED BY IDOCK:   -2.32 KCAL/MOL
REMARK 923 INTER-LIGAND FREE ENERGY PREDICTED BY IDOCK:   -2.64 KCAL/MOL
REMARK 924 INTRA-LIGAND FREE ENERGY PREDICTED BY IDOCK:    0.32 KCAL/MOL
REMARK 927      BINDING AFFINITY PREDICTED BY RF-SCORE:    0.00 PKD
ROOT
HETATM    1 NA   UNL     1      -7.622   9.360  71.653  1.00  0.00    -0.114 Na 
HETATM    2  O   UNL     2      -8.405   6.735  71.174  1.00  0.00    -0.121 OA 
HETATM    3  C   UNL     2      -8.843   7.183  69.981  1.00  0.00    -0.142 C  
HETATM    4  O   UNL     2      -9.589   8.144  69.952  1.00  0.00    -0.173 OA 
HETATM    5  C   UNL     2      -8.364   6.479  68.731  1.00  0.00    -0.122 C  
ENDROOT
BRANCH   5   6
HETATM    6  N   UNL     2      -8.892   6.954  67.403  1.00  0.00    -0.118 N  
HETATM    7  C   UNL     2     -10.363   6.844  67.374  1.00  0.00    -0.231 C  
HETATM    8  C   UNL     2     -10.740   5.372  67.422  1.00  0.00    -0.077 C  
HETATM    9  N   UNL     2      -9.841   4.669  66.490  1.00  0.00    -0.202 N  
HETATM   10  C   UNL     2      -9.250   3.393  66.995  1.00  0.00    -0.184 C  
HETATM   11  C   UNL     2      -7.750   3.522  67.107  1.00  0.00    -0.079 C  
HETATM   12  O   UNL     2      -7.130   4.473  66.389  1.00  0.00    -0.071 OA 
HETATM   13  O   UNL     2      -7.108   2.780  67.831  1.00  0.00    -0.048 OA 
HETATM   14 FE   UNL     2      -8.345   5.766  65.836  1.00  0.00    -0.102 Fe 
HETATM   15  O   UNL     2      -8.137   4.897  64.220  1.00  0.00    -0.101 OA 
HETATM   16  O   UNL     2      -7.111   7.169  65.607  1.00  0.00    -0.065 OA 
HETATM   17  C   UNL     2      -7.359   8.335  66.208  1.00  0.00    -0.078 C  
HETATM   18  C   UNL     2      -9.299   4.196  64.097  1.00  0.00    -0.158 C  
HETATM   19  C   UNL     2     -10.418   4.432  65.136  1.00  0.00    -0.158 C  
HETATM   20  O   UNL     2      -9.432   3.372  63.207  1.00  0.00    -0.095 OA 
HETATM   21  O   UNL     2      -6.731   9.343  65.921  1.00  0.00    -0.078 OA 
HETATM   22  C   UNL     2      -8.488   8.362  67.155  1.00  0.00    -0.123 C  
ENDBRANCH   5   6
TORSDOF 1
ENDMDL
MODEL      161
REMARK 921   NORMALIZED FREE ENERGY PREDICTED BY IDOCK:   -2.43 KCAL/MOL
REMARK 922        TOTAL FREE ENERGY PREDICTED BY IDOCK:   -2.25 KCAL/MOL
REMARK 923 INTER-LIGAND FREE ENERGY PREDICTED BY IDOCK:   -3.41 KCAL/MOL
REMARK 924 INTRA-LIGAND FREE ENERGY PREDICTED BY IDOCK:    1.16 KCAL/MOL
REMARK 927      BINDING AFFINITY PREDICTED BY RF-SCORE:    0.00 PKD
ROOT
HETATM    1 NA   UNL     1      -7.440  11.097  70.683  1.00  0.00    -0.270 Na 
HETATM    2  O   UNL     2      -7.533   8.997  72.504  1.00  0.00    -0.335 OA 
HETATM    3  C   UNL     2      -8.328   8.379  71.608  1.00  0.00    -0.156 C  
HETATM    4  O   UNL     2      -9.302   8.970  71.183  1.00  0.00    -0.235 OA 
HETATM    5  C   UNL     2      -7.951   6.986  71.159  1.00  0.00    -0.104 C  
ENDROOT
BRANCH   5   6
HETATM    6  N   UNL     2      -8.866   6.281  70.192  1.00  0.00    -0.148 N  
HETATM    7  C   UNL     2      -8.223   5.052  69.691  1.00  0.00    -0.088 C  
HETATM    8  C   UNL     2      -7.019   5.442  68.850  1.00  0.00    -0.056 C  
HETATM    9  N   UNL     2      -7.442   6.561  67.990  1.00  0.00    -0.093 N  
HETATM   10  C   UNL     2      -6.485   7.706  67.894  1.00  0.00    -0.054 C  
HETATM   11  C   UNL     2      -7.103   8.952  68.480  1.00  0.00    -0.072 C  
HETATM   12  O   UNL     2      -8.441   9.022  68.580  1.00  0.00    -0.126 OA 
HETATM   13  O   UNL     2      -6.408   9.881  68.854  1.00  0.00    -0.041 OA 
HETATM   14 FE   UNL     2      -9.190   7.325  68.468  1.00  0.00    -0.134 Fe 
HETATM   15  O   UNL     2      -9.632   7.917  66.776  1.00  0.00    -0.184 OA 
HETATM   16  O   UNL     2     -10.795   7.714  69.373  1.00  0.00    -0.212 OA 
HETATM   17  C   UNL     2     -11.150   6.933  70.396  1.00  0.00    -0.296 C  
HETATM   18  C   UNL     2      -8.756   7.244  65.977  1.00  0.00    -0.151 C  
HETATM   19  C   UNL     2      -7.856   6.161  66.615  1.00  0.00    -0.104 C  
HETATM   20  O   UNL     2      -8.660   7.522  64.793  1.00  0.00     0.010 OA 
HETATM   21  O   UNL     2     -12.274   6.986  70.873  1.00  0.00    -0.364 OA 
HETATM   22  C   UNL     2     -10.157   5.944  70.847  1.00  0.00    -0.197 C  
ENDBRANCH   5   6
TORSDOF 1
ENDMDL
MODEL      162
REMARK 921   NORMALIZED FREE ENERGY PREDICTED BY IDOCK:   -2.38 KCAL/MOL
REMARK 922        TOTAL FREE ENERGY PREDICTED BY IDOCK:   -2.20 KCAL/MOL
REMARK 923 INTER-LIGAND FREE ENERGY PREDICTED BY IDOCK:   -2.62 KCAL/MOL
REMARK 924 INTRA-LIGAND FREE ENERGY PREDICTED BY IDOCK:    0.43 KCAL/MOL
REMARK 927      BINDING AFFINITY PREDICTED BY RF-SCORE:    0.00 PKD
ROOT
HETATM    1 NA   UNL     1      -9.892   1.926  62.639  1.00  0.00    -0.087 Na 
HETATM    2  O   UNL     2      -9.207   4.595  63.011  1.00  0.00    -0.134 OA 
HETATM    3  C   UNL     2      -9.669   4.441  64.268  1.00  0.00    -0.041 C  
HETATM    4  O   UNL     2     -10.784   3.983  64.431  1.00  0.00    -0.268 OA 
HETATM    5  C   UNL     2      -8.763   4.824  65.415  1.00  0.00    -0.138 C  
ENDROOT
BRANCH   5   6
HETATM    6  N   UNL     2      -9.299   4.692  66.817  1.00  0.00    -0.136 N  
HETATM    7  C   UNL     2     -10.631   5.318  66.909  1.00  0.00    -0.214 C  
HETATM    8  C   UNL     2     -10.480   6.817  66.706  1.00  0.00    -0.228 C  
HETATM    9  N   UNL     2      -9.312   7.240  67.499  1.00  0.00    -0.128 N  
HETATM   10  C   UNL     2      -8.365   8.172  66.814  1.00  0.00    -0.115 C  
HETATM   11  C   UNL     2      -7.019   7.511  66.640  1.00  0.00    -0.074 C  
HETATM   12  O   UNL     2      -6.703   6.474  67.433  1.00  0.00    -0.061 OA 
HETATM   13  O   UNL     2      -6.229   7.908  65.800  1.00  0.00    -0.041 OA 
HETATM   14 FE   UNL     2      -8.234   5.752  68.199  1.00  0.00    -0.096 Fe 
HETATM   15  O   UNL     2      -7.592   6.637  69.687  1.00  0.00    -0.093 OA 
HETATM   16  O   UNL     2      -7.546   4.030  68.529  1.00  0.00    -0.058 OA 
HETATM   17  C   UNL     2      -8.235   2.977  68.085  1.00  0.00    -0.076 C  
HETATM   18  C   UNL     2      -8.424   7.712  69.787  1.00  0.00    -0.134 C  
HETATM   19  C   UNL     2      -9.646   7.791  68.844  1.00  0.00    -0.154 C  
HETATM   20  O   UNL     2      -8.183   8.610  70.577  1.00  0.00    -0.102 OA 
HETATM   21  O   UNL     2      -7.971   1.844  68.458  1.00  0.00    -0.052 OA 
HETATM   22  C   UNL     2      -9.384   3.262  67.210  1.00  0.00    -0.192 C  
ENDBRANCH   5   6
TORSDOF 1
ENDMDL
MODEL      163
REMARK 921   NORMALIZED FREE ENERGY PREDICTED BY IDOCK:   -2.35 KCAL/MOL
REMARK 922        TOTAL FREE ENERGY PREDICTED BY IDOCK:   -2.16 KCAL/MOL
REMARK 923 INTER-LIGAND FREE ENERGY PREDICTED BY IDOCK:   -2.93 KCAL/MOL
REMARK 924 INTRA-LIGAND FREE ENERGY PREDICTED BY IDOCK:    0.77 KCAL/MOL
REMARK 927      BINDING AFFINITY PREDICTED BY RF-SCORE:    0.00 PKD
ROOT
HETATM    1 NA   UNL     1      -9.634   5.205  63.989  1.00  0.00    -0.315 Na 
HETATM    2  O   UNL     2     -11.198   5.719  66.230  1.00  0.00     0.003 OA 
HETATM    3  C   UNL     2     -10.156   5.255  66.947  1.00  0.00    -0.219 C  
HETATM    4  O   UNL     2      -9.686   4.169  66.665  1.00  0.00    -0.199 OA 
HETATM    5  C   UNL     2      -9.606   6.123  68.056  1.00  0.00    -0.115 C  
ENDROOT
BRANCH   5   6
HETATM    6  N   UNL     2      -8.470   5.581  68.885  1.00  0.00    -0.101 N  
HETATM    7  C   UNL     2      -8.646   4.132  69.097  1.00  0.00    -0.082 C  
HETATM    8  C   UNL     2      -9.878   3.914  69.961  1.00  0.00    -0.079 C  
HETATM    9  N   UNL     2      -9.819   4.907  71.049  1.00  0.00    -0.184 N  
HETATM   10  C   UNL     2     -11.098   5.619  71.349  1.00  0.00    -0.151 C  
HETATM   11  C   UNL     2     -10.956   7.093  71.056  1.00  0.00    -0.252 C  
HETATM   12  O   UNL     2      -9.723   7.626  71.017  1.00  0.00    -0.164 OA 
HETATM   13  O   UNL     2     -11.935   7.793  70.860  1.00  0.00    -0.284 OA 
HETATM   14 FE   UNL     2      -8.446   6.293  70.798  1.00  0.00    -0.114 Fe 
HETATM   15  O   UNL     2      -8.160   6.635  72.589  1.00  0.00    -0.102 OA 
HETATM   16  O   UNL     2      -7.100   7.374  70.047  1.00  0.00    -0.062 OA 
HETATM   17  C   UNL     2      -6.545   6.987  68.896  1.00  0.00    -0.048 C  
HETATM   18  C   UNL     2      -8.729   5.558  73.201  1.00  0.00    -0.120 C  
HETATM   19  C   UNL     2      -9.241   4.394  72.324  1.00  0.00    -0.122 C  
HETATM   20  O   UNL     2      -8.866   5.537  74.414  1.00  0.00    -0.117 OA 
HETATM   21  O   UNL     2      -5.523   7.510  68.477  1.00  0.00    -0.024 OA 
HETATM   22  C   UNL     2      -7.169   5.839  68.216  1.00  0.00    -0.076 C  
ENDBRANCH   5   6
TORSDOF 1
ENDMDL
MODEL      164
REMARK 921   NORMALIZED FREE ENERGY PREDICTED BY IDOCK:   -2.30 KCAL/MOL
REMARK 922        TOTAL FREE ENERGY PREDICTED BY IDOCK:   -2.11 KCAL/MOL
REMARK 923 INTER-LIGAND FREE ENERGY PREDICTED BY IDOCK:   -3.61 KCAL/MOL
REMARK 924 INTRA-LIGAND FREE ENERGY PREDICTED BY IDOCK:    1.50 KCAL/MOL
REMARK 927      BINDING AFFINITY PREDICTED BY RF-SCORE:    0.00 PKD
ROOT
HETATM    1 NA   UNL     1     -13.073   6.963  69.780  1.00  0.00    -0.614 Na 
HETATM    2  O   UNL     2     -11.008   6.675  71.620  1.00  0.00    -0.230 OA 
HETATM    3  C   UNL     2     -10.260   6.267  70.575  1.00  0.00    -0.193 C  
HETATM    4  O   UNL     2     -10.683   5.376  69.863  1.00  0.00    -0.316 OA 
HETATM    5  C   UNL     2      -8.939   6.959  70.326  1.00  0.00    -0.152 C  
ENDROOT
BRANCH   5   6
HETATM    6  N   UNL     2      -8.086   6.470  69.185  1.00  0.00    -0.111 N  
HETATM    7  C   UNL     2      -6.724   7.023  69.299  1.00  0.00    -0.049 C  
HETATM    8  C   UNL     2      -6.792   8.528  69.097  1.00  0.00    -0.058 C  
HETATM    9  N   UNL     2      -7.686   8.766  67.950  1.00  0.00    -0.101 N  
HETATM   10  C   UNL     2      -8.690   9.860  68.124  1.00  0.00    -0.122 C  
HETATM   11  C   UNL     2     -10.089   9.293  68.092  1.00  0.00    -0.187 C  
HETATM   12  O   UNL     2     -10.287   8.098  67.511  1.00  0.00    -0.224 OA 
HETATM   13  O   UNL     2     -11.025   9.904  68.579  1.00  0.00    -0.225 OA 
HETATM   14 FE   UNL     2      -8.681   7.174  67.363  1.00  0.00    -0.114 Fe 
HETATM   15  O   UNL     2      -8.857   7.674  65.595  1.00  0.00    -0.140 OA 
HETATM   16  O   UNL     2      -9.411   5.440  67.280  1.00  0.00    -0.117 OA 
HETATM   17  C   UNL     2      -8.946   4.516  68.124  1.00  0.00    -0.116 C  
HETATM   18  C   UNL     2      -7.937   8.671  65.465  1.00  0.00    -0.108 C  
HETATM   19  C   UNL     2      -6.985   8.957  66.648  1.00  0.00    -0.080 C  
HETATM   20  O   UNL     2      -7.897   9.348  64.451  1.00  0.00    -0.112 OA 
HETATM   21  O   UNL     2      -9.206   3.332  67.973  1.00  0.00    -0.158 OA 
HETATM   22  C   UNL     2      -8.029   4.985  69.176  1.00  0.00    -0.080 C  
ENDBRANCH   5   6
TORSDOF 1
ENDMDL
MODEL      165
REMARK 921   NORMALIZED FREE ENERGY PREDICTED BY IDOCK:   -2.28 KCAL/MOL
REMARK 922        TOTAL FREE ENERGY PREDICTED BY IDOCK:   -2.08 KCAL/MOL
REMARK 923 INTER-LIGAND FREE ENERGY PREDICTED BY IDOCK:   -2.47 KCAL/MOL
REMARK 924 INTRA-LIGAND FREE ENERGY PREDICTED BY IDOCK:    0.39 KCAL/MOL
REMARK 927      BINDING AFFINITY PREDICTED BY RF-SCORE:    0.00 PKD
ROOT
HETATM    1 NA   UNL     1      -9.014   4.321  63.947  1.00  0.00    -0.106 Na 
HETATM    2  O   UNL     2      -7.621   3.066  66.000  1.00  0.00    -0.075 OA 
HETATM    3  C   UNL     2      -7.628   4.267  66.612  1.00  0.00    -0.085 C  
HETATM    4  O   UNL     2      -7.231   5.240  66.000  1.00  0.00    -0.070 OA 
HETATM    5  C   UNL     2      -8.154   4.346  68.027  1.00  0.00    -0.090 C  
ENDROOT
BRANCH   5   6
HETATM    6  N   UNL     2      -8.119   5.682  68.723  1.00  0.00    -0.100 N  
HETATM    7  C   UNL     2      -6.741   5.992  69.151  1.00  0.00    -0.060 C  
HETATM    8  C   UNL     2      -6.330   4.999  70.225  1.00  0.00    -0.026 C  
HETATM    9  N   UNL     2      -7.472   4.870  71.148  1.00  0.00    -0.071 N  
HETATM   10  C   UNL     2      -7.824   3.476  71.557  1.00  0.00    -0.057 C  
HETATM   11  C   UNL     2      -9.201   3.117  71.053  1.00  0.00    -0.130 C  
HETATM   12  O   UNL     2     -10.052   4.109  70.743  1.00  0.00    -0.164 OA 
HETATM   13  O   UNL     2      -9.541   1.953  70.930  1.00  0.00    -0.130 OA 
HETATM   14 FE   UNL     2      -9.130   5.704  70.496  1.00  0.00    -0.125 Fe 
HETATM   15  O   UNL     2      -9.848   6.073  72.156  1.00  0.00    -0.162 OA 
HETATM   16  O   UNL     2     -10.406   6.549  69.400  1.00  0.00    -0.182 OA 
HETATM   17  C   UNL     2     -10.001   7.060  68.235  1.00  0.00    -0.153 C  
HETATM   18  C   UNL     2      -8.777   5.943  72.989  1.00  0.00    -0.123 C  
HETATM   19  C   UNL     2      -7.380   5.723  72.368  1.00  0.00    -0.095 C  
HETATM   20  O   UNL     2      -8.930   5.960  74.200  1.00  0.00    -0.122 OA 
HETATM   21  O   UNL     2     -10.716   7.812  67.589  1.00  0.00    -0.225 OA 
HETATM   22  C   UNL     2      -8.621   6.752  67.824  1.00  0.00    -0.121 C  
ENDBRANCH   5   6
TORSDOF 1
ENDMDL
MODEL      166
REMARK 921   NORMALIZED FREE ENERGY PREDICTED BY IDOCK:   -2.27 KCAL/MOL
REMARK 922        TOTAL FREE ENERGY PREDICTED BY IDOCK:   -2.08 KCAL/MOL
REMARK 923 INTER-LIGAND FREE ENERGY PREDICTED BY IDOCK:   -3.24 KCAL/MOL
REMARK 924 INTRA-LIGAND FREE ENERGY PREDICTED BY IDOCK:    1.16 KCAL/MOL
REMARK 927      BINDING AFFINITY PREDICTED BY RF-SCORE:    0.00 PKD
ROOT
HETATM    1 NA   UNL     1      -8.216   6.622  67.051  1.00  0.00    -0.101 Na 
HETATM    2  O   UNL     2     -10.575   7.844  66.228  1.00  0.00     0.183 OA 
HETATM    3  C   UNL     2     -10.428   8.641  67.305  1.00  0.00    -0.289 C  
HETATM    4  O   UNL     2     -10.257   8.129  68.395  1.00  0.00    -0.199 OA 
HETATM    5  C   UNL     2     -10.458  10.138  67.098  1.00  0.00    -0.246 C  
ENDROOT
BRANCH   5   6
HETATM    6  N   UNL     2     -10.338  11.025  68.310  1.00  0.00    -0.171 N  
HETATM    7  C   UNL     2     -10.150  12.427  67.893  1.00  0.00    -0.208 C  
HETATM    8  C   UNL     2      -8.802  12.553  67.202  1.00  0.00    -0.202 C  
HETATM    9  N   UNL     2      -7.833  11.796  68.015  1.00  0.00    -0.126 N  
HETATM   10  C   UNL     2      -6.895  10.914  67.255  1.00  0.00    -0.084 C  
HETATM   11  C   UNL     2      -7.134   9.467  67.612  1.00  0.00    -0.081 C  
HETATM   12  O   UNL     2      -7.751   9.184  68.771  1.00  0.00    -0.085 OA 
HETATM   13  O   UNL     2      -6.775   8.569  66.869  1.00  0.00    -0.060 OA 
HETATM   14 FE   UNL     2      -8.654  10.678  69.409  1.00  0.00    -0.122 Fe 
HETATM   15  O   UNL     2      -7.226  10.717  70.580  1.00  0.00    -0.158 OA 
HETATM   16  O   UNL     2      -9.911   9.761  70.469  1.00  0.00    -0.265 OA 
HETATM   17  C   UNL     2     -11.206  10.040  70.299  1.00  0.00    -0.313 C  
HETATM   18  C   UNL     2      -6.475  11.754  70.113  1.00  0.00     0.065 C  
HETATM   19  C   UNL     2      -7.047  12.626  68.972  1.00  0.00    -0.028 C  
HETATM   20  O   UNL     2      -5.359  11.961  70.561  1.00  0.00    -0.111 OA 
HETATM   21  O   UNL     2     -12.047   9.658  71.099  1.00  0.00    -0.316 OA 
HETATM   22  C   UNL     2     -11.549  10.910  69.162  1.00  0.00    -0.319 C  
ENDBRANCH   5   6
TORSDOF 1
ENDMDL
MODEL      167
REMARK 921   NORMALIZED FREE ENERGY PREDICTED BY IDOCK:   -2.26 KCAL/MOL
REMARK 922        TOTAL FREE ENERGY PREDICTED BY IDOCK:   -2.07 KCAL/MOL
REMARK 923 INTER-LIGAND FREE ENERGY PREDICTED BY IDOCK:   -3.32 KCAL/MOL
REMARK 924 INTRA-LIGAND FREE ENERGY PREDICTED BY IDOCK:    1.25 KCAL/MOL
REMARK 927      BINDING AFFINITY PREDICTED BY RF-SCORE:    0.00 PKD
ROOT
HETATM    1 NA   UNL     1     -12.804  13.799  69.368  1.00  0.00    -0.317 Na 
HETATM    2  O   UNL     2     -11.672  11.291  69.773  1.00  0.00    -0.287 OA 
HETATM    3  C   UNL     2     -10.802  11.632  68.802  1.00  0.00    -0.220 C  
HETATM    4  O   UNL     2     -11.235  12.032  67.739  1.00  0.00    -0.235 OA 
HETATM    5  C   UNL     2      -9.323  11.520  69.095  1.00  0.00     0.232 C  
ENDROOT
BRANCH   5   6
HETATM    6  N   UNL     2      -8.353  11.858  67.993  1.00  0.00    -0.152 N  
HETATM    7  C   UNL     2      -6.986  11.961  68.536  1.00  0.00    -0.085 C  
HETATM    8  C   UNL     2      -6.923  13.160  69.470  1.00  0.00     0.171 C  
HETATM    9  N   UNL     2      -7.630  14.264  68.797  1.00  0.00    -0.129 N  
HETATM   10  C   UNL     2      -8.573  15.049  69.651  1.00  0.00     0.009 C  
HETATM   11  C   UNL     2      -9.988  14.884  69.154  1.00  0.00    -0.211 C  
HETATM   12  O   UNL     2     -10.183  14.491  67.883  1.00  0.00    -0.227 OA 
HETATM   13  O   UNL     2     -10.940  15.104  69.883  1.00  0.00    -0.250 OA 
HETATM   14 FE   UNL     2      -8.638  13.717  67.199  1.00  0.00    -0.149 Fe 
HETATM   15  O   UNL     2      -8.531  15.335  66.316  1.00  0.00    -0.175 OA 
HETATM   16  O   UNL     2      -9.465  12.678  65.863  1.00  0.00    -0.202 OA 
HETATM   17  C   UNL     2      -9.186  11.373  65.812  1.00  0.00    -0.208 C  
HETATM   18  C   UNL     2      -7.537  15.983  66.986  1.00  0.00    -0.230 C  
HETATM   19  C   UNL     2      -6.742  15.209  68.061  1.00  0.00    -0.141 C  
HETATM   20  O   UNL     2      -7.310  17.162  66.766  1.00  0.00    -0.179 OA 
HETATM   21  O   UNL     2      -9.502  10.695  64.847  1.00  0.00    -0.204 OA 
HETATM   22  C   UNL     2      -8.396  10.824  66.927  1.00  0.00    -0.132 C  
ENDBRANCH   5   6
TORSDOF 1
ENDMDL
MODEL      168
REMARK 921   NORMALIZED FREE ENERGY PREDICTED BY IDOCK:   -2.25 KCAL/MOL
REMARK 922        TOTAL FREE ENERGY PREDICTED BY IDOCK:   -2.05 KCAL/MOL
REMARK 923 INTER-LIGAND FREE ENERGY PREDICTED BY IDOCK:   -3.33 KCAL/MOL
REMARK 924 INTRA-LIGAND FREE ENERGY PREDICTED BY IDOCK:    1.28 KCAL/MOL
REMARK 927      BINDING AFFINITY PREDICTED BY RF-SCORE:    0.00 PKD
ROOT
HETATM    1 NA   UNL     1      -7.465   5.541  67.494  1.00  0.00    -0.071 Na 
HETATM    2  O   UNL     2      -9.232   4.976  69.566  1.00  0.00    -0.108 OA 
HETATM    3  C   UNL     2      -8.910   6.193  70.047  1.00  0.00    -0.144 C  
HETATM    4  O   UNL     2      -7.736   6.474  70.195  1.00  0.00    -0.097 OA 
HETATM    5  C   UNL     2     -10.031   7.161  70.355  1.00  0.00    -0.187 C  
ENDROOT
BRANCH   5   6
HETATM    6  N   UNL     2      -9.669   8.503  70.934  1.00  0.00    -0.177 N  
HETATM    7  C   UNL     2     -10.893   9.247  71.290  1.00  0.00    -0.347 C  
HETATM    8  C   UNL     2     -11.647   9.580  70.012  1.00  0.00    -0.048 C  
HETATM    9  N   UNL     2     -10.648  10.052  69.037  1.00  0.00    -0.204 N  
HETATM   10  C   UNL     2     -10.778   9.500  67.654  1.00  0.00    -0.250 C  
HETATM   11  C   UNL     2      -9.566   8.668  67.310  1.00  0.00    -0.167 C  
HETATM   12  O   UNL     2      -8.430   8.868  67.998  1.00  0.00    -0.124 OA 
HETATM   13  O   UNL     2      -9.610   7.831  66.424  1.00  0.00    -0.203 OA 
HETATM   14 FE   UNL     2      -8.784   9.759  69.591  1.00  0.00    -0.108 Fe 
HETATM   15  O   UNL     2      -8.059  11.177  68.655  1.00  0.00    -0.137 OA 
HETATM   16  O   UNL     2      -7.257   9.182  70.530  1.00  0.00    -0.071 OA 
HETATM   17  C   UNL     2      -7.426   8.624  71.731  1.00  0.00    -0.081 C  
HETATM   18  C   UNL     2      -9.152  11.933  68.351  1.00  0.00    -0.167 C  
HETATM   19  C   UNL     2     -10.517  11.535  68.955  1.00  0.00    -0.187 C  
HETATM   20  O   UNL     2      -9.056  12.878  67.585  1.00  0.00    -0.176 OA 
HETATM   21  O   UNL     2      -6.480   8.439  72.483  1.00  0.00    -0.079 OA 
HETATM   22  C   UNL     2      -8.813   8.339  72.137  1.00  0.00    -0.201 C  
ENDBRANCH   5   6
TORSDOF 1
ENDMDL
MODEL      169
REMARK 921   NORMALIZED FREE ENERGY PREDICTED BY IDOCK:   -2.18 KCAL/MOL
REMARK 922        TOTAL FREE ENERGY PREDICTED BY IDOCK:   -1.98 KCAL/MOL
REMARK 923 INTER-LIGAND FREE ENERGY PREDICTED BY IDOCK:   -3.08 KCAL/MOL
REMARK 924 INTRA-LIGAND FREE ENERGY PREDICTED BY IDOCK:    1.10 KCAL/MOL
REMARK 927      BINDING AFFINITY PREDICTED BY RF-SCORE:    0.00 PKD
ROOT
HETATM    1 NA   UNL     1      -9.384   7.454  64.659  1.00  0.00    -0.346 Na 
HETATM    2  O   UNL     2     -10.230   9.742  65.994  1.00  0.00    -0.259 OA 
HETATM    3  C   UNL     2     -10.059   9.031  67.126  1.00  0.00    -0.243 C  
HETATM    4  O   UNL     2     -10.588   7.940  67.219  1.00  0.00    -0.297 OA 
HETATM    5  C   UNL     2      -9.194   9.619  68.217  1.00  0.00    -0.129 C  
ENDROOT
BRANCH   5   6
HETATM    6  N   UNL     2      -9.042   8.842  69.498  1.00  0.00    -0.144 N  
HETATM    7  C   UNL     2      -8.026   9.478  70.358  1.00  0.00    -0.178 C  
HETATM    8  C   UNL     2      -6.670   9.353  69.681  1.00  0.00    -0.048 C  
HETATM    9  N   UNL     2      -6.573   7.975  69.169  1.00  0.00    -0.040 N  
HETATM   10  C   UNL     2      -6.041   7.833  67.779  1.00  0.00    -0.046 C  
HETATM   11  C   UNL     2      -7.101   7.259  66.871  1.00  0.00    -0.086 C  
HETATM   12  O   UNL     2      -8.120   6.578  67.420  1.00  0.00    -0.118 OA 
HETATM   13  O   UNL     2      -7.038   7.405  65.662  1.00  0.00    -0.062 OA 
HETATM   14 FE   UNL     2      -8.265   6.973  69.231  1.00  0.00    -0.106 Fe 
HETATM   15  O   UNL     2      -7.512   5.295  69.390  1.00  0.00    -0.063 OA 
HETATM   16  O   UNL     2     -10.084   6.528  69.426  1.00  0.00    -0.164 OA 
HETATM   17  C   UNL     2     -10.900   7.428  69.980  1.00  0.00    -0.252 C  
HETATM   18  C   UNL     2      -6.227   5.569  69.751  1.00  0.00    -0.026 C  
HETATM   19  C   UNL     2      -5.843   7.032  70.065  1.00  0.00    -0.023 C  
HETATM   20  O   UNL     2      -5.391   4.680  69.784  1.00  0.00    -0.007 OA 
HETATM   21  O   UNL     2     -12.027   7.124  70.342  1.00  0.00    -0.244 OA 
HETATM   22  C   UNL     2     -10.339   8.768  70.220  1.00  0.00    -0.203 C  
ENDBRANCH   5   6
TORSDOF 1
ENDMDL
MODEL      170
REMARK 921   NORMALIZED FREE ENERGY PREDICTED BY IDOCK:   -2.15 KCAL/MOL
REMARK 922        TOTAL FREE ENERGY PREDICTED BY IDOCK:   -1.94 KCAL/MOL
REMARK 923 INTER-LIGAND FREE ENERGY PREDICTED BY IDOCK:   -3.09 KCAL/MOL
REMARK 924 INTRA-LIGAND FREE ENERGY PREDICTED BY IDOCK:    1.15 KCAL/MOL
REMARK 927      BINDING AFFINITY PREDICTED BY RF-SCORE:    0.00 PKD
ROOT
HETATM    1 NA   UNL     1     -10.909   7.489  70.939  1.00  0.00    -0.220 Na 
HETATM    2  O   UNL     2     -11.181  10.239  70.625  1.00  0.00    -0.315 OA 
HETATM    3  C   UNL     2      -9.924  10.213  70.141  1.00  0.00    -0.098 C  
HETATM    4  O   UNL     2      -9.053   9.674  70.798  1.00  0.00    -0.183 OA 
HETATM    5  C   UNL     2      -9.663  10.838  68.789  1.00  0.00    -0.192 C  
ENDROOT
BRANCH   5   6
HETATM    6  N   UNL     2      -8.249  10.847  68.272  1.00  0.00    -0.121 N  
HETATM    7  C   UNL     2      -8.209  11.428  66.917  1.00  0.00    -0.157 C  
HETATM    8  C   UNL     2      -8.949  10.498  65.968  1.00  0.00    -0.167 C  
HETATM    9  N   UNL     2      -8.518   9.126  66.292  1.00  0.00    -0.121 N  
HETATM   10  C   UNL     2      -9.606   8.104  66.371  1.00  0.00    -0.216 C  
HETATM   11  C   UNL     2      -9.711   7.562  67.775  1.00  0.00    -0.146 C  
HETATM   12  O   UNL     2      -8.651   7.680  68.592  1.00  0.00    -0.128 OA 
HETATM   13  O   UNL     2     -10.732   7.024  68.167  1.00  0.00    -0.210 OA 
HETATM   14 FE   UNL     2      -7.484   8.981  67.958  1.00  0.00    -0.075 Fe 
HETATM   15  O   UNL     2      -6.505   7.493  67.471  1.00  0.00    -0.053 OA 
HETATM   16  O   UNL     2      -6.659   9.382  69.603  1.00  0.00    -0.041 OA 
HETATM   17  C   UNL     2      -6.607  10.659  69.990  1.00  0.00    -0.149 C  
HETATM   18  C   UNL     2      -6.683   7.438  66.121  1.00  0.00    -0.053 C  
HETATM   19  C   UNL     2      -7.424   8.601  65.425  1.00  0.00    -0.086 C  
HETATM   20  O   UNL     2      -6.301   6.468  65.486  1.00  0.00    -0.036 OA 
HETATM   21  O   UNL     2      -5.895  11.011  70.919  1.00  0.00    -0.290 OA 
HETATM   22  C   UNL     2      -7.367  11.625  69.180  1.00  0.00    -0.032 C  
ENDBRANCH   5   6
TORSDOF 1
ENDMDL
MODEL      171
REMARK 921   NORMALIZED FREE ENERGY PREDICTED BY IDOCK:   -2.09 KCAL/MOL
REMARK 922        TOTAL FREE ENERGY PREDICTED BY IDOCK:   -1.88 KCAL/MOL
REMARK 923 INTER-LIGAND FREE ENERGY PREDICTED BY IDOCK:   -3.00 KCAL/MOL
REMARK 924 INTRA-LIGAND FREE ENERGY PREDICTED BY IDOCK:    1.11 KCAL/MOL
REMARK 927      BINDING AFFINITY PREDICTED BY RF-SCORE:    0.00 PKD
ROOT
HETATM    1 NA   UNL     1      -6.221   6.010  73.771  1.00  0.00    -0.051 Na 
HETATM    2  O   UNL     2      -5.868   3.610  72.412  1.00  0.00    -0.008 OA 
HETATM    3  C   UNL     2      -7.209   3.599  72.275  1.00  0.00    -0.048 C  
HETATM    4  O   UNL     2      -7.901   3.739  73.266  1.00  0.00    -0.076 OA 
HETATM    5  C   UNL     2      -7.785   3.437  70.887  1.00  0.00    -0.043 C  
ENDROOT
BRANCH   5   6
HETATM    6  N   UNL     2      -9.284   3.380  70.744  1.00  0.00    -0.118 N  
HETATM    7  C   UNL     2      -9.657   3.418  69.317  1.00  0.00    -0.066 C  
HETATM    8  C   UNL     2      -9.278   4.778  68.753  1.00  0.00    -0.124 C  
HETATM    9  N   UNL     2      -9.698   5.785  69.743  1.00  0.00    -0.156 N  
HETATM   10  C   UNL     2      -8.706   6.864  70.034  1.00  0.00    -0.142 C  
HETATM   11  C   UNL     2      -8.254   6.784  71.472  1.00  0.00    -0.111 C  
HETATM   12  O   UNL     2      -9.034   6.142  72.357  1.00  0.00    -0.137 OA 
HETATM   13  O   UNL     2      -7.205   7.291  71.830  1.00  0.00    -0.070 OA 
HETATM   14 FE   UNL     2     -10.236   5.029  71.478  1.00  0.00    -0.157 Fe 
HETATM   15  O   UNL     2     -11.415   6.374  71.938  1.00  0.00    -0.275 OA 
HETATM   16  O   UNL     2     -10.540   3.835  72.902  1.00  0.00    -0.169 OA 
HETATM   17  C   UNL     2     -10.393   2.528  72.674  1.00  0.00    -0.150 C  
HETATM   18  C   UNL     2     -11.623   7.017  70.755  1.00  0.00    -0.338 C  
HETATM   19  C   UNL     2     -11.024   6.408  69.467  1.00  0.00    -0.359 C  
HETATM   20  O   UNL     2     -12.234   8.073  70.724  1.00  0.00    -0.178 OA 
HETATM   21  O   UNL     2     -10.791   1.696  73.476  1.00  0.00    -0.110 OA 
HETATM   22  C   UNL     2      -9.821   2.145  71.372  1.00  0.00    -0.111 C  
ENDBRANCH   5   6
TORSDOF 1
ENDMDL
MODEL      172
REMARK 921   NORMALIZED FREE ENERGY PREDICTED BY IDOCK:   -2.05 KCAL/MOL
REMARK 922        TOTAL FREE ENERGY PREDICTED BY IDOCK:   -1.85 KCAL/MOL
REMARK 923 INTER-LIGAND FREE ENERGY PREDICTED BY IDOCK:   -3.05 KCAL/MOL
REMARK 924 INTRA-LIGAND FREE ENERGY PREDICTED BY IDOCK:    1.21 KCAL/MOL
REMARK 927      BINDING AFFINITY PREDICTED BY RF-SCORE:    0.00 PKD
ROOT
HETATM    1 NA   UNL     1      -7.604  11.470  70.003  1.00  0.00    -0.335 Na 
HETATM    2  O   UNL     2      -5.718   9.740  71.092  1.00  0.00    -0.068 OA 
HETATM    3  C   UNL     2      -6.719   8.839  71.154  1.00  0.00    -0.075 C  
HETATM    4  O   UNL     2      -7.762   9.156  71.694  1.00  0.00    -0.338 OA 
HETATM    5  C   UNL     2      -6.501   7.482  70.524  1.00  0.00    -0.038 C  
ENDROOT
BRANCH   5   6
HETATM    6  N   UNL     2      -7.604   6.463  70.634  1.00  0.00    -0.100 N  
HETATM    7  C   UNL     2      -7.197   5.204  69.982  1.00  0.00    -0.059 C  
HETATM    8  C   UNL     2      -7.065   5.452  68.488  1.00  0.00    -0.062 C  
HETATM    9  N   UNL     2      -8.234   6.252  68.081  1.00  0.00    -0.115 N  
HETATM   10  C   UNL     2      -7.949   7.405  67.174  1.00  0.00    -0.114 C  
HETATM   11  C   UNL     2      -8.285   8.706  67.862  1.00  0.00    -0.115 C  
HETATM   12  O   UNL     2      -9.138   8.684  68.900  1.00  0.00    -0.144 OA 
HETATM   13  O   UNL     2      -7.797   9.759  67.488  1.00  0.00    -0.095 OA 
HETATM   14 FE   UNL     2      -9.283   6.962  69.586  1.00  0.00    -0.138 Fe 
HETATM   15  O   UNL     2     -10.903   7.028  68.702  1.00  0.00    -0.204 OA 
HETATM   16  O   UNL     2      -9.844   7.443  71.318  1.00  0.00    -0.177 OA 
HETATM   17  C   UNL     2      -9.175   6.945  72.361  1.00  0.00    -0.133 C  
HETATM   18  C   UNL     2     -10.688   6.241  67.610  1.00  0.00    -0.313 C  
HETATM   19  C   UNL     2      -9.360   5.457  67.514  1.00  0.00    -0.114 C  
HETATM   20  O   UNL     2     -11.512   6.191  66.712  1.00  0.00    -0.044 OA 
HETATM   21  O   UNL     2      -9.619   7.029  73.496  1.00  0.00    -0.168 OA 
HETATM   22  C   UNL     2      -7.937   6.208  72.059  1.00  0.00    -0.106 C  
ENDBRANCH   5   6
TORSDOF 1
ENDMDL
MODEL      173
REMARK 921   NORMALIZED FREE ENERGY PREDICTED BY IDOCK:   -2.05 KCAL/MOL
REMARK 922        TOTAL FREE ENERGY PREDICTED BY IDOCK:   -1.84 KCAL/MOL
REMARK 923 INTER-LIGAND FREE ENERGY PREDICTED BY IDOCK:   -2.17 KCAL/MOL
REMARK 924 INTRA-LIGAND FREE ENERGY PREDICTED BY IDOCK:    0.33 KCAL/MOL
REMARK 927      BINDING AFFINITY PREDICTED BY RF-SCORE:    0.00 PKD
ROOT
HETATM    1 NA   UNL     1      -8.951  13.883  68.782  1.00  0.00    -0.164 Na 
HETATM    2  O   UNL     2      -9.725  11.561  67.461  1.00  0.00    -0.177 OA 
HETATM    3  C   UNL     2      -8.491  11.100  67.746  1.00  0.00    -0.124 C  
HETATM    4  O   UNL     2      -7.527  11.779  67.446  1.00  0.00    -0.124 OA 
HETATM    5  C   UNL     2      -8.370   9.767  68.449  1.00  0.00    -0.110 C  
ENDROOT
BRANCH   5   6
HETATM    6  N   UNL     2      -6.988   9.234  68.725  1.00  0.00    -0.061 N  
HETATM    7  C   UNL     2      -6.227   9.128  67.466  1.00  0.00    -0.058 C  
HETATM    8  C   UNL     2      -6.873   8.061  66.596  1.00  0.00    -0.068 C  
HETATM    9  N   UNL     2      -7.178   6.919  67.476  1.00  0.00    -0.088 N  
HETATM   10  C   UNL     2      -8.530   6.306  67.300  1.00  0.00    -0.108 C  
HETATM   11  C   UNL     2      -9.349   6.482  68.556  1.00  0.00    -0.123 C  
HETATM   12  O   UNL     2      -8.710   6.715  69.715  1.00  0.00    -0.138 OA 
HETATM   13  O   UNL     2     -10.566   6.414  68.527  1.00  0.00    -0.198 OA 
HETATM   14 FE   UNL     2      -6.977   7.306  69.394  1.00  0.00    -0.047 Fe 
HETATM   15  O   UNL     2      -6.571   5.582  69.916  1.00  0.00    -0.042 OA 
HETATM   16  O   UNL     2      -6.726   8.204  71.030  1.00  0.00    -0.040 OA 
HETATM   17  C   UNL     2      -6.313   9.473  70.999  1.00  0.00    -0.077 C  
HETATM   18  C   UNL     2      -6.250   4.973  68.740  1.00  0.00    -0.031 C  
HETATM   19  C   UNL     2      -6.152   5.837  67.463  1.00  0.00    -0.022 C  
HETATM   20  O   UNL     2      -6.084   3.765  68.694  1.00  0.00    -0.029 OA 
HETATM   21  O   UNL     2      -5.914  10.035  72.008  1.00  0.00    -0.292 OA 
HETATM   22  C   UNL     2      -6.268  10.120  69.676  1.00  0.00    -0.052 C  
ENDBRANCH   5   6
TORSDOF 1
ENDMDL
MODEL      174
REMARK 921   NORMALIZED FREE ENERGY PREDICTED BY IDOCK:   -2.02 KCAL/MOL
REMARK 922        TOTAL FREE ENERGY PREDICTED BY IDOCK:   -1.81 KCAL/MOL
REMARK 923 INTER-LIGAND FREE ENERGY PREDICTED BY IDOCK:   -2.91 KCAL/MOL
REMARK 924 INTRA-LIGAND FREE ENERGY PREDICTED BY IDOCK:    1.10 KCAL/MOL
REMARK 927      BINDING AFFINITY PREDICTED BY RF-SCORE:    0.00 PKD
ROOT
HETATM    1 NA   UNL     1     -12.175  10.092  69.939  1.00  0.00    -0.244 Na 
HETATM    2  O   UNL     2     -11.292  10.345  67.314  1.00  0.00    -0.327 OA 
HETATM    3  C   UNL     2     -10.050  10.384  67.835  1.00  0.00    -0.171 C  
HETATM    4  O   UNL     2      -9.811  11.177  68.726  1.00  0.00    -0.197 OA 
HETATM    5  C   UNL     2      -9.018   9.417  67.300  1.00  0.00    -0.130 C  
ENDROOT
BRANCH   5   6
HETATM    6  N   UNL     2      -7.619   9.493  67.853  1.00  0.00    -0.087 N  
HETATM    7  C   UNL     2      -6.814   8.365  67.349  1.00  0.00    -0.070 C  
HETATM    8  C   UNL     2      -7.373   7.074  67.923  1.00  0.00    -0.097 C  
HETATM    9  N   UNL     2      -7.644   7.321  69.350  1.00  0.00    -0.095 N  
HETATM   10  C   UNL     2      -8.955   6.816  69.860  1.00  0.00    -0.144 C  
HETATM   11  C   UNL     2      -9.822   7.969  70.303  1.00  0.00    -0.184 C  
HETATM   12  O   UNL     2      -9.233   9.139  70.603  1.00  0.00    -0.216 OA 
HETATM   13  O   UNL     2     -11.032   7.848  70.392  1.00  0.00    -0.246 OA 
HETATM   14 FE   UNL     2      -7.526   9.214  69.873  1.00  0.00    -0.049 Fe 
HETATM   15  O   UNL     2      -7.044   8.918  71.631  1.00  0.00    -0.175 OA 
HETATM   16  O   UNL     2      -7.375  11.090  69.811  1.00  0.00    -0.087 OA 
HETATM   17  C   UNL     2      -7.030  11.660  68.654  1.00  0.00    -0.088 C  
HETATM   18  C   UNL     2      -6.653   7.612  71.625  1.00  0.00    -0.042 C  
HETATM   19  C   UNL     2      -6.561   6.873  70.271  1.00  0.00    -0.048 C  
HETATM   20  O   UNL     2      -6.421   7.032  72.674  1.00  0.00    -0.053 OA 
HETATM   21  O   UNL     2      -6.695  12.833  68.601  1.00  0.00    -0.076 OA 
HETATM   22  C   UNL     2      -6.979  10.779  67.475  1.00  0.00    -0.084 C  
ENDBRANCH   5   6
TORSDOF 1
ENDMDL
MODEL      175
REMARK 921   NORMALIZED FREE ENERGY PREDICTED BY IDOCK:   -2.00 KCAL/MOL
REMARK 922        TOTAL FREE ENERGY PREDICTED BY IDOCK:   -1.79 KCAL/MOL
REMARK 923 INTER-LIGAND FREE ENERGY PREDICTED BY IDOCK:   -3.36 KCAL/MOL
REMARK 924 INTRA-LIGAND FREE ENERGY PREDICTED BY IDOCK:    1.58 KCAL/MOL
REMARK 927      BINDING AFFINITY PREDICTED BY RF-SCORE:    0.00 PKD
ROOT
HETATM    1 NA   UNL     1      -7.929   8.395  73.932  1.00  0.00    -0.140 Na 
HETATM    2  O   UNL     2      -6.713   5.900  73.774  1.00  0.00    -0.077 OA 
HETATM    3  C   UNL     2      -7.870   5.475  73.230  1.00  0.00    -0.104 C  
HETATM    4  O   UNL     2      -8.912   5.701  73.816  1.00  0.00    -0.124 OA 
HETATM    5  C   UNL     2      -7.816   4.755  71.902  1.00  0.00    -0.100 C  
ENDROOT
BRANCH   5   6
HETATM    6  N   UNL     2      -9.107   4.242  71.319  1.00  0.00    -0.121 N  
HETATM    7  C   UNL     2      -8.827   3.238  70.276  1.00  0.00    -0.082 C  
HETATM    8  C   UNL     2      -8.139   3.929  69.109  1.00  0.00    -0.058 C  
HETATM    9  N   UNL     2      -8.864   5.189  68.870  1.00  0.00    -0.092 N  
HETATM   10  C   UNL     2      -8.013   6.397  68.647  1.00  0.00    -0.106 C  
HETATM   11  C   UNL     2      -8.230   7.399  69.756  1.00  0.00    -0.129 C  
HETATM   12  O   UNL     2      -9.362   7.327  70.476  1.00  0.00    -0.158 OA 
HETATM   13  O   UNL     2      -7.401   8.259  69.997  1.00  0.00    -0.061 OA 
HETATM   14 FE   UNL     2     -10.152   5.656  70.281  1.00  0.00    -0.152 Fe 
HETATM   15  O   UNL     2     -11.306   6.616  69.207  1.00  0.00    -0.291 OA 
HETATM   16  O   UNL     2     -11.129   5.666  71.891  1.00  0.00    -0.256 OA 
HETATM   17  C   UNL     2     -11.000   4.625  72.717  1.00  0.00    -0.160 C  
HETATM   18  C   UNL     2     -10.935   6.243  67.950  1.00  0.00    -0.327 C  
HETATM   19  C   UNL     2      -9.891   5.115  67.790  1.00  0.00    -0.156 C  
HETATM   20  O   UNL     2     -11.390   6.818  66.974  1.00  0.00    -0.337 OA 
HETATM   21  O   UNL     2     -11.767   4.460  73.654  1.00  0.00    -0.168 OA 
HETATM   22  C   UNL     2      -9.956   3.643  72.381  1.00  0.00    -0.166 C  
ENDBRANCH   5   6
TORSDOF 1
ENDMDL
MODEL      176
REMARK 921   NORMALIZED FREE ENERGY PREDICTED BY IDOCK:   -1.98 KCAL/MOL
REMARK 922        TOTAL FREE ENERGY PREDICTED BY IDOCK:   -1.76 KCAL/MOL
REMARK 923 INTER-LIGAND FREE ENERGY PREDICTED BY IDOCK:   -3.07 KCAL/MOL
REMARK 924 INTRA-LIGAND FREE ENERGY PREDICTED BY IDOCK:    1.30 KCAL/MOL
REMARK 927      BINDING AFFINITY PREDICTED BY RF-SCORE:    0.00 PKD
ROOT
HETATM    1 NA   UNL     1      -9.251   7.328  64.375  1.00  0.00    -0.339 Na 
HETATM    2  O   UNL     2      -9.123   9.176  66.449  1.00  0.00    -0.151 OA 
HETATM    3  C   UNL     2      -9.355   8.131  67.268  1.00  0.00    -0.141 C  
HETATM    4  O   UNL     2     -10.307   7.409  67.042  1.00  0.00    -0.259 OA 
HETATM    5  C   UNL     2      -8.401   7.896  68.418  1.00  0.00    -0.124 C  
ENDROOT
BRANCH   5   6
HETATM    6  N   UNL     2      -8.690   6.755  69.357  1.00  0.00    -0.135 N  
HETATM    7  C   UNL     2      -7.520   6.500  70.218  1.00  0.00    -0.094 C  
HETATM    8  C   UNL     2      -6.380   5.990  69.349  1.00  0.00    -0.041 C  
HETATM    9  N   UNL     2      -6.957   4.999  68.425  1.00  0.00    -0.056 N  
HETATM   10  C   UNL     2      -6.521   5.108  66.999  1.00  0.00    -0.045 C  
HETATM   11  C   UNL     2      -7.698   5.451  66.118  1.00  0.00    -0.092 C  
HETATM   12  O   UNL     2      -8.937   5.189  66.568  1.00  0.00    -0.116 OA 
HETATM   13  O   UNL     2      -7.535   5.953  65.019  1.00  0.00    -0.073 OA 
HETATM   14 FE   UNL     2      -8.924   4.960  68.412  1.00  0.00    -0.100 Fe 
HETATM   15  O   UNL     2      -9.098   3.186  67.932  1.00  0.00    -0.140 OA 
HETATM   16  O   UNL     2     -10.732   5.389  68.717  1.00  0.00    -0.174 OA 
HETATM   17  C   UNL     2     -11.017   6.316  69.635  1.00  0.00    -0.374 C  
HETATM   18  C   UNL     2      -7.856   2.680  68.172  1.00  0.00    -0.058 C  
HETATM   19  C   UNL     2      -6.812   3.583  68.868  1.00  0.00    -0.045 C  
HETATM   20  O   UNL     2      -7.566   1.553  67.807  1.00  0.00    -0.053 OA 
HETATM   21  O   UNL     2     -12.158   6.476  70.041  1.00  0.00    -0.282 OA 
HETATM   22  C   UNL     2      -9.877   7.059  70.198  1.00  0.00    -0.175 C  
ENDBRANCH   5   6
TORSDOF 1
ENDMDL
MODEL      177
REMARK 921   NORMALIZED FREE ENERGY PREDICTED BY IDOCK:   -1.94 KCAL/MOL
REMARK 922        TOTAL FREE ENERGY PREDICTED BY IDOCK:   -1.72 KCAL/MOL
REMARK 923 INTER-LIGAND FREE ENERGY PREDICTED BY IDOCK:   -2.27 KCAL/MOL
REMARK 924 INTRA-LIGAND FREE ENERGY PREDICTED BY IDOCK:    0.54 KCAL/MOL
REMARK 927      BINDING AFFINITY PREDICTED BY RF-SCORE:    0.00 PKD
ROOT
HETATM    1 NA   UNL     1      -5.813   6.998  65.824  1.00  0.00    -0.027 Na 
HETATM    2  O   UNL     2      -5.401   4.959  67.670  1.00  0.00    -0.010 OA 
HETATM    3  C   UNL     2      -5.860   5.829  68.591  1.00  0.00    -0.019 C  
HETATM    4  O   UNL     2      -5.358   6.935  68.657  1.00  0.00    -0.015 OA 
HETATM    5  C   UNL     2      -6.999   5.391  69.484  1.00  0.00    -0.062 C  
ENDROOT
BRANCH   5   6
HETATM    6  N   UNL     2      -7.480   6.349  70.542  1.00  0.00    -0.088 N  
HETATM    7  C   UNL     2      -6.693   6.174  71.778  1.00  0.00    -0.063 C  
HETATM    8  C   UNL     2      -6.993   4.799  72.353  1.00  0.00    -0.070 C  
HETATM    9  N   UNL     2      -8.451   4.608  72.269  1.00  0.00    -0.117 N  
HETATM   10  C   UNL     2      -8.906   3.276  71.768  1.00  0.00    -0.087 C  
HETATM   11  C   UNL     2      -9.641   3.434  70.459  1.00  0.00    -0.161 C  
HETATM   12  O   UNL     2     -10.164   4.634  70.155  1.00  0.00    -0.240 OA 
HETATM   13  O   UNL     2      -9.766   2.496  69.691  1.00  0.00    -0.041 OA 
HETATM   14 FE   UNL     2      -9.378   5.965  71.188  1.00  0.00    -0.140 Fe 
HETATM   15  O   UNL     2     -10.996   5.872  72.071  1.00  0.00    -0.245 OA 
HETATM   16  O   UNL     2      -9.730   7.405  70.027  1.00  0.00    -0.174 OA 
HETATM   17  C   UNL     2      -8.713   8.193  69.668  1.00  0.00    -0.142 C  
HETATM   18  C   UNL     2     -10.678   5.220  73.225  1.00  0.00    -0.277 C  
HETATM   19  C   UNL     2      -9.190   4.930  73.524  1.00  0.00    -0.119 C  
HETATM   20  O   UNL     2     -11.556   4.841  73.983  1.00  0.00     0.036 OA 
HETATM   21  O   UNL     2      -8.905   9.263  69.112  1.00  0.00    -0.134 OA 
HETATM   22  C   UNL     2      -7.365   7.752  70.066  1.00  0.00    -0.075 C  
ENDBRANCH   5   6
TORSDOF 1
ENDMDL
MODEL      178
REMARK 921   NORMALIZED FREE ENERGY PREDICTED BY IDOCK:   -1.89 KCAL/MOL
REMARK 922        TOTAL FREE ENERGY PREDICTED BY IDOCK:   -1.68 KCAL/MOL
REMARK 923 INTER-LIGAND FREE ENERGY PREDICTED BY IDOCK:   -2.02 KCAL/MOL
REMARK 924 INTRA-LIGAND FREE ENERGY PREDICTED BY IDOCK:    0.34 KCAL/MOL
REMARK 927      BINDING AFFINITY PREDICTED BY RF-SCORE:    0.00 PKD
ROOT
HETATM    1 NA   UNL     1      -8.975   7.402  74.436  1.00  0.00    -0.157 Na 
HETATM    2  O   UNL     2      -6.660   7.765  72.937  1.00  0.00    -0.061 OA 
HETATM    3  C   UNL     2      -7.425   7.485  71.863  1.00  0.00    -0.080 C  
HETATM    4  O   UNL     2      -8.095   6.470  71.868  1.00  0.00    -0.104 OA 
HETATM    5  C   UNL     2      -7.429   8.465  70.712  1.00  0.00    -0.065 C  
ENDROOT
BRANCH   5   6
HETATM    6  N   UNL     2      -8.250   8.127  69.495  1.00  0.00    -0.119 N  
HETATM    7  C   UNL     2      -7.631   7.004  68.764  1.00  0.00    -0.105 C  
HETATM    8  C   UNL     2      -6.298   7.467  68.200  1.00  0.00    -0.048 C  
HETATM    9  N   UNL     2      -6.519   8.805  67.624  1.00  0.00    -0.060 N  
HETATM   10  C   UNL     2      -5.480   9.831  67.945  1.00  0.00    -0.039 C  
HETATM   11  C   UNL     2      -6.083  10.946  68.764  1.00  0.00    -0.039 C  
HETATM   12  O   UNL     2      -7.414  11.127  68.724  1.00  0.00    -0.102 OA 
HETATM   13  O   UNL     2      -5.383  11.673  69.448  1.00  0.00    -0.048 OA 
HETATM   14 FE   UNL     2      -8.258   9.601  68.082  1.00  0.00    -0.097 Fe 
HETATM   15  O   UNL     2      -8.420  10.644  66.568  1.00  0.00    -0.135 OA 
HETATM   16  O   UNL     2      -9.941   9.912  68.868  1.00  0.00    -0.167 OA 
HETATM   17  C   UNL     2     -10.488   8.939  69.600  1.00  0.00    -0.216 C  
HETATM   18  C   UNL     2      -7.492  10.108  65.726  1.00  0.00    -0.131 C  
HETATM   19  C   UNL     2      -6.767   8.812  66.154  1.00  0.00    -0.073 C  
HETATM   20  O   UNL     2      -7.214  10.665  64.677  1.00  0.00     0.010 OA 
HETATM   21  O   UNL     2     -11.660   8.986  69.943  1.00  0.00    -0.020 OA 
HETATM   22  C   UNL     2      -9.638   7.771  69.885  1.00  0.00    -0.164 C  
ENDBRANCH   5   6
TORSDOF 1
ENDMDL
MODEL      179
REMARK 921   NORMALIZED FREE ENERGY PREDICTED BY IDOCK:   -1.89 KCAL/MOL
REMARK 922        TOTAL FREE ENERGY PREDICTED BY IDOCK:   -1.67 KCAL/MOL
REMARK 923 INTER-LIGAND FREE ENERGY PREDICTED BY IDOCK:   -2.85 KCAL/MOL
REMARK 924 INTRA-LIGAND FREE ENERGY PREDICTED BY IDOCK:    1.18 KCAL/MOL
REMARK 927      BINDING AFFINITY PREDICTED BY RF-SCORE:    0.00 PKD
ROOT
HETATM    1 NA   UNL     1      -5.710   8.360  70.763  1.00  0.00    -0.030 Na 
HETATM    2  O   UNL     2      -8.372   7.922  71.437  1.00  0.00    -0.100 OA 
HETATM    3  C   UNL     2      -8.670   8.601  70.311  1.00  0.00    -0.147 C  
HETATM    4  O   UNL     2      -8.171   9.696  70.137  1.00  0.00    -0.161 OA 
HETATM    5  C   UNL     2      -9.595   7.952  69.307  1.00  0.00    -0.157 C  
ENDROOT
BRANCH   5   6
HETATM    6  N   UNL     2      -9.962   8.732  68.072  1.00  0.00    -0.173 N  
HETATM    7  C   UNL     2     -10.657   7.857  67.109  1.00  0.00    -0.313 C  
HETATM    8  C   UNL     2      -9.677   6.806  66.612  1.00  0.00    -0.158 C  
HETATM    9  N   UNL     2      -8.410   7.503  66.328  1.00  0.00    -0.127 N  
HETATM   10  C   UNL     2      -7.172   6.827  66.820  1.00  0.00    -0.076 C  
HETATM   11  C   UNL     2      -6.495   7.677  67.868  1.00  0.00    -0.054 C  
HETATM   12  O   UNL     2      -6.768   8.991  67.906  1.00  0.00    -0.067 OA 
HETATM   13  O   UNL     2      -5.712   7.187  68.664  1.00  0.00    -0.020 OA 
HETATM   14 FE   UNL     2      -8.346   9.354  66.991  1.00  0.00    -0.112 Fe 
HETATM   15  O   UNL     2      -7.160   9.990  65.727  1.00  0.00    -0.103 OA 
HETATM   16  O   UNL     2      -8.768  10.963  67.874  1.00  0.00    -0.127 OA 
HETATM   17  C   UNL     2      -9.984  11.092  68.408  1.00  0.00    -0.186 C  
HETATM   18  C   UNL     2      -7.189   9.025  64.767  1.00  0.00    -0.096 C  
HETATM   19  C   UNL     2      -8.219   7.881  64.898  1.00  0.00    -0.124 C  
HETATM   20  O   UNL     2      -6.388   9.044  63.845  1.00  0.00    -0.086 OA 
HETATM   21  O   UNL     2     -10.398  12.177  68.788  1.00  0.00    -0.215 OA 
HETATM   22  C   UNL     2     -10.830   9.885  68.423  1.00  0.00    -0.221 C  
ENDBRANCH   5   6
TORSDOF 1
ENDMDL
MODEL      180
REMARK 921   NORMALIZED FREE ENERGY PREDICTED BY IDOCK:   -1.83 KCAL/MOL
REMARK 922        TOTAL FREE ENERGY PREDICTED BY IDOCK:   -1.61 KCAL/MOL
REMARK 923 INTER-LIGAND FREE ENERGY PREDICTED BY IDOCK:   -2.78 KCAL/MOL
REMARK 924 INTRA-LIGAND FREE ENERGY PREDICTED BY IDOCK:    1.17 KCAL/MOL
REMARK 927      BINDING AFFINITY PREDICTED BY RF-SCORE:    0.00 PKD
ROOT
HETATM    1 NA   UNL     1     -10.258  18.457  66.784  1.00  0.00    -0.282 Na 
HETATM    2  O   UNL     2      -8.508  16.741  65.470  1.00  0.00    -0.211 OA 
HETATM    3  C   UNL     2      -8.425  16.081  66.642  1.00  0.00    -0.288 C  
HETATM    4  O   UNL     2      -8.156  16.706  67.651  1.00  0.00    -0.167 OA 
HETATM    5  C   UNL     2      -8.696  14.594  66.647  1.00  0.00    -0.163 C  
ENDROOT
BRANCH   5   6
HETATM    6  N   UNL     2      -8.559  13.851  67.950  1.00  0.00    -0.168 N  
HETATM    7  C   UNL     2      -8.918  12.432  67.764  1.00  0.00    -0.182 C  
HETATM    8  C   UNL     2     -10.400  12.345  67.438  1.00  0.00    -0.207 C  
HETATM    9  N   UNL     2     -11.096  13.258  68.361  1.00  0.00    -0.257 N  
HETATM   10  C   UNL     2     -12.145  14.128  67.748  1.00  0.00    -0.286 C  
HETATM   11  C   UNL     2     -11.749  15.580  67.859  1.00  0.00    -0.138 C  
HETATM   12  O   UNL     2     -10.850  15.933  68.792  1.00  0.00    -0.251 OA 
HETATM   13  O   UNL     2     -12.233  16.422  67.121  1.00  0.00     1.299 OA 
HETATM   14 FE   UNL     2      -9.897  14.446  69.372  1.00  0.00    -0.199 Fe 
HETATM   15  O   UNL     2     -10.990  14.645  70.847  1.00  0.00    -0.025 OA 
HETATM   16  O   UNL     2      -8.369  15.364  69.979  1.00  0.00    -0.013 OA 
HETATM   17  C   UNL     2      -7.174  14.966  69.538  1.00  0.00    -0.184 C  
HETATM   18  C   UNL     2     -11.886  13.629  70.703  1.00  0.00    -0.154 C  
HETATM   19  C   UNL     2     -11.662  12.599  69.573  1.00  0.00    -0.308 C  
HETATM   20  O   UNL     2     -12.866  13.561  71.428  1.00  0.00    -0.350 OA 
HETATM   21  O   UNL     2      -6.142  15.360  70.060  1.00  0.00    -0.141 OA 
HETATM   22  C   UNL     2      -7.170  13.957  68.466  1.00  0.00    -0.107 C  
ENDBRANCH   5   6
TORSDOF 1
ENDMDL
MODEL      181
REMARK 921   NORMALIZED FREE ENERGY PREDICTED BY IDOCK:   -1.82 KCAL/MOL
REMARK 922        TOTAL FREE ENERGY PREDICTED BY IDOCK:   -1.60 KCAL/MOL
REMARK 923 INTER-LIGAND FREE ENERGY PREDICTED BY IDOCK:   -2.70 KCAL/MOL
REMARK 924 INTRA-LIGAND FREE ENERGY PREDICTED BY IDOCK:    1.10 KCAL/MOL
REMARK 927      BINDING AFFINITY PREDICTED BY RF-SCORE:    0.00 PKD
ROOT
HETATM    1 NA   UNL     1      -7.895   7.502  73.436  1.00  0.00    -0.090 Na 
HETATM    2  O   UNL     2      -5.991   5.767  72.387  1.00  0.00    -0.036 OA 
HETATM    3  C   UNL     2      -6.867   5.564  71.383  1.00  0.00    -0.061 C  
HETATM    4  O   UNL     2      -8.011   5.254  71.656  1.00  0.00    -0.110 OA 
HETATM    5  C   UNL     2      -6.385   5.756  69.963  1.00  0.00    -0.031 C  
ENDROOT
BRANCH   5   6
HETATM    6  N   UNL     2      -7.354   5.485  68.842  1.00  0.00    -0.079 N  
HETATM    7  C   UNL     2      -6.744   5.845  67.548  1.00  0.00    -0.058 C  
HETATM    8  C   UNL     2      -6.540   7.351  67.510  1.00  0.00    -0.061 C  
HETATM    9  N   UNL     2      -7.771   7.963  68.041  1.00  0.00    -0.122 N  
HETATM   10  C   UNL     2      -7.573   9.076  69.019  1.00  0.00    -0.078 C  
HETATM   11  C   UNL     2      -8.120   8.687  70.371  1.00  0.00    -0.107 C  
HETATM   12  O   UNL     2      -9.034   7.704  70.437  1.00  0.00    -0.149 OA 
HETATM   13  O   UNL     2      -7.746   9.249  71.385  1.00  0.00    -0.334 OA 
HETATM   14 FE   UNL     2      -9.005   6.684  68.883  1.00  0.00    -0.124 Fe 
HETATM   15  O   UNL     2     -10.554   7.630  68.544  1.00  0.00    -0.192 OA 
HETATM   16  O   UNL     2      -9.743   5.114  69.616  1.00  0.00    -0.151 OA 
HETATM   17  C   UNL     2      -9.091   3.963  69.434  1.00  0.00    -0.131 C  
HETATM   18  C   UNL     2     -10.164   8.525  67.593  1.00  0.00    -0.236 C  
HETATM   19  C   UNL     2      -8.743   8.401  66.999  1.00  0.00    -0.126 C  
HETATM   20  O   UNL     2     -10.910   9.429  67.251  1.00  0.00    -0.247 OA 
HETATM   21  O   UNL     2      -9.620   2.890  69.679  1.00  0.00    -0.124 OA 
HETATM   22  C   UNL     2      -7.750   4.053  68.832  1.00  0.00    -0.054 C  
ENDBRANCH   5   6
TORSDOF 1
ENDMDL
MODEL      182
REMARK 921   NORMALIZED FREE ENERGY PREDICTED BY IDOCK:   -1.75 KCAL/MOL
REMARK 922        TOTAL FREE ENERGY PREDICTED BY IDOCK:   -1.52 KCAL/MOL
REMARK 923 INTER-LIGAND FREE ENERGY PREDICTED BY IDOCK:   -2.83 KCAL/MOL
REMARK 924 INTRA-LIGAND FREE ENERGY PREDICTED BY IDOCK:    1.31 KCAL/MOL
REMARK 927      BINDING AFFINITY PREDICTED BY RF-SCORE:    0.00 PKD
ROOT
HETATM    1 NA   UNL     1      -7.304   7.509  63.686  1.00  0.00    -0.061 Na 
HETATM    2  O   UNL     2      -8.498   8.967  65.731  1.00  0.00    -0.128 OA 
HETATM    3  C   UNL     2      -8.629   7.786  66.368  1.00  0.00    -0.145 C  
HETATM    4  O   UNL     2      -9.153   6.858  65.783  1.00  0.00    -0.077 OA 
HETATM    5  C   UNL     2      -8.093   7.670  67.777  1.00  0.00    -0.118 C  
ENDROOT
BRANCH   5   6
HETATM    6  N   UNL     2      -8.281   6.363  68.502  1.00  0.00    -0.113 N  
HETATM    7  C   UNL     2      -9.470   5.662  67.980  1.00  0.00    -0.110 C  
HETATM    8  C   UNL     2     -10.707   6.470  68.339  1.00  0.00    -0.279 C  
HETATM    9  N   UNL     2     -10.548   6.896  69.740  1.00  0.00    -0.223 N  
HETATM   10  C   UNL     2     -10.890   8.322  70.029  1.00  0.00    -0.232 C  
HETATM   11  C   UNL     2      -9.662   9.071  70.486  1.00  0.00    -0.216 C  
HETATM   12  O   UNL     2      -8.627   8.371  70.980  1.00  0.00    -0.131 OA 
HETATM   13  O   UNL     2      -9.604  10.287  70.413  1.00  0.00     0.087 OA 
HETATM   14 FE   UNL     2      -8.751   6.586  70.476  1.00  0.00    -0.125 Fe 
HETATM   15  O   UNL     2      -9.272   6.395  72.237  1.00  0.00    -0.141 OA 
HETATM   16  O   UNL     2      -6.922   6.167  70.637  1.00  0.00    -0.060 OA 
HETATM   17  C   UNL     2      -6.311   5.590  69.599  1.00  0.00    -0.033 C  
HETATM   18  C   UNL     2     -10.616   6.194  72.138  1.00  0.00    -0.209 C  
HETATM   19  C   UNL     2     -11.237   6.023  70.733  1.00  0.00    -0.269 C  
HETATM   20  O   UNL     2     -11.317   6.191  73.138  1.00  0.00    -0.180 OA 
HETATM   21  O   UNL     2      -5.202   5.089  69.714  1.00  0.00     0.000 OA 
HETATM   22  C   UNL     2      -7.080   5.503  68.346  1.00  0.00    -0.070 C  
ENDBRANCH   5   6
TORSDOF 1
ENDMDL
MODEL      183
REMARK 921   NORMALIZED FREE ENERGY PREDICTED BY IDOCK:   -1.53 KCAL/MOL
REMARK 922        TOTAL FREE ENERGY PREDICTED BY IDOCK:   -1.29 KCAL/MOL
REMARK 923 INTER-LIGAND FREE ENERGY PREDICTED BY IDOCK:   -2.96 KCAL/MOL
REMARK 924 INTRA-LIGAND FREE ENERGY PREDICTED BY IDOCK:    1.66 KCAL/MOL
REMARK 927      BINDING AFFINITY PREDICTED BY RF-SCORE:    0.00 PKD
ROOT
HETATM    1 NA   UNL     1      -9.174  10.210  67.571  1.00  0.00    -0.130 Na 
HETATM    2  O   UNL     2      -7.166   8.393  66.936  1.00  0.00    -0.077 OA 
HETATM    3  C   UNL     2      -6.981   8.277  68.266  1.00  0.00    -0.076 C  
HETATM    4  O   UNL     2      -6.819   9.285  68.926  1.00  0.00    -0.055 OA 
HETATM    5  C   UNL     2      -7.009   6.893  68.874  1.00  0.00    -0.082 C  
ENDROOT
BRANCH   5   6
HETATM    6  N   UNL     2      -6.757   6.764  70.354  1.00  0.00    -0.055 N  
HETATM    7  C   UNL     2      -6.286   5.402  70.669  1.00  0.00    -0.026 C  
HETATM    8  C   UNL     2      -7.415   4.422  70.394  1.00  0.00    -0.049 C  
HETATM    9  N   UNL     2      -8.644   5.019  70.946  1.00  0.00    -0.119 N  
HETATM   10  C   UNL     2      -9.853   4.944  70.071  1.00  0.00    -0.233 C  
HETATM   11  C   UNL     2     -10.296   6.331  69.674  1.00  0.00    -0.215 C  
HETATM   12  O   UNL     2      -9.906   7.372  70.428  1.00  0.00    -0.183 OA 
HETATM   13  O   UNL     2     -10.996   6.510  68.692  1.00  0.00    -0.278 OA 
HETATM   14 FE   UNL     2      -8.451   6.901  71.484  1.00  0.00    -0.107 Fe 
HETATM   15  O   UNL     2      -9.745   6.879  72.801  1.00  0.00    -0.148 OA 
HETATM   16  O   UNL     2      -7.767   8.637  71.736  1.00  0.00    -0.147 OA 
HETATM   17  C   UNL     2      -6.480   8.858  71.459  1.00  0.00    -0.076 C  
HETATM   18  C   UNL     2      -9.939   5.547  73.017  1.00  0.00    -0.176 C  
HETATM   19  C   UNL     2      -9.004   4.540  72.312  1.00  0.00    -0.125 C  
HETATM   20  O   UNL     2     -10.859   5.163  73.722  1.00  0.00    -0.281 OA 
HETATM   21  O   UNL     2      -5.923   9.886  71.812  1.00  0.00    -0.286 OA 
HETATM   22  C   UNL     2      -5.750   7.761  70.800  1.00  0.00    -0.030 C  
ENDBRANCH   5   6
TORSDOF 1
ENDMDL
MODEL      184
REMARK 921   NORMALIZED FREE ENERGY PREDICTED BY IDOCK:   -1.53 KCAL/MOL
REMARK 922        TOTAL FREE ENERGY PREDICTED BY IDOCK:   -1.29 KCAL/MOL
REMARK 923 INTER-LIGAND FREE ENERGY PREDICTED BY IDOCK:   -2.09 KCAL/MOL
REMARK 924 INTRA-LIGAND FREE ENERGY PREDICTED BY IDOCK:    0.80 KCAL/MOL
REMARK 927      BINDING AFFINITY PREDICTED BY RF-SCORE:    0.00 PKD
ROOT
HETATM    1 NA   UNL     1      -7.130   6.379  74.457  1.00  0.00    -0.083 Na 
HETATM    2  O   UNL     2      -5.345   6.167  72.335  1.00  0.00    -0.029 OA 
HETATM    3  C   UNL     2      -6.137   5.169  71.892  1.00  0.00    -0.026 C  
HETATM    4  O   UNL     2      -6.420   4.263  72.652  1.00  0.00    -0.026 OA 
HETATM    5  C   UNL     2      -6.654   5.242  70.473  1.00  0.00    -0.038 C  
ENDROOT
BRANCH   5   6
HETATM    6  N   UNL     2      -7.501   4.104  69.968  1.00  0.00    -0.046 N  
HETATM    7  C   UNL     2      -6.689   3.205  69.126  1.00  0.00    -0.037 C  
HETATM    8  C   UNL     2      -6.281   3.955  67.868  1.00  0.00    -0.036 C  
HETATM    9  N   UNL     2      -7.474   4.676  67.393  1.00  0.00    -0.077 N  
HETATM   10  C   UNL     2      -7.253   6.094  66.975  1.00  0.00    -0.074 C  
HETATM   11  C   UNL     2      -8.015   7.030  67.882  1.00  0.00    -0.115 C  
HETATM   12  O   UNL     2      -9.054   6.545  68.582  1.00  0.00    -0.130 OA 
HETATM   13  O   UNL     2      -7.700   8.204  67.981  1.00  0.00    -0.109 OA 
HETATM   14 FE   UNL     2      -8.967   4.691  68.674  1.00  0.00    -0.094 Fe 
HETATM   15  O   UNL     2     -10.318   4.825  67.423  1.00  0.00    -0.128 OA 
HETATM   16  O   UNL     2      -9.997   4.482  70.237  1.00  0.00    -0.226 OA 
HETATM   17  C   UNL     2      -9.489   3.759  71.238  1.00  0.00    -0.159 C  
HETATM   18  C   UNL     2      -9.694   4.487  66.260  1.00  0.00    -0.208 C  
HETATM   19  C   UNL     2      -8.239   3.970  66.325  1.00  0.00    -0.104 C  
HETATM   20  O   UNL     2     -10.261   4.629  65.189  1.00  0.00    -0.134 OA 
HETATM   21  O   UNL     2     -10.185   3.396  72.174  1.00  0.00    -0.153 OA 
HETATM   22  C   UNL     2      -8.083   3.343  71.104  1.00  0.00    -0.062 C  
ENDBRANCH   5   6
TORSDOF 1
ENDMDL
MODEL      185
REMARK 921   NORMALIZED FREE ENERGY PREDICTED BY IDOCK:   -1.48 KCAL/MOL
REMARK 922        TOTAL FREE ENERGY PREDICTED BY IDOCK:   -1.23 KCAL/MOL
REMARK 923 INTER-LIGAND FREE ENERGY PREDICTED BY IDOCK:   -2.53 KCAL/MOL
REMARK 924 INTRA-LIGAND FREE ENERGY PREDICTED BY IDOCK:    1.29 KCAL/MOL
REMARK 927      BINDING AFFINITY PREDICTED BY RF-SCORE:    0.00 PKD
ROOT
HETATM    1 NA   UNL     1      -5.161  10.849  68.023  1.00  0.00    -0.038 Na 
HETATM    2  O   UNL     2      -6.922  10.280  70.099  1.00  0.00    -0.140 OA 
HETATM    3  C   UNL     2      -7.834  10.973  69.389  1.00  0.00     0.010 C  
HETATM    4  O   UNL     2      -7.553  12.093  69.007  1.00  0.00    -0.047 OA 
HETATM    5  C   UNL     2      -9.157  10.310  69.082  1.00  0.00    -0.191 C  
ENDROOT
BRANCH   5   6
HETATM    6  N   UNL     2     -10.191  11.104  68.328  1.00  0.00    -0.175 N  
HETATM    7  C   UNL     2     -11.277  10.217  67.872  1.00  0.00    -0.163 C  
HETATM    8  C   UNL     2     -10.717   9.255  66.838  1.00  0.00    -0.094 C  
HETATM    9  N   UNL     2      -9.864  10.047  65.934  1.00  0.00    -0.246 N  
HETATM   10  C   UNL     2      -8.541   9.442  65.591  1.00  0.00    -0.142 C  
HETATM   11  C   UNL     2      -7.420  10.300  66.125  1.00  0.00    -0.121 C  
HETATM   12  O   UNL     2      -7.673  11.591  66.400  1.00  0.00    -0.108 OA 
HETATM   13  O   UNL     2      -6.306   9.839  66.303  1.00  0.00    -0.067 OA 
HETATM   14 FE   UNL     2      -9.503  11.874  66.567  1.00  0.00    -0.179 Fe 
HETATM   15  O   UNL     2      -9.273  12.634  64.900  1.00  0.00     0.405 OA 
HETATM   16  O   UNL     2      -9.407  13.419  67.640  1.00  0.00    -0.201 OA 
HETATM   17  C   UNL     2     -10.107  13.444  68.777  1.00  0.00    -0.085 C  
HETATM   18  C   UNL     2      -9.807  11.702  64.062  1.00  0.00    -0.257 C  
HETATM   19  C   UNL     2     -10.536  10.486  64.677  1.00  0.00    -0.111 C  
HETATM   20  O   UNL     2      -9.676  11.809  62.854  1.00  0.00    -0.357 OA 
HETATM   21  O   UNL     2     -10.271  14.484  69.396  1.00  0.00    -0.158 OA 
HETATM   22  C   UNL     2     -10.747  12.183  69.186  1.00  0.00    -0.061 C  
ENDBRANCH   5   6
TORSDOF 1
ENDMDL
MODEL      186
REMARK 921   NORMALIZED FREE ENERGY PREDICTED BY IDOCK:   -1.31 KCAL/MOL
REMARK 922        TOTAL FREE ENERGY PREDICTED BY IDOCK:   -1.06 KCAL/MOL
REMARK 923 INTER-LIGAND FREE ENERGY PREDICTED BY IDOCK:   -2.58 KCAL/MOL
REMARK 924 INTRA-LIGAND FREE ENERGY PREDICTED BY IDOCK:    1.52 KCAL/MOL
REMARK 927      BINDING AFFINITY PREDICTED BY RF-SCORE:    0.00 PKD
ROOT
HETATM    1 NA   UNL     1     -10.830  11.294  67.434  1.00  0.00    -0.184 Na 
HETATM    2  O   UNL     2      -8.238  11.505  68.419  1.00  0.00    -0.140 OA 
HETATM    3  C   UNL     2      -8.289  10.167  68.575  1.00  0.00    -0.116 C  
HETATM    4  O   UNL     2      -9.224   9.683  69.184  1.00  0.00    -0.153 OA 
HETATM    5  C   UNL     2      -7.189   9.332  67.961  1.00  0.00    -0.079 C  
ENDROOT
BRANCH   5   6
HETATM    6  N   UNL     2      -7.225   7.842  68.176  1.00  0.00    -0.087 N  
HETATM    7  C   UNL     2      -5.922   7.248  67.821  1.00  0.00    -0.034 C  
HETATM    8  C   UNL     2      -5.708   7.405  66.324  1.00  0.00    -0.032 C  
HETATM    9  N   UNL     2      -6.981   7.054  65.671  1.00  0.00    -0.055 N  
HETATM   10  C   UNL     2      -7.429   7.974  64.581  1.00  0.00    -0.097 C  
HETATM   11  C   UNL     2      -8.721   8.651  64.969  1.00  0.00    -0.118 C  
HETATM   12  O   UNL     2      -9.488   8.083  65.914  1.00  0.00    -0.104 OA 
HETATM   13  O   UNL     2      -9.069   9.692  64.437  1.00  0.00    -0.237 OA 
HETATM   14 FE   UNL     2      -8.496   6.867  66.911  1.00  0.00    -0.104 Fe 
HETATM   15  O   UNL     2      -9.451   5.654  65.897  1.00  0.00    -0.147 OA 
HETATM   16  O   UNL     2      -9.566   6.902  68.460  1.00  0.00    -0.133 OA 
HETATM   17  C   UNL     2      -8.973   7.133  69.634  1.00  0.00    -0.141 C  
HETATM   18  C   UNL     2      -8.525   5.205  65.005  1.00  0.00    -0.148 C  
HETATM   19  C   UNL     2      -7.055   5.648  65.178  1.00  0.00    -0.064 C  
HETATM   20  O   UNL     2      -8.862   4.500  64.066  1.00  0.00    -0.138 OA 
HETATM   21  O   UNL     2      -9.560   6.944  70.689  1.00  0.00    -0.169 OA 
HETATM   22  C   UNL     2      -7.555   7.527  69.590  1.00  0.00    -0.094 C  
ENDBRANCH   5   6
TORSDOF 1
ENDMDL
MODEL      187
REMARK 921   NORMALIZED FREE ENERGY PREDICTED BY IDOCK:   -1.30 KCAL/MOL
REMARK 922        TOTAL FREE ENERGY PREDICTED BY IDOCK:   -1.04 KCAL/MOL
REMARK 923 INTER-LIGAND FREE ENERGY PREDICTED BY IDOCK:   -2.25 KCAL/MOL
REMARK 924 INTRA-LIGAND FREE ENERGY PREDICTED BY IDOCK:    1.20 KCAL/MOL
REMARK 927      BINDING AFFINITY PREDICTED BY RF-SCORE:    0.00 PKD
ROOT
HETATM    1 NA   UNL     1     -11.603   9.515  68.211  1.00  0.00    -0.455 Na 
HETATM    2  O   UNL     2      -9.327   9.034  66.686  1.00  0.00    -0.154 OA 
HETATM    3  C   UNL     2      -8.708   8.791  67.858  1.00  0.00    -0.136 C  
HETATM    4  O   UNL     2      -8.784   9.619  68.745  1.00  0.00    -0.120 OA 
HETATM    5  C   UNL     2      -7.967   7.483  68.018  1.00  0.00    -0.123 C  
ENDROOT
BRANCH   5   6
HETATM    6  N   UNL     2      -7.239   7.234  69.313  1.00  0.00    -0.079 N  
HETATM    7  C   UNL     2      -5.789   7.123  69.064  1.00  0.00    -0.019 C  
HETATM    8  C   UNL     2      -5.532   5.869  68.243  1.00  0.00    -0.004 C  
HETATM    9  N   UNL     2      -6.354   4.797  68.831  1.00  0.00    -0.031 N  
HETATM   10  C   UNL     2      -7.099   3.941  67.858  1.00  0.00    -0.055 C  
HETATM   11  C   UNL     2      -8.587   4.110  68.049  1.00  0.00    -0.096 C  
HETATM   12  O   UNL     2      -9.037   4.578  69.225  1.00  0.00    -0.097 OA 
HETATM   13  O   UNL     2      -9.371   3.826  67.159  1.00  0.00    -0.170 OA 
HETATM   14 FE   UNL     2      -7.667   5.424  70.154  1.00  0.00    -0.062 Fe 
HETATM   15  O   UNL     2      -7.730   3.867  71.145  1.00  0.00    -0.053 OA 
HETATM   16  O   UNL     2      -8.752   6.529  71.224  1.00  0.00    -0.130 OA 
HETATM   17  C   UNL     2      -8.497   7.840  71.244  1.00  0.00    -0.119 C  
HETATM   18  C   UNL     2      -6.617   3.197  70.733  1.00  0.00    -0.032 C  
HETATM   19  C   UNL     2      -5.627   3.917  69.791  1.00  0.00    -0.016 C  
HETATM   20  O   UNL     2      -6.433   2.039  71.071  1.00  0.00    -0.022 OA 
HETATM   21  O   UNL     2      -9.006   8.572  72.080  1.00  0.00    -0.207 OA 
HETATM   22  C   UNL     2      -7.501   8.332  70.278  1.00  0.00    -0.066 C  
ENDBRANCH   5   6
TORSDOF 1
ENDMDL
MODEL      188
REMARK 921   NORMALIZED FREE ENERGY PREDICTED BY IDOCK:   -1.20 KCAL/MOL
REMARK 922        TOTAL FREE ENERGY PREDICTED BY IDOCK:   -0.94 KCAL/MOL
REMARK 923 INTER-LIGAND FREE ENERGY PREDICTED BY IDOCK:   -2.33 KCAL/MOL
REMARK 924 INTRA-LIGAND FREE ENERGY PREDICTED BY IDOCK:    1.39 KCAL/MOL
REMARK 927      BINDING AFFINITY PREDICTED BY RF-SCORE:    0.00 PKD
ROOT
HETATM    1 NA   UNL     1      -7.425   8.901  68.115  1.00  0.00    -0.078 Na 
HETATM    2  O   UNL     2     -10.056   8.006  68.012  1.00  0.00    -0.179 OA 
HETATM    3  C   UNL     2      -9.582   6.848  68.514  1.00  0.00    -0.131 C  
HETATM    4  O   UNL     2      -8.644   6.308  67.958  1.00  0.00    -0.117 OA 
HETATM    5  C   UNL     2     -10.228   6.290  69.762  1.00  0.00    -0.187 C  
ENDROOT
BRANCH   5   6
HETATM    6  N   UNL     2      -9.725   4.973  70.293  1.00  0.00    -0.196 N  
HETATM    7  C   UNL     2     -10.618   4.486  71.361  1.00  0.00     0.151 C  
HETATM    8  C   UNL     2     -10.517   5.431  72.548  1.00  0.00    -0.214 C  
HETATM    9  N   UNL     2      -9.087   5.728  72.738  1.00  0.00    -0.134 N  
HETATM   10  C   UNL     2      -8.747   7.163  72.982  1.00  0.00    -0.126 C  
HETATM   11  C   UNL     2      -7.901   7.697  71.851  1.00  0.00    -0.088 C  
HETATM   12  O   UNL     2      -7.227   6.825  71.083  1.00  0.00    -0.074 OA 
HETATM   13  O   UNL     2      -7.824   8.895  71.636  1.00  0.00    -0.270 OA 
HETATM   14 FE   UNL     2      -7.936   5.116  71.265  1.00  0.00    -0.083 Fe 
HETATM   15  O   UNL     2      -6.409   4.873  72.274  1.00  0.00    -0.031 OA 
HETATM   16  O   UNL     2      -7.340   4.435  69.614  1.00  0.00    -0.050 OA 
HETATM   17  C   UNL     2      -8.233   3.855  68.808  1.00  0.00    -0.073 C  
HETATM   18  C   UNL     2      -6.884   4.870  73.552  1.00  0.00    -0.070 C  
HETATM   19  C   UNL     2      -8.414   4.889  73.772  1.00  0.00    -0.104 C  
HETATM   20  O   UNL     2      -6.114   4.892  74.498  1.00  0.00    -0.051 OA 
HETATM   21  O   UNL     2      -7.881   3.197  67.841  1.00  0.00    -0.066 OA 
HETATM   22  C   UNL     2      -9.647   3.967  69.203  1.00  0.00    -0.163 C  
ENDBRANCH   5   6
TORSDOF 1
ENDMDL
MODEL      189
REMARK 921   NORMALIZED FREE ENERGY PREDICTED BY IDOCK:   -1.06 KCAL/MOL
REMARK 922        TOTAL FREE ENERGY PREDICTED BY IDOCK:   -0.80 KCAL/MOL
REMARK 923 INTER-LIGAND FREE ENERGY PREDICTED BY IDOCK:   -2.50 KCAL/MOL
REMARK 924 INTRA-LIGAND FREE ENERGY PREDICTED BY IDOCK:    1.71 KCAL/MOL
REMARK 927      BINDING AFFINITY PREDICTED BY RF-SCORE:    0.00 PKD
ROOT
HETATM    1 NA   UNL     1     -11.380   5.458  70.681  1.00  0.00    -0.253 Na 
HETATM    2  O   UNL     2      -8.754   4.542  70.677  1.00  0.00    -0.091 OA 
HETATM    3  C   UNL     2      -8.784   4.749  69.346  1.00  0.00    -0.083 C  
HETATM    4  O   UNL     2      -9.688   4.261  68.695  1.00  0.00    -0.156 OA 
HETATM    5  C   UNL     2      -7.698   5.602  68.730  1.00  0.00    -0.089 C  
ENDROOT
BRANCH   5   6
HETATM    6  N   UNL     2      -7.708   5.794  67.236  1.00  0.00    -0.100 N  
HETATM    7  C   UNL     2      -6.327   5.906  66.731  1.00  0.00    -0.045 C  
HETATM    8  C   UNL     2      -5.716   7.190  67.269  1.00  0.00    -0.025 C  
HETATM    9  N   UNL     2      -6.736   8.243  67.123  1.00  0.00    -0.062 N  
HETATM   10  C   UNL     2      -6.916   9.142  68.304  1.00  0.00    -0.076 C  
HETATM   11  C   UNL     2      -8.301   8.975  68.881  1.00  0.00    -0.125 C  
HETATM   12  O   UNL     2      -9.266   8.462  68.099  1.00  0.00    -0.138 OA 
HETATM   13  O   UNL     2      -8.546   9.299  70.030  1.00  0.00    -0.145 OA 
HETATM   14 FE   UNL     2      -8.522   7.571  66.648  1.00  0.00    -0.106 Fe 
HETATM   15  O   UNL     2      -9.090   9.087  65.759  1.00  0.00    -0.190 OA 
HETATM   16  O   UNL     2      -9.979   6.431  66.297  1.00  0.00    -0.083 OA 
HETATM   17  C   UNL     2      -9.748   5.119  66.204  1.00  0.00    -0.176 C  
HETATM   18  C   UNL     2      -7.929   9.767  65.541  1.00  0.00    -0.123 C  
HETATM   19  C   UNL     2      -6.592   9.079  65.897  1.00  0.00    -0.064 C  
HETATM   20  O   UNL     2      -7.952  10.909  65.112  1.00  0.00    -0.025 OA 
HETATM   21  O   UNL     2     -10.593   4.357  65.757  1.00  0.00    -0.243 OA 
HETATM   22  C   UNL     2      -8.398   4.659  66.569  1.00  0.00    -0.106 C  
ENDBRANCH   5   6
TORSDOF 1
ENDMDL
MODEL      190
REMARK 921   NORMALIZED FREE ENERGY PREDICTED BY IDOCK:   -0.99 KCAL/MOL
REMARK 922        TOTAL FREE ENERGY PREDICTED BY IDOCK:   -0.72 KCAL/MOL
REMARK 923 INTER-LIGAND FREE ENERGY PREDICTED BY IDOCK:   -2.25 KCAL/MOL
REMARK 924 INTRA-LIGAND FREE ENERGY PREDICTED BY IDOCK:    1.53 KCAL/MOL
REMARK 927      BINDING AFFINITY PREDICTED BY RF-SCORE:    0.00 PKD
ROOT
HETATM    1 NA   UNL     1     -11.054   7.971  71.436  1.00  0.00    -0.225 Na 
HETATM    2  O   UNL     2     -10.608  10.144  69.759  1.00  0.00    -0.227 OA 
HETATM    3  C   UNL     2      -9.424   9.564  69.479  1.00  0.00    -0.185 C  
HETATM    4  O   UNL     2      -8.697   9.239  70.398  1.00  0.00    -0.189 OA 
HETATM    5  C   UNL     2      -9.069   9.326  68.029  1.00  0.00    -0.127 C  
ENDROOT
BRANCH   5   6
HETATM    6  N   UNL     2      -7.726   8.719  67.717  1.00  0.00    -0.101 N  
HETATM    7  C   UNL     2      -7.412   8.894  66.287  1.00  0.00    -0.091 C  
HETATM    8  C   UNL     2      -8.394   8.070  65.469  1.00  0.00    -0.147 C  
HETATM    9  N   UNL     2      -8.511   6.761  66.134  1.00  0.00    -0.130 N  
HETATM   10  C   UNL     2      -9.901   6.230  66.283  1.00  0.00    -0.009 C  
HETATM   11  C   UNL     2     -10.264   6.124  67.744  1.00  0.00    -0.172 C  
HETATM   12  O   UNL     2      -9.275   6.069  68.652  1.00  0.00    -0.116 OA 
HETATM   13  O   UNL     2     -11.430   6.085  68.101  1.00  0.00     0.026 OA 
HETATM   14 FE   UNL     2      -7.684   6.688  67.917  1.00  0.00    -0.087 Fe 
HETATM   15  O   UNL     2      -7.295   4.883  67.897  1.00  0.00    -0.069 OA 
HETATM   16  O   UNL     2      -6.850   7.177  69.533  1.00  0.00    -0.048 OA 
HETATM   17  C   UNL     2      -6.352   8.411  69.641  1.00  0.00    -0.036 C  
HETATM   18  C   UNL     2      -7.417   4.558  66.579  1.00  0.00    -0.082 C  
HETATM   19  C   UNL     2      -7.645   5.694  65.556  1.00  0.00    -0.083 C  
HETATM   20  O   UNL     2      -7.386   3.391  66.224  1.00  0.00    -0.070 OA 
HETATM   21  O   UNL     2      -5.607   8.716  70.560  1.00  0.00    -0.027 OA 
HETATM   22  C   UNL     2      -6.666   9.346  68.547  1.00  0.00    -0.058 C  
ENDBRANCH   5   6
TORSDOF 1
ENDMDL
MODEL      191
REMARK 921   NORMALIZED FREE ENERGY PREDICTED BY IDOCK:   -0.99 KCAL/MOL
REMARK 922        TOTAL FREE ENERGY PREDICTED BY IDOCK:   -0.72 KCAL/MOL
REMARK 923 INTER-LIGAND FREE ENERGY PREDICTED BY IDOCK:   -1.93 KCAL/MOL
REMARK 924 INTRA-LIGAND FREE ENERGY PREDICTED BY IDOCK:    1.21 KCAL/MOL
REMARK 927      BINDING AFFINITY PREDICTED BY RF-SCORE:    0.00 PKD
ROOT
HETATM    1 NA   UNL     1      -8.854  12.372  69.339  1.00  0.00    -0.352 Na 
HETATM    2  O   UNL     2      -8.342   9.854  70.404  1.00  0.00    -0.153 OA 
HETATM    3  C   UNL     2      -8.686   9.375  69.191  1.00  0.00    -0.142 C  
HETATM    4  O   UNL     2      -9.746   9.718  68.703  1.00  0.00    -0.150 OA 
HETATM    5  C   UNL     2      -7.719   8.451  68.487  1.00  0.00    -0.104 C  
ENDROOT
BRANCH   5   6
HETATM    6  N   UNL     2      -8.126   7.883  67.152  1.00  0.00    -0.116 N  
HETATM    7  C   UNL     2      -7.068   6.993  66.638  1.00  0.00    -0.078 C  
HETATM    8  C   UNL     2      -5.837   7.830  66.329  1.00  0.00    -0.037 C  
HETATM    9  N   UNL     2      -6.307   9.041  65.634  1.00  0.00    -0.062 N  
HETATM   10  C   UNL     2      -5.703  10.329  66.092  1.00  0.00    -0.071 C  
HETATM   11  C   UNL     2      -6.764  11.216  66.697  1.00  0.00    -0.137 C  
HETATM   12  O   UNL     2      -8.050  10.994  66.375  1.00  0.00    -0.159 OA 
HETATM   13  O   UNL     2      -6.468  12.120  67.460  1.00  0.00    -0.102 OA 
HETATM   14 FE   UNL     2      -8.258   9.285  65.675  1.00  0.00    -0.101 Fe 
HETATM   15  O   UNL     2      -8.387  10.230  64.094  1.00  0.00    -0.159 OA 
HETATM   16  O   UNL     2     -10.087   9.084  66.078  1.00  0.00    -0.278 OA 
HETATM   17  C   UNL     2     -10.472   7.994  66.746  1.00  0.00    -0.248 C  
HETATM   18  C   UNL     2      -7.186   9.992  63.497  1.00  0.00    -0.135 C  
HETATM   19  C   UNL     2      -6.225   8.971  64.147  1.00  0.00    -0.072 C  
HETATM   20  O   UNL     2      -6.862  10.605  62.492  1.00  0.00    -0.135 OA 
HETATM   21  O   UNL     2     -11.652   7.692  66.838  1.00  0.00     1.001 OA 
HETATM   22  C   UNL     2      -9.402   7.131  67.273  1.00  0.00    -0.134 C  
ENDBRANCH   5   6
TORSDOF 1
ENDMDL
MODEL      192
REMARK 921   NORMALIZED FREE ENERGY PREDICTED BY IDOCK:   -0.93 KCAL/MOL
REMARK 922        TOTAL FREE ENERGY PREDICTED BY IDOCK:   -0.65 KCAL/MOL
REMARK 923 INTER-LIGAND FREE ENERGY PREDICTED BY IDOCK:   -2.34 KCAL/MOL
REMARK 924 INTRA-LIGAND FREE ENERGY PREDICTED BY IDOCK:    1.69 KCAL/MOL
REMARK 927      BINDING AFFINITY PREDICTED BY RF-SCORE:    0.00 PKD
ROOT
HETATM    1 NA   UNL     1      -8.330   6.444  63.766  1.00  0.00    -0.114 Na 
HETATM    2  O   UNL     2      -9.348   6.929  66.308  1.00  0.00    -0.163 OA 
HETATM    3  C   UNL     2      -8.085   7.254  66.649  1.00  0.00    -0.113 C  
HETATM    4  O   UNL     2      -7.189   6.469  66.399  1.00  0.00    -0.070 OA 
HETATM    5  C   UNL     2      -7.842   8.594  67.305  1.00  0.00    -0.097 C  
ENDROOT
BRANCH   5   6
HETATM    6  N   UNL     2      -6.436   8.934  67.725  1.00  0.00    -0.060 N  
HETATM    7  C   UNL     2      -5.640   7.701  67.871  1.00  0.00    -0.032 C  
HETATM    8  C   UNL     2      -6.196   6.900  69.038  1.00  0.00    -0.027 C  
HETATM    9  N   UNL     2      -6.448   7.855  70.131  1.00  0.00    -0.037 N  
HETATM   10  C   UNL     2      -7.753   7.700  70.842  1.00  0.00    -0.088 C  
HETATM   11  C   UNL     2      -8.611   8.924  70.630  1.00  0.00    -0.194 C  
HETATM   12  O   UNL     2      -8.016  10.074  70.274  1.00  0.00    -0.170 OA 
HETATM   13  O   UNL     2      -9.820   8.877  70.781  1.00  0.00    -0.189 OA 
HETATM   14 FE   UNL     2      -6.317   9.743  69.595  1.00  0.00    -0.039 Fe 
HETATM   15  O   UNL     2      -5.814  10.398  71.246  1.00  0.00    -0.273 OA 
HETATM   16  O   UNL     2      -6.162  11.313  68.567  1.00  0.00    -0.046 OA 
HETATM   17  C   UNL     2      -5.830  11.196  67.279  1.00  0.00    -0.063 C  
HETATM   18  C   UNL     2      -5.427   9.276  71.916  1.00  0.00    -0.072 C  
HETATM   19  C   UNL     2      -5.354   7.941  71.141  1.00  0.00    -0.030 C  
HETATM   20  O   UNL     2      -5.183   9.322  73.111  1.00  0.00    -0.085 OA 
HETATM   21  O   UNL     2      -5.492  12.168  66.621  1.00  0.00    -0.324 OA 
HETATM   22  C   UNL     2      -5.797   9.831  66.727  1.00  0.00    -0.054 C  
ENDBRANCH   5   6
TORSDOF 1
ENDMDL
MODEL      193
REMARK 921   NORMALIZED FREE ENERGY PREDICTED BY IDOCK:   -0.32 KCAL/MOL
REMARK 922        TOTAL FREE ENERGY PREDICTED BY IDOCK:   -0.01 KCAL/MOL
REMARK 923 INTER-LIGAND FREE ENERGY PREDICTED BY IDOCK:   -0.41 KCAL/MOL
REMARK 924 INTRA-LIGAND FREE ENERGY PREDICTED BY IDOCK:    0.41 KCAL/MOL
REMARK 927      BINDING AFFINITY PREDICTED BY RF-SCORE:    0.00 PKD
ROOT
HETATM    1 NA   UNL     1      -8.934  12.370  63.220  1.00  0.00    -0.507 Na 
HETATM    2  O   UNL     2      -9.038  14.711  64.717  1.00  0.00     1.377 OA 
HETATM    3  C   UNL     2     -10.100  14.157  65.335  1.00  0.00    -0.333 C  
HETATM    4  O   UNL     2     -11.014  13.727  64.658  1.00  0.00    -0.367 OA 
HETATM    5  C   UNL     2     -10.087  14.077  66.845  1.00  0.00    -0.259 C  
ENDROOT
BRANCH   5   6
HETATM    6  N   UNL     2     -11.295  13.498  67.534  1.00  0.00    -0.294 N  
HETATM    7  C   UNL     2     -12.523  14.141  67.029  1.00  0.00    -0.057 C  
HETATM    8  C   UNL     2     -12.515  15.602  67.451  1.00  0.00     1.513 C  
HETATM    9  N   UNL     2     -12.084  15.638  68.859  1.00  0.00    -0.265 N  
HETATM   10  C   UNL     2     -11.072  16.683  69.203  1.00  0.00    -0.219 C  
HETATM   11  C   UNL     2      -9.782  16.035  69.644  1.00  0.00    -0.164 C  
HETATM   12  O   UNL     2      -9.816  14.766  70.083  1.00  0.00     0.204 OA 
HETATM   13  O   UNL     2      -8.727  16.646  69.607  1.00  0.00     0.174 OA 
HETATM   14 FE   UNL     2     -11.379  13.928  69.528  1.00  0.00    -0.220 Fe 
HETATM   15  O   UNL     2     -11.838  14.187  71.297  1.00  0.00    -0.273 OA 
HETATM   16  O   UNL     2     -10.744  12.157  69.617  1.00  0.00     0.108 OA 
HETATM   17  C   UNL     2     -10.889  11.377  68.543  1.00  0.00    -0.211 C  
HETATM   18  C   UNL     2     -12.733  15.212  71.235  1.00  0.00    -0.369 C  
HETATM   19  C   UNL     2     -13.200  15.702  69.846  1.00  0.00     0.712 C  
HETATM   20  O   UNL     2     -13.123  15.756  72.255  1.00  0.00    -0.432 OA 
HETATM   21  O   UNL     2     -10.712  10.170  68.608  1.00  0.00    -0.202 OA 
HETATM   22  C   UNL     2     -11.368  12.031  67.313  1.00  0.00    -0.330 C  
ENDBRANCH   5   6
TORSDOF 1
ENDMDL
MODEL      194
REMARK 921   NORMALIZED FREE ENERGY PREDICTED BY IDOCK:    0.31 KCAL/MOL
REMARK 922        TOTAL FREE ENERGY PREDICTED BY IDOCK:    0.65 KCAL/MOL
REMARK 923 INTER-LIGAND FREE ENERGY PREDICTED BY IDOCK:   -0.67 KCAL/MOL
REMARK 924 INTRA-LIGAND FREE ENERGY PREDICTED BY IDOCK:    1.32 KCAL/MOL
REMARK 927      BINDING AFFINITY PREDICTED BY RF-SCORE:    0.00 PKD
ROOT
HETATM    1 NA   UNL     1     -12.886   6.800  69.747  1.00  0.00    -0.641 Na 
HETATM    2  O   UNL     2     -11.536   9.129  69.049  1.00  0.00     0.244 OA 
HETATM    3  C   UNL     2     -10.537   8.672  69.830  1.00  0.00    -0.224 C  
HETATM    4  O   UNL     2     -10.792   8.335  70.971  1.00  0.00    -0.224 OA 
HETATM    5  C   UNL     2      -9.149   8.579  69.238  1.00  0.00    -0.153 C  
ENDROOT
BRANCH   5   6
HETATM    6  N   UNL     2      -8.028   8.111  70.128  1.00  0.00    -0.105 N  
HETATM    7  C   UNL     2      -6.836   7.797  69.317  1.00  0.00    -0.048 C  
HETATM    8  C   UNL     2      -7.147   6.593  68.442  1.00  0.00    -0.083 C  
HETATM    9  N   UNL     2      -7.848   5.615  69.292  1.00  0.00    -0.088 N  
HETATM   10  C   UNL     2      -9.053   4.972  68.687  1.00  0.00    -0.110 C  
HETATM   11  C   UNL     2     -10.292   5.353  69.461  1.00  0.00    -0.280 C  
HETATM   12  O   UNL     2     -10.154   5.784  70.726  1.00  0.00    -0.184 OA 
HETATM   13  O   UNL     2     -11.399   5.271  68.955  1.00  0.00     0.671 OA 
HETATM   14 FE   UNL     2      -8.404   6.324  71.041  1.00  0.00    -0.106 Fe 
HETATM   15  O   UNL     2      -8.347   4.718  71.949  1.00  0.00    -0.110 OA 
HETATM   16  O   UNL     2      -8.770   7.490  72.474  1.00  0.00    -0.119 OA 
HETATM   17  C   UNL     2      -8.300   8.738  72.411  1.00  0.00     0.095 C  
HETATM   18  C   UNL     2      -7.623   3.920  71.115  1.00  0.00    -0.048 C  
HETATM   19  C   UNL     2      -6.970   4.555  69.866  1.00  0.00    -0.045 C  
HETATM   20  O   UNL     2      -7.527   2.723  71.332  1.00  0.00    -0.039 OA 
HETATM   21  O   UNL     2      -8.303   9.466  73.392  1.00  0.00     1.003 OA 
HETATM   22  C   UNL     2      -7.693   9.150  71.134  1.00  0.00    -0.078 C  
ENDBRANCH   5   6
TORSDOF 1
ENDMDL
MODEL      195
REMARK 921   NORMALIZED FREE ENERGY PREDICTED BY IDOCK:    0.43 KCAL/MOL
REMARK 922        TOTAL FREE ENERGY PREDICTED BY IDOCK:    0.78 KCAL/MOL
REMARK 923 INTER-LIGAND FREE ENERGY PREDICTED BY IDOCK:   -0.90 KCAL/MOL
REMARK 924 INTRA-LIGAND FREE ENERGY PREDICTED BY IDOCK:    1.68 KCAL/MOL
REMARK 927      BINDING AFFINITY PREDICTED BY RF-SCORE:    0.00 PKD
ROOT
HETATM    1 NA   UNL     1      -6.776  14.581  72.469  1.00  0.00     0.104 Na 
HETATM    2  O   UNL     2      -6.324  16.690  70.713  1.00  0.00     0.603 OA 
HETATM    3  C   UNL     2      -6.652  15.822  69.735  1.00  0.00    -0.154 C  
HETATM    4  O   UNL     2      -6.082  14.748  69.689  1.00  0.00    -0.104 OA 
HETATM    5  C   UNL     2      -7.732  16.221  68.756  1.00  0.00    -0.202 C  
ENDROOT
BRANCH   5   6
HETATM    6  N   UNL     2      -8.064  15.267  67.638  1.00  0.00    -0.146 N  
HETATM    7  C   UNL     2      -8.658  16.003  66.506  1.00  0.00    -0.309 C  
HETATM    8  C   UNL     2     -10.006  16.555  66.939  1.00  0.00    -0.271 C  
HETATM    9  N   UNL     2     -10.692  15.478  67.676  1.00  0.00    -0.295 N  
HETATM   10  C   UNL     2     -11.362  15.886  68.948  1.00  0.00    -0.377 C  
HETATM   11  C   UNL     2     -10.708  15.202  70.124  1.00  0.00    -0.221 C  
HETATM   12  O   UNL     2      -9.999  14.081  69.905  1.00  0.00     0.624 OA 
HETATM   13  O   UNL     2     -10.818  15.649  71.252  1.00  0.00    -0.236 OA 
HETATM   14 FE   UNL     2      -9.543  13.942  68.108  1.00  0.00    -0.174 Fe 
HETATM   15  O   UNL     2     -10.885  12.674  68.134  1.00  0.00    -0.211 OA 
HETATM   16  O   UNL     2      -8.043  12.825  68.330  1.00  0.00    -0.146 OA 
HETATM   17  C   UNL     2      -6.888  13.198  67.773  1.00  0.00    -0.149 C  
HETATM   18  C   UNL     2     -11.915  13.305  67.504  1.00  0.00    -0.324 C  
HETATM   19  C   UNL     2     -11.652  14.684  66.857  1.00  0.00    -0.362 C  
HETATM   20  O   UNL     2     -13.029  12.808  67.489  1.00  0.00     1.153 OA 
HETATM   21  O   UNL     2      -5.949  12.422  67.682  1.00  0.00    -0.097 OA 
HETATM   22  C   UNL     2      -6.844  14.549  67.188  1.00  0.00     0.393 C  
ENDBRANCH   5   6
TORSDOF 1
ENDMDL
MODEL      196
REMARK 921   NORMALIZED FREE ENERGY PREDICTED BY IDOCK:    0.45 KCAL/MOL
REMARK 922        TOTAL FREE ENERGY PREDICTED BY IDOCK:    0.80 KCAL/MOL
REMARK 923 INTER-LIGAND FREE ENERGY PREDICTED BY IDOCK:   -1.69 KCAL/MOL
REMARK 924 INTRA-LIGAND FREE ENERGY PREDICTED BY IDOCK:    2.49 KCAL/MOL
REMARK 927      BINDING AFFINITY PREDICTED BY RF-SCORE:    0.00 PKD
ROOT
HETATM    1 NA   UNL     1      -9.022  12.689  63.477  1.00  0.00    -0.484 Na 
HETATM    2  O   UNL     2     -10.544  11.621  65.545  1.00  0.00    -0.264 OA 
HETATM    3  C   UNL     2      -9.556  10.714  65.677  1.00  0.00    -0.218 C  
HETATM    4  O   UNL     2      -9.191  10.096  64.695  1.00  0.00    -0.208 OA 
HETATM    5  C   UNL     2      -8.932  10.528  67.042  1.00  0.00    -0.140 C  
ENDROOT
BRANCH   5   6
HETATM    6  N   UNL     2      -7.860   9.482  67.195  1.00  0.00    -0.095 N  
HETATM    7  C   UNL     2      -7.789   8.649  65.980  1.00  0.00    -0.102 C  
HETATM    8  C   UNL     2      -9.077   7.850  65.863  1.00  0.00    -0.087 C  
HETATM    9  N   UNL     2      -9.379   7.326  67.207  1.00  0.00    -0.128 N  
HETATM   10  C   UNL     2     -10.802   7.452  67.649  1.00  0.00    -0.149 C  
HETATM   11  C   UNL     2     -10.897   8.371  68.844  1.00  0.00     0.034 C  
HETATM   12  O   UNL     2      -9.797   8.576  69.587  1.00  0.00    -0.178 OA 
HETATM   13  O   UNL     2     -11.948   8.915  69.135  1.00  0.00     1.080 OA 
HETATM   14 FE   UNL     2      -8.272   8.098  68.638  1.00  0.00    -0.107 Fe 
HETATM   15  O   UNL     2      -8.342   6.640  69.769  1.00  0.00    -0.128 OA 
HETATM   16  O   UNL     2      -7.054   9.179  69.583  1.00  0.00    -0.055 OA 
HETATM   17  C   UNL     2      -6.262   9.998  68.888  1.00  0.00    -0.044 C  
HETATM   18  C   UNL     2      -8.785   5.642  68.955  1.00  0.00    -0.107 C  
HETATM   19  C   UNL     2      -8.922   5.927  67.442  1.00  0.00    -0.108 C  
HETATM   20  O   UNL     2      -9.105   4.560  69.421  1.00  0.00    -0.096 OA 
HETATM   21  O   UNL     2      -5.305  10.550  69.410  1.00  0.00    -0.038 OA 
HETATM   22  C   UNL     2      -6.542  10.120  67.447  1.00  0.00    -0.068 C  
ENDBRANCH   5   6
TORSDOF 1
ENDMDL
MODEL      197
REMARK 921   NORMALIZED FREE ENERGY PREDICTED BY IDOCK:    0.59 KCAL/MOL
REMARK 922        TOTAL FREE ENERGY PREDICTED BY IDOCK:    0.96 KCAL/MOL
REMARK 923 INTER-LIGAND FREE ENERGY PREDICTED BY IDOCK:   -0.85 KCAL/MOL
REMARK 924 INTRA-LIGAND FREE ENERGY PREDICTED BY IDOCK:    1.81 KCAL/MOL
REMARK 927      BINDING AFFINITY PREDICTED BY RF-SCORE:    0.00 PKD
ROOT
HETATM    1 NA   UNL     1     -12.857   5.891  65.943  1.00  0.00     0.989 Na 
HETATM    2  O   UNL     2     -10.812   5.577  67.801  1.00  0.00    -0.171 OA 
HETATM    3  C   UNL     2     -10.542   6.880  67.583  1.00  0.00    -0.261 C  
HETATM    4  O   UNL     2     -10.386   7.264  66.440  1.00  0.00    -0.096 OA 
HETATM    5  C   UNL     2     -10.472   7.805  68.777  1.00  0.00    -0.181 C  
ENDROOT
BRANCH   5   6
HETATM    6  N   UNL     2     -10.126   9.251  68.534  1.00  0.00    -0.183 N  
HETATM    7  C   UNL     2      -9.471   9.401  67.221  1.00  0.00    -0.133 C  
HETATM    8  C   UNL     2      -8.125   8.697  67.267  1.00  0.00    -0.101 C  
HETATM    9  N   UNL     2      -7.496   9.059  68.549  1.00  0.00    -0.084 N  
HETATM   10  C   UNL     2      -6.862   7.934  69.303  1.00  0.00    -0.048 C  
HETATM   11  C   UNL     2      -7.578   7.717  70.614  1.00  0.00    -0.078 C  
HETATM   12  O   UNL     2      -8.308   8.723  71.124  1.00  0.00    -0.146 OA 
HETATM   13  O   UNL     2      -7.497   6.654  71.206  1.00  0.00    -0.082 OA 
HETATM   14 FE   UNL     2      -8.702   9.973  69.806  1.00  0.00    -0.119 Fe 
HETATM   15  O   UNL     2      -7.397  10.933  70.692  1.00  0.00     0.326 OA 
HETATM   16  O   UNL     2     -10.239  10.698  70.617  1.00  0.00     0.504 OA 
HETATM   17  C   UNL     2     -11.362  10.767  69.898  1.00  0.00    -0.311 C  
HETATM   18  C   UNL     2      -6.328  10.843  69.851  1.00  0.00    -0.132 C  
HETATM   19  C   UNL     2      -6.529  10.190  68.465  1.00  0.00    -0.049 C  
HETATM   20  O   UNL     2      -5.228  11.235  70.206  1.00  0.00    -0.070 OA 
HETATM   21  O   UNL     2     -12.318  11.425  70.278  1.00  0.00    -0.314 OA 
HETATM   22  C   UNL     2     -11.348  10.095  68.588  1.00  0.00    -0.112 C  
ENDBRANCH   5   6
TORSDOF 1
ENDMDL
MODEL      198
REMARK 921   NORMALIZED FREE ENERGY PREDICTED BY IDOCK:    2.03 KCAL/MOL
REMARK 922        TOTAL FREE ENERGY PREDICTED BY IDOCK:    2.48 KCAL/MOL
REMARK 923 INTER-LIGAND FREE ENERGY PREDICTED BY IDOCK:    1.04 KCAL/MOL
REMARK 924 INTRA-LIGAND FREE ENERGY PREDICTED BY IDOCK:    1.44 KCAL/MOL
REMARK 927      BINDING AFFINITY PREDICTED BY RF-SCORE:    0.00 PKD
ROOT
HETATM    1 NA   UNL     1      -8.504  12.466  63.353  1.00  0.00    -0.131 Na 
HETATM    2  O   UNL     2      -8.186  14.394  65.332  1.00  0.00     2.837 OA 
HETATM    3  C   UNL     2      -9.503  14.231  65.570  1.00  0.00     0.119 C  
HETATM    4  O   UNL     2     -10.282  14.315  64.640  1.00  0.00    -0.387 OA 
HETATM    5  C   UNL     2      -9.943  13.926  66.984  1.00  0.00    -0.258 C  
ENDROOT
BRANCH   5   6
HETATM    6  N   UNL     2     -11.418  13.789  67.254  1.00  0.00    -0.324 N  
HETATM    7  C   UNL     2     -11.816  14.689  68.353  1.00  0.00    -0.295 C  
HETATM    8  C   UNL     2     -11.155  14.212  69.636  1.00  0.00    -0.141 C  
HETATM    9  N   UNL     2     -11.303  12.746  69.674  1.00  0.00    -0.159 N  
HETATM   10  C   UNL     2     -10.083  11.979  70.068  1.00  0.00     2.041 C  
HETATM   11  C   UNL     2      -9.617  11.115  68.921  1.00  0.00    -0.142 C  
HETATM   12  O   UNL     2     -10.496  10.798  67.955  1.00  0.00    -0.175 OA 
HETATM   13  O   UNL     2      -8.469  10.708  68.867  1.00  0.00    -0.139 OA 
HETATM   14 FE   UNL     2     -11.946  11.960  67.989  1.00  0.00    -0.256 Fe 
HETATM   15  O   UNL     2     -12.772  10.491  68.743  1.00  0.00     0.201 OA 
HETATM   16  O   UNL     2     -12.471  11.737  66.195  1.00  0.00     0.225 OA 
HETATM   17  C   UNL     2     -12.633  12.828  65.442  1.00  0.00    -0.320 C  
HETATM   18  C   UNL     2     -12.864  10.833  70.059  1.00  0.00    -0.012 C  
HETATM   19  C   UNL     2     -12.460  12.263  70.481  1.00  0.00    -0.189 C  
HETATM   20  O   UNL     2     -13.219  10.011  70.888  1.00  0.00    -0.370 OA 
HETATM   21  O   UNL     2     -13.185  12.771  64.354  1.00  0.00    -0.640 OA 
HETATM   22  C   UNL     2     -12.203  14.107  66.033  1.00  0.00    -0.443 C  
ENDBRANCH   5   6
TORSDOF 1
ENDMDL
MODEL      199
REMARK 921   NORMALIZED FREE ENERGY PREDICTED BY IDOCK:    3.47 KCAL/MOL
REMARK 922        TOTAL FREE ENERGY PREDICTED BY IDOCK:    4.00 KCAL/MOL
REMARK 923 INTER-LIGAND FREE ENERGY PREDICTED BY IDOCK:    0.57 KCAL/MOL
REMARK 924 INTRA-LIGAND FREE ENERGY PREDICTED BY IDOCK:    3.43 KCAL/MOL
REMARK 927      BINDING AFFINITY PREDICTED BY RF-SCORE:    0.00 PKD
ROOT
HETATM    1 NA   UNL     1     -13.990  15.196  73.064  1.00  0.00    -0.430 Na 
HETATM    2  O   UNL     2     -11.248  15.064  72.615  1.00  0.00    -0.215 OA 
HETATM    3  C   UNL     2     -11.562  14.983  71.307  1.00  0.00    -0.335 C  
HETATM    4  O   UNL     2     -12.364  14.143  70.946  1.00  0.00    -0.323 OA 
HETATM    5  C   UNL     2     -10.915  15.963  70.354  1.00  0.00    -0.350 C  
ENDROOT
BRANCH   5   6
HETATM    6  N   UNL     2     -11.233  15.840  68.886  1.00  0.00    -0.309 N  
HETATM    7  C   UNL     2     -12.204  14.751  68.669  1.00  0.00    -0.077 C  
HETATM    8  C   UNL     2     -11.539  13.430  69.019  1.00  0.00    -0.312 C  
HETATM    9  N   UNL     2     -10.188  13.462  68.431  1.00  0.00    -0.249 N  
HETATM   10  C   UNL     2      -9.082  12.982  69.315  1.00  0.00     0.956 C  
HETATM   11  C   UNL     2      -8.126  14.111  69.612  1.00  0.00     0.612 C  
HETATM   12  O   UNL     2      -8.098  15.167  68.783  1.00  0.00    -0.144 OA 
HETATM   13  O   UNL     2      -7.388  14.070  70.582  1.00  0.00     0.902 OA 
HETATM   14 FE   UNL     2      -9.647  15.228  67.757  1.00  0.00    -0.192 Fe 
HETATM   15  O   UNL     2      -8.495  14.614  66.452  1.00  0.00    -0.015 OA 
HETATM   16  O   UNL     2      -9.607  17.072  67.376  1.00  0.00    -0.241 OA 
HETATM   17  C   UNL     2     -10.700  17.795  67.631  1.00  0.00    -0.322 C  
HETATM   18  C   UNL     2      -8.839  13.300  66.333  1.00  0.00     0.122 C  
HETATM   19  C   UNL     2     -10.075  12.788  67.106  1.00  0.00    -0.234 C  
HETATM   20  O   UNL     2      -8.159  12.541  65.663  1.00  0.00     1.267 OA 
HETATM   21  O   UNL     2     -10.822  18.933  67.201  1.00  0.00    -0.444 OA 
HETATM   22  C   UNL     2     -11.783  17.118  68.364  1.00  0.00     0.900 C  
ENDBRANCH   5   6
TORSDOF 1
ENDMDL
MODEL      200
REMARK 921   NORMALIZED FREE ENERGY PREDICTED BY IDOCK:    3.50 KCAL/MOL
REMARK 922        TOTAL FREE ENERGY PREDICTED BY IDOCK:    4.03 KCAL/MOL
REMARK 923 INTER-LIGAND FREE ENERGY PREDICTED BY IDOCK:   -1.76 KCAL/MOL
REMARK 924 INTRA-LIGAND FREE ENERGY PREDICTED BY IDOCK:    5.79 KCAL/MOL
REMARK 927      BINDING AFFINITY PREDICTED BY RF-SCORE:    0.00 PKD
ROOT
HETATM    1 NA   UNL     1     -13.471   6.467  69.622  1.00  0.00     0.301 Na 
HETATM    2  O   UNL     2     -10.918   7.213  68.809  1.00  0.00    -0.156 OA 
HETATM    3  C   UNL     2     -10.471   6.368  69.758  1.00  0.00    -0.215 C  
HETATM    4  O   UNL     2     -10.896   6.480  70.892  1.00  0.00    -0.231 OA 
HETATM    5  C   UNL     2      -9.475   5.303  69.357  1.00  0.00    -0.138 C  
ENDROOT
BRANCH   5   6
HETATM    6  N   UNL     2      -8.944   4.388  70.429  1.00  0.00    -0.087 N  
HETATM    7  C   UNL     2      -9.893   4.325  71.556  1.00  0.00    -0.189 C  
HETATM    8  C   UNL     2      -9.949   5.690  72.222  1.00  0.00    -0.172 C  
HETATM    9  N   UNL     2      -8.559   6.166  72.339  1.00  0.00    -0.120 N  
HETATM   10  C   UNL     2      -8.326   7.592  71.957  1.00  0.00    -0.110 C  
HETATM   11  C   UNL     2      -7.420   7.667  70.752  1.00  0.00    -0.071 C  
HETATM   12  O   UNL     2      -6.634   6.615  70.470  1.00  0.00    -0.049 OA 
HETATM   13  O   UNL     2      -7.395   8.660  70.045  1.00  0.00    -0.049 OA 
HETATM   14 FE   UNL     2      -7.254   5.091  71.335  1.00  0.00    -0.047 Fe 
HETATM   15  O   UNL     2      -5.807   5.438  72.428  1.00  0.00    -0.024 OA 
HETATM   16  O   UNL     2      -6.482   3.827  70.173  1.00  0.00    -0.030 OA 
HETATM   17  C   UNL     2      -7.268   2.882  69.651  1.00  0.00    -0.044 C  
HETATM   18  C   UNL     2      -6.388   5.937  73.555  1.00  0.00    -0.064 C  
HETATM   19  C   UNL     2      -7.929   5.912  73.666  1.00  0.00    -0.103 C  
HETATM   20  O   UNL     2      -5.703   6.430  74.437  1.00  0.00    -0.056 OA 
HETATM   21  O   UNL     2      -6.797   1.909  69.082  1.00  0.00    -0.033 OA 
HETATM   22  C   UNL     2      -8.715   3.025  69.885  1.00  0.00    -0.076 C  
ENDBRANCH   5   6
TORSDOF 1
ENDMDL
MODEL      201
REMARK 921   NORMALIZED FREE ENERGY PREDICTED BY IDOCK:   11.86 KCAL/MOL
REMARK 922        TOTAL FREE ENERGY PREDICTED BY IDOCK:   12.88 KCAL/MOL
REMARK 923 INTER-LIGAND FREE ENERGY PREDICTED BY IDOCK:   -1.69 KCAL/MOL
REMARK 924 INTRA-LIGAND FREE ENERGY PREDICTED BY IDOCK:   14.57 KCAL/MOL
REMARK 927      BINDING AFFINITY PREDICTED BY RF-SCORE:    0.00 PKD
ROOT
HETATM    1 NA   UNL     1     -10.991  13.210  64.653  1.00  0.00    -0.285 Na 
HETATM    2  O   UNL     2     -10.551  14.403  67.126  1.00  0.00    -0.272 OA 
HETATM    3  C   UNL     2      -9.632  13.437  67.324  1.00  0.00    -0.234 C  
HETATM    4  O   UNL     2      -9.957  12.276  67.163  1.00  0.00    -0.203 OA 
HETATM    5  C   UNL     2      -8.231  13.850  67.712  1.00  0.00    -0.173 C  
ENDROOT
BRANCH   5   6
HETATM    6  N   UNL     2      -7.219  12.765  67.976  1.00  0.00    -0.101 N  
HETATM    7  C   UNL     2      -6.892  12.063  66.721  1.00  0.00     0.050 C  
HETATM    8  C   UNL     2      -8.128  11.314  66.248  1.00  0.00    -0.108 C  
HETATM    9  N   UNL     2      -8.713  10.661  67.432  1.00  0.00    -0.126 N  
HETATM   10  C   UNL     2     -10.196  10.777  67.574  1.00  0.00    -0.196 C  
HETATM   11  C   UNL     2     -10.541  11.567  68.813  1.00  0.00    -0.211 C  
HETATM   12  O   UNL     2      -9.625  11.665  69.791  1.00  0.00     0.910 OA 
HETATM   13  O   UNL     2     -11.628  12.105  68.932  1.00  0.00    -0.274 OA 
HETATM   14 FE   UNL     2      -7.934  11.249  69.140  1.00  0.00    -0.114 Fe 
HETATM   15  O   UNL     2      -8.248   9.683  70.067  1.00  0.00    -0.150 OA 
HETATM   16  O   UNL     2      -6.943  12.193  70.433  1.00  0.00     0.513 OA 
HETATM   17  C   UNL     2      -6.018  13.059  70.014  1.00  0.00    -0.140 C  
HETATM   18  C   UNL     2      -8.511   8.787  69.074  1.00  0.00    -0.130 C  
HETATM   19  C   UNL     2      -8.321   9.233  67.606  1.00  0.00    -0.116 C  
HETATM   20  O   UNL     2      -8.926   7.671  69.341  1.00  0.00    -0.139 OA 
HETATM   21  O   UNL     2      -5.193  13.528  70.784  1.00  0.00    -0.105 OA 
HETATM   22  C   UNL     2      -5.983  13.339  68.569  1.00  0.00    -0.083 C  
ENDBRANCH   5   6
TORSDOF 1
ENDMDL
MODEL      202
REMARK 921   NORMALIZED FREE ENERGY PREDICTED BY IDOCK:   13.28 KCAL/MOL
REMARK 922        TOTAL FREE ENERGY PREDICTED BY IDOCK:   14.38 KCAL/MOL
REMARK 923 INTER-LIGAND FREE ENERGY PREDICTED BY IDOCK:   -3.86 KCAL/MOL
REMARK 924 INTRA-LIGAND FREE ENERGY PREDICTED BY IDOCK:   18.24 KCAL/MOL
REMARK 927      BINDING AFFINITY PREDICTED BY RF-SCORE:    0.00 PKD
ROOT
HETATM    1 NA   UNL     1     -11.838   7.038  71.704  1.00  0.00    -0.247 Na 
HETATM    2  O   UNL     2     -11.859   9.817  71.814  1.00  0.00    -0.383 OA 
HETATM    3  C   UNL     2     -10.982   9.769  70.791  1.00  0.00    -0.336 C  
HETATM    4  O   UNL     2      -9.987   9.080  70.902  1.00  0.00    -0.215 OA 
HETATM    5  C   UNL     2     -11.296  10.562  69.542  1.00  0.00    -0.278 C  
ENDROOT
BRANCH   5   6
HETATM    6  N   UNL     2     -10.293  10.542  68.418  1.00  0.00    -0.168 N  
HETATM    7  C   UNL     2     -10.706   9.571  67.388  1.00  0.00    -0.227 C  
HETATM    8  C   UNL     2     -10.632   8.173  67.981  1.00  0.00    -0.126 C  
HETATM    9  N   UNL     2      -9.366   8.093  68.731  1.00  0.00    -0.144 N  
HETATM   10  C   UNL     2      -9.449   7.460  70.082  1.00  0.00    -0.165 C  
HETATM   11  C   UNL     2      -9.108   8.469  71.152  1.00  0.00    -0.190 C  
HETATM   12  O   UNL     2      -8.395   9.556  70.809  1.00  0.00    -0.243 OA 
HETATM   13  O   UNL     2      -9.466   8.307  72.306  1.00  0.00    -0.215 OA 
HETATM   14 FE   UNL     2      -8.464   9.824  68.971  1.00  0.00    -0.101 Fe 
HETATM   15  O   UNL     2      -6.746   9.157  69.072  1.00  0.00    -0.053 OA 
HETATM   16  O   UNL     2      -8.092  11.670  68.987  1.00  0.00    -0.056 OA 
HETATM   17  C   UNL     2      -8.920  12.489  68.335  1.00  0.00    -0.130 C  
HETATM   18  C   UNL     2      -6.879   7.893  68.580  1.00  0.00    -0.067 C  
HETATM   19  C   UNL     2      -8.238   7.474  67.976  1.00  0.00    -0.124 C  
HETATM   20  O   UNL     2      -5.954   7.100  68.653  1.00  0.00    -0.024 OA 
HETATM   21  O   UNL     2      -8.618  13.652  68.114  1.00  0.00    -0.162 OA 
HETATM   22  C   UNL     2     -10.162  11.893  67.814  1.00  0.00    -0.200 C  
ENDBRANCH   5   6
TORSDOF 1
ENDMDL
MODEL      203
REMARK 921   NORMALIZED FREE ENERGY PREDICTED BY IDOCK:   19.70 KCAL/MOL
REMARK 922        TOTAL FREE ENERGY PREDICTED BY IDOCK:   21.18 KCAL/MOL
REMARK 923 INTER-LIGAND FREE ENERGY PREDICTED BY IDOCK:   20.52 KCAL/MOL
REMARK 924 INTRA-LIGAND FREE ENERGY PREDICTED BY IDOCK:    0.66 KCAL/MOL
REMARK 927      BINDING AFFINITY PREDICTED BY RF-SCORE:    0.00 PKD
ROOT
HETATM    1 NA   UNL     1      -8.365  15.374  74.258  1.00  0.00     6.274 Na 
HETATM    2  O   UNL     2      -6.857  17.330  72.979  1.00  0.00     6.369 OA 
HETATM    3  C   UNL     2      -6.993  16.576  71.870  1.00  0.00     6.065 C  
HETATM    4  O   UNL     2      -6.698  15.398  71.922  1.00  0.00     1.755 OA 
HETATM    5  C   UNL     2      -7.532  17.233  70.619  1.00  0.00     3.569 C  
ENDROOT
BRANCH   5   6
HETATM    6  N   UNL     2      -7.640  16.398  69.370  1.00  0.00    -0.182 N  
HETATM    7  C   UNL     2      -6.466  15.513  69.251  1.00  0.00    -0.141 C  
HETATM    8  C   UNL     2      -5.232  16.370  69.022  1.00  0.00    -0.110 C  
HETATM    9  N   UNL     2      -5.600  17.393  68.027  1.00  0.00    -0.131 N  
HETATM   10  C   UNL     2      -5.151  18.786  68.330  1.00  0.00    -0.180 C  
HETATM   11  C   UNL     2      -6.346  19.685  68.536  1.00  0.00    -0.253 C  
HETATM   12  O   UNL     2      -7.531  19.309  68.026  1.00  0.00    -0.261 OA 
HETATM   13  O   UNL     2      -6.244  20.734  69.149  1.00  0.00    -0.291 OA 
HETATM   14 FE   UNL     2      -7.527  17.489  67.649  1.00  0.00    -0.163 Fe 
HETATM   15  O   UNL     2      -7.373  18.114  65.918  1.00  0.00    -0.415 OA 
HETATM   16  O   UNL     2      -9.390  17.227  67.729  1.00  0.00    -0.244 OA 
HETATM   17  C   UNL     2      -9.859  16.252  68.512  1.00  0.00    -0.223 C  
HETATM   18  C   UNL     2      -6.067  17.863  65.617  1.00  0.00    -0.162 C  
HETATM   19  C   UNL     2      -5.218  17.056  66.625  1.00  0.00    -0.115 C  
HETATM   20  O   UNL     2      -5.573  18.303  64.592  1.00  0.00    -0.088 OA 
HETATM   21  O   UNL     2     -11.021  15.882  68.436  1.00  0.00    -0.297 OA 
HETATM   22  C   UNL     2      -8.884  15.586  69.392  1.00  0.00    -0.257 C  
ENDBRANCH   5   6
TORSDOF 1
ENDMDL
MODEL      204
REMARK 921   NORMALIZED FREE ENERGY PREDICTED BY IDOCK:   23.83 KCAL/MOL
REMARK 922        TOTAL FREE ENERGY PREDICTED BY IDOCK:   25.55 KCAL/MOL
REMARK 923 INTER-LIGAND FREE ENERGY PREDICTED BY IDOCK:   24.92 KCAL/MOL
REMARK 924 INTRA-LIGAND FREE ENERGY PREDICTED BY IDOCK:    0.63 KCAL/MOL
REMARK 927      BINDING AFFINITY PREDICTED BY RF-SCORE:    0.00 PKD
ROOT
HETATM    1 NA   UNL     1     -14.269   4.799  67.010  1.00  0.00    11.264 Na 
HETATM    2  O   UNL     2     -13.089   5.329  69.472  1.00  0.00     9.569 OA 
HETATM    3  C   UNL     2     -11.978   5.625  68.769  1.00  0.00     3.473 C  
HETATM    4  O   UNL     2     -11.561   4.817  67.962  1.00  0.00     3.159 OA 
HETATM    5  C   UNL     2     -11.317   6.964  69.006  1.00  0.00     0.003 C  
ENDROOT
BRANCH   5   6
HETATM    6  N   UNL     2     -10.050   7.273  68.252  1.00  0.00    -0.164 N  
HETATM    7  C   UNL     2      -9.190   6.076  68.196  1.00  0.00    -0.116 C  
HETATM    8  C   UNL     2      -8.718   5.751  69.604  1.00  0.00    -0.122 C  
HETATM    9  N   UNL     2      -8.319   7.025  70.227  1.00  0.00    -0.132 N  
HETATM   10  C   UNL     2      -8.793   7.241  71.628  1.00  0.00    -0.117 C  
HETATM   11  C   UNL     2      -9.740   8.415  71.683  1.00  0.00    -0.219 C  
HETATM   12  O   UNL     2      -9.699   9.323  70.694  1.00  0.00    -0.232 OA 
HETATM   13  O   UNL     2     -10.527   8.544  72.605  1.00  0.00    -0.300 OA 
HETATM   14 FE   UNL     2      -8.844   8.619  69.201  1.00  0.00    -0.123 Fe 
HETATM   15  O   UNL     2      -7.478   9.711  69.791  1.00  0.00    -0.081 OA 
HETATM   16  O   UNL     2      -9.631   9.754  67.920  1.00  0.00    -0.137 OA 
HETATM   17  C   UNL     2     -10.218   9.199  66.858  1.00  0.00    -0.266 C  
HETATM   18  C   UNL     2      -6.591   8.828  70.330  1.00  0.00    -0.042 C  
HETATM   19  C   UNL     2      -6.858   7.315  70.160  1.00  0.00    -0.059 C  
HETATM   20  O   UNL     2      -5.630   9.227  70.968  1.00  0.00    -0.037 OA 
HETATM   21  O   UNL     2     -10.540   9.870  65.889  1.00  0.00    -0.079 OA 
HETATM   22  C   UNL     2     -10.363   7.734  66.874  1.00  0.00    -0.326 C  
ENDBRANCH   5   6
TORSDOF 1
ENDMDL
MODEL      205
REMARK 921   NORMALIZED FREE ENERGY PREDICTED BY IDOCK:   24.58 KCAL/MOL
REMARK 922        TOTAL FREE ENERGY PREDICTED BY IDOCK:   26.34 KCAL/MOL
REMARK 923 INTER-LIGAND FREE ENERGY PREDICTED BY IDOCK:   25.25 KCAL/MOL
REMARK 924 INTRA-LIGAND FREE ENERGY PREDICTED BY IDOCK:    1.09 KCAL/MOL
REMARK 927      BINDING AFFINITY PREDICTED BY RF-SCORE:    0.00 PKD
ROOT
HETATM    1 NA   UNL     1     -11.104  17.054  70.323  1.00  0.00    -0.327 Na 
HETATM    2  O   UNL     2      -9.277  18.347  68.673  1.00  0.00    -0.323 OA 
HETATM    3  C   UNL     2      -8.330  17.865  69.502  1.00  0.00     0.697 C  
HETATM    4  O   UNL     2      -8.441  18.059  70.697  1.00  0.00     3.831 OA 
HETATM    5  C   UNL     2      -7.184  17.081  68.902  1.00  0.00    -0.239 C  
ENDROOT
BRANCH   5   6
HETATM    6  N   UNL     2      -6.104  16.583  69.826  1.00  0.00    -0.214 N  
HETATM    7  C   UNL     2      -5.168  15.714  69.088  1.00  0.00    -0.096 C  
HETATM    8  C   UNL     2      -5.907  14.456  68.662  1.00  0.00    -0.087 C  
HETATM    9  N   UNL     2      -6.704  14.014  69.820  1.00  0.00    -0.084 N  
HETATM   10  C   UNL     2      -8.111  13.606  69.523  1.00  0.00     0.837 C  
HETATM   11  C   UNL     2      -9.080  14.540  70.207  1.00  0.00     1.510 C  
HETATM   12  O   UNL     2      -8.650  15.257  71.259  1.00  0.00     2.467 OA 
HETATM   13  O   UNL     2     -10.232  14.643  69.821  1.00  0.00    -0.046 OA 
HETATM   14 FE   UNL     2      -6.793  15.328  71.281  1.00  0.00     0.193 Fe 
HETATM   15  O   UNL     2      -7.023  14.108  72.648  1.00  0.00     1.640 OA 
HETATM   16  O   UNL     2      -6.628  16.910  72.288  1.00  0.00     4.241 OA 
HETATM   17  C   UNL     2      -5.865  17.893  71.803  1.00  0.00     1.193 C  
HETATM   18  C   UNL     2      -6.661  12.929  72.070  1.00  0.00     4.761 C  
HETATM   19  C   UNL     2      -6.058  12.956  70.648  1.00  0.00     0.112 C  
HETATM   20  O   UNL     2      -6.850  11.872  72.651  1.00  0.00     5.730 OA 
HETATM   21  O   UNL     2      -5.533  18.840  72.499  1.00  0.00    -0.286 OA 
HETATM   22  C   UNL     2      -5.366  17.723  70.428  1.00  0.00    -0.263 C  
ENDBRANCH   5   6
TORSDOF 1
ENDMDL
MODEL      206
REMARK 921   NORMALIZED FREE ENERGY PREDICTED BY IDOCK:   31.35 KCAL/MOL
REMARK 922        TOTAL FREE ENERGY PREDICTED BY IDOCK:   33.52 KCAL/MOL
REMARK 923 INTER-LIGAND FREE ENERGY PREDICTED BY IDOCK:   17.21 KCAL/MOL
REMARK 924 INTRA-LIGAND FREE ENERGY PREDICTED BY IDOCK:   16.31 KCAL/MOL
REMARK 927      BINDING AFFINITY PREDICTED BY RF-SCORE:    0.00 PKD
ROOT
HETATM    1 NA   UNL     1     -10.002  13.002  63.843  1.00  0.00    -0.363 Na 
HETATM    2  O   UNL     2     -10.460  15.118  65.588  1.00  0.00    -0.309 OA 
HETATM    3  C   UNL     2      -9.400  14.654  66.279  1.00  0.00    -0.262 C  
HETATM    4  O   UNL     2      -9.377  13.482  66.603  1.00  0.00    -0.255 OA 
HETATM    5  C   UNL     2      -8.276  15.615  66.595  1.00  0.00    -0.249 C  
ENDROOT
BRANCH   5   6
HETATM    6  N   UNL     2      -7.114  15.105  67.406  1.00  0.00    -0.200 N  
HETATM    7  C   UNL     2      -5.906  15.025  66.564  1.00  0.00     2.879 C  
HETATM    8  C   UNL     2      -6.122  13.956  65.505  1.00  0.00    10.827 C  
HETATM    9  N   UNL     2      -6.733  12.799  66.183  1.00  0.00     2.354 N  
HETATM   10  C   UNL     2      -7.885  12.164  65.473  1.00  0.00     1.814 C  
HETATM   11  C   UNL     2      -9.146  12.312  66.290  1.00  0.00    -0.125 C  
HETATM   12  O   UNL     2      -9.036  12.544  67.609  1.00  0.00    -0.168 OA 
HETATM   13  O   UNL     2     -10.245  12.221  65.770  1.00  0.00    -0.244 OA 
HETATM   14 FE   UNL     2      -7.334  13.170  68.018  1.00  0.00    -0.075 Fe 
HETATM   15  O   UNL     2      -7.139  11.449  68.657  1.00  0.00    -0.081 OA 
HETATM   16  O   UNL     2      -7.786  14.055  69.618  1.00  0.00     0.240 OA 
HETATM   17  C   UNL     2      -7.422  15.332  69.759  1.00  0.00    -0.122 C  
HETATM   18  C   UNL     2      -6.356  10.858  67.711  1.00  0.00    -0.062 C  
HETATM   19  C   UNL     2      -5.767  11.737  66.585  1.00  0.00    -0.057 C  
HETATM   20  O   UNL     2      -6.160   9.654  67.734  1.00  0.00    -0.051 OA 
HETATM   21  O   UNL     2      -7.478  15.891  70.844  1.00  0.00     1.842 OA 
HETATM   22  C   UNL     2      -6.860  15.993  68.569  1.00  0.00    -0.129 C  
ENDBRANCH   5   6
TORSDOF 1
ENDMDL
