MODEL        1
REMARK 921   NORMALIZED FREE ENERGY PREDICTED BY IDOCK:   -5.30 KCAL/MOL
REMARK 922        TOTAL FREE ENERGY PREDICTED BY IDOCK:   -6.12 KCAL/MOL
REMARK 923 INTER-LIGAND FREE ENERGY PREDICTED BY IDOCK:   -5.92 KCAL/MOL
REMARK 924 INTRA-LIGAND FREE ENERGY PREDICTED BY IDOCK:   -0.20 KCAL/MOL
REMARK 927      BINDING AFFINITY PREDICTED BY RF-SCORE:    0.00 PKD
ROOT
HETATM    1 NA   UNL     1     -14.411  14.341  65.372  1.00  0.00    -0.655 Na 
HETATM    2  C   UNL     2     -10.842  13.917  66.217  1.00  0.00    -0.290 C  
HETATM    3  O   UNL     2     -12.558  13.781  64.584  1.00  0.00    -0.609 OA 
HETATM    4  O   UNL     2      -9.849  14.900  66.540  1.00  0.00    -0.244 OA 
HETATM    5  H   UNL     2     -12.299  16.462  63.297  1.00  0.00     0.000 HD 
HETATM    6  O   UNL     2     -11.568  16.624  63.880  1.00  0.00    -1.204 OA 
HETATM    7  C   UNL     2     -10.002  15.967  65.714  1.00  0.00    -0.360 C  
HETATM    8  C   UNL     2     -11.137  15.715  64.810  1.00  0.00    -0.412 C  
HETATM    9  O   UNL     2      -9.348  16.998  65.725  1.00  0.00    -0.524 OA 
HETATM   10  C   UNL     2     -11.642  14.504  65.061  1.00  0.00    -0.382 C  
ENDROOT
BRANCH   2  11
HETATM   11  C   UNL     2     -10.198  12.524  66.000  1.00  0.00    -0.251 C  
HETATM   12  H   UNL     2      -8.398  11.707  66.184  1.00  0.00     0.000 HD 
HETATM   13  O   UNL     2      -8.793  12.560  66.318  1.00  0.00    -0.091 OA 
BRANCH  11  14
HETATM   14  C   UNL     2     -10.865  11.357  66.744  1.00  0.00    -0.286 C  
HETATM   15  H   UNL     2     -12.385  11.004  68.020  1.00  0.00     0.000 HD 
HETATM   16  O   UNL     2     -11.972  11.726  67.559  1.00  0.00    -0.607 OA 
ENDBRANCH  11  14
ENDBRANCH   2  11
TORSDOF 2
ENDMDL
MODEL        2
REMARK 921   NORMALIZED FREE ENERGY PREDICTED BY IDOCK:   -5.19 KCAL/MOL
REMARK 922        TOTAL FREE ENERGY PREDICTED BY IDOCK:   -6.00 KCAL/MOL
REMARK 923 INTER-LIGAND FREE ENERGY PREDICTED BY IDOCK:   -5.87 KCAL/MOL
REMARK 924 INTRA-LIGAND FREE ENERGY PREDICTED BY IDOCK:   -0.13 KCAL/MOL
REMARK 927      BINDING AFFINITY PREDICTED BY RF-SCORE:    0.00 PKD
ROOT
HETATM    1 NA   UNL     1     -10.046  12.792  68.255  1.00  0.00    -0.187 Na 
HETATM    2  C   UNL     2     -11.519  14.560  65.367  1.00  0.00    -0.348 C  
HETATM    3  O   UNL     2      -9.631  13.491  66.329  1.00  0.00    -0.272 OA 
HETATM    4  O   UNL     2     -12.545  14.141  64.456  1.00  0.00    -0.643 OA 
HETATM    5  H   UNL     2      -9.964  10.726  65.256  1.00  0.00     0.000 HD 
HETATM    6  O   UNL     2     -10.727  11.044  64.790  1.00  0.00    -0.309 OA 
HETATM    7  C   UNL     2     -12.348  12.834  64.144  1.00  0.00    -0.407 C  
HETATM    8  C   UNL     2     -11.164  12.340  64.868  1.00  0.00    -0.319 C  
HETATM    9  O   UNL     2     -13.046  12.144  63.418  1.00  0.00    -0.752 OA 
HETATM   10  C   UNL     2     -10.634  13.338  65.581  1.00  0.00    -0.283 C  
ENDROOT
BRANCH   2  11
HETATM   11  C   UNL     2     -10.830  15.857  64.872  1.00  0.00    -0.400 C  
HETATM   12  H   UNL     2     -11.204  17.293  63.555  1.00  0.00     0.000 HD 
HETATM   13  O   UNL     2     -11.626  16.498  63.858  1.00  0.00    -1.175 OA 
BRANCH  11  14
HETATM   14  C   UNL     2     -10.465  16.876  65.962  1.00  0.00    -0.290 C  
HETATM   15  H   UNL     2      -9.827  18.779  66.149  1.00  0.00     0.000 HD 
HETATM   16  O   UNL     2     -10.053  18.149  65.474  1.00  0.00    -0.488 OA 
ENDBRANCH  11  14
ENDBRANCH   2  11
TORSDOF 2
ENDMDL
MODEL        3
REMARK 921   NORMALIZED FREE ENERGY PREDICTED BY IDOCK:   -5.09 KCAL/MOL
REMARK 922        TOTAL FREE ENERGY PREDICTED BY IDOCK:   -5.89 KCAL/MOL
REMARK 923 INTER-LIGAND FREE ENERGY PREDICTED BY IDOCK:   -5.91 KCAL/MOL
REMARK 924 INTRA-LIGAND FREE ENERGY PREDICTED BY IDOCK:    0.02 KCAL/MOL
REMARK 927      BINDING AFFINITY PREDICTED BY RF-SCORE:    0.00 PKD
ROOT
HETATM    1 NA   UNL     1     -11.006  13.827  69.411  1.00  0.00    -0.217 Na 
HETATM    2  C   UNL     2     -11.648  14.947  65.952  1.00  0.00    -0.228 C  
HETATM    3  O   UNL     2     -10.165  13.930  67.500  1.00  0.00    -0.241 OA 
HETATM    4  O   UNL     2     -12.571  14.442  64.977  1.00  0.00    -0.523 OA 
HETATM    5  H   UNL     2     -10.811  11.049  67.062  1.00  0.00     0.000 HD 
HETATM    6  O   UNL     2     -11.419  11.331  66.389  1.00  0.00    -0.306 OA 
HETATM    7  C   UNL     2     -12.564  13.086  65.027  1.00  0.00    -0.454 C  
HETATM    8  C   UNL     2     -11.623  12.648  66.071  1.00  0.00    -0.393 C  
HETATM    9  O   UNL     2     -13.249  12.327  64.357  1.00  0.00    -0.806 OA 
HETATM   10  C   UNL     2     -11.045  13.719  66.622  1.00  0.00    -0.311 C  
ENDROOT
BRANCH   2  11
HETATM   11  C   UNL     2     -10.666  15.964  65.316  1.00  0.00    -0.424 C  
HETATM   12  H   UNL     2     -10.735  17.387  63.935  1.00  0.00     0.000 HD 
HETATM   13  O   UNL     2     -11.337  16.764  64.324  1.00  0.00    -1.170 OA 
BRANCH  11  14
HETATM   14  C   UNL     2      -9.924  16.880  66.301  1.00  0.00    -0.309 C  
HETATM   15  H   UNL     2      -8.140  17.793  66.520  1.00  0.00     0.000 HD 
HETATM   16  O   UNL     2      -8.600  17.227  65.910  1.00  0.00    -0.528 OA 
ENDBRANCH  11  14
ENDBRANCH   2  11
TORSDOF 2
ENDMDL
MODEL        4
REMARK 921   NORMALIZED FREE ENERGY PREDICTED BY IDOCK:   -5.08 KCAL/MOL
REMARK 922        TOTAL FREE ENERGY PREDICTED BY IDOCK:   -5.88 KCAL/MOL
REMARK 923 INTER-LIGAND FREE ENERGY PREDICTED BY IDOCK:   -5.68 KCAL/MOL
REMARK 924 INTRA-LIGAND FREE ENERGY PREDICTED BY IDOCK:   -0.20 KCAL/MOL
REMARK 927      BINDING AFFINITY PREDICTED BY RF-SCORE:    0.00 PKD
ROOT
HETATM    1 NA   UNL     1      -7.991  16.375  65.460  1.00  0.00    -0.256 Na 
HETATM    2  C   UNL     2     -10.469  13.688  65.978  1.00  0.00    -0.300 C  
HETATM    3  O   UNL     2      -9.795  15.922  66.413  1.00  0.00    -0.249 OA 
HETATM    4  O   UNL     2     -11.382  13.086  65.050  1.00  0.00    -0.288 OA 
HETATM    5  H   UNL     2     -11.288  17.369  64.272  1.00  0.00     0.000 HD 
HETATM    6  O   UNL     2     -11.656  16.531  64.020  1.00  0.00    -1.154 OA 
HETATM    7  C   UNL     2     -11.914  14.056  64.264  1.00  0.00    -0.435 C  
HETATM    8  C   UNL     2     -11.343  15.357  64.654  1.00  0.00    -0.355 C  
HETATM    9  O   UNL     2     -12.706  13.901  63.348  1.00  0.00    -0.806 OA 
HETATM   10  C   UNL     2     -10.505  15.182  65.679  1.00  0.00    -0.359 C  
ENDROOT
BRANCH   2  11
HETATM   11  C   UNL     2     -10.780  13.247  67.431  1.00  0.00    -0.258 C  
HETATM   12  H   UNL     2     -12.128  13.669  68.825  1.00  0.00     0.000 HD 
HETATM   13  O   UNL     2     -11.938  13.939  67.934  1.00  0.00    -0.363 OA 
BRANCH  11  14
HETATM   14  C   UNL     2     -10.948  11.736  67.647  1.00  0.00    -0.233 C  
HETATM   15  H   UNL     2     -12.359  10.397  68.175  1.00  0.00     0.000 HD 
HETATM   16  O   UNL     2     -12.255  11.332  68.041  1.00  0.00    -0.621 OA 
ENDBRANCH  11  14
ENDBRANCH   2  11
TORSDOF 2
ENDMDL
MODEL        5
REMARK 921   NORMALIZED FREE ENERGY PREDICTED BY IDOCK:   -5.07 KCAL/MOL
REMARK 922        TOTAL FREE ENERGY PREDICTED BY IDOCK:   -5.87 KCAL/MOL
REMARK 923 INTER-LIGAND FREE ENERGY PREDICTED BY IDOCK:   -5.73 KCAL/MOL
REMARK 924 INTRA-LIGAND FREE ENERGY PREDICTED BY IDOCK:   -0.14 KCAL/MOL
REMARK 927      BINDING AFFINITY PREDICTED BY RF-SCORE:    0.00 PKD
ROOT
HETATM    1 NA   UNL     1     -13.604  16.075  69.604  1.00  0.00    -0.678 Na 
HETATM    2  C   UNL     2     -12.134  14.210  66.777  1.00  0.00    -0.442 C  
HETATM    3  O   UNL     2     -11.790  15.515  68.729  1.00  0.00    -0.356 OA 
HETATM    4  O   UNL     2     -12.129  12.801  66.506  1.00  0.00    -0.468 OA 
HETATM    5  H   UNL     2     -11.473  13.363  70.774  1.00  0.00     0.000 HD 
HETATM    6  O   UNL     2     -11.565  12.736  70.067  1.00  0.00    -0.236 OA 
HETATM    7  C   UNL     2     -11.905  12.132  67.665  1.00  0.00    -0.246 C  
HETATM    8  C   UNL     2     -11.764  13.104  68.762  1.00  0.00    -0.324 C  
HETATM    9  O   UNL     2     -11.863  10.920  67.812  1.00  0.00    -0.579 OA 
HETATM   10  C   UNL     2     -11.869  14.342  68.272  1.00  0.00    -0.326 C  
ENDROOT
BRANCH   2  11
HETATM   11  C   UNL     2     -11.181  14.966  65.817  1.00  0.00    -0.334 C  
HETATM   12  H   UNL     2      -9.445  14.622  64.918  1.00  0.00     0.000 HD 
HETATM   13  O   UNL     2     -10.029  14.158  65.507  1.00  0.00    -0.327 OA 
BRANCH  11  14
HETATM   14  C   UNL     2     -11.815  15.480  64.516  1.00  0.00    -0.216 C  
HETATM   15  H   UNL     2     -11.737  17.072  63.282  1.00  0.00     0.000 HD 
HETATM   16  O   UNL     2     -11.344  16.754  64.086  1.00  0.00    -1.194 OA 
ENDBRANCH  11  14
ENDBRANCH   2  11
TORSDOF 2
ENDMDL
MODEL        6
REMARK 921   NORMALIZED FREE ENERGY PREDICTED BY IDOCK:   -5.07 KCAL/MOL
REMARK 922        TOTAL FREE ENERGY PREDICTED BY IDOCK:   -5.86 KCAL/MOL
REMARK 923 INTER-LIGAND FREE ENERGY PREDICTED BY IDOCK:   -5.68 KCAL/MOL
REMARK 924 INTRA-LIGAND FREE ENERGY PREDICTED BY IDOCK:   -0.18 KCAL/MOL
REMARK 927      BINDING AFFINITY PREDICTED BY RF-SCORE:    0.00 PKD
ROOT
HETATM    1 NA   UNL     1     -10.054  13.202  69.458  1.00  0.00    -0.398 Na 
HETATM    2  C   UNL     2     -10.967  14.003  65.972  1.00  0.00    -0.298 C  
HETATM    3  O   UNL     2     -11.620  13.877  68.249  1.00  0.00    -0.295 OA 
HETATM    4  O   UNL     2     -10.514  15.067  65.122  1.00  0.00    -0.373 OA 
HETATM    5  H   UNL     2     -11.086  16.679  69.127  1.00  0.00     0.000 HD 
HETATM    6  O   UNL     2     -10.828  16.866  68.232  1.00  0.00    -0.362 OA 
HETATM    7  C   UNL     2     -10.438  16.210  65.852  1.00  0.00    -0.352 C  
HETATM    8  C   UNL     2     -10.836  15.921  67.240  1.00  0.00    -0.279 C  
HETATM    9  O   UNL     2     -10.062  17.303  65.459  1.00  0.00    -0.581 OA 
HETATM   10  C   UNL     2     -11.178  14.634  67.342  1.00  0.00    -0.342 C  
ENDROOT
BRANCH   2  11
HETATM   11  C   UNL     2     -12.169  13.258  65.338  1.00  0.00    -0.456 C  
HETATM   12  H   UNL     2     -14.072  13.646  64.931  1.00  0.00     0.000 HD 
HETATM   13  O   UNL     2     -13.335  14.103  65.319  1.00  0.00    -0.715 OA 
BRANCH  11  14
HETATM   14  C   UNL     2     -11.930  12.677  63.937  1.00  0.00    -0.479 C  
HETATM   15  H   UNL     2     -12.906  11.653  62.501  1.00  0.00     0.000 HD 
HETATM   16  O   UNL     2     -13.054  12.013  63.368  1.00  0.00    -0.747 OA 
ENDBRANCH  11  14
ENDBRANCH   2  11
TORSDOF 2
ENDMDL
MODEL        7
REMARK 921   NORMALIZED FREE ENERGY PREDICTED BY IDOCK:   -5.03 KCAL/MOL
REMARK 922        TOTAL FREE ENERGY PREDICTED BY IDOCK:   -5.82 KCAL/MOL
REMARK 923 INTER-LIGAND FREE ENERGY PREDICTED BY IDOCK:   -5.67 KCAL/MOL
REMARK 924 INTRA-LIGAND FREE ENERGY PREDICTED BY IDOCK:   -0.15 KCAL/MOL
REMARK 927      BINDING AFFINITY PREDICTED BY RF-SCORE:    0.00 PKD
ROOT
HETATM    1 NA   UNL     1     -13.082  15.801  63.611  1.00  0.00    -0.706 Na 
HETATM    2  C   UNL     2     -10.821  13.623  65.554  1.00  0.00    -0.294 C  
HETATM    3  O   UNL     2     -13.039  14.335  65.100  1.00  0.00    -0.704 OA 
HETATM    4  O   UNL     2     -10.025  12.507  65.128  1.00  0.00    -0.263 OA 
HETATM    5  H   UNL     2     -13.873  12.282  63.100  1.00  0.00     0.000 HD 
HETATM    6  O   UNL     2     -13.021  11.880  63.220  1.00  0.00    -0.707 OA 
HETATM    7  C   UNL     2     -10.750  11.759  64.257  1.00  0.00    -0.342 C  
HETATM    8  C   UNL     2     -12.071  12.382  64.071  1.00  0.00    -0.475 C  
HETATM    9  O   UNL     2     -10.377  10.751  63.675  1.00  0.00    -0.327 OA 
HETATM   10  C   UNL     2     -12.158  13.471  64.839  1.00  0.00    -0.397 C  
ENDROOT
BRANCH   2  11
HETATM   11  C   UNL     2     -10.849  13.729  67.100  1.00  0.00    -0.283 C  
HETATM   12  H   UNL     2     -10.968  15.169  68.459  1.00  0.00     0.000 HD 
HETATM   13  O   UNL     2     -10.951  15.105  67.512  1.00  0.00    -0.294 OA 
BRANCH  11  14
HETATM   14  C   UNL     2     -11.932  12.898  67.805  1.00  0.00    -0.283 C  
HETATM   15  H   UNL     2     -12.489  10.977  68.055  1.00  0.00     0.000 HD 
HETATM   16  O   UNL     2     -11.819  11.491  67.619  1.00  0.00    -0.595 OA 
ENDBRANCH  11  14
ENDBRANCH   2  11
TORSDOF 2
ENDMDL
MODEL        8
REMARK 921   NORMALIZED FREE ENERGY PREDICTED BY IDOCK:   -4.87 KCAL/MOL
REMARK 922        TOTAL FREE ENERGY PREDICTED BY IDOCK:   -5.64 KCAL/MOL
REMARK 923 INTER-LIGAND FREE ENERGY PREDICTED BY IDOCK:   -5.46 KCAL/MOL
REMARK 924 INTRA-LIGAND FREE ENERGY PREDICTED BY IDOCK:   -0.18 KCAL/MOL
REMARK 927      BINDING AFFINITY PREDICTED BY RF-SCORE:    0.00 PKD
ROOT
HETATM    1 NA   UNL     1      -9.377  10.276  65.964  1.00  0.00    -0.150 Na 
HETATM    2  C   UNL     2     -10.783  13.673  66.298  1.00  0.00    -0.285 C  
HETATM    3  O   UNL     2     -11.104  11.411  65.655  1.00  0.00    -0.243 OA 
HETATM    4  O   UNL     2     -11.097  14.428  67.477  1.00  0.00    -0.285 OA 
HETATM    5  H   UNL     2     -12.283  10.294  68.160  1.00  0.00     0.000 HD 
HETATM    6  O   UNL     2     -12.237  11.171  68.522  1.00  0.00    -0.600 OA 
HETATM    7  C   UNL     2     -11.669  13.601  68.389  1.00  0.00    -0.358 C  
HETATM    8  C   UNL     2     -11.740  12.242  67.827  1.00  0.00    -0.337 C  
HETATM    9  O   UNL     2     -12.037  13.899  69.515  1.00  0.00    -0.321 OA 
HETATM   10  C   UNL     2     -11.249  12.250  66.585  1.00  0.00    -0.316 C  
ENDROOT
BRANCH   2  11
HETATM   11  C   UNL     2     -11.346  14.362  65.029  1.00  0.00    -0.373 C  
HETATM   12  H   UNL     2     -13.120  14.628  64.180  1.00  0.00     0.000 HD 
HETATM   13  O   UNL     2     -12.775  14.206  64.958  1.00  0.00    -0.631 OA 
BRANCH  11  14
HETATM   14  C   UNL     2     -10.980  15.844  64.857  1.00  0.00    -0.411 C  
HETATM   15  H   UNL     2     -11.554  17.467  63.809  1.00  0.00     0.000 HD 
HETATM   16  O   UNL     2     -11.781  16.550  63.915  1.00  0.00    -1.148 OA 
ENDBRANCH  11  14
ENDBRANCH   2  11
TORSDOF 2
ENDMDL
MODEL        9
REMARK 921   NORMALIZED FREE ENERGY PREDICTED BY IDOCK:   -4.85 KCAL/MOL
REMARK 922        TOTAL FREE ENERGY PREDICTED BY IDOCK:   -5.62 KCAL/MOL
REMARK 923 INTER-LIGAND FREE ENERGY PREDICTED BY IDOCK:   -5.47 KCAL/MOL
REMARK 924 INTRA-LIGAND FREE ENERGY PREDICTED BY IDOCK:   -0.15 KCAL/MOL
REMARK 927      BINDING AFFINITY PREDICTED BY RF-SCORE:    0.00 PKD
ROOT
HETATM    1 NA   UNL     1     -10.322  10.274  68.512  1.00  0.00    -0.149 Na 
HETATM    2  C   UNL     2     -11.438  13.262  66.655  1.00  0.00    -0.347 C  
HETATM    3  O   UNL     2     -12.020  11.313  67.877  1.00  0.00    -0.630 OA 
HETATM    4  O   UNL     2     -11.322  14.653  66.991  1.00  0.00    -0.333 OA 
HETATM    5  H   UNL     2     -12.338  12.461  70.614  1.00  0.00     0.000 HD 
HETATM    6  O   UNL     2     -12.149  13.310  70.234  1.00  0.00    -0.343 OA 
HETATM    7  C   UNL     2     -11.586  14.808  68.314  1.00  0.00    -0.323 C  
HETATM    8  C   UNL     2     -11.879  13.490  68.903  1.00  0.00    -0.345 C  
HETATM    9  O   UNL     2     -11.553  15.851  68.947  1.00  0.00    -0.371 OA 
HETATM   10  C   UNL     2     -11.824  12.557  67.949  1.00  0.00    -0.323 C  
ENDROOT
BRANCH   2  11
HETATM   11  C   UNL     2     -12.367  13.061  65.431  1.00  0.00    -0.486 C  
HETATM   12  H   UNL     2     -14.073  13.818  64.756  1.00  0.00     0.000 HD 
HETATM   13  O   UNL     2     -13.503  13.942  65.506  1.00  0.00    -0.657 OA 
BRANCH  11  14
HETATM   14  C   UNL     2     -11.697  13.200  64.056  1.00  0.00    -0.439 C  
HETATM   15  H   UNL     2     -12.154  13.700  62.157  1.00  0.00     0.000 HD 
HETATM   16  O   UNL     2     -12.568  13.614  63.008  1.00  0.00    -0.729 OA 
ENDBRANCH  11  14
ENDBRANCH   2  11
TORSDOF 2
ENDMDL
MODEL       10
REMARK 921   NORMALIZED FREE ENERGY PREDICTED BY IDOCK:   -4.81 KCAL/MOL
REMARK 922        TOTAL FREE ENERGY PREDICTED BY IDOCK:   -5.58 KCAL/MOL
REMARK 923 INTER-LIGAND FREE ENERGY PREDICTED BY IDOCK:   -5.49 KCAL/MOL
REMARK 924 INTRA-LIGAND FREE ENERGY PREDICTED BY IDOCK:   -0.09 KCAL/MOL
REMARK 927      BINDING AFFINITY PREDICTED BY RF-SCORE:    0.00 PKD
ROOT
HETATM    1 NA   UNL     1      -7.847  12.742  66.123  1.00  0.00    -0.370 Na 
HETATM    2  C   UNL     2     -10.651  14.777  64.849  1.00  0.00    -0.406 C  
HETATM    3  O   UNL     2      -9.831  13.282  66.499  1.00  0.00    -0.267 OA 
HETATM    4  O   UNL     2     -10.797  16.203  64.781  1.00  0.00    -0.634 OA 
HETATM    5  H   UNL     2      -8.907  15.216  68.577  1.00  0.00     0.000 HD 
HETATM    6  O   UNL     2      -9.230  15.910  68.015  1.00  0.00    -0.191 OA 
HETATM    7  C   UNL     2     -10.315  16.750  65.926  1.00  0.00    -0.328 C  
HETATM    8  C   UNL     2      -9.814  15.674  66.798  1.00  0.00    -0.244 C  
HETATM    9  O   UNL     2     -10.255  17.939  66.198  1.00  0.00    -0.385 OA 
HETATM   10  C   UNL     2     -10.017  14.494  66.206  1.00  0.00    -0.305 C  
ENDROOT
BRANCH   2  11
HETATM   11  C   UNL     2     -11.988  14.064  64.527  1.00  0.00    -0.448 C  
HETATM   12  H   UNL     2     -13.651  14.470  63.523  1.00  0.00     0.000 HD 
HETATM   13  O   UNL     2     -12.832  14.908  63.720  1.00  0.00    -0.662 OA 
BRANCH  11  14
HETATM   14  C   UNL     2     -11.864  12.681  63.870  1.00  0.00    -0.467 C  
HETATM   15  H   UNL     2     -13.023  11.246  63.056  1.00  0.00     0.000 HD 
HETATM   16  O   UNL     2     -13.100  12.102  63.462  1.00  0.00    -0.785 OA 
ENDBRANCH  11  14
ENDBRANCH   2  11
TORSDOF 2
ENDMDL
MODEL       11
REMARK 921   NORMALIZED FREE ENERGY PREDICTED BY IDOCK:   -4.80 KCAL/MOL
REMARK 922        TOTAL FREE ENERGY PREDICTED BY IDOCK:   -5.57 KCAL/MOL
REMARK 923 INTER-LIGAND FREE ENERGY PREDICTED BY IDOCK:   -5.43 KCAL/MOL
REMARK 924 INTRA-LIGAND FREE ENERGY PREDICTED BY IDOCK:   -0.14 KCAL/MOL
REMARK 927      BINDING AFFINITY PREDICTED BY RF-SCORE:    0.00 PKD
ROOT
HETATM    1 NA   UNL     1     -10.436  13.893  69.087  1.00  0.00    -0.209 Na 
HETATM    2  C   UNL     2     -10.600  15.542  65.789  1.00  0.00    -0.356 C  
HETATM    3  O   UNL     2     -11.645  15.085  67.869  1.00  0.00    -0.332 OA 
HETATM    4  O   UNL     2      -9.846  16.648  65.273  1.00  0.00    -0.496 OA 
HETATM    5  H   UNL     2     -10.832  17.497  69.429  1.00  0.00     0.000 HD 
HETATM    6  O   UNL     2     -10.399  17.808  68.643  1.00  0.00    -0.363 OA 
HETATM    7  C   UNL     2      -9.716  17.583  66.249  1.00  0.00    -0.258 C  
HETATM    8  C   UNL     2     -10.387  17.102  67.468  1.00  0.00    -0.341 C  
HETATM    9  O   UNL     2      -9.111  18.641  66.170  1.00  0.00    -0.454 OA 
HETATM   10  C   UNL     2     -10.941  15.911  67.227  1.00  0.00    -0.234 C  
ENDROOT
BRANCH   2  11
HETATM   11  C   UNL     2     -11.779  15.185  64.848  1.00  0.00    -0.290 C  
HETATM   12  H   UNL     2     -12.718  16.015  63.309  1.00  0.00     0.000 HD 
HETATM   13  O   UNL     2     -11.995  16.234  63.885  1.00  0.00    -1.003 OA 
BRANCH  11  14
HETATM   14  C   UNL     2     -11.669  13.835  64.124  1.00  0.00    -0.364 C  
HETATM   15  H   UNL     2     -12.695  12.693  62.817  1.00  0.00     0.000 HD 
HETATM   16  O   UNL     2     -12.763  13.528  63.265  1.00  0.00    -0.726 OA 
ENDBRANCH  11  14
ENDBRANCH   2  11
TORSDOF 2
ENDMDL
MODEL       12
REMARK 921   NORMALIZED FREE ENERGY PREDICTED BY IDOCK:   -4.78 KCAL/MOL
REMARK 922        TOTAL FREE ENERGY PREDICTED BY IDOCK:   -5.54 KCAL/MOL
REMARK 923 INTER-LIGAND FREE ENERGY PREDICTED BY IDOCK:   -5.47 KCAL/MOL
REMARK 924 INTRA-LIGAND FREE ENERGY PREDICTED BY IDOCK:   -0.07 KCAL/MOL
REMARK 927      BINDING AFFINITY PREDICTED BY RF-SCORE:    0.00 PKD
ROOT
HETATM    1 NA   UNL     1     -11.937  15.959  63.185  1.00  0.00    -0.886 Na 
HETATM    2  C   UNL     2     -11.721  14.508  66.572  1.00  0.00    -0.368 C  
HETATM    3  O   UNL     2     -10.667  14.932  64.489  1.00  0.00    -0.301 OA 
HETATM    4  O   UNL     2     -11.696  15.156  67.852  1.00  0.00    -0.338 OA 
HETATM    5  H   UNL     2      -9.244  17.482  65.107  1.00  0.00     0.000 HD 
HETATM    6  O   UNL     2      -9.580  17.406  65.991  1.00  0.00    -0.464 OA 
HETATM    7  C   UNL     2     -10.905  16.256  67.772  1.00  0.00    -0.315 C  
HETATM    8  C   UNL     2     -10.383  16.374  66.400  1.00  0.00    -0.313 C  
HETATM    9  O   UNL     2     -10.679  17.059  68.664  1.00  0.00    -0.345 OA 
HETATM   10  C   UNL     2     -10.824  15.346  65.670  1.00  0.00    -0.355 C  
ENDROOT
BRANCH   2  11
HETATM   11  C   UNL     2     -11.386  13.000  66.704  1.00  0.00    -0.325 C  
HETATM   12  H   UNL     2     -11.660  11.559  68.041  1.00  0.00     0.000 HD 
HETATM   13  O   UNL     2     -11.866  12.483  67.960  1.00  0.00    -0.346 OA 
BRANCH  11  14
HETATM   14  C   UNL     2     -11.876  12.105  65.556  1.00  0.00    -0.286 C  
HETATM   15  H   UNL     2     -13.307  12.056  64.137  1.00  0.00     0.000 HD 
HETATM   16  O   UNL     2     -13.003  12.610  64.847  1.00  0.00    -0.830 OA 
ENDBRANCH  11  14
ENDBRANCH   2  11
TORSDOF 2
ENDMDL
MODEL       13
REMARK 921   NORMALIZED FREE ENERGY PREDICTED BY IDOCK:   -4.77 KCAL/MOL
REMARK 922        TOTAL FREE ENERGY PREDICTED BY IDOCK:   -5.54 KCAL/MOL
REMARK 923 INTER-LIGAND FREE ENERGY PREDICTED BY IDOCK:   -5.38 KCAL/MOL
REMARK 924 INTRA-LIGAND FREE ENERGY PREDICTED BY IDOCK:   -0.15 KCAL/MOL
REMARK 927      BINDING AFFINITY PREDICTED BY RF-SCORE:    0.00 PKD
ROOT
HETATM    1 NA   UNL     1      -9.358  11.290  67.347  1.00  0.00    -0.150 Na 
HETATM    2  C   UNL     2     -11.841  13.586  65.867  1.00  0.00    -0.372 C  
HETATM    3  O   UNL     2      -9.587  12.852  65.978  1.00  0.00    -0.242 OA 
HETATM    4  O   UNL     2     -12.936  13.312  64.982  1.00  0.00    -0.726 OA 
HETATM    5  H   UNL     2      -9.542  10.887  63.731  1.00  0.00     0.000 HD 
HETATM    6  O   UNL     2     -10.447  11.122  63.564  1.00  0.00    -0.364 OA 
HETATM    7  C   UNL     2     -12.534  12.409  64.052  1.00  0.00    -0.459 C  
HETATM    8  C   UNL     2     -11.131  12.044  64.312  1.00  0.00    -0.351 C  
HETATM    9  O   UNL     2     -13.214  11.927  63.159  1.00  0.00    -0.539 OA 
HETATM   10  C   UNL     2     -10.681  12.737  65.361  1.00  0.00    -0.284 C  
ENDROOT
BRANCH   2  11
HETATM   11  C   UNL     2     -11.601  15.111  66.001  1.00  0.00    -0.080 C  
HETATM   12  H   UNL     2     -10.795  16.348  67.326  1.00  0.00     0.000 HD 
HETATM   13  O   UNL     2     -10.942  15.413  67.245  1.00  0.00    -0.316 OA 
BRANCH  11  14
HETATM   14  C   UNL     2     -10.840  15.770  64.840  1.00  0.00    -0.413 C  
HETATM   15  H   UNL     2     -11.198  16.763  63.123  1.00  0.00     0.000 HD 
HETATM   16  O   UNL     2     -11.669  16.355  63.841  1.00  0.00    -1.085 OA 
ENDBRANCH  11  14
ENDBRANCH   2  11
TORSDOF 2
ENDMDL
MODEL       14
REMARK 921   NORMALIZED FREE ENERGY PREDICTED BY IDOCK:   -4.76 KCAL/MOL
REMARK 922        TOTAL FREE ENERGY PREDICTED BY IDOCK:   -5.52 KCAL/MOL
REMARK 923 INTER-LIGAND FREE ENERGY PREDICTED BY IDOCK:   -5.35 KCAL/MOL
REMARK 924 INTRA-LIGAND FREE ENERGY PREDICTED BY IDOCK:   -0.18 KCAL/MOL
REMARK 927      BINDING AFFINITY PREDICTED BY RF-SCORE:    0.00 PKD
ROOT
HETATM    1 NA   UNL     1     -11.480  16.333  63.480  1.00  0.00    -0.707 Na 
HETATM    2  C   UNL     2     -11.926  13.938  66.254  1.00  0.00    -0.434 C  
HETATM    3  O   UNL     2     -10.460  14.986  64.710  1.00  0.00    -0.381 OA 
HETATM    4  O   UNL     2     -12.259  14.174  67.629  1.00  0.00    -0.351 OA 
HETATM    5  H   UNL     2      -9.458  17.259  66.365  1.00  0.00     0.000 HD 
HETATM    6  O   UNL     2      -9.983  16.915  67.078  1.00  0.00    -0.262 OA 
HETATM    7  C   UNL     2     -11.575  15.261  68.067  1.00  0.00    -0.312 C  
HETATM    8  C   UNL     2     -10.762  15.794  66.961  1.00  0.00    -0.306 C  
HETATM    9  O   UNL     2     -11.637  15.764  69.178  1.00  0.00    -0.351 OA 
HETATM   10  C   UNL     2     -10.925  15.024  65.882  1.00  0.00    -0.343 C  
ENDROOT
BRANCH   2  11
HETATM   11  C   UNL     2     -11.496  12.466  66.029  1.00  0.00    -0.382 C  
HETATM   12  H   UNL     2     -11.724  10.724  66.951  1.00  0.00     0.000 HD 
HETATM   13  O   UNL     2     -11.989  11.626  67.089  1.00  0.00    -0.614 OA 
BRANCH  11  14
HETATM   14  C   UNL     2     -11.879  11.860  64.670  1.00  0.00    -0.205 C  
HETATM   15  H   UNL     2     -13.073  12.236  63.090  1.00  0.00     0.000 HD 
HETATM   16  O   UNL     2     -12.836  12.612  63.931  1.00  0.00    -0.702 OA 
ENDBRANCH  11  14
ENDBRANCH   2  11
TORSDOF 2
ENDMDL
MODEL       15
REMARK 921   NORMALIZED FREE ENERGY PREDICTED BY IDOCK:   -4.76 KCAL/MOL
REMARK 922        TOTAL FREE ENERGY PREDICTED BY IDOCK:   -5.52 KCAL/MOL
REMARK 923 INTER-LIGAND FREE ENERGY PREDICTED BY IDOCK:   -5.33 KCAL/MOL
REMARK 924 INTRA-LIGAND FREE ENERGY PREDICTED BY IDOCK:   -0.19 KCAL/MOL
REMARK 927      BINDING AFFINITY PREDICTED BY RF-SCORE:    0.00 PKD
ROOT
HETATM    1 NA   UNL     1      -9.004  15.842  65.080  1.00  0.00    -0.187 Na 
HETATM    2  C   UNL     2     -10.979  13.086  66.540  1.00  0.00    -0.285 C  
HETATM    3  O   UNL     2     -10.673  15.423  66.266  1.00  0.00    -0.305 OA 
HETATM    4  O   UNL     2     -11.808  12.107  65.899  1.00  0.00    -0.504 OA 
HETATM    5  H   UNL     2     -12.458  15.935  63.928  1.00  0.00     0.000 HD 
HETATM    6  O   UNL     2     -12.688  15.014  63.956  1.00  0.00    -0.772 OA 
HETATM    7  C   UNL     2     -12.521  12.712  64.915  1.00  0.00    -0.494 C  
HETATM    8  C   UNL     2     -12.163  14.140  64.871  1.00  0.00    -0.438 C  
HETATM    9  O   UNL     2     -13.306  12.177  64.147  1.00  0.00    -0.750 OA 
HETATM   10  C   UNL     2     -11.273  14.402  65.832  1.00  0.00    -0.324 C  
ENDROOT
BRANCH   2  11
HETATM   11  C   UNL     2     -11.162  13.050  68.079  1.00  0.00    -0.278 C  
HETATM   12  H   UNL     2     -12.515  13.654  69.399  1.00  0.00     0.000 HD 
HETATM   13  O   UNL     2     -12.403  13.676  68.456  1.00  0.00    -0.248 OA 
BRANCH  11  14
HETATM   14  C   UNL     2     -11.067  11.662  68.729  1.00  0.00    -0.230 C  
HETATM   15  H   UNL     2     -12.259  10.159  69.350  1.00  0.00     0.000 HD 
HETATM   16  O   UNL     2     -12.319  11.018  68.947  1.00  0.00    -0.516 OA 
ENDBRANCH  11  14
ENDBRANCH   2  11
TORSDOF 2
ENDMDL
MODEL       16
REMARK 921   NORMALIZED FREE ENERGY PREDICTED BY IDOCK:   -4.76 KCAL/MOL
REMARK 922        TOTAL FREE ENERGY PREDICTED BY IDOCK:   -5.52 KCAL/MOL
REMARK 923 INTER-LIGAND FREE ENERGY PREDICTED BY IDOCK:   -5.47 KCAL/MOL
REMARK 924 INTRA-LIGAND FREE ENERGY PREDICTED BY IDOCK:   -0.04 KCAL/MOL
REMARK 927      BINDING AFFINITY PREDICTED BY RF-SCORE:    0.00 PKD
ROOT
HETATM    1 NA   UNL     1      -7.556  14.191  66.428  1.00  0.00    -0.323 Na 
HETATM    2  C   UNL     2     -10.585  15.715  64.968  1.00  0.00    -0.396 C  
HETATM    3  O   UNL     2      -9.572  14.600  66.801  1.00  0.00    -0.232 OA 
HETATM    4  O   UNL     2     -10.874  17.089  64.672  1.00  0.00    -0.855 OA 
HETATM    5  H   UNL     2      -8.782  16.933  68.488  1.00  0.00     0.000 HD 
HETATM    6  O   UNL     2      -9.189  17.489  67.835  1.00  0.00    -0.255 OA 
HETATM    7  C   UNL     2     -10.415  17.862  65.689  1.00  0.00    -0.104 C  
HETATM    8  C   UNL     2      -9.783  17.000  66.701  1.00  0.00    -0.277 C  
HETATM    9  O   UNL     2     -10.464  19.081  65.759  1.00  0.00    -0.530 OA 
HETATM   10  C   UNL     2      -9.886  15.723  66.321  1.00  0.00    -0.297 C  
ENDROOT
BRANCH   2  11
HETATM   11  C   UNL     2     -11.854  14.836  64.828  1.00  0.00    -0.423 C  
HETATM   12  H   UNL     2     -13.524  14.848  63.757  1.00  0.00     0.000 HD 
HETATM   13  O   UNL     2     -12.747  15.387  63.842  1.00  0.00    -0.695 OA 
BRANCH  11  14
HETATM   14  C   UNL     2     -11.607  13.350  64.527  1.00  0.00    -0.371 C  
HETATM   15  H   UNL     2     -12.634  11.646  64.202  1.00  0.00     0.000 HD 
HETATM   16  O   UNL     2     -12.787  12.566  64.388  1.00  0.00    -0.714 OA 
ENDBRANCH  11  14
ENDBRANCH   2  11
TORSDOF 2
ENDMDL
MODEL       17
REMARK 921   NORMALIZED FREE ENERGY PREDICTED BY IDOCK:   -4.73 KCAL/MOL
REMARK 922        TOTAL FREE ENERGY PREDICTED BY IDOCK:   -5.49 KCAL/MOL
REMARK 923 INTER-LIGAND FREE ENERGY PREDICTED BY IDOCK:   -5.29 KCAL/MOL
REMARK 924 INTRA-LIGAND FREE ENERGY PREDICTED BY IDOCK:   -0.20 KCAL/MOL
REMARK 927      BINDING AFFINITY PREDICTED BY RF-SCORE:    0.00 PKD
ROOT
HETATM    1 NA   UNL     1      -7.804  14.159  67.753  1.00  0.00    -0.103 Na 
HETATM    2  C   UNL     2     -10.431  13.688  65.202  1.00  0.00    -0.374 C  
HETATM    3  O   UNL     2      -9.863  13.905  67.495  1.00  0.00    -0.229 OA 
HETATM    4  O   UNL     2     -10.921  14.598  64.206  1.00  0.00    -0.166 OA 
HETATM    5  H   UNL     2     -10.270  16.836  67.884  1.00  0.00     0.000 HD 
HETATM    6  O   UNL     2     -10.552  16.874  66.978  1.00  0.00    -0.305 OA 
HETATM    7  C   UNL     2     -11.031  15.834  64.756  1.00  0.00    -0.393 C  
HETATM    8  C   UNL     2     -10.593  15.775  66.161  1.00  0.00    -0.313 C  
HETATM    9  O   UNL     2     -11.390  16.855  64.191  1.00  0.00    -1.208 OA 
HETATM   10  C   UNL     2     -10.255  14.519  66.466  1.00  0.00    -0.279 C  
ENDROOT
BRANCH   2  11
HETATM   11  C   UNL     2     -11.330  12.430  65.298  1.00  0.00    -0.332 C  
HETATM   12  H   UNL     2     -13.112  11.965  66.038  1.00  0.00     0.000 HD 
HETATM   13  O   UNL     2     -12.561  12.737  65.979  1.00  0.00    -0.473 OA 
BRANCH  11  14
HETATM   14  C   UNL     2     -11.638  11.727  63.967  1.00  0.00    -0.339 C  
HETATM   15  H   UNL     2     -13.103  11.603  62.587  1.00  0.00     0.000 HD 
HETATM   16  O   UNL     2     -12.912  12.038  63.411  1.00  0.00    -0.772 OA 
ENDBRANCH  11  14
ENDBRANCH   2  11
TORSDOF 2
ENDMDL
MODEL       18
REMARK 921   NORMALIZED FREE ENERGY PREDICTED BY IDOCK:   -4.71 KCAL/MOL
REMARK 922        TOTAL FREE ENERGY PREDICTED BY IDOCK:   -5.47 KCAL/MOL
REMARK 923 INTER-LIGAND FREE ENERGY PREDICTED BY IDOCK:   -5.53 KCAL/MOL
REMARK 924 INTRA-LIGAND FREE ENERGY PREDICTED BY IDOCK:    0.06 KCAL/MOL
REMARK 927      BINDING AFFINITY PREDICTED BY RF-SCORE:    0.00 PKD
ROOT
HETATM    1 NA   UNL     1      -9.022  15.896  65.439  1.00  0.00    -0.274 Na 
HETATM    2  C   UNL     2     -11.320  13.378  66.857  1.00  0.00    -0.323 C  
HETATM    3  O   UNL     2     -10.898  15.652  66.328  1.00  0.00    -0.315 OA 
HETATM    4  O   UNL     2     -12.042  12.321  66.209  1.00  0.00    -0.626 OA 
HETATM    5  H   UNL     2     -12.191  15.838  63.645  1.00  0.00     0.000 HD 
HETATM    6  O   UNL     2     -12.450  14.931  63.754  1.00  0.00    -0.768 OA 
HETATM    7  C   UNL     2     -12.537  12.785  65.033  1.00  0.00    -0.468 C  
HETATM    8  C   UNL     2     -12.134  14.191  64.863  1.00  0.00    -0.428 C  
HETATM    9  O   UNL     2     -13.179  12.150  64.210  1.00  0.00    -0.768 OA 
HETATM   10  C   UNL     2     -11.435  14.583  65.932  1.00  0.00    -0.345 C  
ENDROOT
BRANCH   2  11
HETATM   11  C   UNL     2     -11.793  13.559  68.322  1.00  0.00    -0.366 C  
HETATM   12  H   UNL     2     -12.228  12.392  69.867  1.00  0.00     0.000 HD 
HETATM   13  O   UNL     2     -11.937  12.281  68.970  1.00  0.00    -0.300 OA 
BRANCH  11  14
HETATM   14  C   UNL     2     -10.928  14.483  69.192  1.00  0.00    -0.268 C  
HETATM   15  H   UNL     2     -11.089  16.160  70.300  1.00  0.00     0.000 HD 
HETATM   16  O   UNL     2     -11.624  15.588  69.762  1.00  0.00    -0.285 OA 
ENDBRANCH  11  14
ENDBRANCH   2  11
TORSDOF 2
ENDMDL
MODEL       19
REMARK 921   NORMALIZED FREE ENERGY PREDICTED BY IDOCK:   -4.71 KCAL/MOL
REMARK 922        TOTAL FREE ENERGY PREDICTED BY IDOCK:   -5.46 KCAL/MOL
REMARK 923 INTER-LIGAND FREE ENERGY PREDICTED BY IDOCK:   -5.49 KCAL/MOL
REMARK 924 INTRA-LIGAND FREE ENERGY PREDICTED BY IDOCK:    0.03 KCAL/MOL
REMARK 927      BINDING AFFINITY PREDICTED BY RF-SCORE:    0.00 PKD
ROOT
HETATM    1 NA   UNL     1     -13.785  12.566  64.313  1.00  0.00    -0.670 Na 
HETATM    2  C   UNL     2     -10.716  14.454  65.113  1.00  0.00    -0.398 C  
HETATM    3  O   UNL     2     -13.052  14.179  65.421  1.00  0.00    -0.743 OA 
HETATM    4  O   UNL     2      -9.558  14.056  65.861  1.00  0.00    -0.252 OA 
HETATM    5  H   UNL     2     -13.083  12.496  67.886  1.00  0.00     0.000 HD 
HETATM    6  O   UNL     2     -12.136  12.561  67.891  1.00  0.00    -0.384 OA 
HETATM    7  C   UNL     2      -9.959  13.349  66.948  1.00  0.00    -0.252 C  
HETATM    8  C   UNL     2     -11.429  13.248  66.940  1.00  0.00    -0.338 C  
HETATM    9  O   UNL     2      -9.240  12.832  67.789  1.00  0.00    -0.183 OA 
HETATM   10  C   UNL     2     -11.911  13.910  65.885  1.00  0.00    -0.407 C  
ENDROOT
BRANCH   2  11
HETATM   11  C   UNL     2     -10.693  15.976  64.819  1.00  0.00    -0.204 C  
HETATM   12  H   UNL     2     -11.794  17.281  63.808  1.00  0.00     0.000 HD 
HETATM   13  O   UNL     2     -11.809  16.348  63.989  1.00  0.00    -1.003 OA 
BRANCH  11  14
HETATM   14  C   UNL     2     -10.637  16.892  66.050  1.00  0.00    -0.218 C  
HETATM   15  H   UNL     2      -9.426  18.255  66.911  1.00  0.00     0.000 HD 
HETATM   16  O   UNL     2      -9.460  17.688  66.148  1.00  0.00    -0.441 OA 
ENDBRANCH  11  14
ENDBRANCH   2  11
TORSDOF 2
ENDMDL
MODEL       20
REMARK 921   NORMALIZED FREE ENERGY PREDICTED BY IDOCK:   -4.63 KCAL/MOL
REMARK 922        TOTAL FREE ENERGY PREDICTED BY IDOCK:   -5.37 KCAL/MOL
REMARK 923 INTER-LIGAND FREE ENERGY PREDICTED BY IDOCK:   -5.23 KCAL/MOL
REMARK 924 INTRA-LIGAND FREE ENERGY PREDICTED BY IDOCK:   -0.14 KCAL/MOL
REMARK 927      BINDING AFFINITY PREDICTED BY RF-SCORE:    0.00 PKD
ROOT
HETATM    1 NA   UNL     1      -8.030  15.018  68.278  1.00  0.00    -0.111 Na 
HETATM    2  C   UNL     2     -10.694  13.986  65.940  1.00  0.00    -0.293 C  
HETATM    3  O   UNL     2     -10.104  14.884  68.056  1.00  0.00    -0.218 OA 
HETATM    4  O   UNL     2     -11.096  14.563  64.690  1.00  0.00    -0.382 OA 
HETATM    5  H   UNL     2     -10.227  17.806  67.462  1.00  0.00     0.000 HD 
HETATM    6  O   UNL     2     -10.506  17.573  66.585  1.00  0.00    -0.323 OA 
HETATM    7  C   UNL     2     -11.086  15.915  64.806  1.00  0.00    -0.384 C  
HETATM    8  C   UNL     2     -10.653  16.277  66.167  1.00  0.00    -0.267 C  
HETATM    9  O   UNL     2     -11.346  16.726  63.930  1.00  0.00    -1.033 OA 
HETATM   10  C   UNL     2     -10.437  15.163  66.872  1.00  0.00    -0.282 C  
ENDROOT
BRANCH   2  11
HETATM   11  C   UNL     2     -11.710  12.915  66.412  1.00  0.00    -0.395 C  
HETATM   12  H   UNL     2     -13.271  11.953  65.653  1.00  0.00     0.000 HD 
HETATM   13  O   UNL     2     -12.648  12.609  65.364  1.00  0.00    -0.641 OA 
BRANCH  11  14
HETATM   14  C   UNL     2     -11.101  11.613  66.955  1.00  0.00    -0.308 C  
HETATM   15  H   UNL     2     -11.447  10.215  68.365  1.00  0.00     0.000 HD 
HETATM   16  O   UNL     2     -11.824  11.020  68.029  1.00  0.00    -0.593 OA 
ENDBRANCH  11  14
ENDBRANCH   2  11
TORSDOF 2
ENDMDL
MODEL       21
REMARK 921   NORMALIZED FREE ENERGY PREDICTED BY IDOCK:   -4.56 KCAL/MOL
REMARK 922        TOTAL FREE ENERGY PREDICTED BY IDOCK:   -5.29 KCAL/MOL
REMARK 923 INTER-LIGAND FREE ENERGY PREDICTED BY IDOCK:   -5.26 KCAL/MOL
REMARK 924 INTRA-LIGAND FREE ENERGY PREDICTED BY IDOCK:   -0.03 KCAL/MOL
REMARK 927      BINDING AFFINITY PREDICTED BY RF-SCORE:    0.00 PKD
ROOT
HETATM    1 NA   UNL     1     -13.024  14.033  62.943  1.00  0.00    -0.842 Na 
HETATM    2  C   UNL     2     -11.822  13.276  66.351  1.00  0.00    -0.396 C  
HETATM    3  O   UNL     2     -11.322  13.524  64.044  1.00  0.00    -0.363 OA 
HETATM    4  O   UNL     2     -11.698  14.132  67.495  1.00  0.00    -0.344 OA 
HETATM    5  H   UNL     2     -10.434  16.374  63.982  1.00  0.00     0.000 HD 
HETATM    6  O   UNL     2     -10.565  16.391  64.923  1.00  0.00    -0.677 OA 
HETATM    7  C   UNL     2     -11.215  15.335  67.093  1.00  0.00    -0.291 C  
HETATM    8  C   UNL     2     -11.012  15.309  65.635  1.00  0.00    -0.344 C  
HETATM    9  O   UNL     2     -11.011  16.312  67.798  1.00  0.00    -0.330 OA 
HETATM   10  C   UNL     2     -11.337  14.102  65.165  1.00  0.00    -0.336 C  
ENDROOT
BRANCH   2  11
HETATM   11  C   UNL     2     -11.129  11.912  66.598  1.00  0.00    -0.310 C  
HETATM   12  H   UNL     2      -9.381  11.070  66.182  1.00  0.00     0.000 HD 
HETATM   13  O   UNL     2      -9.805  11.906  66.031  1.00  0.00    -0.224 OA 
BRANCH  11  14
HETATM   14  C   UNL     2     -11.065  11.453  68.062  1.00  0.00    -0.257 C  
HETATM   15  H   UNL     2     -12.289  10.884  69.560  1.00  0.00     0.000 HD 
HETATM   16  O   UNL     2     -12.329  11.168  68.653  1.00  0.00    -0.549 OA 
ENDBRANCH  11  14
ENDBRANCH   2  11
TORSDOF 2
ENDMDL
MODEL       22
REMARK 921   NORMALIZED FREE ENERGY PREDICTED BY IDOCK:   -4.54 KCAL/MOL
REMARK 922        TOTAL FREE ENERGY PREDICTED BY IDOCK:   -5.27 KCAL/MOL
REMARK 923 INTER-LIGAND FREE ENERGY PREDICTED BY IDOCK:   -5.09 KCAL/MOL
REMARK 924 INTRA-LIGAND FREE ENERGY PREDICTED BY IDOCK:   -0.18 KCAL/MOL
REMARK 927      BINDING AFFINITY PREDICTED BY RF-SCORE:    0.00 PKD
ROOT
HETATM    1 NA   UNL     1     -10.858  18.034  69.580  1.00  0.00    -0.458 Na 
HETATM    2  C   UNL     2      -9.821  16.515  66.379  1.00  0.00    -0.293 C  
HETATM    3  O   UNL     2     -11.098  18.166  67.508  1.00  0.00    -0.221 OA 
HETATM    4  O   UNL     2      -8.541  16.516  65.731  1.00  0.00    -0.442 OA 
HETATM    5  H   UNL     2      -9.199  20.468  67.437  1.00  0.00     0.000 HD 
HETATM    6  O   UNL     2      -8.608  19.911  66.945  1.00  0.00    -0.306 OA 
HETATM    7  C   UNL     2      -7.986  17.748  65.856  1.00  0.00    -0.028 C  
HETATM    8  C   UNL     2      -8.902  18.612  66.620  1.00  0.00    -0.302 C  
HETATM    9  O   UNL     2      -6.889  18.100  65.449  1.00  0.00    -0.482 OA 
HETATM   10  C   UNL     2     -10.006  17.926  66.925  1.00  0.00    -0.335 C  
ENDROOT
BRANCH   2  11
HETATM   11  C   UNL     2     -10.922  15.967  65.437  1.00  0.00    -0.285 C  
HETATM   12  H   UNL     2     -11.839  16.547  63.774  1.00  0.00     0.000 HD 
HETATM   13  O   UNL     2     -11.163  16.883  64.352  1.00  0.00    -1.159 OA 
BRANCH  11  14
HETATM   14  C   UNL     2     -10.680  14.557  64.877  1.00  0.00    -0.429 C  
HETATM   15  H   UNL     2     -11.538  13.215  63.641  1.00  0.00     0.000 HD 
HETATM   16  O   UNL     2     -11.688  14.088  63.987  1.00  0.00    -0.350 OA 
ENDBRANCH  11  14
ENDBRANCH   2  11
TORSDOF 2
ENDMDL
MODEL       23
REMARK 921   NORMALIZED FREE ENERGY PREDICTED BY IDOCK:   -4.53 KCAL/MOL
REMARK 922        TOTAL FREE ENERGY PREDICTED BY IDOCK:   -5.27 KCAL/MOL
REMARK 923 INTER-LIGAND FREE ENERGY PREDICTED BY IDOCK:   -5.22 KCAL/MOL
REMARK 924 INTRA-LIGAND FREE ENERGY PREDICTED BY IDOCK:   -0.05 KCAL/MOL
REMARK 927      BINDING AFFINITY PREDICTED BY RF-SCORE:    0.00 PKD
ROOT
HETATM    1 NA   UNL     1     -10.968  12.349  70.147  1.00  0.00    -0.440 Na 
HETATM    2  C   UNL     2     -11.037  14.673  67.280  1.00  0.00    -0.328 C  
HETATM    3  O   UNL     2     -12.239  13.516  68.967  1.00  0.00    -0.320 OA 
HETATM    4  O   UNL     2     -10.519  16.006  67.161  1.00  0.00    -0.299 OA 
HETATM    5  H   UNL     2     -12.313  15.595  71.107  1.00  0.00     0.000 HD 
HETATM    6  O   UNL     2     -11.858  16.171  70.505  1.00  0.00    -0.330 OA 
HETATM    7  C   UNL     2     -10.781  16.683  68.308  1.00  0.00    -0.351 C  
HETATM    8  C   UNL     2     -11.487  15.789  69.243  1.00  0.00    -0.365 C  
HETATM    9  O   UNL     2     -10.459  17.832  68.568  1.00  0.00    -0.366 OA 
HETATM   10  C   UNL     2     -11.677  14.602  68.661  1.00  0.00    -0.329 C  
ENDROOT
BRANCH   2  11
HETATM   11  C   UNL     2     -11.929  14.312  66.064  1.00  0.00    -0.400 C  
HETATM   12  H   UNL     2     -12.047  14.809  64.146  1.00  0.00     0.000 HD 
HETATM   13  O   UNL     2     -11.501  15.030  64.891  1.00  0.00    -0.386 OA 
BRANCH  11  14
HETATM   14  C   UNL     2     -12.040  12.815  65.741  1.00  0.00    -0.448 C  
HETATM   15  H   UNL     2     -13.150  11.552  64.629  1.00  0.00     0.000 HD 
HETATM   16  O   UNL     2     -13.081  12.478  64.829  1.00  0.00    -0.853 OA 
ENDBRANCH  11  14
ENDBRANCH   2  11
TORSDOF 2
ENDMDL
MODEL       24
REMARK 921   NORMALIZED FREE ENERGY PREDICTED BY IDOCK:   -4.50 KCAL/MOL
REMARK 922        TOTAL FREE ENERGY PREDICTED BY IDOCK:   -5.23 KCAL/MOL
REMARK 923 INTER-LIGAND FREE ENERGY PREDICTED BY IDOCK:   -5.05 KCAL/MOL
REMARK 924 INTRA-LIGAND FREE ENERGY PREDICTED BY IDOCK:   -0.18 KCAL/MOL
REMARK 927      BINDING AFFINITY PREDICTED BY RF-SCORE:    0.00 PKD
ROOT
HETATM    1 NA   UNL     1      -7.730  11.800  62.377  1.00  0.00    -0.408 Na 
HETATM    2  C   UNL     2     -10.543  12.866  64.516  1.00  0.00    -0.382 C  
HETATM    3  O   UNL     2      -9.784  11.566  62.682  1.00  0.00    -0.263 OA 
HETATM    4  O   UNL     2     -10.810  12.583  65.897  1.00  0.00    -0.259 OA 
HETATM    5  H   UNL     2      -9.282   8.954  64.037  1.00  0.00     0.000 HD 
HETATM    6  O   UNL     2      -9.601   9.355  64.836  1.00  0.00    -0.191 OA 
HETATM    7  C   UNL     2     -10.513  11.281  66.143  1.00  0.00    -0.254 C  
HETATM    8  C   UNL     2     -10.018  10.658  64.903  1.00  0.00    -0.318 C  
HETATM    9  O   UNL     2     -10.592  10.704  67.217  1.00  0.00    -0.230 OA 
HETATM   10  C   UNL     2     -10.046  11.557  63.916  1.00  0.00    -0.345 C  
ENDROOT
BRANCH   2  11
HETATM   11  C   UNL     2     -11.765  13.539  63.839  1.00  0.00    -0.368 C  
HETATM   12  H   UNL     2     -13.592  13.009  63.274  1.00  0.00     0.000 HD 
HETATM   13  O   UNL     2     -12.844  12.597  63.689  1.00  0.00    -0.718 OA 
BRANCH  11  14
HETATM   14  C   UNL     2     -12.285  14.814  64.519  1.00  0.00    -0.428 C  
HETATM   15  H   UNL     2     -12.455  16.793  64.172  1.00  0.00     0.000 HD 
HETATM   16  O   UNL     2     -12.133  16.004  63.751  1.00  0.00    -0.882 OA 
ENDBRANCH  11  14
ENDBRANCH   2  11
TORSDOF 2
ENDMDL
MODEL       25
REMARK 921   NORMALIZED FREE ENERGY PREDICTED BY IDOCK:   -4.49 KCAL/MOL
REMARK 922        TOTAL FREE ENERGY PREDICTED BY IDOCK:   -5.22 KCAL/MOL
REMARK 923 INTER-LIGAND FREE ENERGY PREDICTED BY IDOCK:   -5.01 KCAL/MOL
REMARK 924 INTRA-LIGAND FREE ENERGY PREDICTED BY IDOCK:   -0.21 KCAL/MOL
REMARK 927      BINDING AFFINITY PREDICTED BY RF-SCORE:    0.00 PKD
ROOT
HETATM    1 NA   UNL     1     -11.964   9.938  67.473  1.00  0.00    -0.457 Na 
HETATM    2  C   UNL     2     -11.934  13.550  66.710  1.00  0.00    -0.404 C  
HETATM    3  O   UNL     2     -10.715  11.528  66.944  1.00  0.00    -0.238 OA 
HETATM    4  O   UNL     2     -12.483  14.260  65.590  1.00  0.00    -0.445 OA 
HETATM    5  H   UNL     2     -10.699  10.570  64.117  1.00  0.00     0.000 HD 
HETATM    6  O   UNL     2     -11.165  11.366  63.889  1.00  0.00    -0.386 OA 
HETATM    7  C   UNL     2     -12.242  13.549  64.459  1.00  0.00    -0.398 C  
HETATM    8  C   UNL     2     -11.521  12.314  64.812  1.00  0.00    -0.329 C  
HETATM    9  O   UNL     2     -12.591  13.839  63.325  1.00  0.00    -0.830 OA 
HETATM   10  C   UNL     2     -11.300  12.292  66.129  1.00  0.00    -0.353 C  
ENDROOT
BRANCH   2  11
HETATM   11  C   UNL     2     -11.028  14.473  67.565  1.00  0.00    -0.293 C  
HETATM   12  H   UNL     2     -10.468  16.377  67.557  1.00  0.00     0.000 HD 
HETATM   13  O   UNL     2     -11.023  15.811  67.033  1.00  0.00    -0.304 OA 
BRANCH  11  14
HETATM   14  C   UNL     2     -11.349  14.516  69.066  1.00  0.00    -0.272 C  
HETATM   15  H   UNL     2     -12.448  13.534  70.442  1.00  0.00     0.000 HD 
HETATM   16  O   UNL     2     -12.250  13.507  69.512  1.00  0.00    -0.304 OA 
ENDBRANCH  11  14
ENDBRANCH   2  11
TORSDOF 2
ENDMDL
MODEL       26
REMARK 921   NORMALIZED FREE ENERGY PREDICTED BY IDOCK:   -4.49 KCAL/MOL
REMARK 922        TOTAL FREE ENERGY PREDICTED BY IDOCK:   -5.22 KCAL/MOL
REMARK 923 INTER-LIGAND FREE ENERGY PREDICTED BY IDOCK:   -5.04 KCAL/MOL
REMARK 924 INTRA-LIGAND FREE ENERGY PREDICTED BY IDOCK:   -0.18 KCAL/MOL
REMARK 927      BINDING AFFINITY PREDICTED BY RF-SCORE:    0.00 PKD
ROOT
HETATM    1 NA   UNL     1      -9.933  13.973  68.680  1.00  0.00    -0.189 Na 
HETATM    2  C   UNL     2      -9.635  17.047  66.658  1.00  0.00    -0.266 C  
HETATM    3  O   UNL     2      -8.776  14.905  67.210  1.00  0.00    -0.182 OA 
HETATM    4  O   UNL     2     -10.476  17.543  65.606  1.00  0.00    -0.588 OA 
HETATM    5  H   UNL     2     -10.092  13.233  65.117  1.00  0.00     0.000 HD 
HETATM    6  O   UNL     2     -10.473  14.034  64.777  1.00  0.00    -0.413 OA 
HETATM    7  C   UNL     2     -10.845  16.505  64.813  1.00  0.00    -0.127 C  
HETATM    8  C   UNL     2     -10.254  15.263  65.340  1.00  0.00    -0.383 C  
HETATM    9  O   UNL     2     -11.582  16.556  63.840  1.00  0.00    -1.175 OA 
HETATM   10  C   UNL     2      -9.514  15.548  66.414  1.00  0.00    -0.291 C  
ENDROOT
BRANCH   2  11
HETATM   11  C   UNL     2      -8.320  17.861  66.750  1.00  0.00    -0.252 C  
HETATM   12  H   UNL     2      -6.840  18.381  65.535  1.00  0.00     0.000 HD 
HETATM   13  O   UNL     2      -7.646  17.882  65.478  1.00  0.00    -0.518 OA 
BRANCH  11  14
HETATM   14  C   UNL     2      -8.459  19.295  67.284  1.00  0.00    -0.287 C  
HETATM   15  H   UNL     2      -8.991  20.275  68.964  1.00  0.00     0.000 HD 
HETATM   16  O   UNL     2      -8.904  19.388  68.634  1.00  0.00    -0.369 OA 
ENDBRANCH  11  14
ENDBRANCH   2  11
TORSDOF 2
ENDMDL
MODEL       27
REMARK 921   NORMALIZED FREE ENERGY PREDICTED BY IDOCK:   -4.42 KCAL/MOL
REMARK 922        TOTAL FREE ENERGY PREDICTED BY IDOCK:   -5.14 KCAL/MOL
REMARK 923 INTER-LIGAND FREE ENERGY PREDICTED BY IDOCK:   -5.20 KCAL/MOL
REMARK 924 INTRA-LIGAND FREE ENERGY PREDICTED BY IDOCK:    0.06 KCAL/MOL
REMARK 927      BINDING AFFINITY PREDICTED BY RF-SCORE:    0.00 PKD
ROOT
HETATM    1 NA   UNL     1     -14.140  13.976  65.295  1.00  0.00    -0.745 Na 
HETATM    2  C   UNL     2     -10.900  14.632  66.939  1.00  0.00    -0.305 C  
HETATM    3  O   UNL     2     -12.077  13.713  65.095  1.00  0.00    -0.363 OA 
HETATM    4  O   UNL     2     -10.218  15.874  67.168  1.00  0.00    -0.266 OA 
HETATM    5  H   UNL     2     -11.973  16.004  63.185  1.00  0.00     0.000 HD 
HETATM    6  O   UNL     2     -11.461  16.469  63.835  1.00  0.00    -1.145 OA 
HETATM    7  C   UNL     2     -10.339  16.651  66.061  1.00  0.00    -0.340 C  
HETATM    8  C   UNL     2     -11.134  15.931  65.052  1.00  0.00    -0.360 C  
HETATM    9  O   UNL     2      -9.905  17.784  65.914  1.00  0.00    -0.524 OA 
HETATM   10  C   UNL     2     -11.462  14.726  65.526  1.00  0.00    -0.329 C  
ENDROOT
BRANCH   2  11
HETATM   11  C   UNL     2      -9.983  13.425  67.261  1.00  0.00    -0.232 C  
HETATM   12  H   UNL     2      -9.001  12.031  66.247  1.00  0.00     0.000 HD 
HETATM   13  O   UNL     2      -9.563  12.771  66.049  1.00  0.00    -0.246 OA 
BRANCH  11  14
HETATM   14  C   UNL     2      -8.757  13.733  68.133  1.00  0.00    -0.183 C  
HETATM   15  H   UNL     2      -6.744  13.717  68.031  1.00  0.00     0.000 HD 
HETATM   16  O   UNL     2      -7.502  13.527  67.491  1.00  0.00    -0.163 OA 
ENDBRANCH  11  14
ENDBRANCH   2  11
TORSDOF 2
ENDMDL
MODEL       28
REMARK 921   NORMALIZED FREE ENERGY PREDICTED BY IDOCK:   -4.41 KCAL/MOL
REMARK 922        TOTAL FREE ENERGY PREDICTED BY IDOCK:   -5.13 KCAL/MOL
REMARK 923 INTER-LIGAND FREE ENERGY PREDICTED BY IDOCK:   -4.97 KCAL/MOL
REMARK 924 INTRA-LIGAND FREE ENERGY PREDICTED BY IDOCK:   -0.16 KCAL/MOL
REMARK 927      BINDING AFFINITY PREDICTED BY RF-SCORE:    0.00 PKD
ROOT
HETATM    1 NA   UNL     1     -12.865  10.897  62.362  1.00  0.00    -1.000 Na 
HETATM    2  C   UNL     2     -11.035  11.499  65.511  1.00  0.00    -0.229 C  
HETATM    3  O   UNL     2     -11.147  11.782  63.157  1.00  0.00    -0.299 OA 
HETATM    4  O   UNL     2     -11.377  12.326  66.632  1.00  0.00    -0.303 OA 
HETATM    5  H   UNL     2     -12.454  14.460  62.992  1.00  0.00     0.000 HD 
HETATM    6  O   UNL     2     -12.436  14.481  63.941  1.00  0.00    -0.814 OA 
HETATM    7  C   UNL     2     -11.900  13.492  66.173  1.00  0.00    -0.389 C  
HETATM    8  C   UNL     2     -11.928  13.460  64.701  1.00  0.00    -0.399 C  
HETATM    9  O   UNL     2     -12.325  14.417  66.849  1.00  0.00    -0.371 OA 
HETATM   10  C   UNL     2     -11.403  12.309  64.274  1.00  0.00    -0.352 C  
ENDROOT
BRANCH   2  11
HETATM   11  C   UNL     2      -9.574  10.991  65.619  1.00  0.00    -0.226 C  
HETATM   12  H   UNL     2      -7.992  11.340  66.764  1.00  0.00     0.000 HD 
HETATM   13  O   UNL     2      -8.887  11.651  66.698  1.00  0.00    -0.178 OA 
BRANCH  11  14
HETATM   14  C   UNL     2      -9.406   9.470  65.754  1.00  0.00    -0.233 C  
HETATM   15  H   UNL     2      -9.804   7.979  67.052  1.00  0.00     0.000 HD 
HETATM   16  O   UNL     2      -9.908   8.920  66.968  1.00  0.00    -0.178 OA 
ENDBRANCH  11  14
ENDBRANCH   2  11
TORSDOF 2
ENDMDL
MODEL       29
REMARK 921   NORMALIZED FREE ENERGY PREDICTED BY IDOCK:   -4.40 KCAL/MOL
REMARK 922        TOTAL FREE ENERGY PREDICTED BY IDOCK:   -5.12 KCAL/MOL
REMARK 923 INTER-LIGAND FREE ENERGY PREDICTED BY IDOCK:   -4.95 KCAL/MOL
REMARK 924 INTRA-LIGAND FREE ENERGY PREDICTED BY IDOCK:   -0.16 KCAL/MOL
REMARK 927      BINDING AFFINITY PREDICTED BY RF-SCORE:    0.00 PKD
ROOT
HETATM    1 NA   UNL     1      -7.765  11.467  64.743  1.00  0.00    -0.344 Na 
HETATM    2  C   UNL     2     -10.928  13.226  65.467  1.00  0.00    -0.282 C  
HETATM    3  O   UNL     2      -9.821  11.437  64.371  1.00  0.00    -0.242 OA 
HETATM    4  O   UNL     2     -11.657  13.344  66.698  1.00  0.00    -0.329 OA 
HETATM    5  H   UNL     2     -10.154   9.268  66.394  1.00  0.00     0.000 HD 
HETATM    6  O   UNL     2     -10.649   9.888  66.916  1.00  0.00    -0.228 OA 
HETATM    7  C   UNL     2     -11.643  12.144  67.332  1.00  0.00    -0.340 C  
HETATM    8  C   UNL     2     -10.875  11.182  66.524  1.00  0.00    -0.245 C  
HETATM    9  O   UNL     2     -12.140  11.886  68.418  1.00  0.00    -0.448 OA 
HETATM   10  C   UNL     2     -10.459  11.779  65.404  1.00  0.00    -0.272 C  
ENDROOT
BRANCH   2  11
HETATM   11  C   UNL     2     -11.763  13.756  64.273  1.00  0.00    -0.395 C  
HETATM   12  H   UNL     2     -13.212  13.083  63.096  1.00  0.00     0.000 HD 
HETATM   13  O   UNL     2     -12.701  12.758  63.828  1.00  0.00    -0.689 OA 
BRANCH  11  14
HETATM   14  C   UNL     2     -12.497  15.085  64.510  1.00  0.00    -0.146 C  
HETATM   15  H   UNL     2     -12.319  17.047  64.083  1.00  0.00     0.000 HD 
HETATM   16  O   UNL     2     -11.865  16.224  63.936  1.00  0.00    -0.994 OA 
ENDBRANCH  11  14
ENDBRANCH   2  11
TORSDOF 2
ENDMDL
MODEL       30
REMARK 921   NORMALIZED FREE ENERGY PREDICTED BY IDOCK:   -4.39 KCAL/MOL
REMARK 922        TOTAL FREE ENERGY PREDICTED BY IDOCK:   -5.11 KCAL/MOL
REMARK 923 INTER-LIGAND FREE ENERGY PREDICTED BY IDOCK:   -5.07 KCAL/MOL
REMARK 924 INTRA-LIGAND FREE ENERGY PREDICTED BY IDOCK:   -0.04 KCAL/MOL
REMARK 927      BINDING AFFINITY PREDICTED BY RF-SCORE:    0.00 PKD
ROOT
HETATM    1 NA   UNL     1     -11.338  11.297  71.213  1.00  0.00    -0.281 Na 
HETATM    2  C   UNL     2     -11.471  14.975  70.927  1.00  0.00    -0.288 C  
HETATM    3  O   UNL     2     -12.404  12.872  70.346  1.00  0.00    -0.323 OA 
HETATM    4  O   UNL     2     -11.784  15.965  71.917  1.00  0.00    -0.425 OA 
HETATM    5  H   UNL     2     -14.503  12.606  72.451  1.00  0.00     0.000 HD 
HETATM    6  O   UNL     2     -14.241  13.464  72.761  1.00  0.00    -0.693 OA 
HETATM    7  C   UNL     2     -12.828  15.524  72.664  1.00  0.00    -0.425 C  
HETATM    8  C   UNL     2     -13.234  14.192  72.184  1.00  0.00    -0.420 C  
HETATM    9  O   UNL     2     -13.340  16.097  73.614  1.00  0.00    -0.651 OA 
HETATM   10  C   UNL     2     -12.471  13.846  71.144  1.00  0.00    -0.372 C  
ENDROOT
BRANCH   2  11
HETATM   11  C   UNL     2     -11.404  15.604  69.512  1.00  0.00    -0.327 C  
HETATM   12  H   UNL     2     -10.843  17.330  68.710  1.00  0.00     0.000 HD 
HETATM   13  O   UNL     2     -10.884  16.945  69.577  1.00  0.00    -0.303 OA 
BRANCH  11  14
HETATM   14  C   UNL     2     -10.625  14.799  68.461  1.00  0.00    -0.248 C  
HETATM   15  H   UNL     2     -10.889  13.965  66.644  1.00  0.00     0.000 HD 
HETATM   16  O   UNL     2     -11.371  14.463  67.295  1.00  0.00    -0.313 OA 
ENDBRANCH  11  14
ENDBRANCH   2  11
TORSDOF 2
ENDMDL
MODEL       31
REMARK 921   NORMALIZED FREE ENERGY PREDICTED BY IDOCK:   -4.35 KCAL/MOL
REMARK 922        TOTAL FREE ENERGY PREDICTED BY IDOCK:   -5.07 KCAL/MOL
REMARK 923 INTER-LIGAND FREE ENERGY PREDICTED BY IDOCK:   -4.97 KCAL/MOL
REMARK 924 INTRA-LIGAND FREE ENERGY PREDICTED BY IDOCK:   -0.09 KCAL/MOL
REMARK 927      BINDING AFFINITY PREDICTED BY RF-SCORE:    0.00 PKD
ROOT
HETATM    1 NA   UNL     1      -9.944  10.136  66.587  1.00  0.00    -0.160 Na 
HETATM    2  C   UNL     2     -12.033  13.175  66.406  1.00  0.00    -0.402 C  
HETATM    3  O   UNL     2      -9.863  12.224  66.539  1.00  0.00    -0.218 OA 
HETATM    4  O   UNL     2     -12.837  13.678  65.329  1.00  0.00    -0.672 OA 
HETATM    5  H   UNL     2      -9.132  12.126  63.646  1.00  0.00     0.000 HD 
HETATM    6  O   UNL     2      -9.967  12.540  63.465  1.00  0.00    -0.380 OA 
HETATM    7  C   UNL     2     -12.161  13.514  64.163  1.00  0.00    -0.435 C  
HETATM    8  C   UNL     2     -10.866  12.872  64.445  1.00  0.00    -0.380 C  
HETATM    9  O   UNL     2     -12.555  13.803  63.044  1.00  0.00    -0.721 OA 
HETATM   10  C   UNL     2     -10.745  12.679  65.761  1.00  0.00    -0.268 C  
ENDROOT
BRANCH   2  11
HETATM   11  C   UNL     2     -11.902  14.224  67.539  1.00  0.00    -0.395 C  
HETATM   12  H   UNL     2     -11.563  14.221  69.495  1.00  0.00     0.000 HD 
HETATM   13  O   UNL     2     -11.643  13.578  68.800  1.00  0.00    -0.277 OA 
BRANCH  11  14
HETATM   14  C   UNL     2     -10.865  15.333  67.306  1.00  0.00    -0.318 C  
HETATM   15  H   UNL     2     -10.492  17.240  67.843  1.00  0.00     0.000 HD 
HETATM   16  O   UNL     2     -11.134  16.553  67.988  1.00  0.00    -0.345 OA 
ENDBRANCH  11  14
ENDBRANCH   2  11
TORSDOF 2
ENDMDL
MODEL       32
REMARK 921   NORMALIZED FREE ENERGY PREDICTED BY IDOCK:   -4.35 KCAL/MOL
REMARK 922        TOTAL FREE ENERGY PREDICTED BY IDOCK:   -5.06 KCAL/MOL
REMARK 923 INTER-LIGAND FREE ENERGY PREDICTED BY IDOCK:   -4.88 KCAL/MOL
REMARK 924 INTRA-LIGAND FREE ENERGY PREDICTED BY IDOCK:   -0.18 KCAL/MOL
REMARK 927      BINDING AFFINITY PREDICTED BY RF-SCORE:    0.00 PKD
ROOT
HETATM    1 NA   UNL     1     -14.020  12.661  64.850  1.00  0.00    -0.613 Na 
HETATM    2  C   UNL     2     -11.978  14.326  67.436  1.00  0.00    -0.391 C  
HETATM    3  O   UNL     2     -12.360  12.407  66.094  1.00  0.00    -0.606 OA 
HETATM    4  O   UNL     2     -11.102  15.458  67.331  1.00  0.00    -0.321 OA 
HETATM    5  H   UNL     2     -10.550  12.983  63.791  1.00  0.00     0.000 HD 
HETATM    6  O   UNL     2     -10.288  13.772  64.249  1.00  0.00    -0.331 OA 
HETATM    7  C   UNL     2     -10.393  15.358  66.178  1.00  0.00    -0.313 C  
HETATM    8  C   UNL     2     -10.800  14.134  65.467  1.00  0.00    -0.310 C  
HETATM    9  O   UNL     2      -9.575  16.160  65.753  1.00  0.00    -0.374 OA 
HETATM   10  C   UNL     2     -11.716  13.487  66.192  1.00  0.00    -0.365 C  
ENDROOT
BRANCH   2  11
HETATM   11  C   UNL     2     -11.822  13.627  68.810  1.00  0.00    -0.360 C  
HETATM   12  H   UNL     2     -10.591  12.312  69.645  1.00  0.00     0.000 HD 
HETATM   13  O   UNL     2     -10.686  12.741  68.803  1.00  0.00    -0.243 OA 
BRANCH  11  14
HETATM   14  C   UNL     2     -11.740  14.560  70.028  1.00  0.00    -0.301 C  
HETATM   15  H   UNL     2     -12.831  15.966  70.974  1.00  0.00     0.000 HD 
HETATM   16  O   UNL     2     -12.882  15.388  70.221  1.00  0.00    -0.350 OA 
ENDBRANCH  11  14
ENDBRANCH   2  11
TORSDOF 2
ENDMDL
MODEL       33
REMARK 921   NORMALIZED FREE ENERGY PREDICTED BY IDOCK:   -4.33 KCAL/MOL
REMARK 922        TOTAL FREE ENERGY PREDICTED BY IDOCK:   -5.04 KCAL/MOL
REMARK 923 INTER-LIGAND FREE ENERGY PREDICTED BY IDOCK:   -4.91 KCAL/MOL
REMARK 924 INTRA-LIGAND FREE ENERGY PREDICTED BY IDOCK:   -0.13 KCAL/MOL
REMARK 927      BINDING AFFINITY PREDICTED BY RF-SCORE:    0.00 PKD
ROOT
HETATM    1 NA   UNL     1     -13.859  16.055  70.047  1.00  0.00    -0.794 Na 
HETATM    2  C   UNL     2     -11.619  14.667  67.462  1.00  0.00    -0.375 C  
HETATM    3  O   UNL     2     -11.881  15.496  69.669  1.00  0.00    -0.325 OA 
HETATM    4  O   UNL     2     -11.576  13.352  66.889  1.00  0.00    -0.329 OA 
HETATM    5  H   UNL     2     -12.318  12.948  71.161  1.00  0.00     0.000 HD 
HETATM    6  O   UNL     2     -12.197  12.494  70.336  1.00  0.00    -0.348 OA 
HETATM    7  C   UNL     2     -11.762  12.437  67.876  1.00  0.00    -0.360 C  
HETATM    8  C   UNL     2     -11.950  13.142  69.155  1.00  0.00    -0.281 C  
HETATM    9  O   UNL     2     -11.813  11.224  67.746  1.00  0.00    -0.610 OA 
HETATM   10  C   UNL     2     -11.847  14.459  68.954  1.00  0.00    -0.320 C  
ENDROOT
BRANCH   2  11
HETATM   11  C   UNL     2     -10.380  15.498  67.041  1.00  0.00    -0.279 C  
HETATM   12  H   UNL     2      -8.971  15.409  65.647  1.00  0.00     0.000 HD 
HETATM   13  O   UNL     2      -9.730  14.900  65.904  1.00  0.00    -0.307 OA 
BRANCH  11  14
HETATM   14  C   UNL     2     -10.638  16.986  66.764  1.00  0.00    -0.191 C  
HETATM   15  H   UNL     2     -10.805  18.737  67.750  1.00  0.00     0.000 HD 
HETATM   16  O   UNL     2     -10.644  17.816  67.922  1.00  0.00    -0.386 OA 
ENDBRANCH  11  14
ENDBRANCH   2  11
TORSDOF 2
ENDMDL
MODEL       34
REMARK 921   NORMALIZED FREE ENERGY PREDICTED BY IDOCK:   -4.30 KCAL/MOL
REMARK 922        TOTAL FREE ENERGY PREDICTED BY IDOCK:   -5.01 KCAL/MOL
REMARK 923 INTER-LIGAND FREE ENERGY PREDICTED BY IDOCK:   -4.92 KCAL/MOL
REMARK 924 INTRA-LIGAND FREE ENERGY PREDICTED BY IDOCK:   -0.09 KCAL/MOL
REMARK 927      BINDING AFFINITY PREDICTED BY RF-SCORE:    0.00 PKD
ROOT
HETATM    1 NA   UNL     1     -10.596  19.297  70.177  1.00  0.00    -0.583 Na 
HETATM    2  C   UNL     2      -9.433  19.666  66.693  1.00  0.00    -0.375 C  
HETATM    3  O   UNL     2      -9.130  18.670  68.826  1.00  0.00    -0.321 OA 
HETATM    4  O   UNL     2     -10.042  19.233  65.468  1.00  0.00    -0.375 OA 
HETATM    5  H   UNL     2     -10.593  16.097  68.438  1.00  0.00     0.000 HD 
HETATM    6  O   UNL     2     -10.752  16.371  67.543  1.00  0.00    -0.325 OA 
HETATM    7  C   UNL     2     -10.561  17.992  65.650  1.00  0.00    -0.099 C  
HETATM    8  C   UNL     2     -10.315  17.567  67.039  1.00  0.00    -0.324 C  
HETATM    9  O   UNL     2     -11.176  17.330  64.829  1.00  0.00    -0.890 OA 
HETATM   10  C   UNL     2      -9.629  18.520  67.677  1.00  0.00    -0.286 C  
ENDROOT
BRANCH   2  11
HETATM   11  C   UNL     2      -7.982  20.155  66.452  1.00  0.00    -0.260 C  
HETATM   12  H   UNL     2      -6.723  21.447  67.280  1.00  0.00     0.000 HD 
HETATM   13  O   UNL     2      -7.612  21.147  67.428  1.00  0.00    -0.380 OA 
BRANCH  11  14
HETATM   14  C   UNL     2      -6.909  19.058  66.400  1.00  0.00    -0.209 C  
HETATM   15  H   UNL     2      -6.476  17.364  65.395  1.00  0.00     0.000 HD 
HETATM   16  O   UNL     2      -7.140  18.043  65.427  1.00  0.00    -0.496 OA 
ENDBRANCH  11  14
ENDBRANCH   2  11
TORSDOF 2
ENDMDL
MODEL       35
REMARK 921   NORMALIZED FREE ENERGY PREDICTED BY IDOCK:   -4.28 KCAL/MOL
REMARK 922        TOTAL FREE ENERGY PREDICTED BY IDOCK:   -4.99 KCAL/MOL
REMARK 923 INTER-LIGAND FREE ENERGY PREDICTED BY IDOCK:   -4.79 KCAL/MOL
REMARK 924 INTRA-LIGAND FREE ENERGY PREDICTED BY IDOCK:   -0.20 KCAL/MOL
REMARK 927      BINDING AFFINITY PREDICTED BY RF-SCORE:    0.00 PKD
ROOT
HETATM    1 NA   UNL     1     -13.283  14.589  69.166  1.00  0.00    -0.555 Na 
HETATM    2  C   UNL     2     -11.022  15.547  66.409  1.00  0.00    -0.238 C  
HETATM    3  O   UNL     2     -11.373  14.272  68.379  1.00  0.00    -0.256 OA 
HETATM    4  O   UNL     2     -11.106  15.259  65.006  1.00  0.00    -0.385 OA 
HETATM    5  H   UNL     2     -12.292  11.688  67.199  1.00  0.00     0.000 HD 
HETATM    6  O   UNL     2     -12.158  12.080  66.344  1.00  0.00    -0.610 OA 
HETATM    7  C   UNL     2     -11.507  13.972  64.846  1.00  0.00    -0.358 C  
HETATM    8  C   UNL     2     -11.716  13.365  66.171  1.00  0.00    -0.368 C  
HETATM    9  O   UNL     2     -11.712  13.397  63.788  1.00  0.00    -0.418 OA 
HETATM   10  C   UNL     2     -11.415  14.258  67.118  1.00  0.00    -0.359 C  
ENDROOT
BRANCH   2  11
HETATM   11  C   UNL     2      -9.647  16.166  66.769  1.00  0.00    -0.240 C  
HETATM   12  H   UNL     2      -8.011  16.739  65.804  1.00  0.00     0.000 HD 
HETATM   13  O   UNL     2      -8.853  16.361  65.584  1.00  0.00    -0.406 OA 
BRANCH  11  14
HETATM   14  C   UNL     2      -9.695  17.471  67.578  1.00  0.00    -0.278 C  
HETATM   15  H   UNL     2     -10.712  18.308  69.104  1.00  0.00     0.000 HD 
HETATM   16  O   UNL     2     -10.683  17.501  68.603  1.00  0.00    -0.318 OA 
ENDBRANCH  11  14
ENDBRANCH   2  11
TORSDOF 2
ENDMDL
MODEL       36
REMARK 921   NORMALIZED FREE ENERGY PREDICTED BY IDOCK:   -4.22 KCAL/MOL
REMARK 922        TOTAL FREE ENERGY PREDICTED BY IDOCK:   -4.92 KCAL/MOL
REMARK 923 INTER-LIGAND FREE ENERGY PREDICTED BY IDOCK:   -4.79 KCAL/MOL
REMARK 924 INTRA-LIGAND FREE ENERGY PREDICTED BY IDOCK:   -0.13 KCAL/MOL
REMARK 927      BINDING AFFINITY PREDICTED BY RF-SCORE:    0.00 PKD
ROOT
HETATM    1 NA   UNL     1     -11.159  17.052  67.138  1.00  0.00    -0.310 Na 
HETATM    2  C   UNL     2     -12.155  13.673  66.035  1.00  0.00    -0.441 C  
HETATM    3  O   UNL     2     -10.575  15.441  65.942  1.00  0.00    -0.308 OA 
HETATM    4  O   UNL     2     -12.238  12.449  66.779  1.00  0.00    -0.551 OA 
HETATM    5  H   UNL     2      -8.657  14.570  68.057  1.00  0.00     0.000 HD 
HETATM    6  O   UNL     2      -9.195  13.795  68.166  1.00  0.00    -0.188 OA 
HETATM    7  C   UNL     2     -11.167  12.365  67.608  1.00  0.00    -0.288 C  
HETATM    8  C   UNL     2     -10.333  13.567  67.439  1.00  0.00    -0.237 C  
HETATM    9  O   UNL     2     -10.929  11.471  68.406  1.00  0.00    -0.192 OA 
HETATM   10  C   UNL     2     -10.872  14.350  66.501  1.00  0.00    -0.310 C  
ENDROOT
BRANCH   2  11
HETATM   11  C   UNL     2     -12.310  13.413  64.515  1.00  0.00    -0.360 C  
HETATM   12  H   UNL     2     -12.826  14.452  62.905  1.00  0.00     0.000 HD 
HETATM   13  O   UNL     2     -12.731  14.611  63.837  1.00  0.00    -0.788 OA 
BRANCH  11  14
HETATM   14  C   UNL     2     -11.078  12.826  63.810  1.00  0.00    -0.427 C  
HETATM   15  H   UNL     2     -10.410  11.076  63.066  1.00  0.00     0.000 HD 
HETATM   16  O   UNL     2     -11.173  11.439  63.502  1.00  0.00    -0.391 OA 
ENDBRANCH  11  14
ENDBRANCH   2  11
TORSDOF 2
ENDMDL
MODEL       37
REMARK 921   NORMALIZED FREE ENERGY PREDICTED BY IDOCK:   -4.21 KCAL/MOL
REMARK 922        TOTAL FREE ENERGY PREDICTED BY IDOCK:   -4.90 KCAL/MOL
REMARK 923 INTER-LIGAND FREE ENERGY PREDICTED BY IDOCK:   -4.71 KCAL/MOL
REMARK 924 INTRA-LIGAND FREE ENERGY PREDICTED BY IDOCK:   -0.19 KCAL/MOL
REMARK 927      BINDING AFFINITY PREDICTED BY RF-SCORE:    0.00 PKD
ROOT
HETATM    1 NA   UNL     1     -12.010  10.601  67.674  1.00  0.00    -0.300 Na 
HETATM    2  C   UNL     2     -11.416  13.018  64.949  1.00  0.00    -0.316 C  
HETATM    3  O   UNL     2     -10.766  12.165  67.065  1.00  0.00    -0.226 OA 
HETATM    4  O   UNL     2     -10.966  12.798  63.604  1.00  0.00    -0.425 OA 
HETATM    5  H   UNL     2      -8.688  10.187  66.241  1.00  0.00     0.000 HD 
HETATM    6  O   UNL     2      -8.834  10.469  65.346  1.00  0.00    -0.173 OA 
HETATM    7  C   UNL     2      -9.976  11.870  63.619  1.00  0.00    -0.381 C  
HETATM    8  C   UNL     2      -9.749  11.431  65.006  1.00  0.00    -0.250 C  
HETATM    9  O   UNL     2      -9.383  11.420  62.651  1.00  0.00    -0.361 OA 
HETATM   10  C   UNL     2     -10.564  12.106  65.822  1.00  0.00    -0.260 C  
ENDROOT
BRANCH   2  11
HETATM   11  C   UNL     2     -11.422  14.529  65.294  1.00  0.00    -0.355 C  
HETATM   12  H   UNL     2     -10.081  15.946  65.657  1.00  0.00     0.000 HD 
HETATM   13  O   UNL     2     -10.077  15.020  65.445  1.00  0.00    -0.345 OA 
BRANCH  11  14
HETATM   14  C   UNL     2     -12.195  15.432  64.321  1.00  0.00    -0.126 C  
HETATM   15  H   UNL     2     -12.042  17.235  63.431  1.00  0.00     0.000 HD 
HETATM   16  O   UNL     2     -11.563  16.676  64.033  1.00  0.00    -1.197 OA 
ENDBRANCH  11  14
ENDBRANCH   2  11
TORSDOF 2
ENDMDL
MODEL       38
REMARK 921   NORMALIZED FREE ENERGY PREDICTED BY IDOCK:   -4.19 KCAL/MOL
REMARK 922        TOTAL FREE ENERGY PREDICTED BY IDOCK:   -4.89 KCAL/MOL
REMARK 923 INTER-LIGAND FREE ENERGY PREDICTED BY IDOCK:   -4.74 KCAL/MOL
REMARK 924 INTRA-LIGAND FREE ENERGY PREDICTED BY IDOCK:   -0.15 KCAL/MOL
REMARK 927      BINDING AFFINITY PREDICTED BY RF-SCORE:    0.00 PKD
ROOT
HETATM    1 NA   UNL     1      -9.810  15.090  64.707  1.00  0.00    -0.308 Na 
HETATM    2  C   UNL     2     -10.961  14.278  68.119  1.00  0.00    -0.246 C  
HETATM    3  O   UNL     2     -11.476  15.139  65.969  1.00  0.00    -0.285 OA 
HETATM    4  O   UNL     2     -11.141  13.003  68.752  1.00  0.00    -0.249 OA 
HETATM    5  H   UNL     2     -12.549  12.690  64.643  1.00  0.00     0.000 HD 
HETATM    6  O   UNL     2     -12.420  12.238  65.468  1.00  0.00    -0.597 OA 
HETATM    7  C   UNL     2     -11.703  12.147  67.861  1.00  0.00    -0.336 C  
HETATM    8  C   UNL     2     -11.903  12.847  66.581  1.00  0.00    -0.395 C  
HETATM    9  O   UNL     2     -11.971  10.970  68.049  1.00  0.00    -0.623 OA 
HETATM   10  C   UNL     2     -11.499  14.115  66.703  1.00  0.00    -0.366 C  
ENDROOT
BRANCH   2  11
HETATM   11  C   UNL     2     -11.563  15.418  68.981  1.00  0.00    -0.347 C  
HETATM   12  H   UNL     2     -12.810  15.579  70.517  1.00  0.00     0.000 HD 
HETATM   13  O   UNL     2     -12.440  14.881  69.989  1.00  0.00    -0.320 OA 
BRANCH  11  14
HETATM   14  C   UNL     2     -10.548  16.368  69.633  1.00  0.00    -0.307 C  
HETATM   15  H   UNL     2      -9.761  18.205  69.372  1.00  0.00     0.000 HD 
HETATM   16  O   UNL     2     -10.390  17.618  68.968  1.00  0.00    -0.360 OA 
ENDBRANCH  11  14
ENDBRANCH   2  11
TORSDOF 2
ENDMDL
MODEL       39
REMARK 921   NORMALIZED FREE ENERGY PREDICTED BY IDOCK:   -4.19 KCAL/MOL
REMARK 922        TOTAL FREE ENERGY PREDICTED BY IDOCK:   -4.88 KCAL/MOL
REMARK 923 INTER-LIGAND FREE ENERGY PREDICTED BY IDOCK:   -4.68 KCAL/MOL
REMARK 924 INTRA-LIGAND FREE ENERGY PREDICTED BY IDOCK:   -0.20 KCAL/MOL
REMARK 927      BINDING AFFINITY PREDICTED BY RF-SCORE:    0.00 PKD
ROOT
HETATM    1 NA   UNL     1      -8.839  18.537  65.959  1.00  0.00    -0.273 Na 
HETATM    2  C   UNL     2      -9.887  15.126  66.905  1.00  0.00    -0.237 C  
HETATM    3  O   UNL     2     -10.452  17.419  66.677  1.00  0.00    -0.310 OA 
HETATM    4  O   UNL     2     -10.086  13.963  66.088  1.00  0.00    -0.291 OA 
HETATM    5  H   UNL     2     -11.659  17.414  63.947  1.00  0.00     0.000 HD 
HETATM    6  O   UNL     2     -11.515  16.475  63.930  1.00  0.00    -1.145 OA 
HETATM    7  C   UNL     2     -10.711  14.335  64.941  1.00  0.00    -0.432 C  
HETATM    8  C   UNL     2     -10.935  15.790  64.966  1.00  0.00    -0.417 C  
HETATM    9  O   UNL     2     -11.012  13.610  64.006  1.00  0.00    -0.273 OA 
HETATM   10  C   UNL     2     -10.483  16.287  66.120  1.00  0.00    -0.322 C  
ENDROOT
BRANCH   2  11
HETATM   11  C   UNL     2     -10.416  14.893  68.343  1.00  0.00    -0.243 C  
HETATM   12  H   UNL     2     -10.962  13.348  69.462  1.00  0.00     0.000 HD 
HETATM   13  O   UNL     2     -10.638  13.490  68.581  1.00  0.00    -0.244 OA 
BRANCH  11  14
HETATM   14  C   UNL     2      -9.555  15.478  69.473  1.00  0.00    -0.278 C  
HETATM   15  H   UNL     2      -7.769  16.370  69.753  1.00  0.00     0.000 HD 
HETATM   16  O   UNL     2      -8.302  16.008  69.053  1.00  0.00    -0.217 OA 
ENDBRANCH  11  14
ENDBRANCH   2  11
TORSDOF 2
ENDMDL
MODEL       40
REMARK 921   NORMALIZED FREE ENERGY PREDICTED BY IDOCK:   -4.17 KCAL/MOL
REMARK 922        TOTAL FREE ENERGY PREDICTED BY IDOCK:   -4.86 KCAL/MOL
REMARK 923 INTER-LIGAND FREE ENERGY PREDICTED BY IDOCK:   -4.70 KCAL/MOL
REMARK 924 INTRA-LIGAND FREE ENERGY PREDICTED BY IDOCK:   -0.17 KCAL/MOL
REMARK 927      BINDING AFFINITY PREDICTED BY RF-SCORE:    0.00 PKD
ROOT
HETATM    1 NA   UNL     1     -14.001  12.588  64.815  1.00  0.00    -0.634 Na 
HETATM    2  C   UNL     2     -11.906  13.356  67.756  1.00  0.00    -0.358 C  
HETATM    3  O   UNL     2     -12.090  12.334  65.622  1.00  0.00    -0.557 OA 
HETATM    4  O   UNL     2     -11.392  14.613  68.219  1.00  0.00    -0.270 OA 
HETATM    5  H   UNL     2     -11.064  14.528  63.877  1.00  0.00     0.000 HD 
HETATM    6  O   UNL     2     -10.911  15.030  64.669  1.00  0.00    -0.372 OA 
HETATM    7  C   UNL     2     -10.966  15.333  67.150  1.00  0.00    -0.331 C  
HETATM    8  C   UNL     2     -11.203  14.556  65.921  1.00  0.00    -0.331 C  
HETATM    9  O   UNL     2     -10.497  16.460  67.169  1.00  0.00    -0.299 OA 
HETATM   10  C   UNL     2     -11.735  13.373  66.242  1.00  0.00    -0.366 C  
ENDROOT
BRANCH   2  11
HETATM   11  C   UNL     2     -11.267  12.174  68.530  1.00  0.00    -0.260 C  
HETATM   12  H   UNL     2     -11.834  10.394  69.200  1.00  0.00     0.000 HD 
HETATM   13  O   UNL     2     -12.226  11.118  68.725  1.00  0.00    -0.555 OA 
BRANCH  11  14
HETATM   14  C   UNL     2      -9.980  11.596  67.921  1.00  0.00    -0.182 C  
HETATM   15  H   UNL     2      -8.029  12.055  67.707  1.00  0.00     0.000 HD 
HETATM   16  O   UNL     2      -8.825  12.413  68.084  1.00  0.00    -0.182 OA 
ENDBRANCH  11  14
ENDBRANCH   2  11
TORSDOF 2
ENDMDL
MODEL       41
REMARK 921   NORMALIZED FREE ENERGY PREDICTED BY IDOCK:   -4.15 KCAL/MOL
REMARK 922        TOTAL FREE ENERGY PREDICTED BY IDOCK:   -4.83 KCAL/MOL
REMARK 923 INTER-LIGAND FREE ENERGY PREDICTED BY IDOCK:   -4.69 KCAL/MOL
REMARK 924 INTRA-LIGAND FREE ENERGY PREDICTED BY IDOCK:   -0.14 KCAL/MOL
REMARK 927      BINDING AFFINITY PREDICTED BY RF-SCORE:    0.00 PKD
ROOT
HETATM    1 NA   UNL     1      -9.792  15.656  67.749  1.00  0.00    -0.206 Na 
HETATM    2  C   UNL     2     -11.913  14.277  70.439  1.00  0.00    -0.332 C  
HETATM    3  O   UNL     2     -11.777  15.327  68.315  1.00  0.00    -0.343 OA 
HETATM    4  O   UNL     2     -12.086  12.920  70.871  1.00  0.00    -0.291 OA 
HETATM    5  H   UNL     2     -11.890  12.944  66.520  1.00  0.00     0.000 HD 
HETATM    6  O   UNL     2     -11.985  12.413  67.302  1.00  0.00    -0.516 OA 
HETATM    7  C   UNL     2     -12.148  12.116  69.778  1.00  0.00    -0.237 C  
HETATM    8  C   UNL     2     -12.000  12.940  68.566  1.00  0.00    -0.234 C  
HETATM    9  O   UNL     2     -12.263  10.900  69.772  1.00  0.00    -0.326 OA 
HETATM   10  C   UNL     2     -11.884  14.223  68.916  1.00  0.00    -0.336 C  
ENDROOT
BRANCH   2  11
HETATM   11  C   UNL     2     -12.961  15.209  71.098  1.00  0.00    -0.421 C  
HETATM   12  H   UNL     2     -14.810  15.056  71.800  1.00  0.00     0.000 HD 
HETATM   13  O   UNL     2     -14.168  14.484  71.397  1.00  0.00    -0.397 OA 
BRANCH  11  14
HETATM   14  C   UNL     2     -12.488  15.963  72.350  1.00  0.00    -0.474 C  
HETATM   15  H   UNL     2     -13.165  16.524  74.164  1.00  0.00     0.000 HD 
HETATM   16  O   UNL     2     -13.457  16.057  73.390  1.00  0.00    -0.581 OA 
ENDBRANCH  11  14
ENDBRANCH   2  11
TORSDOF 2
ENDMDL
MODEL       42
REMARK 921   NORMALIZED FREE ENERGY PREDICTED BY IDOCK:   -4.14 KCAL/MOL
REMARK 922        TOTAL FREE ENERGY PREDICTED BY IDOCK:   -4.83 KCAL/MOL
REMARK 923 INTER-LIGAND FREE ENERGY PREDICTED BY IDOCK:   -4.79 KCAL/MOL
REMARK 924 INTRA-LIGAND FREE ENERGY PREDICTED BY IDOCK:   -0.04 KCAL/MOL
REMARK 927      BINDING AFFINITY PREDICTED BY RF-SCORE:    0.00 PKD
ROOT
HETATM    1 NA   UNL     1      -6.825  18.495  64.745  1.00  0.00    -0.238 Na 
HETATM    2  C   UNL     2     -10.224  18.180  66.152  1.00  0.00    -0.367 C  
HETATM    3  O   UNL     2      -8.081  17.217  65.822  1.00  0.00    -0.527 OA 
HETATM    4  O   UNL     2     -10.843  18.890  67.234  1.00  0.00    -0.458 OA 
HETATM    5  H   UNL     2      -6.725  18.025  68.356  1.00  0.00     0.000 HD 
HETATM    6  O   UNL     2      -7.546  18.424  68.619  1.00  0.00    -0.292 OA 
HETATM    7  C   UNL     2      -9.940  19.031  68.239  1.00  0.00    -0.394 C  
HETATM    8  C   UNL     2      -8.667  18.413  67.831  1.00  0.00    -0.283 C  
HETATM    9  O   UNL     2     -10.115  19.608  69.301  1.00  0.00    -0.423 OA 
HETATM   10  C   UNL     2      -8.804  17.880  66.615  1.00  0.00    -0.268 C  
ENDROOT
BRANCH   2  11
HETATM   11  C   UNL     2     -11.095  16.979  65.704  1.00  0.00     0.217 C  
HETATM   12  H   UNL     2     -11.658  16.145  63.993  1.00  0.00     0.000 HD 
HETATM   13  O   UNL     2     -11.123  16.881  64.267  1.00  0.00    -1.135 OA 
BRANCH  11  14
HETATM   14  C   UNL     2     -10.715  15.618  66.306  1.00  0.00    -0.295 C  
HETATM   15  H   UNL     2     -10.145  13.774  65.724  1.00  0.00     0.000 HD 
HETATM   16  O   UNL     2     -10.380  14.617  65.351  1.00  0.00    -0.331 OA 
ENDBRANCH  11  14
ENDBRANCH   2  11
TORSDOF 2
ENDMDL
MODEL       43
REMARK 921   NORMALIZED FREE ENERGY PREDICTED BY IDOCK:   -4.13 KCAL/MOL
REMARK 922        TOTAL FREE ENERGY PREDICTED BY IDOCK:   -4.81 KCAL/MOL
REMARK 923 INTER-LIGAND FREE ENERGY PREDICTED BY IDOCK:   -4.70 KCAL/MOL
REMARK 924 INTRA-LIGAND FREE ENERGY PREDICTED BY IDOCK:   -0.11 KCAL/MOL
REMARK 927      BINDING AFFINITY PREDICTED BY RF-SCORE:    0.00 PKD
ROOT
HETATM    1 NA   UNL     1      -9.270  12.627  63.189  1.00  0.00    -0.443 Na 
HETATM    2  C   UNL     2      -9.720  13.860  66.640  1.00  0.00    -0.289 C  
HETATM    3  O   UNL     2     -10.280  14.048  64.341  1.00  0.00    -0.310 OA 
HETATM    4  O   UNL     2     -10.342  13.231  67.769  1.00  0.00    -0.226 OA 
HETATM    5  H   UNL     2     -12.747  12.371  64.242  1.00  0.00     0.000 HD 
HETATM    6  O   UNL     2     -12.649  12.247  65.179  1.00  0.00    -0.585 OA 
HETATM    7  C   UNL     2     -11.471  12.602  67.354  1.00  0.00    -0.337 C  
HETATM    8  C   UNL     2     -11.622  12.794  65.902  1.00  0.00    -0.382 C  
HETATM    9  O   UNL     2     -12.234  11.942  68.043  1.00  0.00    -0.491 OA 
HETATM   10  C   UNL     2     -10.620  13.552  65.450  1.00  0.00    -0.308 C  
ENDROOT
BRANCH   2  11
HETATM   11  C   UNL     2      -9.413  15.351  66.932  1.00  0.00    -0.230 C  
HETATM   12  H   UNL     2      -7.999  16.665  66.470  1.00  0.00     0.000 HD 
HETATM   13  O   UNL     2      -8.187  15.752  66.290  1.00  0.00    -0.243 OA 
BRANCH  11  14
HETATM   14  C   UNL     2     -10.530  16.344  66.575  1.00  0.00    -0.282 C  
HETATM   15  H   UNL     2     -10.860  17.937  65.385  1.00  0.00     0.000 HD 
HETATM   16  O   UNL     2     -10.169  17.323  65.605  1.00  0.00    -0.579 OA 
ENDBRANCH  11  14
ENDBRANCH   2  11
TORSDOF 2
ENDMDL
MODEL       44
REMARK 921   NORMALIZED FREE ENERGY PREDICTED BY IDOCK:   -4.11 KCAL/MOL
REMARK 922        TOTAL FREE ENERGY PREDICTED BY IDOCK:   -4.80 KCAL/MOL
REMARK 923 INTER-LIGAND FREE ENERGY PREDICTED BY IDOCK:   -4.59 KCAL/MOL
REMARK 924 INTRA-LIGAND FREE ENERGY PREDICTED BY IDOCK:   -0.21 KCAL/MOL
REMARK 927      BINDING AFFINITY PREDICTED BY RF-SCORE:    0.00 PKD
ROOT
HETATM    1 NA   UNL     1     -10.353  15.972  66.820  1.00  0.00    -0.251 Na 
HETATM    2  C   UNL     2     -10.369  12.487  65.601  1.00  0.00    -0.271 C  
HETATM    3  O   UNL     2     -11.079  14.056  67.233  1.00  0.00    -0.289 OA 
HETATM    4  O   UNL     2     -10.975  11.924  64.429  1.00  0.00    -0.304 OA 
HETATM    5  H   UNL     2     -13.741  14.828  66.126  1.00  0.00     0.000 HD 
HETATM    6  O   UNL     2     -13.587  14.200  65.430  1.00  0.00    -0.568 OA 
HETATM    7  C   UNL     2     -12.205  12.475  64.264  1.00  0.00    -0.452 C  
HETATM    8  C   UNL     2     -12.444  13.449  65.342  1.00  0.00    -0.494 C  
HETATM    9  O   UNL     2     -12.990  12.249  63.355  1.00  0.00    -0.753 OA 
HETATM   10  C   UNL     2     -11.392  13.466  66.164  1.00  0.00    -0.303 C  
ENDROOT
BRANCH   2  11
HETATM   11  C   UNL     2      -9.851  11.376  66.549  1.00  0.00    -0.208 C  
HETATM   12  H   UNL     2     -10.635  10.015  67.763  1.00  0.00     0.000 HD 
HETATM   13  O   UNL     2     -10.952  10.696  67.181  1.00  0.00    -0.285 OA 
BRANCH  11  14
HETATM   14  C   UNL     2      -8.904  10.346  65.915  1.00  0.00    -0.163 C  
HETATM   15  H   UNL     2      -8.918   8.452  65.225  1.00  0.00     0.000 HD 
HETATM   16  O   UNL     2      -9.504   9.090  65.617  1.00  0.00    -0.244 OA 
ENDBRANCH  11  14
ENDBRANCH   2  11
TORSDOF 2
ENDMDL
MODEL       45
REMARK 921   NORMALIZED FREE ENERGY PREDICTED BY IDOCK:   -4.11 KCAL/MOL
REMARK 922        TOTAL FREE ENERGY PREDICTED BY IDOCK:   -4.80 KCAL/MOL
REMARK 923 INTER-LIGAND FREE ENERGY PREDICTED BY IDOCK:   -4.61 KCAL/MOL
REMARK 924 INTRA-LIGAND FREE ENERGY PREDICTED BY IDOCK:   -0.19 KCAL/MOL
REMARK 927      BINDING AFFINITY PREDICTED BY RF-SCORE:    0.00 PKD
ROOT
HETATM    1 NA   UNL     1     -13.598  11.371  71.172  1.00  0.00    -0.336 Na 
HETATM    2  C   UNL     2     -12.154  14.048  69.079  1.00  0.00    -0.323 C  
HETATM    3  O   UNL     2     -11.792  12.184  70.503  1.00  0.00    -0.287 OA 
HETATM    4  O   UNL     2     -12.187  14.223  67.655  1.00  0.00    -0.337 OA 
HETATM    5  H   UNL     2     -11.557   9.995  68.487  1.00  0.00     0.000 HD 
HETATM    6  O   UNL     2     -11.659  10.659  67.816  1.00  0.00    -0.501 OA 
HETATM    7  C   UNL     2     -11.993  13.018  67.060  1.00  0.00    -0.347 C  
HETATM    8  C   UNL     2     -11.835  11.988  68.101  1.00  0.00    -0.286 C  
HETATM    9  O   UNL     2     -11.988  12.789  65.860  1.00  0.00    -0.417 OA 
HETATM   10  C   UNL     2     -11.900  12.563  69.305  1.00  0.00    -0.304 C  
ENDROOT
BRANCH   2  11
HETATM   11  C   UNL     2     -11.169  15.046  69.740  1.00  0.00    -0.277 C  
HETATM   12  H   UNL     2      -9.960  16.505  69.152  1.00  0.00     0.000 HD 
HETATM   13  O   UNL     2     -10.564  15.894  68.747  1.00  0.00    -0.225 OA 
BRANCH  11  14
HETATM   14  C   UNL     2     -11.753  15.909  70.869  1.00  0.00    -0.420 C  
HETATM   15  H   UNL     2     -13.527  16.345  71.722  1.00  0.00     0.000 HD 
HETATM   16  O   UNL     2     -13.165  15.811  71.024  1.00  0.00    -0.547 OA 
ENDBRANCH  11  14
ENDBRANCH   2  11
TORSDOF 2
ENDMDL
MODEL       46
REMARK 921   NORMALIZED FREE ENERGY PREDICTED BY IDOCK:   -4.11 KCAL/MOL
REMARK 922        TOTAL FREE ENERGY PREDICTED BY IDOCK:   -4.79 KCAL/MOL
REMARK 923 INTER-LIGAND FREE ENERGY PREDICTED BY IDOCK:   -4.60 KCAL/MOL
REMARK 924 INTRA-LIGAND FREE ENERGY PREDICTED BY IDOCK:   -0.18 KCAL/MOL
REMARK 927      BINDING AFFINITY PREDICTED BY RF-SCORE:    0.00 PKD
ROOT
HETATM    1 NA   UNL     1     -11.425  18.233  67.701  1.00  0.00    -0.370 Na 
HETATM    2  C   UNL     2     -11.862  14.693  66.751  1.00  0.00    -0.317 C  
HETATM    3  O   UNL     2     -10.383  16.498  67.180  1.00  0.00    -0.291 OA 
HETATM    4  O   UNL     2     -12.330  13.582  67.529  1.00  0.00    -0.259 OA 
HETATM    5  H   UNL     2      -9.753  16.016  70.058  1.00  0.00     0.000 HD 
HETATM    6  O   UNL     2     -10.299  15.241  70.004  1.00  0.00    -0.273 OA 
HETATM    7  C   UNL     2     -11.796  13.661  68.774  1.00  0.00    -0.360 C  
HETATM    8  C   UNL     2     -10.950  14.863  68.859  1.00  0.00    -0.251 C  
HETATM    9  O   UNL     2     -12.000  12.898  69.706  1.00  0.00    -0.313 OA 
HETATM   10  C   UNL     2     -10.945  15.484  67.676  1.00  0.00    -0.315 C  
ENDROOT
BRANCH   2  11
HETATM   11  C   UNL     2     -11.270  14.217  65.400  1.00  0.00    -0.329 C  
HETATM   12  H   UNL     2      -9.662  13.233  64.780  1.00  0.00     0.000 HD 
HETATM   13  O   UNL     2     -10.025  13.524  65.608  1.00  0.00    -0.284 OA 
BRANCH  11  14
HETATM   14  C   UNL     2     -12.199  13.358  64.530  1.00  0.00    -0.398 C  
HETATM   15  H   UNL     2     -13.220  13.455  62.795  1.00  0.00     0.000 HD 
HETATM   16  O   UNL     2     -12.645  13.987  63.333  1.00  0.00    -0.845 OA 
ENDBRANCH  11  14
ENDBRANCH   2  11
TORSDOF 2
ENDMDL
MODEL       47
REMARK 921   NORMALIZED FREE ENERGY PREDICTED BY IDOCK:   -4.10 KCAL/MOL
REMARK 922        TOTAL FREE ENERGY PREDICTED BY IDOCK:   -4.78 KCAL/MOL
REMARK 923 INTER-LIGAND FREE ENERGY PREDICTED BY IDOCK:   -4.79 KCAL/MOL
REMARK 924 INTRA-LIGAND FREE ENERGY PREDICTED BY IDOCK:    0.00 KCAL/MOL
REMARK 927      BINDING AFFINITY PREDICTED BY RF-SCORE:    0.00 PKD
ROOT
HETATM    1 NA   UNL     1      -8.578  10.017  66.806  1.00  0.00    -0.118 Na 
HETATM    2  C   UNL     2     -10.504  12.768  65.272  1.00  0.00    -0.292 C  
HETATM    3  O   UNL     2     -10.380  10.469  65.848  1.00  0.00    -0.249 OA 
HETATM    4  O   UNL     2     -11.114  13.916  65.879  1.00  0.00    -0.290 OA 
HETATM    5  H   UNL     2     -11.774  10.492  68.487  1.00  0.00     0.000 HD 
HETATM    6  O   UNL     2     -11.917  11.422  68.356  1.00  0.00    -0.539 OA 
HETATM    7  C   UNL     2     -11.700  13.538  67.044  1.00  0.00    -0.383 C  
HETATM    8  C   UNL     2     -11.477  12.096  67.248  1.00  0.00    -0.345 C  
HETATM    9  O   UNL     2     -12.286  14.261  67.834  1.00  0.00    -0.311 OA 
HETATM   10  C   UNL     2     -10.796  11.603  66.210  1.00  0.00    -0.286 C  
ENDROOT
BRANCH   2  11
HETATM   11  C   UNL     2     -10.947  12.618  63.794  1.00  0.00    -0.435 C  
HETATM   12  H   UNL     2     -10.159  11.958  62.097  1.00  0.00     0.000 HD 
HETATM   13  O   UNL     2      -9.887  12.049  63.002  1.00  0.00    -0.372 OA 
BRANCH  11  14
HETATM   14  C   UNL     2     -12.244  11.828  63.563  1.00  0.00    -0.380 C  
HETATM   15  H   UNL     2     -14.159  11.780  64.193  1.00  0.00     0.000 HD 
HETATM   16  O   UNL     2     -13.356  12.269  64.336  1.00  0.00    -0.786 OA 
ENDBRANCH  11  14
ENDBRANCH   2  11
TORSDOF 2
ENDMDL
MODEL       48
REMARK 921   NORMALIZED FREE ENERGY PREDICTED BY IDOCK:   -4.07 KCAL/MOL
REMARK 922        TOTAL FREE ENERGY PREDICTED BY IDOCK:   -4.75 KCAL/MOL
REMARK 923 INTER-LIGAND FREE ENERGY PREDICTED BY IDOCK:   -4.57 KCAL/MOL
REMARK 924 INTRA-LIGAND FREE ENERGY PREDICTED BY IDOCK:   -0.18 KCAL/MOL
REMARK 927      BINDING AFFINITY PREDICTED BY RF-SCORE:    0.00 PKD
ROOT
HETATM    1 NA   UNL     1     -11.161  13.816  71.189  1.00  0.00    -0.501 Na 
HETATM    2  C   UNL     2     -11.472  10.151  70.882  1.00  0.00    -0.360 C  
HETATM    3  O   UNL     2     -12.529  12.275  70.841  1.00  0.00    -0.371 OA 
HETATM    4  O   UNL     2     -10.974   9.265  69.869  1.00  0.00    -0.232 OA 
HETATM    5  H   UNL     2     -12.448  12.867  67.916  1.00  0.00     0.000 HD 
HETATM    6  O   UNL     2     -12.046  12.015  67.798  1.00  0.00    -0.537 OA 
HETATM    7  C   UNL     2     -11.149   9.845  68.655  1.00  0.00    -0.134 C  
HETATM    8  C   UNL     2     -11.773  11.166  68.838  1.00  0.00    -0.337 C  
HETATM    9  O   UNL     2     -10.816   9.387  67.572  1.00  0.00    -0.269 OA 
HETATM   10  C   UNL     2     -12.000  11.371  70.138  1.00  0.00    -0.377 C  
ENDROOT
BRANCH   2  11
HETATM   11  C   UNL     2     -12.454   9.416  71.830  1.00  0.00    -0.390 C  
HETATM   12  H   UNL     2     -14.372   8.905  71.830  1.00  0.00     0.000 HD 
HETATM   13  O   UNL     2     -13.770   9.355  71.248  1.00  0.00    -0.346 OA 
BRANCH  11  14
HETATM   14  C   UNL     2     -12.023   8.012  72.279  1.00  0.00    -0.358 C  
HETATM   15  H   UNL     2     -12.557   6.082  72.045  1.00  0.00     0.000 HD 
HETATM   16  O   UNL     2     -12.823   6.951  71.767  1.00  0.00    -0.362 OA 
ENDBRANCH  11  14
ENDBRANCH   2  11
TORSDOF 2
ENDMDL
MODEL       49
REMARK 921   NORMALIZED FREE ENERGY PREDICTED BY IDOCK:   -4.01 KCAL/MOL
REMARK 922        TOTAL FREE ENERGY PREDICTED BY IDOCK:   -4.68 KCAL/MOL
REMARK 923 INTER-LIGAND FREE ENERGY PREDICTED BY IDOCK:   -4.56 KCAL/MOL
REMARK 924 INTRA-LIGAND FREE ENERGY PREDICTED BY IDOCK:   -0.11 KCAL/MOL
REMARK 927      BINDING AFFINITY PREDICTED BY RF-SCORE:    0.00 PKD
ROOT
HETATM    1 NA   UNL     1     -11.814   9.912  67.486  1.00  0.00    -0.474 Na 
HETATM    2  C   UNL     2     -12.211   9.578  71.141  1.00  0.00    -0.338 C  
HETATM    3  O   UNL     2     -10.811  10.130  69.306  1.00  0.00    -0.212 OA 
HETATM    4  O   UNL     2     -13.005  10.346  72.055  1.00  0.00    -0.445 OA 
HETATM    5  H   UNL     2     -11.223  13.084  69.176  1.00  0.00     0.000 HD 
HETATM    6  O   UNL     2     -11.784  12.997  69.937  1.00  0.00    -0.304 OA 
HETATM    7  C   UNL     2     -12.914  11.659  71.721  1.00  0.00    -0.377 C  
HETATM    8  C   UNL     2     -12.044  11.794  70.540  1.00  0.00    -0.347 C  
HETATM    9  O   UNL     2     -13.482  12.592  72.266  1.00  0.00    -0.561 OA 
HETATM   10  C   UNL     2     -11.591  10.589  70.184  1.00  0.00    -0.326 C  
ENDROOT
BRANCH   2  11
HETATM   11  C   UNL     2     -11.245   8.633  71.900  1.00  0.00    -0.343 C  
HETATM   12  H   UNL     2     -11.175   7.735  73.668  1.00  0.00     0.000 HD 
HETATM   13  O   UNL     2     -11.768   8.314  73.203  1.00  0.00    -0.196 OA 
BRANCH  11  14
HETATM   14  C   UNL     2     -10.863   7.339  71.166  1.00  0.00    -0.242 C  
HETATM   15  H   UNL     2     -11.708   5.889  70.049  1.00  0.00     0.000 HD 
HETATM   16  O   UNL     2     -11.944   6.690  70.503  1.00  0.00    -0.400 OA 
ENDBRANCH  11  14
ENDBRANCH   2  11
TORSDOF 2
ENDMDL
MODEL       50
REMARK 921   NORMALIZED FREE ENERGY PREDICTED BY IDOCK:   -3.98 KCAL/MOL
REMARK 922        TOTAL FREE ENERGY PREDICTED BY IDOCK:   -4.65 KCAL/MOL
REMARK 923 INTER-LIGAND FREE ENERGY PREDICTED BY IDOCK:   -4.44 KCAL/MOL
REMARK 924 INTRA-LIGAND FREE ENERGY PREDICTED BY IDOCK:   -0.20 KCAL/MOL
REMARK 927      BINDING AFFINITY PREDICTED BY RF-SCORE:    0.00 PKD
ROOT
HETATM    1 NA   UNL     1     -11.061  20.429  69.883  1.00  0.00    -0.638 Na 
HETATM    2  C   UNL     2      -9.775  17.400  68.209  1.00  0.00    -0.299 C  
HETATM    3  O   UNL     2     -10.313  19.707  68.070  1.00  0.00    -0.426 OA 
HETATM    4  O   UNL     2      -8.559  16.671  68.430  1.00  0.00    -0.204 OA 
HETATM    5  H   UNL     2      -7.658  20.924  68.685  1.00  0.00     0.000 HD 
HETATM    6  O   UNL     2      -7.312  20.041  68.735  1.00  0.00    -0.276 OA 
HETATM    7  C   UNL     2      -7.547  17.555  68.623  1.00  0.00    -0.273 C  
HETATM    8  C   UNL     2      -8.083  18.925  68.545  1.00  0.00    -0.348 C  
HETATM    9  O   UNL     2      -6.380  17.287  68.866  1.00  0.00    -0.178 OA 
HETATM   10  C   UNL     2      -9.390  18.873  68.278  1.00  0.00    -0.339 C  
ENDROOT
BRANCH   2  11
HETATM   11  C   UNL     2     -10.491  16.911  66.925  1.00  0.00    -0.271 C  
HETATM   12  H   UNL     2     -10.213  17.037  64.964  1.00  0.00     0.000 HD 
HETATM   13  O   UNL     2      -9.773  17.336  65.751  1.00  0.00    -0.530 OA 
BRANCH  11  14
HETATM   14  C   UNL     2     -10.762  15.402  66.846  1.00  0.00    -0.314 C  
HETATM   15  H   UNL     2     -11.918  13.991  67.704  1.00  0.00     0.000 HD 
HETATM   16  O   UNL     2     -11.751  14.925  67.753  1.00  0.00    -0.347 OA 
ENDBRANCH  11  14
ENDBRANCH   2  11
TORSDOF 2
ENDMDL
MODEL       51
REMARK 921   NORMALIZED FREE ENERGY PREDICTED BY IDOCK:   -3.93 KCAL/MOL
REMARK 922        TOTAL FREE ENERGY PREDICTED BY IDOCK:   -4.59 KCAL/MOL
REMARK 923 INTER-LIGAND FREE ENERGY PREDICTED BY IDOCK:   -4.41 KCAL/MOL
REMARK 924 INTRA-LIGAND FREE ENERGY PREDICTED BY IDOCK:   -0.18 KCAL/MOL
REMARK 927      BINDING AFFINITY PREDICTED BY RF-SCORE:    0.00 PKD
ROOT
HETATM    1 NA   UNL     1     -13.744  11.753  72.772  1.00  0.00    -0.593 Na 
HETATM    2  C   UNL     2     -11.331   9.085  71.945  1.00  0.00    -0.368 C  
HETATM    3  O   UNL     2     -13.521   9.966  71.711  1.00  0.00    -0.382 OA 
HETATM    4  O   UNL     2     -10.145   9.132  71.138  1.00  0.00    -0.267 OA 
HETATM    5  H   UNL     2     -13.218  11.512  69.176  1.00  0.00     0.000 HD 
HETATM    6  O   UNL     2     -12.324  11.196  69.139  1.00  0.00    -0.438 OA 
HETATM    7  C   UNL     2     -10.394   9.884  70.036  1.00  0.00    -0.272 C  
HETATM    8  C   UNL     2     -11.782  10.376  70.093  1.00  0.00    -0.312 C  
HETATM    9  O   UNL     2      -9.604  10.161  69.147  1.00  0.00    -0.189 OA 
HETATM   10  C   UNL     2     -12.373   9.904  71.194  1.00  0.00    -0.370 C  
ENDROOT
BRANCH   2  11
HETATM   11  C   UNL     2     -11.701   7.624  72.307  1.00  0.00    -0.324 C  
HETATM   12  H   UNL     2     -12.439   6.035  71.374  1.00  0.00     0.000 HD 
HETATM   13  O   UNL     2     -12.212   6.930  71.153  1.00  0.00    -0.358 OA 
BRANCH  11  14
HETATM   14  C   UNL     2     -10.582   6.793  72.954  1.00  0.00    -0.250 C  
HETATM   15  H   UNL     2     -10.319   5.053  73.937  1.00  0.00     0.000 HD 
HETATM   16  O   UNL     2     -11.012   5.567  73.536  1.00  0.00    -0.284 OA 
ENDBRANCH  11  14
ENDBRANCH   2  11
TORSDOF 2
ENDMDL
MODEL       52
REMARK 921   NORMALIZED FREE ENERGY PREDICTED BY IDOCK:   -3.92 KCAL/MOL
REMARK 922        TOTAL FREE ENERGY PREDICTED BY IDOCK:   -4.58 KCAL/MOL
REMARK 923 INTER-LIGAND FREE ENERGY PREDICTED BY IDOCK:   -4.39 KCAL/MOL
REMARK 924 INTRA-LIGAND FREE ENERGY PREDICTED BY IDOCK:   -0.19 KCAL/MOL
REMARK 927      BINDING AFFINITY PREDICTED BY RF-SCORE:    0.00 PKD
ROOT
HETATM    1 NA   UNL     1     -10.233  10.639  70.951  1.00  0.00    -0.356 Na 
HETATM    2  C   UNL     2     -11.426  13.394  68.803  1.00  0.00    -0.305 C  
HETATM    3  O   UNL     2     -11.844  11.272  69.781  1.00  0.00    -0.301 OA 
HETATM    4  O   UNL     2     -11.790  14.739  69.146  1.00  0.00    -0.292 OA 
HETATM    5  H   UNL     2     -13.312  12.088  72.248  1.00  0.00     0.000 HD 
HETATM    6  O   UNL     2     -13.238  12.985  71.945  1.00  0.00    -0.431 OA 
HETATM    7  C   UNL     2     -12.496  14.720  70.306  1.00  0.00    -0.340 C  
HETATM    8  C   UNL     2     -12.610  13.330  70.777  1.00  0.00    -0.280 C  
HETATM    9  O   UNL     2     -12.940  15.687  70.906  1.00  0.00    -0.482 OA 
HETATM   10  C   UNL     2     -12.012  12.516  69.902  1.00  0.00    -0.301 C  
ENDROOT
BRANCH   2  11
HETATM   11  C   UNL     2     -11.826  13.065  67.342  1.00  0.00    -0.357 C  
HETATM   12  H   UNL     2     -12.646  14.017  65.806  1.00  0.00     0.000 HD 
HETATM   13  O   UNL     2     -12.400  14.219  66.701  1.00  0.00    -0.446 OA 
BRANCH  11  14
HETATM   14  C   UNL     2     -10.710  12.487  66.460  1.00  0.00    -0.240 C  
HETATM   15  H   UNL     2      -9.959  10.706  65.884  1.00  0.00     0.000 HD 
HETATM   16  O   UNL     2     -10.650  11.064  66.430  1.00  0.00    -0.257 OA 
ENDBRANCH  11  14
ENDBRANCH   2  11
TORSDOF 2
ENDMDL
MODEL       53
REMARK 921   NORMALIZED FREE ENERGY PREDICTED BY IDOCK:   -3.91 KCAL/MOL
REMARK 922        TOTAL FREE ENERGY PREDICTED BY IDOCK:   -4.57 KCAL/MOL
REMARK 923 INTER-LIGAND FREE ENERGY PREDICTED BY IDOCK:   -4.67 KCAL/MOL
REMARK 924 INTRA-LIGAND FREE ENERGY PREDICTED BY IDOCK:    0.10 KCAL/MOL
REMARK 927      BINDING AFFINITY PREDICTED BY RF-SCORE:    0.00 PKD
ROOT
HETATM    1 NA   UNL     1      -7.647  11.581  65.293  1.00  0.00    -0.347 Na 
HETATM    2  C   UNL     2     -10.839  13.221  66.161  1.00  0.00    -0.280 C  
HETATM    3  O   UNL     2      -9.674  11.674  64.790  1.00  0.00    -0.238 OA 
HETATM    4  O   UNL     2     -11.649  13.096  67.339  1.00  0.00    -0.314 OA 
HETATM    5  H   UNL     2     -10.160   9.140  66.292  1.00  0.00     0.000 HD 
HETATM    6  O   UNL     2     -10.684   9.650  66.898  1.00  0.00    -0.203 OA 
HETATM    7  C   UNL     2     -11.687  11.791  67.709  1.00  0.00    -0.267 C  
HETATM    8  C   UNL     2     -10.873  11.001  66.770  1.00  0.00    -0.251 C  
HETATM    9  O   UNL     2     -12.259  11.324  68.683  1.00  0.00    -0.562 OA 
HETATM   10  C   UNL     2     -10.377  11.808  65.828  1.00  0.00    -0.253 C  
ENDROOT
BRANCH   2  11
HETATM   11  C   UNL     2     -11.587  14.004  65.052  1.00  0.00    -0.350 C  
HETATM   12  H   UNL     2     -11.250  15.592  63.911  1.00  0.00     0.000 HD 
HETATM   13  O   UNL     2     -10.792  15.112  64.590  1.00  0.00    -0.377 OA 
BRANCH  11  14
HETATM   14  C   UNL     2     -12.059  13.172  63.850  1.00  0.00    -0.470 C  
HETATM   15  H   UNL     2     -13.527  11.888  63.339  1.00  0.00     0.000 HD 
HETATM   16  O   UNL     2     -13.235  12.404  64.082  1.00  0.00    -0.761 OA 
ENDBRANCH  11  14
ENDBRANCH   2  11
TORSDOF 2
ENDMDL
MODEL       54
REMARK 921   NORMALIZED FREE ENERGY PREDICTED BY IDOCK:   -3.89 KCAL/MOL
REMARK 922        TOTAL FREE ENERGY PREDICTED BY IDOCK:   -4.55 KCAL/MOL
REMARK 923 INTER-LIGAND FREE ENERGY PREDICTED BY IDOCK:   -4.41 KCAL/MOL
REMARK 924 INTRA-LIGAND FREE ENERGY PREDICTED BY IDOCK:   -0.14 KCAL/MOL
REMARK 927      BINDING AFFINITY PREDICTED BY RF-SCORE:    0.00 PKD
ROOT
HETATM    1 NA   UNL     1     -11.445  16.451  70.848  1.00  0.00    -0.302 Na 
HETATM    2  C   UNL     2     -10.416  14.759  67.732  1.00  0.00    -0.254 C  
HETATM    3  O   UNL     2     -12.073  15.983  68.910  1.00  0.00    -0.283 OA 
HETATM    4  O   UNL     2      -9.400  15.115  66.783  1.00  0.00    -0.219 OA 
HETATM    5  H   UNL     2     -11.425  18.762  68.032  1.00  0.00     0.000 HD 
HETATM    6  O   UNL     2     -10.744  18.386  67.487  1.00  0.00    -0.424 OA 
HETATM    7  C   UNL     2      -9.432  16.458  66.588  1.00  0.00    -0.256 C  
HETATM    8  C   UNL     2     -10.488  17.041  67.433  1.00  0.00    -0.322 C  
HETATM    9  O   UNL     2      -8.691  17.109  65.868  1.00  0.00    -0.526 OA 
HETATM   10  C   UNL     2     -11.106  16.065  68.104  1.00  0.00    -0.344 C  
ENDROOT
BRANCH   2  11
HETATM   11  C   UNL     2     -11.308  13.613  67.190  1.00  0.00    -0.319 C  
HETATM   12  H   UNL     2     -12.480  12.199  67.943  1.00  0.00     0.000 HD 
HETATM   13  O   UNL     2     -11.934  12.902  68.275  1.00  0.00    -0.332 OA 
BRANCH  11  14
HETATM   14  C   UNL     2     -12.371  14.025  66.162  1.00  0.00    -0.458 C  
HETATM   15  H   UNL     2     -12.681  14.019  64.170  1.00  0.00     0.000 HD 
HETATM   16  O   UNL     2     -12.023  13.763  64.806  1.00  0.00    -0.368 OA 
ENDBRANCH  11  14
ENDBRANCH   2  11
TORSDOF 2
ENDMDL
MODEL       55
REMARK 921   NORMALIZED FREE ENERGY PREDICTED BY IDOCK:   -3.88 KCAL/MOL
REMARK 922        TOTAL FREE ENERGY PREDICTED BY IDOCK:   -4.54 KCAL/MOL
REMARK 923 INTER-LIGAND FREE ENERGY PREDICTED BY IDOCK:   -4.67 KCAL/MOL
REMARK 924 INTRA-LIGAND FREE ENERGY PREDICTED BY IDOCK:    0.13 KCAL/MOL
REMARK 927      BINDING AFFINITY PREDICTED BY RF-SCORE:    0.00 PKD
ROOT
HETATM    1 NA   UNL     1     -11.875   9.296  67.745  1.00  0.00    -0.512 Na 
HETATM    2  C   UNL     2     -12.624   9.230  71.360  1.00  0.00    -0.336 C  
HETATM    3  O   UNL     2     -11.011   9.488  69.639  1.00  0.00    -0.236 OA 
HETATM    4  O   UNL     2     -13.383  10.147  72.160  1.00  0.00    -0.441 OA 
HETATM    5  H   UNL     2     -11.010  12.457  69.333  1.00  0.00     0.000 HD 
HETATM    6  O   UNL     2     -11.640  12.488  70.043  1.00  0.00    -0.244 OA 
HETATM    7  C   UNL     2     -13.088  11.414  71.775  1.00  0.00    -0.418 C  
HETATM    8  C   UNL     2     -12.111  11.367  70.674  1.00  0.00    -0.372 C  
HETATM    9  O   UNL     2     -13.570  12.444  72.221  1.00  0.00    -0.504 OA 
HETATM   10  C   UNL     2     -11.795  10.094  70.418  1.00  0.00    -0.288 C  
ENDROOT
BRANCH   2  11
HETATM   11  C   UNL     2     -11.862   8.214  72.248  1.00  0.00    -0.382 C  
HETATM   12  H   UNL     2     -11.632   6.245  72.341  1.00  0.00     0.000 HD 
HETATM   13  O   UNL     2     -12.099   6.867  71.796  1.00  0.00    -0.313 OA 
BRANCH  11  14
HETATM   14  C   UNL     2     -10.351   8.452  72.388  1.00  0.00    -0.329 C  
HETATM   15  H   UNL     2      -8.812   7.955  73.591  1.00  0.00     0.000 HD 
HETATM   16  O   UNL     2      -9.747   7.807  73.504  1.00  0.00    -0.291 OA 
ENDBRANCH  11  14
ENDBRANCH   2  11
TORSDOF 2
ENDMDL
MODEL       56
REMARK 921   NORMALIZED FREE ENERGY PREDICTED BY IDOCK:   -3.87 KCAL/MOL
REMARK 922        TOTAL FREE ENERGY PREDICTED BY IDOCK:   -4.53 KCAL/MOL
REMARK 923 INTER-LIGAND FREE ENERGY PREDICTED BY IDOCK:   -4.33 KCAL/MOL
REMARK 924 INTRA-LIGAND FREE ENERGY PREDICTED BY IDOCK:   -0.20 KCAL/MOL
REMARK 927      BINDING AFFINITY PREDICTED BY RF-SCORE:    0.00 PKD
ROOT
HETATM    1 NA   UNL     1     -11.509  14.356  68.554  1.00  0.00    -0.224 Na 
HETATM    2  C   UNL     2     -10.426  11.553  66.410  1.00  0.00    -0.250 C  
HETATM    3  O   UNL     2     -12.123  12.527  67.752  1.00  0.00    -0.409 OA 
HETATM    4  O   UNL     2     -10.167  11.519  64.999  1.00  0.00    -0.252 OA 
HETATM    5  H   UNL     2     -13.702  13.972  65.671  1.00  0.00     0.000 HD 
HETATM    6  O   UNL     2     -13.103  13.613  65.028  1.00  0.00    -0.742 OA 
HETATM    7  C   UNL     2     -11.120  12.245  64.360  1.00  0.00    -0.330 C  
HETATM    8  C   UNL     2     -12.050  12.802  65.358  1.00  0.00    -0.462 C  
HETATM    9  O   UNL     2     -11.196  12.455  63.159  1.00  0.00    -0.387 OA 
HETATM   10  C   UNL     2     -11.685  12.394  66.577  1.00  0.00    -0.379 C  
ENDROOT
BRANCH   2  11
HETATM   11  C   UNL     2     -10.441  10.124  67.008  1.00  0.00    -0.240 C  
HETATM   12  H   UNL     2     -10.107   8.274  66.371  1.00  0.00     0.000 HD 
HETATM   13  O   UNL     2     -10.097   9.150  66.004  1.00  0.00    -0.284 OA 
BRANCH  11  14
HETATM   14  C   UNL     2      -9.566   9.912  68.252  1.00  0.00    -0.140 C  
HETATM   15  H   UNL     2      -9.587  10.269  70.236  1.00  0.00     0.000 HD 
HETATM   16  O   UNL     2     -10.129  10.399  69.466  1.00  0.00    -0.229 OA 
ENDBRANCH  11  14
ENDBRANCH   2  11
TORSDOF 2
ENDMDL
MODEL       57
REMARK 921   NORMALIZED FREE ENERGY PREDICTED BY IDOCK:   -3.87 KCAL/MOL
REMARK 922        TOTAL FREE ENERGY PREDICTED BY IDOCK:   -4.53 KCAL/MOL
REMARK 923 INTER-LIGAND FREE ENERGY PREDICTED BY IDOCK:   -4.35 KCAL/MOL
REMARK 924 INTRA-LIGAND FREE ENERGY PREDICTED BY IDOCK:   -0.17 KCAL/MOL
REMARK 927      BINDING AFFINITY PREDICTED BY RF-SCORE:    0.00 PKD
ROOT
HETATM    1 NA   UNL     1      -9.374  14.267  64.719  1.00  0.00    -0.508 Na 
HETATM    2  C   UNL     2      -8.687  16.876  67.239  1.00  0.00    -0.194 C  
HETATM    3  O   UNL     2     -10.006  16.136  65.410  1.00  0.00    -0.482 OA 
HETATM    4  O   UNL     2      -8.853  16.847  68.664  1.00  0.00    -0.248 OA 
HETATM    5  H   UNL     2     -12.266  14.832  66.860  1.00  0.00     0.000 HD 
HETATM    6  O   UNL     2     -11.849  15.104  67.669  1.00  0.00    -0.294 OA 
HETATM    7  C   UNL     2     -10.021  16.220  68.957  1.00  0.00    -0.256 C  
HETATM    8  C   UNL     2     -10.667  15.797  67.703  1.00  0.00    -0.310 C  
HETATM    9  O   UNL     2     -10.467  15.992  70.071  1.00  0.00    -0.296 OA 
HETATM   10  C   UNL     2      -9.921  16.189  66.667  1.00  0.00    -0.260 C  
ENDROOT
BRANCH   2  11
HETATM   11  C   UNL     2      -8.379  18.312  66.743  1.00  0.00    -0.255 C  
HETATM   12  H   UNL     2      -7.426  19.154  65.220  1.00  0.00     0.000 HD 
HETATM   13  O   UNL     2      -7.615  18.274  65.523  1.00  0.00    -0.518 OA 
BRANCH  11  14
HETATM   14  C   UNL     2      -9.598  19.230  66.560  1.00  0.00    -0.363 C  
HETATM   15  H   UNL     2     -10.748  20.503  67.619  1.00  0.00     0.000 HD 
HETATM   16  O   UNL     2      -9.993  19.935  67.732  1.00  0.00    -0.372 OA 
ENDBRANCH  11  14
ENDBRANCH   2  11
TORSDOF 2
ENDMDL
MODEL       58
REMARK 921   NORMALIZED FREE ENERGY PREDICTED BY IDOCK:   -3.86 KCAL/MOL
REMARK 922        TOTAL FREE ENERGY PREDICTED BY IDOCK:   -4.52 KCAL/MOL
REMARK 923 INTER-LIGAND FREE ENERGY PREDICTED BY IDOCK:   -4.36 KCAL/MOL
REMARK 924 INTRA-LIGAND FREE ENERGY PREDICTED BY IDOCK:   -0.16 KCAL/MOL
REMARK 927      BINDING AFFINITY PREDICTED BY RF-SCORE:    0.00 PKD
ROOT
HETATM    1 NA   UNL     1     -13.691   6.499  71.179  1.00  0.00    -0.232 Na 
HETATM    2  C   UNL     2     -11.639   9.483  70.461  1.00  0.00    -0.254 C  
HETATM    3  O   UNL     2     -13.224   8.416  71.868  1.00  0.00    -0.334 OA 
HETATM    4  O   UNL     2     -10.216   9.657  70.515  1.00  0.00    -0.264 OA 
HETATM    5  H   UNL     2     -11.416   7.233  73.928  1.00  0.00     0.000 HD 
HETATM    6  O   UNL     2     -10.693   7.642  73.467  1.00  0.00    -0.348 OA 
HETATM    7  C   UNL     2      -9.738   9.024  71.617  1.00  0.00    -0.276 C  
HETATM    8  C   UNL     2     -10.858   8.389  72.331  1.00  0.00    -0.346 C  
HETATM    9  O   UNL     2      -8.569   8.942  71.962  1.00  0.00    -0.367 OA 
HETATM   10  C   UNL     2     -11.999   8.659  71.691  1.00  0.00    -0.326 C  
ENDROOT
BRANCH   2  11
HETATM   11  C   UNL     2     -12.360  10.843  70.280  1.00  0.00    -0.330 C  
HETATM   12  H   UNL     2     -12.994  12.322  71.442  1.00  0.00     0.000 HD 
HETATM   13  O   UNL     2     -12.551  11.489  71.553  1.00  0.00    -0.329 OA 
BRANCH  11  14
HETATM   14  C   UNL     2     -11.699  11.823  69.299  1.00  0.00    -0.335 C  
HETATM   15  H   UNL     2     -11.559  12.169  67.318  1.00  0.00     0.000 HD 
HETATM   16  O   UNL     2     -11.968  11.563  67.925  1.00  0.00    -0.618 OA 
ENDBRANCH  11  14
ENDBRANCH   2  11
TORSDOF 2
ENDMDL
MODEL       59
REMARK 921   NORMALIZED FREE ENERGY PREDICTED BY IDOCK:   -3.86 KCAL/MOL
REMARK 922        TOTAL FREE ENERGY PREDICTED BY IDOCK:   -4.51 KCAL/MOL
REMARK 923 INTER-LIGAND FREE ENERGY PREDICTED BY IDOCK:   -4.44 KCAL/MOL
REMARK 924 INTRA-LIGAND FREE ENERGY PREDICTED BY IDOCK:   -0.07 KCAL/MOL
REMARK 927      BINDING AFFINITY PREDICTED BY RF-SCORE:    0.00 PKD
ROOT
HETATM    1 NA   UNL     1     -12.598  12.720  69.183  1.00  0.00    -0.249 Na 
HETATM    2  C   UNL     2     -10.206  12.942  66.379  1.00  0.00    -0.267 C  
HETATM    3  O   UNL     2     -12.134  11.918  67.310  1.00  0.00    -0.582 OA 
HETATM    4  O   UNL     2      -9.998  13.994  65.427  1.00  0.00    -0.316 OA 
HETATM    5  H   UNL     2     -14.284  13.575  66.070  1.00  0.00     0.000 HD 
HETATM    6  O   UNL     2     -13.599  14.044  65.609  1.00  0.00    -0.499 OA 
HETATM    7  C   UNL     2     -11.205  14.483  65.041  1.00  0.00    -0.382 C  
HETATM    8  C   UNL     2     -12.268  13.756  65.756  1.00  0.00    -0.462 C  
HETATM    9  O   UNL     2     -11.405  15.403  64.263  1.00  0.00    -0.265 OA 
HETATM   10  C   UNL     2     -11.717  12.822  66.536  1.00  0.00    -0.400 C  
ENDROOT
BRANCH   2  11
HETATM   11  C   UNL     2      -9.431  11.662  65.974  1.00  0.00    -0.229 C  
HETATM   12  H   UNL     2      -8.740  10.032  66.870  1.00  0.00     0.000 HD 
HETATM   13  O   UNL     2      -9.216  10.816  67.119  1.00  0.00    -0.147 OA 
BRANCH  11  14
HETATM   14  C   UNL     2     -10.049  10.840  64.833  1.00  0.00    -0.322 C  
HETATM   15  H   UNL     2     -10.598  11.041  62.904  1.00  0.00     0.000 HD 
HETATM   16  O   UNL     2     -10.214  11.550  63.609  1.00  0.00    -0.323 OA 
ENDBRANCH  11  14
ENDBRANCH   2  11
TORSDOF 2
ENDMDL
MODEL       60
REMARK 921   NORMALIZED FREE ENERGY PREDICTED BY IDOCK:   -3.85 KCAL/MOL
REMARK 922        TOTAL FREE ENERGY PREDICTED BY IDOCK:   -4.50 KCAL/MOL
REMARK 923 INTER-LIGAND FREE ENERGY PREDICTED BY IDOCK:   -4.30 KCAL/MOL
REMARK 924 INTRA-LIGAND FREE ENERGY PREDICTED BY IDOCK:   -0.20 KCAL/MOL
REMARK 927      BINDING AFFINITY PREDICTED BY RF-SCORE:    0.00 PKD
ROOT
HETATM    1 NA   UNL     1     -13.042   9.993  69.802  1.00  0.00    -0.540 Na 
HETATM    2  C   UNL     2     -11.633  11.904  66.975  1.00  0.00    -0.291 C  
HETATM    3  O   UNL     2     -11.997  11.735  69.314  1.00  0.00    -0.306 OA 
HETATM    4  O   UNL     2     -10.528  11.594  66.114  1.00  0.00    -0.232 OA 
HETATM    5  H   UNL     2      -9.447  10.442  70.171  1.00  0.00     0.000 HD 
HETATM    6  O   UNL     2      -9.170  10.483  69.264  1.00  0.00    -0.191 OA 
HETATM    7  C   UNL     2      -9.524  11.068  66.859  1.00  0.00    -0.177 C  
HETATM    8  C   UNL     2      -9.953  11.003  68.267  1.00  0.00    -0.179 C  
HETATM    9  O   UNL     2      -8.445  10.665  66.451  1.00  0.00    -0.141 OA 
HETATM   10  C   UNL     2     -11.184  11.510  68.377  1.00  0.00    -0.255 C  
ENDROOT
BRANCH   2  11
HETATM   11  C   UNL     2     -12.111  13.363  66.766  1.00  0.00    -0.365 C  
HETATM   12  H   UNL     2     -11.410  15.189  67.105  1.00  0.00     0.000 HD 
HETATM   13  O   UNL     2     -11.117  14.294  67.233  1.00  0.00    -0.290 OA 
BRANCH  11  14
HETATM   14  C   UNL     2     -12.527  13.729  65.333  1.00  0.00    -0.500 C  
HETATM   15  H   UNL     2     -13.515  12.942  63.761  1.00  0.00     0.000 HD 
HETATM   16  O   UNL     2     -13.258  12.716  64.648  1.00  0.00    -0.828 OA 
ENDBRANCH  11  14
ENDBRANCH   2  11
TORSDOF 2
ENDMDL
MODEL       61
REMARK 921   NORMALIZED FREE ENERGY PREDICTED BY IDOCK:   -3.81 KCAL/MOL
REMARK 922        TOTAL FREE ENERGY PREDICTED BY IDOCK:   -4.46 KCAL/MOL
REMARK 923 INTER-LIGAND FREE ENERGY PREDICTED BY IDOCK:   -4.31 KCAL/MOL
REMARK 924 INTRA-LIGAND FREE ENERGY PREDICTED BY IDOCK:   -0.15 KCAL/MOL
REMARK 927      BINDING AFFINITY PREDICTED BY RF-SCORE:    0.00 PKD
ROOT
HETATM    1 NA   UNL     1     -11.448  16.896  67.334  1.00  0.00    -0.234 Na 
HETATM    2  C   UNL     2     -10.081  13.796  65.869  1.00  0.00    -0.313 C  
HETATM    3  O   UNL     2     -11.485  14.813  67.489  1.00  0.00    -0.331 OA 
HETATM    4  O   UNL     2     -10.309  13.208  64.580  1.00  0.00    -0.381 OA 
HETATM    5  H   UNL     2     -14.103  14.756  66.055  1.00  0.00     0.000 HD 
HETATM    6  O   UNL     2     -13.656  14.309  65.345  1.00  0.00    -0.516 OA 
HETATM    7  C   UNL     2     -11.627  13.319  64.274  1.00  0.00    -0.400 C  
HETATM    8  C   UNL     2     -12.319  14.012  65.373  1.00  0.00    -0.478 C  
HETATM    9  O   UNL     2     -12.171  12.952  63.243  1.00  0.00    -0.594 OA 
HETATM   10  C   UNL     2     -11.443  14.287  66.343  1.00  0.00    -0.355 C  
ENDROOT
BRANCH   2  11
HETATM   11  C   UNL     2      -9.314  12.822  66.798  1.00  0.00    -0.241 C  
HETATM   12  H   UNL     2      -8.750  10.919  66.767  1.00  0.00     0.000 HD 
HETATM   13  O   UNL     2      -9.220  11.516  66.197  1.00  0.00    -0.211 OA 
BRANCH  11  14
HETATM   14  C   UNL     2      -7.919  13.285  67.244  1.00  0.00    -0.125 C  
HETATM   15  H   UNL     2      -6.937  13.850  68.911  1.00  0.00     0.000 HD 
HETATM   16  O   UNL     2      -7.800  13.563  68.635  1.00  0.00    -0.134 OA 
ENDBRANCH  11  14
ENDBRANCH   2  11
TORSDOF 2
ENDMDL
MODEL       62
REMARK 921   NORMALIZED FREE ENERGY PREDICTED BY IDOCK:   -3.81 KCAL/MOL
REMARK 922        TOTAL FREE ENERGY PREDICTED BY IDOCK:   -4.46 KCAL/MOL
REMARK 923 INTER-LIGAND FREE ENERGY PREDICTED BY IDOCK:   -4.32 KCAL/MOL
REMARK 924 INTRA-LIGAND FREE ENERGY PREDICTED BY IDOCK:   -0.14 KCAL/MOL
REMARK 927      BINDING AFFINITY PREDICTED BY RF-SCORE:    0.00 PKD
ROOT
HETATM    1 NA   UNL     1     -10.324   7.404  71.956  1.00  0.00    -0.183 Na 
HETATM    2  C   UNL     2     -11.320  10.444  70.112  1.00  0.00    -0.323 C  
HETATM    3  O   UNL     2     -11.710   8.150  70.580  1.00  0.00    -0.251 OA 
HETATM    4  O   UNL     2     -11.887  11.670  70.595  1.00  0.00    -0.321 OA 
HETATM    5  H   UNL     2     -13.743   8.375  72.754  1.00  0.00     0.000 HD 
HETATM    6  O   UNL     2     -13.701   9.316  72.638  1.00  0.00    -0.450 OA 
HETATM    7  C   UNL     2     -12.816  11.381  71.542  1.00  0.00    -0.403 C  
HETATM    8  C   UNL     2     -12.881   9.921  71.722  1.00  0.00    -0.442 C  
HETATM    9  O   UNL     2     -13.476  12.182  72.186  1.00  0.00    -0.494 OA 
HETATM   10  C   UNL     2     -12.029   9.333  70.878  1.00  0.00    -0.257 C  
ENDROOT
BRANCH   2  11
HETATM   11  C   UNL     2     -11.366  10.381  68.564  1.00  0.00    -0.220 C  
HETATM   12  H   UNL     2     -12.275  11.354  67.093  1.00  0.00     0.000 HD 
HETATM   13  O   UNL     2     -12.247  11.393  68.041  1.00  0.00    -0.607 OA 
BRANCH  11  14
HETATM   14  C   UNL     2     -10.007  10.463  67.853  1.00  0.00    -0.167 C  
HETATM   15  H   UNL     2      -9.117   9.868  66.145  1.00  0.00     0.000 HD 
HETATM   16  O   UNL     2      -9.958   9.818  66.584  1.00  0.00    -0.202 OA 
ENDBRANCH  11  14
ENDBRANCH   2  11
TORSDOF 2
ENDMDL
MODEL       63
REMARK 921   NORMALIZED FREE ENERGY PREDICTED BY IDOCK:   -3.81 KCAL/MOL
REMARK 922        TOTAL FREE ENERGY PREDICTED BY IDOCK:   -4.46 KCAL/MOL
REMARK 923 INTER-LIGAND FREE ENERGY PREDICTED BY IDOCK:   -4.26 KCAL/MOL
REMARK 924 INTRA-LIGAND FREE ENERGY PREDICTED BY IDOCK:   -0.20 KCAL/MOL
REMARK 927      BINDING AFFINITY PREDICTED BY RF-SCORE:    0.00 PKD
ROOT
HETATM    1 NA   UNL     1     -10.810  18.407  69.404  1.00  0.00    -0.442 Na 
HETATM    2  C   UNL     2     -12.003  14.916  69.538  1.00  0.00    -0.310 C  
HETATM    3  O   UNL     2     -10.336  16.501  70.119  1.00  0.00    -0.070 OA 
HETATM    4  O   UNL     2     -13.127  14.352  70.229  1.00  0.00    -0.213 OA 
HETATM    5  H   UNL     2     -11.263  17.295  72.843  1.00  0.00     0.000 HD 
HETATM    6  O   UNL     2     -11.963  16.661  72.743  1.00  0.00    -0.504 OA 
HETATM    7  C   UNL     2     -13.211  14.915  71.462  1.00  0.00    -0.368 C  
HETATM    8  C   UNL     2     -12.126  15.898  71.617  1.00  0.00    -0.484 C  
HETATM    9  O   UNL     2     -14.062  14.692  72.309  1.00  0.00    -0.449 OA 
HETATM   10  C   UNL     2     -11.378  15.908  70.510  1.00  0.00    -0.390 C  
ENDROOT
BRANCH   2  11
HETATM   11  C   UNL     2     -11.086  13.805  68.967  1.00  0.00    -0.259 C  
HETATM   12  H   UNL     2     -11.083  11.822  68.876  1.00  0.00     0.000 HD 
HETATM   13  O   UNL     2     -11.646  12.503  69.225  1.00  0.00    -0.284 OA 
BRANCH  11  14
HETATM   14  C   UNL     2     -10.735  13.929  67.477  1.00  0.00    -0.267 C  
HETATM   15  H   UNL     2      -9.403  14.848  66.274  1.00  0.00     0.000 HD 
HETATM   16  O   UNL     2      -9.620  14.770  67.196  1.00  0.00    -0.218 OA 
ENDBRANCH  11  14
ENDBRANCH   2  11
TORSDOF 2
ENDMDL
MODEL       64
REMARK 921   NORMALIZED FREE ENERGY PREDICTED BY IDOCK:   -3.78 KCAL/MOL
REMARK 922        TOTAL FREE ENERGY PREDICTED BY IDOCK:   -4.42 KCAL/MOL
REMARK 923 INTER-LIGAND FREE ENERGY PREDICTED BY IDOCK:   -4.23 KCAL/MOL
REMARK 924 INTRA-LIGAND FREE ENERGY PREDICTED BY IDOCK:   -0.19 KCAL/MOL
REMARK 927      BINDING AFFINITY PREDICTED BY RF-SCORE:    0.00 PKD
ROOT
HETATM    1 NA   UNL     1      -7.125  16.383  69.300  1.00  0.00    -0.146 Na 
HETATM    2  C   UNL     2      -9.762  16.285  66.719  1.00  0.00    -0.241 C  
HETATM    3  O   UNL     2      -9.190  16.223  69.021  1.00  0.00    -0.240 OA 
HETATM    4  O   UNL     2     -10.223  17.315  65.833  1.00  0.00    -0.477 OA 
HETATM    5  H   UNL     2      -9.506  19.103  69.738  1.00  0.00     0.000 HD 
HETATM    6  O   UNL     2      -9.786  19.252  68.843  1.00  0.00    -0.422 OA 
HETATM    7  C   UNL     2     -10.295  18.484  66.520  1.00  0.00    -0.414 C  
HETATM    8  C   UNL     2      -9.860  18.254  67.908  1.00  0.00    -0.317 C  
HETATM    9  O   UNL     2     -10.622  19.574  66.074  1.00  0.00    -0.485 OA 
HETATM   10  C   UNL     2      -9.561  16.962  68.068  1.00  0.00    -0.247 C  
ENDROOT
BRANCH   2  11
HETATM   11  C   UNL     2     -10.700  15.051  66.674  1.00  0.00    -0.312 C  
HETATM   12  H   UNL     2     -12.473  14.542  67.406  1.00  0.00     0.000 HD 
HETATM   13  O   UNL     2     -11.898  15.299  67.433  1.00  0.00    -0.215 OA 
BRANCH  11  14
HETATM   14  C   UNL     2     -11.072  14.547  65.272  1.00  0.00    -0.353 C  
HETATM   15  H   UNL     2     -10.286  13.479  63.754  1.00  0.00     0.000 HD 
HETATM   16  O   UNL     2     -10.056  13.791  64.622  1.00  0.00    -0.363 OA 
ENDBRANCH  11  14
ENDBRANCH   2  11
TORSDOF 2
ENDMDL
MODEL       65
REMARK 921   NORMALIZED FREE ENERGY PREDICTED BY IDOCK:   -3.76 KCAL/MOL
REMARK 922        TOTAL FREE ENERGY PREDICTED BY IDOCK:   -4.40 KCAL/MOL
REMARK 923 INTER-LIGAND FREE ENERGY PREDICTED BY IDOCK:   -4.31 KCAL/MOL
REMARK 924 INTRA-LIGAND FREE ENERGY PREDICTED BY IDOCK:   -0.09 KCAL/MOL
REMARK 927      BINDING AFFINITY PREDICTED BY RF-SCORE:    0.00 PKD
ROOT
HETATM    1 NA   UNL     1     -11.545   8.457  67.093  1.00  0.00    -0.434 Na 
HETATM    2  C   UNL     2     -11.133  11.664  65.311  1.00  0.00    -0.236 C  
HETATM    3  O   UNL     2     -10.293  10.120  66.906  1.00  0.00    -0.224 OA 
HETATM    4  O   UNL     2     -10.851  11.920  63.928  1.00  0.00    -0.322 OA 
HETATM    5  H   UNL     2      -8.435   8.527  65.198  1.00  0.00     0.000 HD 
HETATM    6  O   UNL     2      -8.666   9.105  64.481  1.00  0.00    -0.189 OA 
HETATM    7  C   UNL     2      -9.919  11.032  63.498  1.00  0.00    -0.370 C  
HETATM    8  C   UNL     2      -9.560  10.136  64.610  1.00  0.00    -0.315 C  
HETATM    9  O   UNL     2      -9.465  10.940  62.368  1.00  0.00    -0.247 OA 
HETATM   10  C   UNL     2     -10.238  10.494  65.703  1.00  0.00    -0.246 C  
ENDROOT
BRANCH   2  11
HETATM   11  C   UNL     2     -11.017  12.960  66.152  1.00  0.00    -0.281 C  
HETATM   12  H   UNL     2      -9.642  14.347  66.511  1.00  0.00     0.000 HD 
HETATM   13  O   UNL     2      -9.713  13.552  65.995  1.00  0.00    -0.275 OA 
BRANCH  11  14
HETATM   14  C   UNL     2     -12.098  14.020  65.896  1.00  0.00    -0.428 C  
HETATM   15  H   UNL     2     -13.816  14.259  64.869  1.00  0.00     0.000 HD 
HETATM   16  O   UNL     2     -13.147  13.603  65.028  1.00  0.00    -0.742 OA 
ENDBRANCH  11  14
ENDBRANCH   2  11
TORSDOF 2
ENDMDL
MODEL       66
REMARK 921   NORMALIZED FREE ENERGY PREDICTED BY IDOCK:   -3.74 KCAL/MOL
REMARK 922        TOTAL FREE ENERGY PREDICTED BY IDOCK:   -4.38 KCAL/MOL
REMARK 923 INTER-LIGAND FREE ENERGY PREDICTED BY IDOCK:   -4.18 KCAL/MOL
REMARK 924 INTRA-LIGAND FREE ENERGY PREDICTED BY IDOCK:   -0.20 KCAL/MOL
REMARK 927      BINDING AFFINITY PREDICTED BY RF-SCORE:    0.00 PKD
ROOT
HETATM    1 NA   UNL     1     -11.627  18.663  68.316  1.00  0.00    -0.096 Na 
HETATM    2  C   UNL     2     -11.296  15.004  67.951  1.00  0.00    -0.333 C  
HETATM    3  O   UNL     2     -10.328  17.058  68.640  1.00  0.00    -0.306 OA 
HETATM    4  O   UNL     2     -11.978  13.945  68.636  1.00  0.00    -0.353 OA 
HETATM    5  H   UNL     2     -11.053  17.059  71.535  1.00  0.00     0.000 HD 
HETATM    6  O   UNL     2     -11.450  16.208  71.393  1.00  0.00    -0.421 OA 
HETATM    7  C   UNL     2     -12.084  14.268  69.950  1.00  0.00    -0.347 C  
HETATM    8  C   UNL     2     -11.470  15.588  70.171  1.00  0.00    -0.327 C  
HETATM    9  O   UNL     2     -12.631  13.611  70.822  1.00  0.00    -0.338 OA 
HETATM   10  C   UNL     2     -10.972  16.043  69.018  1.00  0.00    -0.296 C  
ENDROOT
BRANCH   2  11
HETATM   11  C   UNL     2     -10.114  14.455  67.112  1.00  0.00    -0.253 C  
HETATM   12  H   UNL     2      -9.301  12.687  66.723  1.00  0.00     0.000 HD 
HETATM   13  O   UNL     2     -10.026  13.023  67.237  1.00  0.00    -0.227 OA 
BRANCH  11  14
HETATM   14  C   UNL     2     -10.113  14.844  65.626  1.00  0.00    -0.359 C  
HETATM   15  H   UNL     2     -10.115  16.487  64.458  1.00  0.00     0.000 HD 
HETATM   16  O   UNL     2     -10.115  16.247  65.378  1.00  0.00    -0.519 OA 
ENDBRANCH  11  14
ENDBRANCH   2  11
TORSDOF 2
ENDMDL
MODEL       67
REMARK 921   NORMALIZED FREE ENERGY PREDICTED BY IDOCK:   -3.71 KCAL/MOL
REMARK 922        TOTAL FREE ENERGY PREDICTED BY IDOCK:   -4.35 KCAL/MOL
REMARK 923 INTER-LIGAND FREE ENERGY PREDICTED BY IDOCK:   -4.25 KCAL/MOL
REMARK 924 INTRA-LIGAND FREE ENERGY PREDICTED BY IDOCK:   -0.09 KCAL/MOL
REMARK 927      BINDING AFFINITY PREDICTED BY RF-SCORE:    0.00 PKD
ROOT
HETATM    1 NA   UNL     1      -5.960  21.223  69.674  1.00  0.00    -0.364 Na 
HETATM    2  C   UNL     2      -8.623  19.321  67.965  1.00  0.00    -0.321 C  
HETATM    3  O   UNL     2      -6.365  20.048  67.994  1.00  0.00    -0.229 OA 
HETATM    4  O   UNL     2      -9.286  18.109  68.355  1.00  0.00    -0.291 OA 
HETATM    5  H   UNL     2      -5.057  17.713  69.315  1.00  0.00     0.000 HD 
HETATM    6  O   UNL     2      -5.911  17.298  69.332  1.00  0.00    -0.195 OA 
HETATM    7  C   UNL     2      -8.367  17.253  68.870  1.00  0.00    -0.174 C  
HETATM    8  C   UNL     2      -7.042  17.897  68.844  1.00  0.00    -0.264 C  
HETATM    9  O   UNL     2      -8.581  16.140  69.327  1.00  0.00    -0.250 OA 
HETATM   10  C   UNL     2      -7.151  19.109  68.294  1.00  0.00    -0.273 C  
ENDROOT
BRANCH   2  11
HETATM   11  C   UNL     2      -8.977  19.704  66.506  1.00  0.00    -0.369 C  
HETATM   12  H   UNL     2      -8.300  19.292  64.686  1.00  0.00     0.000 HD 
HETATM   13  O   UNL     2      -8.083  19.057  65.581  1.00  0.00    -0.418 OA 
BRANCH  11  14
HETATM   14  C   UNL     2     -10.431  19.447  66.083  1.00  0.00    -0.508 C  
HETATM   15  H   UNL     2     -11.572  17.997  65.270  1.00  0.00     0.000 HD 
HETATM   16  O   UNL     2     -10.672  18.156  65.532  1.00  0.00    -0.599 OA 
ENDBRANCH  11  14
ENDBRANCH   2  11
TORSDOF 2
ENDMDL
MODEL       68
REMARK 921   NORMALIZED FREE ENERGY PREDICTED BY IDOCK:   -3.69 KCAL/MOL
REMARK 922        TOTAL FREE ENERGY PREDICTED BY IDOCK:   -4.32 KCAL/MOL
REMARK 923 INTER-LIGAND FREE ENERGY PREDICTED BY IDOCK:   -4.12 KCAL/MOL
REMARK 924 INTRA-LIGAND FREE ENERGY PREDICTED BY IDOCK:   -0.20 KCAL/MOL
REMARK 927      BINDING AFFINITY PREDICTED BY RF-SCORE:    0.00 PKD
ROOT
HETATM    1 NA   UNL     1     -10.125  14.877  71.154  1.00  0.00    -0.489 Na 
HETATM    2  C   UNL     2     -10.382  13.955  67.588  1.00  0.00    -0.242 C  
HETATM    3  O   UNL     2     -11.444  14.802  69.533  1.00  0.00    -0.266 OA 
HETATM    4  O   UNL     2      -9.783  14.562  66.434  1.00  0.00    -0.269 OA 
HETATM    5  H   UNL     2     -11.090  17.736  69.114  1.00  0.00     0.000 HD 
HETATM    6  O   UNL     2     -10.673  17.525  68.288  1.00  0.00    -0.371 OA 
HETATM    7  C   UNL     2      -9.847  15.912  66.566  1.00  0.00    -0.261 C  
HETATM    8  C   UNL     2     -10.494  16.239  67.848  1.00  0.00    -0.295 C  
HETATM    9  O   UNL     2      -9.409  16.743  65.785  1.00  0.00    -0.515 OA 
HETATM   10  C   UNL     2     -10.845  15.109  68.467  1.00  0.00    -0.247 C  
ENDROOT
BRANCH   2  11
HETATM   11  C   UNL     2     -11.444  12.904  67.177  1.00  0.00    -0.336 C  
HETATM   12  H   UNL     2     -12.317  12.293  65.502  1.00  0.00     0.000 HD 
HETATM   13  O   UNL     2     -11.665  12.937  65.754  1.00  0.00    -0.348 OA 
BRANCH  11  14
HETATM   14  C   UNL     2     -11.161  11.461  67.621  1.00  0.00    -0.283 C  
HETATM   15  H   UNL     2     -10.356  10.449  69.168  1.00  0.00     0.000 HD 
HETATM   16  O   UNL     2     -10.531  11.342  68.893  1.00  0.00    -0.201 OA 
ENDBRANCH  11  14
ENDBRANCH   2  11
TORSDOF 2
ENDMDL
MODEL       69
REMARK 921   NORMALIZED FREE ENERGY PREDICTED BY IDOCK:   -3.68 KCAL/MOL
REMARK 922        TOTAL FREE ENERGY PREDICTED BY IDOCK:   -4.32 KCAL/MOL
REMARK 923 INTER-LIGAND FREE ENERGY PREDICTED BY IDOCK:   -4.43 KCAL/MOL
REMARK 924 INTRA-LIGAND FREE ENERGY PREDICTED BY IDOCK:    0.12 KCAL/MOL
REMARK 927      BINDING AFFINITY PREDICTED BY RF-SCORE:    0.00 PKD
ROOT
HETATM    1 NA   UNL     1     -10.847  16.170  63.485  1.00  0.00    -0.588 Na 
HETATM    2  C   UNL     2      -9.802  14.404  66.555  1.00  0.00    -0.287 C  
HETATM    3  O   UNL     2     -11.207  16.025  65.539  1.00  0.00    -0.149 OA 
HETATM    4  O   UNL     2      -9.975  13.031  66.932  1.00  0.00    -0.234 OA 
HETATM    5  H   UNL     2     -13.635  14.377  64.994  1.00  0.00     0.000 HD 
HETATM    6  O   UNL     2     -13.186  13.653  65.413  1.00  0.00    -0.678 OA 
HETATM    7  C   UNL     2     -11.222  12.631  66.573  1.00  0.00    -0.296 C  
HETATM    8  C   UNL     2     -11.918  13.754  65.922  1.00  0.00    -0.406 C  
HETATM    9  O   UNL     2     -11.700  11.516  66.715  1.00  0.00    -0.510 OA 
HETATM   10  C   UNL     2     -11.120  14.824  65.915  1.00  0.00    -0.340 C  
ENDROOT
BRANCH   2  11
HETATM   11  C   UNL     2      -9.290  15.250  67.749  1.00  0.00    -0.196 C  
HETATM   12  H   UNL     2      -8.918  17.162  68.127  1.00  0.00     0.000 HD 
HETATM   13  O   UNL     2      -9.233  16.644  67.395  1.00  0.00    -0.211 OA 
BRANCH  11  14
HETATM   14  C   UNL     2     -10.065  15.083  69.064  1.00  0.00    -0.241 C  
HETATM   15  H   UNL     2     -11.802  15.647  69.918  1.00  0.00     0.000 HD 
HETATM   16  O   UNL     2     -11.323  15.750  69.104  1.00  0.00    -0.300 OA 
ENDBRANCH  11  14
ENDBRANCH   2  11
TORSDOF 2
ENDMDL
MODEL       70
REMARK 921   NORMALIZED FREE ENERGY PREDICTED BY IDOCK:   -3.68 KCAL/MOL
REMARK 922        TOTAL FREE ENERGY PREDICTED BY IDOCK:   -4.32 KCAL/MOL
REMARK 923 INTER-LIGAND FREE ENERGY PREDICTED BY IDOCK:   -4.13 KCAL/MOL
REMARK 924 INTRA-LIGAND FREE ENERGY PREDICTED BY IDOCK:   -0.19 KCAL/MOL
REMARK 927      BINDING AFFINITY PREDICTED BY RF-SCORE:    0.00 PKD
ROOT
HETATM    1 NA   UNL     1     -13.071  10.434  69.179  1.00  0.00    -0.547 Na 
HETATM    2  C   UNL     2     -12.286  13.745  67.747  1.00  0.00    -0.173 C  
HETATM    3  O   UNL     2     -11.537  11.832  68.935  1.00  0.00    -0.256 OA 
HETATM    4  O   UNL     2     -12.209  14.160  66.375  1.00  0.00    -0.444 OA 
HETATM    5  H   UNL     2     -10.415  10.205  66.697  1.00  0.00     0.000 HD 
HETATM    6  O   UNL     2     -10.638  10.924  66.119  1.00  0.00    -0.254 OA 
HETATM    7  C   UNL     2     -11.589  13.190  65.657  1.00  0.00    -0.338 C  
HETATM    8  C   UNL     2     -11.243  12.074  66.554  1.00  0.00    -0.334 C  
HETATM    9  O   UNL     2     -11.377  13.194  64.454  1.00  0.00    -0.333 OA 
HETATM   10  C   UNL     2     -11.617  12.377  67.800  1.00  0.00    -0.352 C  
ENDROOT
BRANCH   2  11
HETATM   11  C   UNL     2     -11.736  14.842  68.693  1.00  0.00    -0.330 C  
HETATM   12  H   UNL     2     -12.054  15.454  70.554  1.00  0.00     0.000 HD 
HETATM   13  O   UNL     2     -12.391  14.781  69.974  1.00  0.00    -0.325 OA 
BRANCH  11  14
HETATM   14  C   UNL     2     -10.213  14.849  68.892  1.00  0.00    -0.238 C  
HETATM   15  H   UNL     2      -8.530  15.387  67.922  1.00  0.00     0.000 HD 
HETATM   16  O   UNL     2      -9.472  15.382  67.799  1.00  0.00    -0.203 OA 
ENDBRANCH  11  14
ENDBRANCH   2  11
TORSDOF 2
ENDMDL
MODEL       71
REMARK 921   NORMALIZED FREE ENERGY PREDICTED BY IDOCK:   -3.63 KCAL/MOL
REMARK 922        TOTAL FREE ENERGY PREDICTED BY IDOCK:   -4.26 KCAL/MOL
REMARK 923 INTER-LIGAND FREE ENERGY PREDICTED BY IDOCK:   -4.14 KCAL/MOL
REMARK 924 INTRA-LIGAND FREE ENERGY PREDICTED BY IDOCK:   -0.12 KCAL/MOL
REMARK 927      BINDING AFFINITY PREDICTED BY RF-SCORE:    0.00 PKD
ROOT
HETATM    1 NA   UNL     1     -11.763   5.850  73.953  1.00  0.00    -0.420 Na 
HETATM    2  C   UNL     2     -10.912   8.418  71.440  1.00  0.00    -0.253 C  
HETATM    3  O   UNL     2     -12.118   6.448  71.981  1.00  0.00    -0.335 OA 
HETATM    4  O   UNL     2     -11.248   9.813  71.398  1.00  0.00    -0.366 OA 
HETATM    5  H   UNL     2     -14.735   7.620  72.811  1.00  0.00     0.000 HD 
HETATM    6  O   UNL     2     -14.374   8.471  72.596  1.00  0.00    -0.473 OA 
HETATM    7  C   UNL     2     -12.538   9.966  71.793  1.00  0.00    -0.414 C  
HETATM    8  C   UNL     2     -13.098   8.645  72.128  1.00  0.00    -0.383 C  
HETATM    9  O   UNL     2     -13.147  11.018  71.905  1.00  0.00    -0.486 OA 
HETATM   10  C   UNL     2     -12.175   7.705  71.908  1.00  0.00    -0.304 C  
ENDROOT
BRANCH   2  11
HETATM   11  C   UNL     2     -10.290   7.954  70.099  1.00  0.00    -0.215 C  
HETATM   12  H   UNL     2      -9.535   8.804  68.472  1.00  0.00     0.000 HD 
HETATM   13  O   UNL     2      -9.916   9.088  69.294  1.00  0.00    -0.178 OA 
BRANCH  11  14
HETATM   14  C   UNL     2      -9.099   6.990  70.215  1.00  0.00    -0.156 C  
HETATM   15  H   UNL     2      -8.708   5.063  70.662  1.00  0.00     0.000 HD 
HETATM   16  O   UNL     2      -9.445   5.660  70.590  1.00  0.00    -0.158 OA 
ENDBRANCH  11  14
ENDBRANCH   2  11
TORSDOF 2
ENDMDL
MODEL       72
REMARK 921   NORMALIZED FREE ENERGY PREDICTED BY IDOCK:   -3.63 KCAL/MOL
REMARK 922        TOTAL FREE ENERGY PREDICTED BY IDOCK:   -4.26 KCAL/MOL
REMARK 923 INTER-LIGAND FREE ENERGY PREDICTED BY IDOCK:   -4.09 KCAL/MOL
REMARK 924 INTRA-LIGAND FREE ENERGY PREDICTED BY IDOCK:   -0.17 KCAL/MOL
REMARK 927      BINDING AFFINITY PREDICTED BY RF-SCORE:    0.00 PKD
ROOT
HETATM    1 NA   UNL     1     -11.019   5.841  68.718  1.00  0.00    -0.191 Na 
HETATM    2  C   UNL     2     -11.378   8.367  71.386  1.00  0.00    -0.264 C  
HETATM    3  O   UNL     2     -12.275   6.480  70.262  1.00  0.00    -0.278 OA 
HETATM    4  O   UNL     2     -10.626   8.543  72.595  1.00  0.00    -0.304 OA 
HETATM    5  H   UNL     2     -11.256   4.276  71.999  1.00  0.00     0.000 HD 
HETATM    6  O   UNL     2     -10.874   4.946  72.553  1.00  0.00    -0.211 OA 
HETATM    7  C   UNL     2     -10.387   7.325  73.144  1.00  0.00    -0.313 C  
HETATM    8  C   UNL     2     -10.978   6.286  72.285  1.00  0.00    -0.259 C  
HETATM    9  O   UNL     2      -9.751   7.096  74.162  1.00  0.00    -0.274 OA 
HETATM   10  C   UNL     2     -11.593   6.865  71.250  1.00  0.00    -0.310 C  
ENDROOT
BRANCH   2  11
HETATM   11  C   UNL     2     -12.639   9.269  71.377  1.00  0.00    -0.336 C  
HETATM   12  H   UNL     2     -14.197   9.606  72.559  1.00  0.00     0.000 HD 
HETATM   13  O   UNL     2     -13.424   9.053  72.564  1.00  0.00    -0.454 OA 
BRANCH  11  14
HETATM   14  C   UNL     2     -12.382  10.772  71.195  1.00  0.00    -0.393 C  
HETATM   15  H   UNL     2     -13.070  12.550  71.852  1.00  0.00     0.000 HD 
HETATM   16  O   UNL     2     -13.229  11.619  71.965  1.00  0.00    -0.501 OA 
ENDBRANCH  11  14
ENDBRANCH   2  11
TORSDOF 2
ENDMDL
MODEL       73
REMARK 921   NORMALIZED FREE ENERGY PREDICTED BY IDOCK:   -3.63 KCAL/MOL
REMARK 922        TOTAL FREE ENERGY PREDICTED BY IDOCK:   -4.25 KCAL/MOL
REMARK 923 INTER-LIGAND FREE ENERGY PREDICTED BY IDOCK:   -4.08 KCAL/MOL
REMARK 924 INTRA-LIGAND FREE ENERGY PREDICTED BY IDOCK:   -0.18 KCAL/MOL
REMARK 927      BINDING AFFINITY PREDICTED BY RF-SCORE:    0.00 PKD
ROOT
HETATM    1 NA   UNL     1     -14.402   8.257  73.106  1.00  0.00    -0.579 Na 
HETATM    2  C   UNL     2     -11.630   8.563  70.686  1.00  0.00    -0.194 C  
HETATM    3  O   UNL     2     -12.333   8.515  72.952  1.00  0.00    -0.275 OA 
HETATM    4  O   UNL     2     -11.074   7.587  69.794  1.00  0.00    -0.224 OA 
HETATM    5  H   UNL     2     -11.928   5.627  73.588  1.00  0.00     0.000 HD 
HETATM    6  O   UNL     2     -11.592   5.523  72.706  1.00  0.00    -0.308 OA 
HETATM    7  C   UNL     2     -10.989   6.397  70.443  1.00  0.00    -0.308 C  
HETATM    8  C   UNL     2     -11.511   6.558  71.811  1.00  0.00    -0.300 C  
HETATM    9  O   UNL     2     -10.589   5.340  69.980  1.00  0.00    -0.302 OA 
HETATM   10  C   UNL     2     -11.876   7.829  71.998  1.00  0.00    -0.307 C  
ENDROOT
BRANCH   2  11
HETATM   11  C   UNL     2     -10.748   9.836  70.739  1.00  0.00    -0.323 C  
HETATM   12  H   UNL     2      -8.811  10.269  70.707  1.00  0.00     0.000 HD 
HETATM   13  O   UNL     2      -9.352   9.489  70.675  1.00  0.00    -0.254 OA 
BRANCH  11  14
HETATM   14  C   UNL     2     -11.061  10.908  69.684  1.00  0.00    -0.266 C  
HETATM   15  H   UNL     2     -12.579  11.526  68.510  1.00  0.00     0.000 HD 
HETATM   16  O   UNL     2     -12.386  10.862  69.163  1.00  0.00    -0.435 OA 
ENDBRANCH  11  14
ENDBRANCH   2  11
TORSDOF 2
ENDMDL
MODEL       74
REMARK 921   NORMALIZED FREE ENERGY PREDICTED BY IDOCK:   -3.62 KCAL/MOL
REMARK 922        TOTAL FREE ENERGY PREDICTED BY IDOCK:   -4.25 KCAL/MOL
REMARK 923 INTER-LIGAND FREE ENERGY PREDICTED BY IDOCK:   -4.11 KCAL/MOL
REMARK 924 INTRA-LIGAND FREE ENERGY PREDICTED BY IDOCK:   -0.14 KCAL/MOL
REMARK 927      BINDING AFFINITY PREDICTED BY RF-SCORE:    0.00 PKD
ROOT
HETATM    1 NA   UNL     1      -6.493  17.928  70.148  1.00  0.00    -0.239 Na 
HETATM    2  C   UNL     2      -7.852  17.667  66.726  1.00  0.00    -0.234 C  
HETATM    3  O   UNL     2      -8.134  18.430  68.955  1.00  0.00    -0.274 OA 
HETATM    4  O   UNL     2      -7.409  18.285  65.509  1.00  0.00    -0.539 OA 
HETATM    5  H   UNL     2      -7.098  21.219  68.711  1.00  0.00     0.000 HD 
HETATM    6  O   UNL     2      -6.969  21.046  67.786  1.00  0.00    -0.307 OA 
HETATM    7  C   UNL     2      -7.065  19.572  65.770  1.00  0.00    -0.298 C  
HETATM    8  C   UNL     2      -7.264  19.841  67.204  1.00  0.00    -0.222 C  
HETATM    9  O   UNL     2      -6.618  20.384  64.974  1.00  0.00    -0.286 OA 
HETATM   10  C   UNL     2      -7.751  18.747  67.796  1.00  0.00    -0.237 C  
ENDROOT
BRANCH   2  11
HETATM   11  C   UNL     2      -9.230  16.983  66.534  1.00  0.00    -0.271 C  
HETATM   12  H   UNL     2     -10.827  17.223  65.381  1.00  0.00     0.000 HD 
HETATM   13  O   UNL     2      -9.983  17.642  65.498  1.00  0.00    -0.533 OA 
BRANCH  11  14
HETATM   14  C   UNL     2      -9.192  15.472  66.262  1.00  0.00    -0.329 C  
HETATM   15  H   UNL     2     -10.147  14.073  65.168  1.00  0.00     0.000 HD 
HETATM   16  O   UNL     2     -10.170  15.009  65.336  1.00  0.00    -0.339 OA 
ENDBRANCH  11  14
ENDBRANCH   2  11
TORSDOF 2
ENDMDL
MODEL       75
REMARK 921   NORMALIZED FREE ENERGY PREDICTED BY IDOCK:   -3.61 KCAL/MOL
REMARK 922        TOTAL FREE ENERGY PREDICTED BY IDOCK:   -4.24 KCAL/MOL
REMARK 923 INTER-LIGAND FREE ENERGY PREDICTED BY IDOCK:   -4.06 KCAL/MOL
REMARK 924 INTRA-LIGAND FREE ENERGY PREDICTED BY IDOCK:   -0.18 KCAL/MOL
REMARK 927      BINDING AFFINITY PREDICTED BY RF-SCORE:    0.00 PKD
ROOT
HETATM    1 NA   UNL     1      -8.778   7.966  71.088  1.00  0.00    -0.116 Na 
HETATM    2  C   UNL     2     -11.497  10.458  70.901  1.00  0.00    -0.297 C  
HETATM    3  O   UNL     2     -10.353   8.640  69.891  1.00  0.00    -0.199 OA 
HETATM    4  O   UNL     2     -12.697  10.572  71.679  1.00  0.00    -0.405 OA 
HETATM    5  H   UNL     2     -12.034   6.355  70.819  1.00  0.00     0.000 HD 
HETATM    6  O   UNL     2     -12.594   6.994  71.243  1.00  0.00    -0.372 OA 
HETATM    7  C   UNL     2     -13.220   9.333  71.862  1.00  0.00    -0.423 C  
HETATM    8  C   UNL     2     -12.352   8.342  71.205  1.00  0.00    -0.263 C  
HETATM    9  O   UNL     2     -14.223   9.051  72.500  1.00  0.00    -0.537 OA 
HETATM   10  C   UNL     2     -11.337   8.971  70.606  1.00  0.00    -0.265 C  
ENDROOT
BRANCH   2  11
HETATM   11  C   UNL     2     -11.524  11.423  69.689  1.00  0.00    -0.309 C  
HETATM   12  H   UNL     2     -12.461  11.544  67.943  1.00  0.00     0.000 HD 
HETATM   13  O   UNL     2     -12.444  10.952  68.686  1.00  0.00    -0.418 OA 
BRANCH  11  14
HETATM   14  C   UNL     2     -11.825  12.894  70.015  1.00  0.00    -0.286 C  
HETATM   15  H   UNL     2     -11.096  14.738  69.653  1.00  0.00     0.000 HD 
HETATM   16  O   UNL     2     -10.910  13.828  69.451  1.00  0.00    -0.167 OA 
ENDBRANCH  11  14
ENDBRANCH   2  11
TORSDOF 2
ENDMDL
MODEL       76
REMARK 921   NORMALIZED FREE ENERGY PREDICTED BY IDOCK:   -3.61 KCAL/MOL
REMARK 922        TOTAL FREE ENERGY PREDICTED BY IDOCK:   -4.24 KCAL/MOL
REMARK 923 INTER-LIGAND FREE ENERGY PREDICTED BY IDOCK:   -4.09 KCAL/MOL
REMARK 924 INTRA-LIGAND FREE ENERGY PREDICTED BY IDOCK:   -0.14 KCAL/MOL
REMARK 927      BINDING AFFINITY PREDICTED BY RF-SCORE:    0.00 PKD
ROOT
HETATM    1 NA   UNL     1     -11.738   9.155  69.016  1.00  0.00    -0.440 Na 
HETATM    2  C   UNL     2     -11.784  12.536  67.536  1.00  0.00    -0.374 C  
HETATM    3  O   UNL     2     -10.543  10.819  68.604  1.00  0.00    -0.176 OA 
HETATM    4  O   UNL     2     -11.953  12.942  66.170  1.00  0.00    -0.404 OA 
HETATM    5  H   UNL     2      -9.406   9.411  66.231  1.00  0.00     0.000 HD 
HETATM    6  O   UNL     2      -9.831  10.066  65.691  1.00  0.00    -0.257 OA 
HETATM    7  C   UNL     2     -11.249  12.100  65.371  1.00  0.00    -0.333 C  
HETATM    8  C   UNL     2     -10.589  11.083  66.208  1.00  0.00    -0.237 C  
HETATM    9  O   UNL     2     -11.188  12.130  64.152  1.00  0.00    -0.318 OA 
HETATM   10  C   UNL     2     -10.863  11.324  67.493  1.00  0.00    -0.245 C  
ENDROOT
BRANCH   2  11
HETATM   11  C   UNL     2     -11.347  13.731  68.421  1.00  0.00    -0.293 C  
HETATM   12  H   UNL     2     -11.200  15.701  68.241  1.00  0.00     0.000 HD 
HETATM   13  O   UNL     2     -11.468  14.970  67.698  1.00  0.00    -0.331 OA 
BRANCH  11  14
HETATM   14  C   UNL     2     -12.060  13.853  69.776  1.00  0.00    -0.345 C  
HETATM   15  H   UNL     2     -12.883  15.253  70.970  1.00  0.00     0.000 HD 
HETATM   16  O   UNL     2     -12.441  15.178  70.131  1.00  0.00    -0.340 OA 
ENDBRANCH  11  14
ENDBRANCH   2  11
TORSDOF 2
ENDMDL
MODEL       77
REMARK 921   NORMALIZED FREE ENERGY PREDICTED BY IDOCK:   -3.60 KCAL/MOL
REMARK 922        TOTAL FREE ENERGY PREDICTED BY IDOCK:   -4.23 KCAL/MOL
REMARK 923 INTER-LIGAND FREE ENERGY PREDICTED BY IDOCK:   -4.20 KCAL/MOL
REMARK 924 INTRA-LIGAND FREE ENERGY PREDICTED BY IDOCK:   -0.03 KCAL/MOL
REMARK 927      BINDING AFFINITY PREDICTED BY RF-SCORE:    0.00 PKD
ROOT
HETATM    1 NA   UNL     1     -11.713  19.182  67.531  1.00  0.00    -0.386 Na 
HETATM    2  C   UNL     2     -10.420  15.845  66.623  1.00  0.00    -0.306 C  
HETATM    3  O   UNL     2     -10.210  17.794  67.960  1.00  0.00    -0.337 OA 
HETATM    4  O   UNL     2     -10.991  14.546  66.837  1.00  0.00    -0.302 OA 
HETATM    5  H   UNL     2     -11.697  16.943  70.404  1.00  0.00     0.000 HD 
HETATM    6  O   UNL     2     -11.820  16.100  69.984  1.00  0.00    -0.278 OA 
HETATM    7  C   UNL     2     -11.536  14.506  68.080  1.00  0.00    -0.321 C  
HETATM    8  C   UNL     2     -11.346  15.813  68.731  1.00  0.00    -0.362 C  
HETATM    9  O   UNL     2     -12.131  13.567  68.586  1.00  0.00    -0.352 OA 
HETATM   10  C   UNL     2     -10.669  16.621  67.910  1.00  0.00    -0.344 C  
ENDROOT
BRANCH   2  11
HETATM   11  C   UNL     2      -8.954  15.735  66.133  1.00  0.00    -0.337 C  
HETATM   12  H   UNL     2      -7.556  16.959  65.435  1.00  0.00     0.000 HD 
HETATM   13  O   UNL     2      -8.454  17.026  65.736  1.00  0.00    -0.508 OA 
BRANCH  11  14
HETATM   14  C   UNL     2      -7.970  15.080  67.113  1.00  0.00    -0.206 C  
HETATM   15  H   UNL     2      -6.222  15.468  68.041  1.00  0.00     0.000 HD 
HETATM   16  O   UNL     2      -6.831  15.874  67.434  1.00  0.00    -0.163 OA 
ENDBRANCH  11  14
ENDBRANCH   2  11
TORSDOF 2
ENDMDL
MODEL       78
REMARK 921   NORMALIZED FREE ENERGY PREDICTED BY IDOCK:   -3.60 KCAL/MOL
REMARK 922        TOTAL FREE ENERGY PREDICTED BY IDOCK:   -4.22 KCAL/MOL
REMARK 923 INTER-LIGAND FREE ENERGY PREDICTED BY IDOCK:   -4.01 KCAL/MOL
REMARK 924 INTRA-LIGAND FREE ENERGY PREDICTED BY IDOCK:   -0.21 KCAL/MOL
REMARK 927      BINDING AFFINITY PREDICTED BY RF-SCORE:    0.00 PKD
ROOT
HETATM    1 NA   UNL     1     -13.643   9.346  70.403  1.00  0.00    -0.532 Na 
HETATM    2  C   UNL     2     -11.486  11.241  68.082  1.00  0.00    -0.306 C  
HETATM    3  O   UNL     2     -12.358  10.989  70.275  1.00  0.00    -0.309 OA 
HETATM    4  O   UNL     2     -10.257  10.860  67.449  1.00  0.00    -0.188 OA 
HETATM    5  H   UNL     2     -10.185   9.385  71.545  1.00  0.00     0.000 HD 
HETATM    6  O   UNL     2      -9.717   9.444  70.721  1.00  0.00    -0.260 OA 
HETATM    7  C   UNL     2      -9.489  10.190  68.346  1.00  0.00    -0.143 C  
HETATM    8  C   UNL     2     -10.215  10.097  69.624  1.00  0.00    -0.242 C  
HETATM    9  O   UNL     2      -8.391   9.696  68.142  1.00  0.00    -0.116 OA 
HETATM   10  C   UNL     2     -11.387  10.728  69.514  1.00  0.00    -0.289 C  
ENDROOT
BRANCH   2  11
HETATM   11  C   UNL     2     -11.769  12.752  67.887  1.00  0.00    -0.357 C  
HETATM   12  H   UNL     2     -11.053  14.469  68.577  1.00  0.00     0.000 HD 
HETATM   13  O   UNL     2     -10.879  13.543  68.697  1.00  0.00    -0.248 OA 
BRANCH  11  14
HETATM   14  C   UNL     2     -11.730  13.255  66.436  1.00  0.00    -0.373 C  
HETATM   15  H   UNL     2     -12.467  12.791  64.618  1.00  0.00     0.000 HD 
HETATM   16  O   UNL     2     -12.491  12.479  65.516  1.00  0.00    -0.646 OA 
ENDBRANCH  11  14
ENDBRANCH   2  11
TORSDOF 2
ENDMDL
MODEL       79
REMARK 921   NORMALIZED FREE ENERGY PREDICTED BY IDOCK:   -3.57 KCAL/MOL
REMARK 922        TOTAL FREE ENERGY PREDICTED BY IDOCK:   -4.19 KCAL/MOL
REMARK 923 INTER-LIGAND FREE ENERGY PREDICTED BY IDOCK:   -4.01 KCAL/MOL
REMARK 924 INTRA-LIGAND FREE ENERGY PREDICTED BY IDOCK:   -0.18 KCAL/MOL
REMARK 927      BINDING AFFINITY PREDICTED BY RF-SCORE:    0.00 PKD
ROOT
HETATM    1 NA   UNL     1     -11.444  17.127  67.610  1.00  0.00    -0.293 Na 
HETATM    2  C   UNL     2     -11.600  13.542  68.479  1.00  0.00    -0.333 C  
HETATM    3  O   UNL     2     -10.344  15.555  68.439  1.00  0.00    -0.224 OA 
HETATM    4  O   UNL     2     -12.374  12.871  69.483  1.00  0.00    -0.158 OA 
HETATM    5  H   UNL     2     -10.908  16.606  71.175  1.00  0.00     0.000 HD 
HETATM    6  O   UNL     2     -11.417  15.818  71.326  1.00  0.00    -0.361 OA 
HETATM    7  C   UNL     2     -12.368  13.619  70.616  1.00  0.00    -0.368 C  
HETATM    8  C   UNL     2     -11.580  14.841  70.381  1.00  0.00    -0.279 C  
HETATM    9  O   UNL     2     -12.948  13.366  71.661  1.00  0.00    -0.360 OA 
HETATM   10  C   UNL     2     -11.091  14.818  69.138  1.00  0.00    -0.265 C  
ENDROOT
BRANCH   2  11
HETATM   11  C   UNL     2     -10.544  12.591  67.862  1.00  0.00    -0.218 C  
HETATM   12  H   UNL     2      -9.498  11.005  68.436  1.00  0.00     0.000 HD 
HETATM   13  O   UNL     2     -10.146  11.588  68.815  1.00  0.00    -0.213 OA 
BRANCH  11  14
HETATM   14  C   UNL     2     -10.945  11.917  66.541  1.00  0.00    -0.292 C  
HETATM   15  H   UNL     2     -12.465  11.892  65.217  1.00  0.00     0.000 HD 
HETATM   16  O   UNL     2     -12.217  12.309  66.034  1.00  0.00    -0.646 OA 
ENDBRANCH  11  14
ENDBRANCH   2  11
TORSDOF 2
ENDMDL
MODEL       80
REMARK 921   NORMALIZED FREE ENERGY PREDICTED BY IDOCK:   -3.56 KCAL/MOL
REMARK 922        TOTAL FREE ENERGY PREDICTED BY IDOCK:   -4.18 KCAL/MOL
REMARK 923 INTER-LIGAND FREE ENERGY PREDICTED BY IDOCK:   -4.15 KCAL/MOL
REMARK 924 INTRA-LIGAND FREE ENERGY PREDICTED BY IDOCK:   -0.03 KCAL/MOL
REMARK 927      BINDING AFFINITY PREDICTED BY RF-SCORE:    0.00 PKD
ROOT
HETATM    1 NA   UNL     1      -9.053  10.021  68.093  1.00  0.00    -0.117 Na 
HETATM    2  C   UNL     2     -10.768  13.282  67.863  1.00  0.00    -0.239 C  
HETATM    3  O   UNL     2     -10.778  10.959  67.378  1.00  0.00    -0.223 OA 
HETATM    4  O   UNL     2     -11.358  14.088  68.894  1.00  0.00    -0.248 OA 
HETATM    5  H   UNL     2     -12.311   9.920  69.719  1.00  0.00     0.000 HD 
HETATM    6  O   UNL     2     -12.405  10.821  70.004  1.00  0.00    -0.320 OA 
HETATM    7  C   UNL     2     -12.022  13.278  69.758  1.00  0.00    -0.324 C  
HETATM    8  C   UNL     2     -11.876  11.881  69.317  1.00  0.00    -0.318 C  
HETATM    9  O   UNL     2     -12.618  13.621  70.768  1.00  0.00    -0.338 OA 
HETATM   10  C   UNL     2     -11.162  11.847  68.188  1.00  0.00    -0.258 C  
ENDROOT
BRANCH   2  11
HETATM   11  C   UNL     2     -11.137  13.820  66.457  1.00  0.00    -0.306 C  
HETATM   12  H   UNL     2     -10.250  14.011  64.692  1.00  0.00     0.000 HD 
HETATM   13  O   UNL     2     -10.024  13.681  65.554  1.00  0.00    -0.283 OA 
BRANCH  11  14
HETATM   14  C   UNL     2     -12.396  13.213  65.820  1.00  0.00    -0.435 C  
HETATM   15  H   UNL     2     -13.984  13.763  64.706  1.00  0.00     0.000 HD 
HETATM   16  O   UNL     2     -13.204  14.139  65.100  1.00  0.00    -0.743 OA 
ENDBRANCH  11  14
ENDBRANCH   2  11
TORSDOF 2
ENDMDL
MODEL       81
REMARK 921   NORMALIZED FREE ENERGY PREDICTED BY IDOCK:   -3.51 KCAL/MOL
REMARK 922        TOTAL FREE ENERGY PREDICTED BY IDOCK:   -4.13 KCAL/MOL
REMARK 923 INTER-LIGAND FREE ENERGY PREDICTED BY IDOCK:   -3.94 KCAL/MOL
REMARK 924 INTRA-LIGAND FREE ENERGY PREDICTED BY IDOCK:   -0.18 KCAL/MOL
REMARK 927      BINDING AFFINITY PREDICTED BY RF-SCORE:    0.00 PKD
ROOT
HETATM    1 NA   UNL     1     -11.908  19.819  67.340  1.00  0.00    -0.372 Na 
HETATM    2  C   UNL     2      -8.597  18.393  66.547  1.00  0.00    -0.273 C  
HETATM    3  O   UNL     2     -10.181  19.015  68.200  1.00  0.00    -0.369 OA 
HETATM    4  O   UNL     2      -8.256  17.154  65.908  1.00  0.00    -0.526 OA 
HETATM    5  H   UNL     2     -11.596  16.417  68.604  1.00  0.00     0.000 HD 
HETATM    6  O   UNL     2     -10.993  16.039  67.975  1.00  0.00    -0.325 OA 
HETATM    7  C   UNL     2      -9.077  16.179  66.376  1.00  0.00    -0.304 C  
HETATM    8  C   UNL     2     -10.012  16.765  67.351  1.00  0.00    -0.267 C  
HETATM    9  O   UNL     2      -9.089  15.007  66.032  1.00  0.00    -0.264 OA 
HETATM   10  C   UNL     2      -9.743  18.065  67.495  1.00  0.00    -0.289 C  
ENDROOT
BRANCH   2  11
HETATM   11  C   UNL     2      -7.342  19.069  67.154  1.00  0.00    -0.216 C  
HETATM   12  H   UNL     2      -6.687  20.918  67.460  1.00  0.00     0.000 HD 
HETATM   13  O   UNL     2      -7.457  20.503  67.088  1.00  0.00    -0.300 OA 
BRANCH  11  14
HETATM   14  C   UNL     2      -6.985  18.647  68.587  1.00  0.00    -0.277 C  
HETATM   15  H   UNL     2      -6.217  17.075  69.590  1.00  0.00     0.000 HD 
HETATM   16  O   UNL     2      -6.438  17.337  68.703  1.00  0.00    -0.164 OA 
ENDBRANCH  11  14
ENDBRANCH   2  11
TORSDOF 2
ENDMDL
MODEL       82
REMARK 921   NORMALIZED FREE ENERGY PREDICTED BY IDOCK:   -3.51 KCAL/MOL
REMARK 922        TOTAL FREE ENERGY PREDICTED BY IDOCK:   -4.13 KCAL/MOL
REMARK 923 INTER-LIGAND FREE ENERGY PREDICTED BY IDOCK:   -3.94 KCAL/MOL
REMARK 924 INTRA-LIGAND FREE ENERGY PREDICTED BY IDOCK:   -0.19 KCAL/MOL
REMARK 927      BINDING AFFINITY PREDICTED BY RF-SCORE:    0.00 PKD
ROOT
HETATM    1 NA   UNL     1      -7.618  13.886  66.234  1.00  0.00    -0.268 Na 
HETATM    2  C   UNL     2     -10.331  11.408  66.594  1.00  0.00    -0.233 C  
HETATM    3  O   UNL     2      -9.153  13.256  67.504  1.00  0.00    -0.189 OA 
HETATM    4  O   UNL     2     -11.556  11.270  65.860  1.00  0.00    -0.127 OA 
HETATM    5  H   UNL     2     -10.860  15.512  66.555  1.00  0.00     0.000 HD 
HETATM    6  O   UNL     2     -11.435  14.861  66.172  1.00  0.00    -0.341 OA 
HETATM    7  C   UNL     2     -12.084  12.504  65.652  1.00  0.00    -0.400 C  
HETATM    8  C   UNL     2     -11.193  13.514  66.247  1.00  0.00    -0.297 C  
HETATM    9  O   UNL     2     -13.107  12.766  65.038  1.00  0.00    -0.811 OA 
HETATM   10  C   UNL     2     -10.160  12.903  66.833  1.00  0.00    -0.241 C  
ENDROOT
BRANCH   2  11
HETATM   11  C   UNL     2     -10.319  10.483  67.837  1.00  0.00    -0.192 C  
HETATM   12  H   UNL     2      -8.972   9.483  68.897  1.00  0.00     0.000 HD 
HETATM   13  O   UNL     2      -8.979  10.051  68.135  1.00  0.00    -0.121 OA 
BRANCH  11  14
HETATM   14  C   UNL     2     -10.968  11.062  69.104  1.00  0.00    -0.237 C  
HETATM   15  H   UNL     2     -12.792  11.478  69.855  1.00  0.00     0.000 HD 
HETATM   16  O   UNL     2     -12.391  11.120  69.072  1.00  0.00    -0.479 OA 
ENDBRANCH  11  14
ENDBRANCH   2  11
TORSDOF 2
ENDMDL
MODEL       83
REMARK 921   NORMALIZED FREE ENERGY PREDICTED BY IDOCK:   -3.51 KCAL/MOL
REMARK 922        TOTAL FREE ENERGY PREDICTED BY IDOCK:   -4.13 KCAL/MOL
REMARK 923 INTER-LIGAND FREE ENERGY PREDICTED BY IDOCK:   -3.95 KCAL/MOL
REMARK 924 INTRA-LIGAND FREE ENERGY PREDICTED BY IDOCK:   -0.18 KCAL/MOL
REMARK 927      BINDING AFFINITY PREDICTED BY RF-SCORE:    0.00 PKD
ROOT
HETATM    1 NA   UNL     1     -11.429   3.744  73.823  1.00  0.00    -0.193 Na 
HETATM    2  C   UNL     2     -12.088   6.696  71.705  1.00  0.00    -0.353 C  
HETATM    3  O   UNL     2     -10.633   5.577  73.210  1.00  0.00    -0.212 OA 
HETATM    4  O   UNL     2     -12.149   6.810  70.276  1.00  0.00    -0.328 OA 
HETATM    5  H   UNL     2      -8.848   4.155  71.286  1.00  0.00     0.000 HD 
HETATM    6  O   UNL     2      -9.337   4.573  70.588  1.00  0.00    -0.131 OA 
HETATM    7  C   UNL     2     -11.149   6.068  69.734  1.00  0.00    -0.406 C  
HETATM    8  C   UNL     2     -10.390   5.419  70.817  1.00  0.00    -0.251 C  
HETATM    9  O   UNL     2     -10.919   5.912  68.545  1.00  0.00    -0.281 OA 
HETATM   10  C   UNL     2     -10.900   5.786  71.995  1.00  0.00    -0.251 C  
ENDROOT
BRANCH   2  11
HETATM   11  C   UNL     2     -12.093   8.093  72.376  1.00  0.00    -0.348 C  
HETATM   12  H   UNL     2     -10.801   9.569  72.679  1.00  0.00     0.000 HD 
HETATM   13  O   UNL     2     -10.798   8.713  72.267  1.00  0.00    -0.354 OA 
BRANCH  11  14
HETATM   14  C   UNL     2     -13.174   9.066  71.881  1.00  0.00    -0.405 C  
HETATM   15  H   UNL     2     -13.466  11.041  71.603  1.00  0.00     0.000 HD 
HETATM   16  O   UNL     2     -12.797  10.439  71.909  1.00  0.00    -0.433 OA 
ENDBRANCH  11  14
ENDBRANCH   2  11
TORSDOF 2
ENDMDL
MODEL       84
REMARK 921   NORMALIZED FREE ENERGY PREDICTED BY IDOCK:   -3.50 KCAL/MOL
REMARK 922        TOTAL FREE ENERGY PREDICTED BY IDOCK:   -4.11 KCAL/MOL
REMARK 923 INTER-LIGAND FREE ENERGY PREDICTED BY IDOCK:   -3.92 KCAL/MOL
REMARK 924 INTRA-LIGAND FREE ENERGY PREDICTED BY IDOCK:   -0.20 KCAL/MOL
REMARK 927      BINDING AFFINITY PREDICTED BY RF-SCORE:    0.00 PKD
ROOT
HETATM    1 NA   UNL     1      -7.581  15.345  69.971  1.00  0.00    -0.183 Na 
HETATM    2  C   UNL     2      -7.718  18.852  68.829  1.00  0.00    -0.331 C  
HETATM    3  O   UNL     2      -7.180  16.593  68.343  1.00  0.00    -0.159 OA 
HETATM    4  O   UNL     2      -8.852  19.688  68.555  1.00  0.00    -0.345 OA 
HETATM    5  H   UNL     2      -9.711  15.698  67.037  1.00  0.00     0.000 HD 
HETATM    6  O   UNL     2     -10.031  16.585  67.145  1.00  0.00    -0.254 OA 
HETATM    7  C   UNL     2      -9.790  18.955  67.903  1.00  0.00    -0.345 C  
HETATM    8  C   UNL     2      -9.295  17.579  67.736  1.00  0.00    -0.257 C  
HETATM    9  O   UNL     2     -10.892  19.337  67.540  1.00  0.00    -0.473 OA 
HETATM   10  C   UNL     2      -8.065  17.487  68.249  1.00  0.00    -0.268 C  
ENDROOT
BRANCH   2  11
HETATM   11  C   UNL     2      -6.405  19.518  68.345  1.00  0.00    -0.243 C  
HETATM   12  H   UNL     2      -5.728  20.365  66.682  1.00  0.00     0.000 HD 
HETATM   13  O   UNL     2      -6.533  19.957  66.979  1.00  0.00    -0.191 OA 
BRANCH  11  14
HETATM   14  C   UNL     2      -5.885  20.675  69.211  1.00  0.00    -0.356 C  
HETATM   15  H   UNL     2      -5.927  21.315  71.123  1.00  0.00     0.000 HD 
HETATM   16  O   UNL     2      -6.249  20.599  70.586  1.00  0.00    -0.510 OA 
ENDBRANCH  11  14
ENDBRANCH   2  11
TORSDOF 2
ENDMDL
MODEL       85
REMARK 921   NORMALIZED FREE ENERGY PREDICTED BY IDOCK:   -3.49 KCAL/MOL
REMARK 922        TOTAL FREE ENERGY PREDICTED BY IDOCK:   -4.11 KCAL/MOL
REMARK 923 INTER-LIGAND FREE ENERGY PREDICTED BY IDOCK:   -3.93 KCAL/MOL
REMARK 924 INTRA-LIGAND FREE ENERGY PREDICTED BY IDOCK:   -0.18 KCAL/MOL
REMARK 927      BINDING AFFINITY PREDICTED BY RF-SCORE:    0.00 PKD
ROOT
HETATM    1 NA   UNL     1      -9.370  20.036  69.824  1.00  0.00    -0.309 Na 
HETATM    2  C   UNL     2      -9.480  17.016  67.703  1.00  0.00    -0.236 C  
HETATM    3  O   UNL     2      -8.502  19.131  68.152  1.00  0.00    -0.297 OA 
HETATM    4  O   UNL     2      -9.113  15.663  68.008  1.00  0.00    -0.181 OA 
HETATM    5  H   UNL     2      -6.164  18.308  69.815  1.00  0.00     0.000 HD 
HETATM    6  O   UNL     2      -6.437  17.409  69.679  1.00  0.00    -0.242 OA 
HETATM    7  C   UNL     2      -7.967  15.672  68.735  1.00  0.00    -0.172 C  
HETATM    8  C   UNL     2      -7.543  17.067  68.947  1.00  0.00    -0.233 C  
HETATM    9  O   UNL     2      -7.383  14.701  69.190  1.00  0.00    -0.130 OA 
HETATM   10  C   UNL     2      -8.399  17.887  68.331  1.00  0.00    -0.304 C  
ENDROOT
BRANCH   2  11
HETATM   11  C   UNL     2      -9.745  17.194  66.187  1.00  0.00    -0.242 C  
HETATM   12  H   UNL     2      -8.666  17.333  64.526  1.00  0.00     0.000 HD 
HETATM   13  O   UNL     2      -8.504  17.223  65.456  1.00  0.00    -0.250 OA 
BRANCH  11  14
HETATM   14  C   UNL     2     -10.694  16.167  65.550  1.00  0.00    -0.342 C  
HETATM   15  H   UNL     2     -11.760  15.886  63.863  1.00  0.00     0.000 HD 
HETATM   16  O   UNL     2     -11.173  16.521  64.256  1.00  0.00    -0.992 OA 
ENDBRANCH  11  14
ENDBRANCH   2  11
TORSDOF 2
ENDMDL
MODEL       86
REMARK 921   NORMALIZED FREE ENERGY PREDICTED BY IDOCK:   -3.49 KCAL/MOL
REMARK 922        TOTAL FREE ENERGY PREDICTED BY IDOCK:   -4.11 KCAL/MOL
REMARK 923 INTER-LIGAND FREE ENERGY PREDICTED BY IDOCK:   -3.97 KCAL/MOL
REMARK 924 INTRA-LIGAND FREE ENERGY PREDICTED BY IDOCK:   -0.14 KCAL/MOL
REMARK 927      BINDING AFFINITY PREDICTED BY RF-SCORE:    0.00 PKD
ROOT
HETATM    1 NA   UNL     1      -6.624  16.926  68.202  1.00  0.00    -0.124 Na 
HETATM    2  C   UNL     2     -10.184  16.031  67.813  1.00  0.00    -0.260 C  
HETATM    3  O   UNL     2      -8.570  17.622  68.514  1.00  0.00    -0.279 OA 
HETATM    4  O   UNL     2     -10.967  15.863  66.623  1.00  0.00    -0.262 OA 
HETATM    5  H   UNL     2      -8.359  19.303  66.056  1.00  0.00     0.000 HD 
HETATM    6  O   UNL     2      -9.031  18.752  65.673  1.00  0.00    -0.285 OA 
HETATM    7  C   UNL     2     -10.640  16.841  65.740  1.00  0.00    -0.250 C  
HETATM    8  C   UNL     2      -9.598  17.695  66.334  1.00  0.00    -0.274 C  
HETATM    9  O   UNL     2     -11.089  16.988  64.614  1.00  0.00    -0.997 OA 
HETATM   10  C   UNL     2      -9.321  17.262  67.567  1.00  0.00    -0.236 C  
ENDROOT
BRANCH   2  11
HETATM   11  C   UNL     2     -11.084  16.034  69.076  1.00  0.00    -0.320 C  
HETATM   12  H   UNL     2     -12.949  15.539  69.537  1.00  0.00     0.000 HD 
HETATM   13  O   UNL     2     -12.398  15.537  68.763  1.00  0.00    -0.116 OA 
BRANCH  11  14
HETATM   14  C   UNL     2     -10.525  15.285  70.294  1.00  0.00    -0.191 C  
HETATM   15  H   UNL     2     -10.999  14.879  72.211  1.00  0.00     0.000 HD 
HETATM   16  O   UNL     2     -11.346  15.342  71.457  1.00  0.00    -0.377 OA 
ENDBRANCH  11  14
ENDBRANCH   2  11
TORSDOF 2
ENDMDL
MODEL       87
REMARK 921   NORMALIZED FREE ENERGY PREDICTED BY IDOCK:   -3.48 KCAL/MOL
REMARK 922        TOTAL FREE ENERGY PREDICTED BY IDOCK:   -4.09 KCAL/MOL
REMARK 923 INTER-LIGAND FREE ENERGY PREDICTED BY IDOCK:   -3.94 KCAL/MOL
REMARK 924 INTRA-LIGAND FREE ENERGY PREDICTED BY IDOCK:   -0.15 KCAL/MOL
REMARK 927      BINDING AFFINITY PREDICTED BY RF-SCORE:    0.00 PKD
ROOT
HETATM    1 NA   UNL     1     -10.777  16.374  64.794  1.00  0.00    -0.333 Na 
HETATM    2  C   UNL     2      -9.889  13.346  66.711  1.00  0.00    -0.265 C  
HETATM    3  O   UNL     2     -11.533  14.955  66.130  1.00  0.00    -0.341 OA 
HETATM    4  O   UNL     2      -9.584  12.022  66.252  1.00  0.00    -0.222 OA 
HETATM    5  H   UNL     2     -12.891  13.555  63.870  1.00  0.00     0.000 HD 
HETATM    6  O   UNL     2     -12.306  12.824  64.027  1.00  0.00    -0.479 OA 
HETATM    7  C   UNL     2     -10.439  11.697  65.250  1.00  0.00    -0.273 C  
HETATM    8  C   UNL     2     -11.347  12.831  65.006  1.00  0.00    -0.309 C  
HETATM    9  O   UNL     2     -10.451  10.658  64.608  1.00  0.00    -0.336 OA 
HETATM   10  C   UNL     2     -11.067  13.813  65.866  1.00  0.00    -0.286 C  
ENDROOT
BRANCH   2  11
HETATM   11  C   UNL     2     -10.062  13.376  68.251  1.00  0.00    -0.247 C  
HETATM   12  H   UNL     2      -9.813  14.687  69.720  1.00  0.00     0.000 HD 
HETATM   13  O   UNL     2      -9.707  14.669  68.776  1.00  0.00    -0.215 OA 
BRANCH  11  14
HETATM   14  C   UNL     2     -11.448  12.970  68.774  1.00  0.00    -0.298 C  
HETATM   15  H   UNL     2     -13.041  13.769  69.714  1.00  0.00     0.000 HD 
HETATM   16  O   UNL     2     -12.184  14.021  69.391  1.00  0.00    -0.336 OA 
ENDBRANCH  11  14
ENDBRANCH   2  11
TORSDOF 2
ENDMDL
MODEL       88
REMARK 921   NORMALIZED FREE ENERGY PREDICTED BY IDOCK:   -3.47 KCAL/MOL
REMARK 922        TOTAL FREE ENERGY PREDICTED BY IDOCK:   -4.08 KCAL/MOL
REMARK 923 INTER-LIGAND FREE ENERGY PREDICTED BY IDOCK:   -3.95 KCAL/MOL
REMARK 924 INTRA-LIGAND FREE ENERGY PREDICTED BY IDOCK:   -0.13 KCAL/MOL
REMARK 927      BINDING AFFINITY PREDICTED BY RF-SCORE:    0.00 PKD
ROOT
HETATM    1 NA   UNL     1      -8.465   7.907  68.265  1.00  0.00    -0.112 Na 
HETATM    2  C   UNL     2     -10.805   9.759  70.439  1.00  0.00    -0.311 C  
HETATM    3  O   UNL     2     -10.493   8.272  68.616  1.00  0.00    -0.211 OA 
HETATM    4  O   UNL     2     -11.107   9.581  71.830  1.00  0.00    -0.352 OA 
HETATM    5  H   UNL     2     -10.723   5.643  70.010  1.00  0.00     0.000 HD 
HETATM    6  O   UNL     2     -10.894   6.129  70.808  1.00  0.00    -0.255 OA 
HETATM    7  C   UNL     2     -11.187   8.252  72.095  1.00  0.00    -0.345 C  
HETATM    8  C   UNL     2     -10.921   7.498  70.858  1.00  0.00    -0.253 C  
HETATM    9  O   UNL     2     -11.401   7.736  73.181  1.00  0.00    -0.374 OA 
HETATM   10  C   UNL     2     -10.716   8.355  69.854  1.00  0.00    -0.227 C  
ENDROOT
BRANCH   2  11
HETATM   11  C   UNL     2     -11.800  10.744  69.774  1.00  0.00    -0.335 C  
HETATM   12  H   UNL     2     -13.088  12.134  70.364  1.00  0.00     0.000 HD 
HETATM   13  O   UNL     2     -12.478  11.531  70.772  1.00  0.00    -0.362 OA 
BRANCH  11  14
HETATM   14  C   UNL     2     -11.207  11.670  68.702  1.00  0.00    -0.250 C  
HETATM   15  H   UNL     2     -11.700  12.505  66.935  1.00  0.00     0.000 HD 
HETATM   16  O   UNL     2     -12.067  11.932  67.598  1.00  0.00    -0.568 OA 
ENDBRANCH  11  14
ENDBRANCH   2  11
TORSDOF 2
ENDMDL
MODEL       89
REMARK 921   NORMALIZED FREE ENERGY PREDICTED BY IDOCK:   -3.46 KCAL/MOL
REMARK 922        TOTAL FREE ENERGY PREDICTED BY IDOCK:   -4.06 KCAL/MOL
REMARK 923 INTER-LIGAND FREE ENERGY PREDICTED BY IDOCK:   -4.43 KCAL/MOL
REMARK 924 INTRA-LIGAND FREE ENERGY PREDICTED BY IDOCK:    0.37 KCAL/MOL
REMARK 927      BINDING AFFINITY PREDICTED BY RF-SCORE:    0.00 PKD
ROOT
HETATM    1 NA   UNL     1     -11.020  13.440  70.541  1.00  0.00    -0.473 Na 
HETATM    2  C   UNL     2     -11.606  13.994  66.939  1.00  0.00    -0.386 C  
HETATM    3  O   UNL     2     -10.102  14.072  68.773  1.00  0.00    -0.229 OA 
HETATM    4  O   UNL     2     -11.849  13.047  65.888  1.00  0.00    -0.372 OA 
HETATM    5  H   UNL     2      -8.782  11.408  68.509  1.00  0.00     0.000 HD 
HETATM    6  O   UNL     2      -9.309  11.271  67.731  1.00  0.00    -0.157 OA 
HETATM    7  C   UNL     2     -11.030  11.979  66.062  1.00  0.00    -0.304 C  
HETATM    8  C   UNL     2     -10.212  12.191  67.268  1.00  0.00    -0.202 C  
HETATM    9  O   UNL     2     -10.986  10.972  65.371  1.00  0.00    -0.155 OA 
HETATM   10  C   UNL     2     -10.507  13.381  67.798  1.00  0.00    -0.243 C  
ENDROOT
BRANCH   2  11
HETATM   11  C   UNL     2     -11.352  15.411  66.364  1.00  0.00    -0.087 C  
HETATM   12  H   UNL     2     -10.180  16.960  66.771  1.00  0.00     0.000 HD 
HETATM   13  O   UNL     2     -10.336  16.091  67.123  1.00  0.00    -0.284 OA 
BRANCH  11  14
HETATM   14  C   UNL     2     -11.005  15.471  64.868  1.00  0.00    -0.436 C  
HETATM   15  H   UNL     2     -10.825  16.814  63.376  1.00  0.00     0.000 HD 
HETATM   16  O   UNL     2     -11.040  16.777  64.301  1.00  0.00    -1.106 OA 
ENDBRANCH  11  14
ENDBRANCH   2  11
TORSDOF 2
ENDMDL
MODEL       90
REMARK 921   NORMALIZED FREE ENERGY PREDICTED BY IDOCK:   -3.45 KCAL/MOL
REMARK 922        TOTAL FREE ENERGY PREDICTED BY IDOCK:   -4.06 KCAL/MOL
REMARK 923 INTER-LIGAND FREE ENERGY PREDICTED BY IDOCK:   -3.93 KCAL/MOL
REMARK 924 INTRA-LIGAND FREE ENERGY PREDICTED BY IDOCK:   -0.13 KCAL/MOL
REMARK 927      BINDING AFFINITY PREDICTED BY RF-SCORE:    0.00 PKD
ROOT
HETATM    1 NA   UNL     1      -8.299  14.905  65.946  1.00  0.00    -0.393 Na 
HETATM    2  C   UNL     2     -11.095  13.181  67.631  1.00  0.00    -0.270 C  
HETATM    3  O   UNL     2      -8.766  13.626  67.531  1.00  0.00    -0.175 OA 
HETATM    4  O   UNL     2     -12.181  13.720  68.398  1.00  0.00    -0.340 OA 
HETATM    5  H   UNL     2      -8.567  15.916  69.435  1.00  0.00     0.000 HD 
HETATM    6  O   UNL     2      -9.499  15.816  69.587  1.00  0.00    -0.276 OA 
HETATM    7  C   UNL     2     -11.707  14.712  69.194  1.00  0.00    -0.309 C  
HETATM    8  C   UNL     2     -10.261  14.867  68.958  1.00  0.00    -0.243 C  
HETATM    9  O   UNL     2     -12.356  15.408  69.959  1.00  0.00    -0.359 OA 
HETATM   10  C   UNL     2      -9.860  13.964  68.059  1.00  0.00    -0.234 C  
ENDROOT
BRANCH   2  11
HETATM   11  C   UNL     2     -11.037  11.637  67.755  1.00  0.00    -0.249 C  
HETATM   12  H   UNL     2     -12.245  10.176  68.342  1.00  0.00     0.000 HD 
HETATM   13  O   UNL     2     -12.281  11.123  68.265  1.00  0.00    -0.613 OA 
BRANCH  11  14
HETATM   14  C   UNL     2     -10.650  10.879  66.476  1.00  0.00    -0.237 C  
HETATM   15  H   UNL     2     -10.294   9.000  65.841  1.00  0.00     0.000 HD 
HETATM   16  O   UNL     2     -10.533   9.469  66.632  1.00  0.00    -0.231 OA 
ENDBRANCH  11  14
ENDBRANCH   2  11
TORSDOF 2
ENDMDL
MODEL       91
REMARK 921   NORMALIZED FREE ENERGY PREDICTED BY IDOCK:   -3.44 KCAL/MOL
REMARK 922        TOTAL FREE ENERGY PREDICTED BY IDOCK:   -4.04 KCAL/MOL
REMARK 923 INTER-LIGAND FREE ENERGY PREDICTED BY IDOCK:   -3.86 KCAL/MOL
REMARK 924 INTRA-LIGAND FREE ENERGY PREDICTED BY IDOCK:   -0.18 KCAL/MOL
REMARK 927      BINDING AFFINITY PREDICTED BY RF-SCORE:    0.00 PKD
ROOT
HETATM    1 NA   UNL     1      -6.331  16.061  67.811  1.00  0.00    -0.088 Na 
HETATM    2  C   UNL     2     -10.002  16.171  68.189  1.00  0.00    -0.230 C  
HETATM    3  O   UNL     2      -7.863  16.400  69.191  1.00  0.00    -0.238 OA 
HETATM    4  O   UNL     2     -10.956  17.099  67.653  1.00  0.00    -0.285 OA 
HETATM    5  H   UNL     2      -7.448  19.344  68.925  1.00  0.00     0.000 HD 
HETATM    6  O   UNL     2      -8.313  19.388  68.536  1.00  0.00    -0.346 OA 
HETATM    7  C   UNL     2     -10.446  18.354  67.743  1.00  0.00    -0.409 C  
HETATM    8  C   UNL     2      -9.104  18.285  68.345  1.00  0.00    -0.316 C  
HETATM    9  O   UNL     2     -10.974  19.385  67.357  1.00  0.00    -0.490 OA 
HETATM   10  C   UNL     2      -8.818  17.015  68.644  1.00  0.00    -0.267 C  
ENDROOT
BRANCH   2  11
HETATM   11  C   UNL     2     -10.659  15.243  69.242  1.00  0.00    -0.256 C  
HETATM   12  H   UNL     2     -11.366  15.406  71.089  1.00  0.00     0.000 HD 
HETATM   13  O   UNL     2     -10.964  15.975  70.444  1.00  0.00    -0.335 OA 
BRANCH  11  14
HETATM   14  C   UNL     2     -11.907  14.480  68.772  1.00  0.00    -0.315 C  
HETATM   15  H   UNL     2     -12.502  12.601  68.350  1.00  0.00     0.000 HD 
HETATM   16  O   UNL     2     -11.730  13.073  68.641  1.00  0.00    -0.285 OA 
ENDBRANCH  11  14
ENDBRANCH   2  11
TORSDOF 2
ENDMDL
MODEL       92
REMARK 921   NORMALIZED FREE ENERGY PREDICTED BY IDOCK:   -3.43 KCAL/MOL
REMARK 922        TOTAL FREE ENERGY PREDICTED BY IDOCK:   -4.04 KCAL/MOL
REMARK 923 INTER-LIGAND FREE ENERGY PREDICTED BY IDOCK:   -3.89 KCAL/MOL
REMARK 924 INTRA-LIGAND FREE ENERGY PREDICTED BY IDOCK:   -0.14 KCAL/MOL
REMARK 927      BINDING AFFINITY PREDICTED BY RF-SCORE:    0.00 PKD
ROOT
HETATM    1 NA   UNL     1      -7.847  20.164  70.282  1.00  0.00    -0.253 Na 
HETATM    2  C   UNL     2      -7.835  19.371  66.676  1.00  0.00    -0.277 C  
HETATM    3  O   UNL     2      -6.997  18.904  68.847  1.00  0.00    -0.291 OA 
HETATM    4  O   UNL     2      -8.860  18.791  65.857  1.00  0.00    -0.465 OA 
HETATM    5  H   UNL     2      -8.842  16.712  69.683  1.00  0.00     0.000 HD 
HETATM    6  O   UNL     2      -9.244  16.780  68.825  1.00  0.00    -0.250 OA 
HETATM    7  C   UNL     2      -9.456  17.786  66.547  1.00  0.00    -0.290 C  
HETATM    8  C   UNL     2      -8.834  17.681  67.878  1.00  0.00    -0.246 C  
HETATM    9  O   UNL     2     -10.388  17.093  66.168  1.00  0.00    -0.340 OA 
HETATM   10  C   UNL     2      -7.856  18.585  67.981  1.00  0.00    -0.274 C  
ENDROOT
BRANCH   2  11
HETATM   11  C   UNL     2      -6.487  19.446  65.914  1.00  0.00    -0.218 C  
HETATM   12  H   UNL     2      -5.694  18.651  64.278  1.00  0.00     0.000 HD 
HETATM   13  O   UNL     2      -6.520  18.605  64.745  1.00  0.00    -0.487 OA 
BRANCH  11  14
HETATM   14  C   UNL     2      -6.020  20.856  65.522  1.00  0.00    -0.242 C  
HETATM   15  H   UNL     2      -5.617  21.950  63.878  1.00  0.00     0.000 HD 
HETATM   16  O   UNL     2      -5.907  21.078  64.120  1.00  0.00    -0.261 OA 
ENDBRANCH  11  14
ENDBRANCH   2  11
TORSDOF 2
ENDMDL
MODEL       93
REMARK 921   NORMALIZED FREE ENERGY PREDICTED BY IDOCK:   -3.40 KCAL/MOL
REMARK 922        TOTAL FREE ENERGY PREDICTED BY IDOCK:   -4.01 KCAL/MOL
REMARK 923 INTER-LIGAND FREE ENERGY PREDICTED BY IDOCK:   -3.82 KCAL/MOL
REMARK 924 INTRA-LIGAND FREE ENERGY PREDICTED BY IDOCK:   -0.18 KCAL/MOL
REMARK 927      BINDING AFFINITY PREDICTED BY RF-SCORE:    0.00 PKD
ROOT
HETATM    1 NA   UNL     1     -10.773  14.385  70.929  1.00  0.00    -0.464 Na 
HETATM    2  C   UNL     2     -10.465  11.603  68.522  1.00  0.00    -0.217 C  
HETATM    3  O   UNL     2     -11.867  12.930  69.901  1.00  0.00    -0.323 OA 
HETATM    4  O   UNL     2     -10.129  11.624  67.127  1.00  0.00    -0.201 OA 
HETATM    5  H   UNL     2     -12.764  14.994  67.940  1.00  0.00     0.000 HD 
HETATM    6  O   UNL     2     -12.262  14.528  67.283  1.00  0.00    -0.347 OA 
HETATM    7  C   UNL     2     -10.761  12.672  66.540  1.00  0.00    -0.250 C  
HETATM    8  C   UNL     2     -11.540  13.396  67.559  1.00  0.00    -0.344 C  
HETATM    9  O   UNL     2     -10.681  13.010  65.368  1.00  0.00    -0.281 OA 
HETATM   10  C   UNL     2     -11.409  12.779  68.736  1.00  0.00    -0.288 C  
ENDROOT
BRANCH   2  11
HETATM   11  C   UNL     2     -10.967  10.201  68.952  1.00  0.00    -0.223 C  
HETATM   12  H   UNL     2     -11.088   8.388  68.154  1.00  0.00     0.000 HD 
HETATM   13  O   UNL     2     -10.780   9.247  67.890  1.00  0.00    -0.242 OA 
BRANCH  11  14
HETATM   14  C   UNL     2     -10.367   9.649  70.254  1.00  0.00    -0.280 C  
HETATM   15  H   UNL     2     -10.871   9.343  72.182  1.00  0.00     0.000 HD 
HETATM   16  O   UNL     2     -11.242   9.685  71.376  1.00  0.00    -0.365 OA 
ENDBRANCH  11  14
ENDBRANCH   2  11
TORSDOF 2
ENDMDL
MODEL       94
REMARK 921   NORMALIZED FREE ENERGY PREDICTED BY IDOCK:   -3.38 KCAL/MOL
REMARK 922        TOTAL FREE ENERGY PREDICTED BY IDOCK:   -3.98 KCAL/MOL
REMARK 923 INTER-LIGAND FREE ENERGY PREDICTED BY IDOCK:   -3.92 KCAL/MOL
REMARK 924 INTRA-LIGAND FREE ENERGY PREDICTED BY IDOCK:   -0.07 KCAL/MOL
REMARK 927      BINDING AFFINITY PREDICTED BY RF-SCORE:    0.00 PKD
ROOT
HETATM    1 NA   UNL     1      -8.950   8.697  68.571  1.00  0.00    -0.128 Na 
HETATM    2  C   UNL     2     -10.998   8.835  71.640  1.00  0.00    -0.321 C  
HETATM    3  O   UNL     2     -10.917   8.641  69.276  1.00  0.00    -0.124 OA 
HETATM    4  O   UNL     2     -11.113   7.891  72.714  1.00  0.00    -0.357 OA 
HETATM    5  H   UNL     2     -10.938   5.672  68.971  1.00  0.00     0.000 HD 
HETATM    6  O   UNL     2     -11.007   5.617  69.917  1.00  0.00    -0.339 OA 
HETATM    7  C   UNL     2     -11.146   6.637  72.195  1.00  0.00    -0.254 C  
HETATM    8  C   UNL     2     -11.039   6.721  70.728  1.00  0.00    -0.276 C  
HETATM    9  O   UNL     2     -11.210   5.589  72.820  1.00  0.00    -0.272 OA 
HETATM   10  C   UNL     2     -10.975   8.004  70.363  1.00  0.00    -0.248 C  
ENDROOT
BRANCH   2  11
HETATM   11  C   UNL     2     -12.081   9.938  71.750  1.00  0.00    -0.301 C  
HETATM   12  H   UNL     2     -12.474  11.685  70.893  1.00  0.00     0.000 HD 
HETATM   13  O   UNL     2     -11.810  11.008  70.825  1.00  0.00    -0.329 OA 
BRANCH  11  14
HETATM   14  C   UNL     2     -13.533   9.466  71.581  1.00  0.00    -0.394 C  
HETATM   15  H   UNL     2     -15.060   8.738  72.679  1.00  0.00     0.000 HD 
HETATM   16  O   UNL     2     -14.161   9.031  72.783  1.00  0.00    -0.572 OA 
ENDBRANCH  11  14
ENDBRANCH   2  11
TORSDOF 2
ENDMDL
MODEL       95
REMARK 921   NORMALIZED FREE ENERGY PREDICTED BY IDOCK:   -3.38 KCAL/MOL
REMARK 922        TOTAL FREE ENERGY PREDICTED BY IDOCK:   -3.98 KCAL/MOL
REMARK 923 INTER-LIGAND FREE ENERGY PREDICTED BY IDOCK:   -3.81 KCAL/MOL
REMARK 924 INTRA-LIGAND FREE ENERGY PREDICTED BY IDOCK:   -0.18 KCAL/MOL
REMARK 927      BINDING AFFINITY PREDICTED BY RF-SCORE:    0.00 PKD
ROOT
HETATM    1 NA   UNL     1     -10.546  10.293  68.248  1.00  0.00    -0.161 Na 
HETATM    2  C   UNL     2     -11.078   8.236  71.267  1.00  0.00    -0.251 C  
HETATM    3  O   UNL     2     -10.192  10.217  70.306  1.00  0.00    -0.247 OA 
HETATM    4  O   UNL     2     -12.291   7.924  71.967  1.00  0.00    -0.299 OA 
HETATM    5  H   UNL     2     -12.459  12.105  70.763  1.00  0.00     0.000 HD 
HETATM    6  O   UNL     2     -12.907  11.394  71.204  1.00  0.00    -0.380 OA 
HETATM    7  C   UNL     2     -13.062   9.039  72.029  1.00  0.00    -0.414 C  
HETATM    8  C   UNL     2     -12.367  10.142  71.344  1.00  0.00    -0.416 C  
HETATM    9  O   UNL     2     -14.173   9.132  72.527  1.00  0.00    -0.512 OA 
HETATM   10  C   UNL     2     -11.182   9.712  70.903  1.00  0.00    -0.352 C  
ENDROOT
BRANCH   2  11
HETATM   11  C   UNL     2      -9.835   7.791  72.080  1.00  0.00    -0.174 C  
HETATM   12  H   UNL     2      -9.453   7.129  73.911  1.00  0.00     0.000 HD 
HETATM   13  O   UNL     2     -10.214   7.401  73.413  1.00  0.00    -0.293 OA 
BRANCH  11  14
HETATM   14  C   UNL     2      -8.983   6.684  71.442  1.00  0.00    -0.139 C  
HETATM   15  H   UNL     2      -9.143   5.192  70.095  1.00  0.00     0.000 HD 
HETATM   16  O   UNL     2      -9.670   5.877  70.490  1.00  0.00    -0.168 OA 
ENDBRANCH  11  14
ENDBRANCH   2  11
TORSDOF 2
ENDMDL
MODEL       96
REMARK 921   NORMALIZED FREE ENERGY PREDICTED BY IDOCK:   -3.38 KCAL/MOL
REMARK 922        TOTAL FREE ENERGY PREDICTED BY IDOCK:   -3.98 KCAL/MOL
REMARK 923 INTER-LIGAND FREE ENERGY PREDICTED BY IDOCK:   -3.79 KCAL/MOL
REMARK 924 INTRA-LIGAND FREE ENERGY PREDICTED BY IDOCK:   -0.18 KCAL/MOL
REMARK 927      BINDING AFFINITY PREDICTED BY RF-SCORE:    0.00 PKD
ROOT
HETATM    1 NA   UNL     1      -6.641  11.830  65.646  1.00  0.00    -0.360 Na 
HETATM    2  C   UNL     2      -9.938  13.374  66.254  1.00  0.00    -0.296 C  
HETATM    3  O   UNL     2      -8.414  11.620  66.731  1.00  0.00    -0.169 OA 
HETATM    4  O   UNL     2     -10.272  14.610  66.903  1.00  0.00    -0.257 OA 
HETATM    5  H   UNL     2      -7.059  12.718  69.153  1.00  0.00     0.000 HD 
HETATM    6  O   UNL     2      -7.641  13.466  69.088  1.00  0.00     0.032 OA 
HETATM    7  C   UNL     2      -9.487  14.754  68.001  1.00  0.00    -0.204 C  
HETATM    8  C   UNL     2      -8.583  13.595  68.102  1.00  0.00    -0.176 C  
HETATM    9  O   UNL     2      -9.479  15.700  68.774  1.00  0.00    -0.193 OA 
HETATM   10  C   UNL     2      -8.838  12.748  67.101  1.00  0.00    -0.202 C  
ENDROOT
BRANCH   2  11
HETATM   11  C   UNL     2     -11.207  12.522  65.993  1.00  0.00    -0.315 C  
HETATM   12  H   UNL     2     -12.832  11.984  66.996  1.00  0.00     0.000 HD 
HETATM   13  O   UNL     2     -12.055  12.507  67.156  1.00  0.00    -0.504 OA 
BRANCH  11  14
HETATM   14  C   UNL     2     -12.032  12.916  64.758  1.00  0.00    -0.396 C  
HETATM   15  H   UNL     2     -13.618  14.054  64.257  1.00  0.00     0.000 HD 
HETATM   16  O   UNL     2     -13.107  13.811  65.021  1.00  0.00    -0.751 OA 
ENDBRANCH  11  14
ENDBRANCH   2  11
TORSDOF 2
ENDMDL
MODEL       97
REMARK 921   NORMALIZED FREE ENERGY PREDICTED BY IDOCK:   -3.37 KCAL/MOL
REMARK 922        TOTAL FREE ENERGY PREDICTED BY IDOCK:   -3.97 KCAL/MOL
REMARK 923 INTER-LIGAND FREE ENERGY PREDICTED BY IDOCK:   -3.75 KCAL/MOL
REMARK 924 INTRA-LIGAND FREE ENERGY PREDICTED BY IDOCK:   -0.21 KCAL/MOL
REMARK 927      BINDING AFFINITY PREDICTED BY RF-SCORE:    0.00 PKD
ROOT
HETATM    1 NA   UNL     1     -13.753  13.647  65.139  1.00  0.00    -0.724 Na 
HETATM    2  C   UNL     2     -10.591  11.851  65.779  1.00  0.00    -0.267 C  
HETATM    3  O   UNL     2     -11.922  13.121  64.280  1.00  0.00    -0.369 OA 
HETATM    4  O   UNL     2      -9.515  12.170  66.672  1.00  0.00    -0.211 OA 
HETATM    5  H   UNL     2     -10.882  15.867  64.821  1.00  0.00     0.000 HD 
HETATM    6  O   UNL     2     -10.271  15.470  65.429  1.00  0.00    -0.356 OA 
HETATM    7  C   UNL     2      -9.282  13.507  66.619  1.00  0.00    -0.210 C  
HETATM    8  C   UNL     2     -10.230  14.123  65.675  1.00  0.00    -0.339 C  
HETATM    9  O   UNL     2      -8.456  14.130  67.268  1.00  0.00    -0.197 OA 
HETATM   10  C   UNL     2     -11.002  13.172  65.141  1.00  0.00    -0.298 C  
ENDROOT
BRANCH   2  11
HETATM   11  C   UNL     2     -10.200  10.693  64.825  1.00  0.00    -0.331 C  
HETATM   12  H   UNL     2      -8.953  10.415  63.307  1.00  0.00     0.000 HD 
HETATM   13  O   UNL     2      -9.192  11.125  63.891  1.00  0.00    -0.190 OA 
BRANCH  11  14
HETATM   14  C   UNL     2      -9.748   9.393  65.506  1.00  0.00    -0.230 C  
HETATM   15  H   UNL     2     -10.410   8.038  66.844  1.00  0.00     0.000 HD 
HETATM   16  O   UNL     2     -10.689   8.842  66.423  1.00  0.00    -0.032 OA 
ENDBRANCH  11  14
ENDBRANCH   2  11
TORSDOF 2
ENDMDL
MODEL       98
REMARK 921   NORMALIZED FREE ENERGY PREDICTED BY IDOCK:   -3.36 KCAL/MOL
REMARK 922        TOTAL FREE ENERGY PREDICTED BY IDOCK:   -3.95 KCAL/MOL
REMARK 923 INTER-LIGAND FREE ENERGY PREDICTED BY IDOCK:   -3.80 KCAL/MOL
REMARK 924 INTRA-LIGAND FREE ENERGY PREDICTED BY IDOCK:   -0.15 KCAL/MOL
REMARK 927      BINDING AFFINITY PREDICTED BY RF-SCORE:    0.00 PKD
ROOT
HETATM    1 NA   UNL     1     -11.767  16.766  71.303  1.00  0.00    -0.453 Na 
HETATM    2  C   UNL     2      -9.256  15.984  68.713  1.00  0.00    -0.224 C  
HETATM    3  O   UNL     2     -11.468  16.664  69.237  1.00  0.00    -0.142 OA 
HETATM    4  O   UNL     2      -8.057  16.684  68.351  1.00  0.00    -0.189 OA 
HETATM    5  H   UNL     2     -11.164  19.632  69.137  1.00  0.00     0.000 HD 
HETATM    6  O   UNL     2     -10.260  19.489  68.886  1.00  0.00    -0.423 OA 
HETATM    7  C   UNL     2      -8.308  18.018  68.360  1.00  0.00    -0.298 C  
HETATM    8  C   UNL     2      -9.711  18.241  68.750  1.00  0.00    -0.330 C  
HETATM    9  O   UNL     2      -7.510  18.913  68.129  1.00  0.00    -0.255 OA 
HETATM   10  C   UNL     2     -10.308  17.062  68.943  1.00  0.00    -0.337 C  
ENDROOT
BRANCH   2  11
HETATM   11  C   UNL     2      -9.587  14.876  67.681  1.00  0.00    -0.200 C  
HETATM   12  H   UNL     2     -10.365  13.050  67.703  1.00  0.00     0.000 HD 
HETATM   13  O   UNL     2     -10.163  13.730  68.336  1.00  0.00    -0.238 OA 
BRANCH  11  14
HETATM   14  C   UNL     2     -10.481  15.303  66.508  1.00  0.00    -0.298 C  
HETATM   15  H   UNL     2     -10.358  16.262  64.739  1.00  0.00     0.000 HD 
HETATM   16  O   UNL     2      -9.804  15.997  65.465  1.00  0.00    -0.411 OA 
ENDBRANCH  11  14
ENDBRANCH   2  11
TORSDOF 2
ENDMDL
MODEL       99
REMARK 921   NORMALIZED FREE ENERGY PREDICTED BY IDOCK:   -3.35 KCAL/MOL
REMARK 922        TOTAL FREE ENERGY PREDICTED BY IDOCK:   -3.95 KCAL/MOL
REMARK 923 INTER-LIGAND FREE ENERGY PREDICTED BY IDOCK:   -3.83 KCAL/MOL
REMARK 924 INTRA-LIGAND FREE ENERGY PREDICTED BY IDOCK:   -0.12 KCAL/MOL
REMARK 927      BINDING AFFINITY PREDICTED BY RF-SCORE:    0.00 PKD
ROOT
HETATM    1 NA   UNL     1      -8.430  12.021  63.253  1.00  0.00    -0.420 Na 
HETATM    2  C   UNL     2     -10.020  13.538  66.220  1.00  0.00    -0.298 C  
HETATM    3  O   UNL     2     -10.206  12.084  64.354  1.00  0.00    -0.278 OA 
HETATM    4  O   UNL     2      -9.745  13.340  67.614  1.00  0.00    -0.209 OA 
HETATM    5  H   UNL     2      -9.507   9.475  65.624  1.00  0.00     0.000 HD 
HETATM    6  O   UNL     2      -9.433   9.943  66.447  1.00  0.00    -0.165 OA 
HETATM    7  C   UNL     2      -9.525  12.019  67.835  1.00  0.00    -0.196 C  
HETATM    8  C   UNL     2      -9.639  11.293  66.559  1.00  0.00    -0.191 C  
HETATM    9  O   UNL     2      -9.236  11.496  68.900  1.00  0.00    -0.113 OA 
HETATM   10  C   UNL     2      -9.954  12.153  65.587  1.00  0.00    -0.249 C  
ENDROOT
BRANCH   2  11
HETATM   11  C   UNL     2     -11.324  14.350  66.018  1.00  0.00    -0.335 C  
HETATM   12  H   UNL     2     -12.455  15.580  67.089  1.00  0.00     0.000 HD 
HETATM   13  O   UNL     2     -11.655  15.083  67.213  1.00  0.00    -0.343 OA 
BRANCH  11  14
HETATM   14  C   UNL     2     -11.339  15.299  64.810  1.00  0.00    -0.391 C  
HETATM   15  H   UNL     2     -10.438  16.978  64.152  1.00  0.00     0.000 HD 
HETATM   16  O   UNL     2     -10.429  16.391  64.899  1.00  0.00    -0.643 OA 
ENDBRANCH  11  14
ENDBRANCH   2  11
TORSDOF 2
ENDMDL
MODEL      100
REMARK 921   NORMALIZED FREE ENERGY PREDICTED BY IDOCK:   -3.35 KCAL/MOL
REMARK 922        TOTAL FREE ENERGY PREDICTED BY IDOCK:   -3.94 KCAL/MOL
REMARK 923 INTER-LIGAND FREE ENERGY PREDICTED BY IDOCK:   -3.92 KCAL/MOL
REMARK 924 INTRA-LIGAND FREE ENERGY PREDICTED BY IDOCK:   -0.02 KCAL/MOL
REMARK 927      BINDING AFFINITY PREDICTED BY RF-SCORE:    0.00 PKD
ROOT
HETATM    1 NA   UNL     1      -9.755  11.942  69.630  1.00  0.00    -0.394 Na 
HETATM    2  C   UNL     2     -10.813  12.447  66.129  1.00  0.00    -0.273 C  
HETATM    3  O   UNL     2      -9.297  12.980  67.875  1.00  0.00    -0.196 OA 
HETATM    4  O   UNL     2     -10.774  11.544  65.015  1.00  0.00    -0.285 OA 
HETATM    5  H   UNL     2      -7.103  11.039  67.303  1.00  0.00     0.000 HD 
HETATM    6  O   UNL     2      -7.605  10.758  66.547  1.00  0.00    -0.126 OA 
HETATM    7  C   UNL     2      -9.602  10.859  65.047  1.00  0.00    -0.251 C  
HETATM    8  C   UNL     2      -8.823  11.293  66.219  1.00  0.00    -0.191 C  
HETATM    9  O   UNL     2      -9.244   9.988  64.269  1.00  0.00    -0.233 OA 
HETATM   10  C   UNL     2      -9.496  12.248  66.868  1.00  0.00    -0.217 C  
ENDROOT
BRANCH   2  11
HETATM   11  C   UNL     2     -11.159  13.886  65.667  1.00  0.00    -0.298 C  
HETATM   12  H   UNL     2     -10.319  15.301  64.558  1.00  0.00     0.000 HD 
HETATM   13  O   UNL     2     -10.107  14.419  64.841  1.00  0.00    -0.379 OA 
BRANCH  11  14
HETATM   14  C   UNL     2     -12.509  14.051  64.954  1.00  0.00    -0.396 C  
HETATM   15  H   UNL     2     -14.209  13.025  64.604  1.00  0.00     0.000 HD 
HETATM   16  O   UNL     2     -13.373  12.923  65.046  1.00  0.00    -0.682 OA 
ENDBRANCH  11  14
ENDBRANCH   2  11
TORSDOF 2
ENDMDL
MODEL      101
REMARK 921   NORMALIZED FREE ENERGY PREDICTED BY IDOCK:   -3.35 KCAL/MOL
REMARK 922        TOTAL FREE ENERGY PREDICTED BY IDOCK:   -3.94 KCAL/MOL
REMARK 923 INTER-LIGAND FREE ENERGY PREDICTED BY IDOCK:   -3.77 KCAL/MOL
REMARK 924 INTRA-LIGAND FREE ENERGY PREDICTED BY IDOCK:   -0.17 KCAL/MOL
REMARK 927      BINDING AFFINITY PREDICTED BY RF-SCORE:    0.00 PKD
ROOT
HETATM    1 NA   UNL     1      -7.899   9.450  69.721  1.00  0.00    -0.067 Na 
HETATM    2  C   UNL     2     -10.903  11.587  69.518  1.00  0.00    -0.064 C  
HETATM    3  O   UNL     2      -9.707   9.706  68.704  1.00  0.00    -0.150 OA 
HETATM    4  O   UNL     2     -11.978  11.757  70.453  1.00  0.00    -0.352 OA 
HETATM    5  H   UNL     2     -10.932   7.531  70.340  1.00  0.00     0.000 HD 
HETATM    6  O   UNL     2     -11.497   8.193  70.720  1.00  0.00    -0.278 OA 
HETATM    7  C   UNL     2     -12.310  10.544  70.965  1.00  0.00    -0.399 C  
HETATM    8  C   UNL     2     -11.433   9.518  70.376  1.00  0.00    -0.242 C  
HETATM    9  O   UNL     2     -13.163  10.317  71.809  1.00  0.00    -0.413 OA 
HETATM   10  C   UNL     2     -10.606  10.093  69.499  1.00  0.00    -0.245 C  
ENDROOT
BRANCH   2  11
HETATM   11  C   UNL     2     -11.232  12.264  68.162  1.00  0.00    -0.269 C  
HETATM   12  H   UNL     2     -12.334  11.860  66.562  1.00  0.00     0.000 HD 
HETATM   13  O   UNL     2     -12.133  11.446  67.393  1.00  0.00    -0.533 OA 
BRANCH  11  14
HETATM   14  C   UNL     2     -11.780  13.696  68.248  1.00  0.00    -0.363 C  
HETATM   15  H   UNL     2     -12.687  15.076  67.092  1.00  0.00     0.000 HD 
HETATM   16  O   UNL     2     -12.348  14.189  67.039  1.00  0.00    -0.396 OA 
ENDBRANCH  11  14
ENDBRANCH   2  11
TORSDOF 2
ENDMDL
MODEL      102
REMARK 921   NORMALIZED FREE ENERGY PREDICTED BY IDOCK:   -3.34 KCAL/MOL
REMARK 922        TOTAL FREE ENERGY PREDICTED BY IDOCK:   -3.93 KCAL/MOL
REMARK 923 INTER-LIGAND FREE ENERGY PREDICTED BY IDOCK:   -3.73 KCAL/MOL
REMARK 924 INTRA-LIGAND FREE ENERGY PREDICTED BY IDOCK:   -0.20 KCAL/MOL
REMARK 927      BINDING AFFINITY PREDICTED BY RF-SCORE:    0.00 PKD
ROOT
HETATM    1 NA   UNL     1      -7.371  10.101  67.315  1.00  0.00    -0.081 Na 
HETATM    2  C   UNL     2     -10.881  10.595  68.349  1.00  0.00    -0.237 C  
HETATM    3  O   UNL     2      -8.622  11.310  68.474  1.00  0.00    -0.149 OA 
HETATM    4  O   UNL     2     -12.018  11.013  67.580  1.00  0.00    -0.583 OA 
HETATM    5  H   UNL     2      -8.589  13.391  66.334  1.00  0.00     0.000 HD 
HETATM    6  O   UNL     2      -9.515  13.218  66.211  1.00  0.00    -0.254 OA 
HETATM    7  C   UNL     2     -11.639  12.014  66.746  1.00  0.00    -0.321 C  
HETATM    8  C   UNL     2     -10.204  12.282  66.937  1.00  0.00    -0.213 C  
HETATM    9  O   UNL     2     -12.342  12.588  65.928  1.00  0.00    -0.626 OA 
HETATM   10  C   UNL     2      -9.728  11.480  67.893  1.00  0.00    -0.183 C  
ENDROOT
BRANCH   2  11
HETATM   11  C   UNL     2     -11.208  10.578  69.864  1.00  0.00    -0.307 C  
HETATM   12  H   UNL     2     -12.829  10.677  71.005  1.00  0.00     0.000 HD 
HETATM   13  O   UNL     2     -12.628  10.687  70.077  1.00  0.00    -0.306 OA 
BRANCH  11  14
HETATM   14  C   UNL     2     -10.659   9.380  70.652  1.00  0.00    -0.290 C  
HETATM   15  H   UNL     2      -9.477   7.768  70.390  1.00  0.00     0.000 HD 
HETATM   16  O   UNL     2      -9.817   8.510  69.902  1.00  0.00    -0.181 OA 
ENDBRANCH  11  14
ENDBRANCH   2  11
TORSDOF 2
ENDMDL
MODEL      103
REMARK 921   NORMALIZED FREE ENERGY PREDICTED BY IDOCK:   -3.33 KCAL/MOL
REMARK 922        TOTAL FREE ENERGY PREDICTED BY IDOCK:   -3.92 KCAL/MOL
REMARK 923 INTER-LIGAND FREE ENERGY PREDICTED BY IDOCK:   -4.27 KCAL/MOL
REMARK 924 INTRA-LIGAND FREE ENERGY PREDICTED BY IDOCK:    0.35 KCAL/MOL
REMARK 927      BINDING AFFINITY PREDICTED BY RF-SCORE:    0.00 PKD
ROOT
HETATM    1 NA   UNL     1     -13.643  13.742  71.039  1.00  0.00    -0.332 Na 
HETATM    2  C   UNL     2     -11.756  14.939  68.101  1.00  0.00    -0.318 C  
HETATM    3  O   UNL     2     -11.750  13.748  70.153  1.00  0.00    -0.279 OA 
HETATM    4  O   UNL     2     -11.853  14.551  66.723  1.00  0.00    -0.392 OA 
HETATM    5  H   UNL     2     -12.205  10.966  69.170  1.00  0.00     0.000 HD 
HETATM    6  O   UNL     2     -12.194  11.321  68.289  1.00  0.00    -0.611 OA 
HETATM    7  C   UNL     2     -12.002  13.204  66.656  1.00  0.00    -0.389 C  
HETATM    8  C   UNL     2     -12.020  12.654  68.022  1.00  0.00    -0.245 C  
HETATM    9  O   UNL     2     -12.143  12.534  65.644  1.00  0.00    -0.480 OA 
HETATM   10  C   UNL     2     -11.853  13.646  68.900  1.00  0.00    -0.364 C  
ENDROOT
BRANCH   2  11
HETATM   11  C   UNL     2     -10.512  15.832  68.341  1.00  0.00    -0.245 C  
HETATM   12  H   UNL     2      -9.105  16.027  69.727  1.00  0.00     0.000 HD 
HETATM   13  O   UNL     2      -9.867  15.479  69.579  1.00  0.00    -0.255 OA 
BRANCH  11  14
HETATM   14  C   UNL     2      -9.476  15.853  67.208  1.00  0.00    -0.212 C  
HETATM   15  H   UNL     2      -7.556  15.348  66.858  1.00  0.00     0.000 HD 
HETATM   16  O   UNL     2      -8.197  15.335  67.560  1.00  0.00    -0.150 OA 
ENDBRANCH  11  14
ENDBRANCH   2  11
TORSDOF 2
ENDMDL
MODEL      104
REMARK 921   NORMALIZED FREE ENERGY PREDICTED BY IDOCK:   -3.29 KCAL/MOL
REMARK 922        TOTAL FREE ENERGY PREDICTED BY IDOCK:   -3.88 KCAL/MOL
REMARK 923 INTER-LIGAND FREE ENERGY PREDICTED BY IDOCK:   -3.71 KCAL/MOL
REMARK 924 INTRA-LIGAND FREE ENERGY PREDICTED BY IDOCK:   -0.17 KCAL/MOL
REMARK 927      BINDING AFFINITY PREDICTED BY RF-SCORE:    0.00 PKD
ROOT
HETATM    1 NA   UNL     1     -10.720  19.330  69.768  1.00  0.00    -0.542 Na 
HETATM    2  C   UNL     2      -7.733  18.209  67.911  1.00  0.00    -0.235 C  
HETATM    3  O   UNL     2     -10.079  18.065  68.232  1.00  0.00    -0.342 OA 
HETATM    4  O   UNL     2      -6.894  18.927  66.994  1.00  0.00    -0.200 OA 
HETATM    5  H   UNL     2     -11.029  20.043  66.209  1.00  0.00     0.000 HD 
HETATM    6  O   UNL     2     -10.120  20.166  65.964  1.00  0.00    -0.460 OA 
HETATM    7  C   UNL     2      -7.677  19.690  66.189  1.00  0.00    -0.321 C  
HETATM    8  C   UNL     2      -9.087  19.501  66.570  1.00  0.00    -0.365 C  
HETATM    9  O   UNL     2      -7.298  20.451  65.312  1.00  0.00    -0.217 OA 
HETATM   10  C   UNL     2      -9.160  18.615  67.567  1.00  0.00    -0.280 C  
ENDROOT
BRANCH   2  11
HETATM   11  C   UNL     2      -7.402  16.695  67.899  1.00  0.00    -0.151 C  
HETATM   12  H   UNL     2      -5.900  15.536  67.317  1.00  0.00     0.000 HD 
HETATM   13  O   UNL     2      -6.102  16.464  67.324  1.00  0.00    -0.151 OA 
BRANCH  11  14
HETATM   14  C   UNL     2      -7.500  15.981  69.256  1.00  0.00    -0.228 C  
HETATM   15  H   UNL     2      -8.669  14.654  70.224  1.00  0.00     0.000 HD 
HETATM   16  O   UNL     2      -8.608  15.096  69.385  1.00  0.00    -0.215 OA 
ENDBRANCH  11  14
ENDBRANCH   2  11
TORSDOF 2
ENDMDL
MODEL      105
REMARK 921   NORMALIZED FREE ENERGY PREDICTED BY IDOCK:   -3.29 KCAL/MOL
REMARK 922        TOTAL FREE ENERGY PREDICTED BY IDOCK:   -3.87 KCAL/MOL
REMARK 923 INTER-LIGAND FREE ENERGY PREDICTED BY IDOCK:   -3.70 KCAL/MOL
REMARK 924 INTRA-LIGAND FREE ENERGY PREDICTED BY IDOCK:   -0.18 KCAL/MOL
REMARK 927      BINDING AFFINITY PREDICTED BY RF-SCORE:    0.00 PKD
ROOT
HETATM    1 NA   UNL     1     -12.700  12.751  71.714  1.00  0.00    -0.302 Na 
HETATM    2  C   UNL     2     -10.789  13.038  68.569  1.00  0.00    -0.258 C  
HETATM    3  O   UNL     2     -12.796  13.476  69.756  1.00  0.00     0.063 OA 
HETATM    4  O   UNL     2      -9.619  13.813  68.269  1.00  0.00    -0.211 OA 
HETATM    5  H   UNL     2     -12.250  16.236  70.753  1.00  0.00     0.000 HD 
HETATM    6  O   UNL     2     -11.424  16.195  70.287  1.00  0.00    -0.346 OA 
HETATM    7  C   UNL     2      -9.743  15.036  68.845  1.00  0.00    -0.224 C  
HETATM    8  C   UNL     2     -11.024  15.098  69.569  1.00  0.00    -0.272 C  
HETATM    9  O   UNL     2      -8.923  15.941  68.820  1.00  0.00    -0.191 OA 
HETATM   10  C   UNL     2     -11.679  13.946  69.408  1.00  0.00    -0.315 C  
ENDROOT
BRANCH   2  11
HETATM   11  C   UNL     2     -11.402  12.434  67.280  1.00  0.00    -0.323 C  
HETATM   12  H   UNL     2     -12.520  10.868  66.794  1.00  0.00     0.000 HD 
HETATM   13  O   UNL     2     -12.144  11.238  67.584  1.00  0.00    -0.600 OA 
BRANCH  11  14
HETATM   14  C   UNL     2     -12.276  13.386  66.448  1.00  0.00    -0.376 C  
HETATM   15  H   UNL     2     -12.106  15.032  65.297  1.00  0.00     0.000 HD 
HETATM   16  O   UNL     2     -11.566  14.443  65.811  1.00  0.00    -0.343 OA 
ENDBRANCH  11  14
ENDBRANCH   2  11
TORSDOF 2
ENDMDL
MODEL      106
REMARK 921   NORMALIZED FREE ENERGY PREDICTED BY IDOCK:   -3.26 KCAL/MOL
REMARK 922        TOTAL FREE ENERGY PREDICTED BY IDOCK:   -3.85 KCAL/MOL
REMARK 923 INTER-LIGAND FREE ENERGY PREDICTED BY IDOCK:   -3.70 KCAL/MOL
REMARK 924 INTRA-LIGAND FREE ENERGY PREDICTED BY IDOCK:   -0.15 KCAL/MOL
REMARK 927      BINDING AFFINITY PREDICTED BY RF-SCORE:    0.00 PKD
ROOT
HETATM    1 NA   UNL     1      -7.833  13.276  66.440  1.00  0.00    -0.375 Na 
HETATM    2  C   UNL     2      -9.490  15.968  68.346  1.00  0.00    -0.207 C  
HETATM    3  O   UNL     2      -9.354  14.706  66.342  1.00  0.00    -0.279 OA 
HETATM    4  O   UNL     2     -10.316  15.894  69.517  1.00  0.00    -0.238 OA 
HETATM    5  H   UNL     2     -11.380  12.584  66.895  1.00  0.00     0.000 HD 
HETATM    6  O   UNL     2     -11.551  13.022  67.721  1.00  0.00    -0.298 OA 
HETATM    7  C   UNL     2     -11.154  14.833  69.397  1.00  0.00    -0.281 C  
HETATM    8  C   UNL     2     -10.889  14.154  68.117  1.00  0.00    -0.248 C  
HETATM    9  O   UNL     2     -11.974  14.454  70.218  1.00  0.00    -0.282 OA 
HETATM   10  C   UNL     2      -9.930  14.810  67.459  1.00  0.00    -0.219 C  
ENDROOT
BRANCH   2  11
HETATM   11  C   UNL     2      -9.525  17.390  67.729  1.00  0.00    -0.261 C  
HETATM   12  H   UNL     2     -10.896  18.759  67.301  1.00  0.00     0.000 HD 
HETATM   13  O   UNL     2     -10.875  17.888  67.680  1.00  0.00    -0.375 OA 
BRANCH  11  14
HETATM   14  C   UNL     2      -8.615  18.430  68.399  1.00  0.00    -0.325 C  
HETATM   15  H   UNL     2      -8.006  20.336  68.156  1.00  0.00     0.000 HD 
HETATM   16  O   UNL     2      -8.569  19.693  67.742  1.00  0.00    -0.308 OA 
ENDBRANCH  11  14
ENDBRANCH   2  11
TORSDOF 2
ENDMDL
MODEL      107
REMARK 921   NORMALIZED FREE ENERGY PREDICTED BY IDOCK:   -3.26 KCAL/MOL
REMARK 922        TOTAL FREE ENERGY PREDICTED BY IDOCK:   -3.84 KCAL/MOL
REMARK 923 INTER-LIGAND FREE ENERGY PREDICTED BY IDOCK:   -3.67 KCAL/MOL
REMARK 924 INTRA-LIGAND FREE ENERGY PREDICTED BY IDOCK:   -0.17 KCAL/MOL
REMARK 927      BINDING AFFINITY PREDICTED BY RF-SCORE:    0.00 PKD
ROOT
HETATM    1 NA   UNL     1     -11.345   5.182  72.224  1.00  0.00    -0.218 Na 
HETATM    2  C   UNL     2     -10.508   8.529  70.909  1.00  0.00    -0.203 C  
HETATM    3  O   UNL     2     -11.576   6.437  70.568  1.00  0.00    -0.369 OA 
HETATM    4  O   UNL     2     -10.963   9.824  71.329  1.00  0.00    -0.351 OA 
HETATM    5  H   UNL     2     -14.351   7.091  71.454  1.00  0.00     0.000 HD 
HETATM    6  O   UNL     2     -14.050   7.979  71.600  1.00  0.00    -0.397 OA 
HETATM    7  C   UNL     2     -12.291   9.756  71.601  1.00  0.00    -0.408 C  
HETATM    8  C   UNL     2     -12.758   8.377  71.375  1.00  0.00    -0.262 C  
HETATM    9  O   UNL     2     -13.000  10.662  72.010  1.00  0.00    -0.461 OA 
HETATM   10  C   UNL     2     -11.738   7.631  70.943  1.00  0.00    -0.271 C  
ENDROOT
BRANCH   2  11
HETATM   11  C   UNL     2      -9.729   8.618  69.572  1.00  0.00    -0.179 C  
HETATM   12  H   UNL     2      -8.337   7.569  68.625  1.00  0.00     0.000 HD 
HETATM   13  O   UNL     2      -8.815   7.514  69.444  1.00  0.00    -0.136 OA 
BRANCH  11  14
HETATM   14  C   UNL     2     -10.591   8.724  68.305  1.00  0.00    -0.142 C  
HETATM   15  H   UNL     2     -11.450  10.121  67.132  1.00  0.00     0.000 HD 
HETATM   16  O   UNL     2     -10.917  10.055  67.916  1.00  0.00    -0.274 OA 
ENDBRANCH  11  14
ENDBRANCH   2  11
TORSDOF 2
ENDMDL
MODEL      108
REMARK 921   NORMALIZED FREE ENERGY PREDICTED BY IDOCK:   -3.21 KCAL/MOL
REMARK 922        TOTAL FREE ENERGY PREDICTED BY IDOCK:   -3.79 KCAL/MOL
REMARK 923 INTER-LIGAND FREE ENERGY PREDICTED BY IDOCK:   -3.61 KCAL/MOL
REMARK 924 INTRA-LIGAND FREE ENERGY PREDICTED BY IDOCK:   -0.18 KCAL/MOL
REMARK 927      BINDING AFFINITY PREDICTED BY RF-SCORE:    0.00 PKD
ROOT
HETATM    1 NA   UNL     1     -12.041   6.596  66.724  1.00  0.00    -0.672 Na 
HETATM    2  C   UNL     2     -11.196   9.922  68.086  1.00  0.00    -0.077 C  
HETATM    3  O   UNL     2     -10.556   7.665  67.734  1.00  0.00    -0.227 OA 
HETATM    4  O   UNL     2     -10.922  11.154  67.404  1.00  0.00    -0.254 OA 
HETATM    5  H   UNL     2      -9.018   7.925  65.189  1.00  0.00     0.000 HD 
HETATM    6  O   UNL     2      -9.180   8.860  65.236  1.00  0.00    -0.189 OA 
HETATM    7  C   UNL     2     -10.151  10.893  66.318  1.00  0.00    -0.233 C  
HETATM    8  C   UNL     2      -9.900   9.443  66.245  1.00  0.00    -0.281 C  
HETATM    9  O   UNL     2      -9.752  11.701  65.494  1.00  0.00    -0.226 OA 
HETATM   10  C   UNL     2     -10.481   8.841  67.286  1.00  0.00    -0.283 C  
ENDROOT
BRANCH   2  11
HETATM   11  C   UNL     2     -10.856  10.032  69.594  1.00  0.00    -0.260 C  
HETATM   12  H   UNL     2      -9.245  10.367  70.704  1.00  0.00     0.000 HD 
HETATM   13  O   UNL     2      -9.453  10.300  69.779  1.00  0.00    -0.191 OA 
BRANCH  11  14
HETATM   14  C   UNL     2     -11.685  11.050  70.392  1.00  0.00    -0.343 C  
HETATM   15  H   UNL     2     -13.461  11.199  71.334  1.00  0.00     0.000 HD 
HETATM   16  O   UNL     2     -12.948  10.569  70.841  1.00  0.00    -0.374 OA 
ENDBRANCH  11  14
ENDBRANCH   2  11
TORSDOF 2
ENDMDL
MODEL      109
REMARK 921   NORMALIZED FREE ENERGY PREDICTED BY IDOCK:   -3.21 KCAL/MOL
REMARK 922        TOTAL FREE ENERGY PREDICTED BY IDOCK:   -3.79 KCAL/MOL
REMARK 923 INTER-LIGAND FREE ENERGY PREDICTED BY IDOCK:   -3.64 KCAL/MOL
REMARK 924 INTRA-LIGAND FREE ENERGY PREDICTED BY IDOCK:   -0.15 KCAL/MOL
REMARK 927      BINDING AFFINITY PREDICTED BY RF-SCORE:    0.00 PKD
ROOT
HETATM    1 NA   UNL     1      -8.399  11.219  64.272  1.00  0.00    -0.327 Na 
HETATM    2  C   UNL     2     -10.433  12.097  67.225  1.00  0.00    -0.218 C  
HETATM    3  O   UNL     2     -10.352  11.235  65.015  1.00  0.00    -0.271 OA 
HETATM    4  O   UNL     2     -10.473  11.497  68.528  1.00  0.00    -0.194 OA 
HETATM    5  H   UNL     2     -10.160   8.310  65.577  1.00  0.00     0.000 HD 
HETATM    6  O   UNL     2     -10.219   8.526  66.499  1.00  0.00    -0.289 OA 
HETATM    7  C   UNL     2     -10.418  10.148  68.392  1.00  0.00    -0.208 C  
HETATM    8  C   UNL     2     -10.326   9.812  66.960  1.00  0.00    -0.239 C  
HETATM    9  O   UNL     2     -10.402   9.323  69.293  1.00  0.00    -0.202 OA 
HETATM   10  C   UNL     2     -10.357  10.936  66.240  1.00  0.00    -0.250 C  
ENDROOT
BRANCH   2  11
HETATM   11  C   UNL     2     -11.593  13.109  67.042  1.00  0.00    -0.359 C  
HETATM   12  H   UNL     2     -12.828  14.135  68.208  1.00  0.00     0.000 HD 
HETATM   13  O   UNL     2     -12.117  13.515  68.320  1.00  0.00    -0.354 OA 
BRANCH  11  14
HETATM   14  C   UNL     2     -11.267  14.352  66.200  1.00  0.00    -0.336 C  
HETATM   15  H   UNL     2     -11.848  15.263  64.499  1.00  0.00     0.000 HD 
HETATM   16  O   UNL     2     -12.050  14.494  65.020  1.00  0.00    -0.391 OA 
ENDBRANCH  11  14
ENDBRANCH   2  11
TORSDOF 2
ENDMDL
MODEL      110
REMARK 921   NORMALIZED FREE ENERGY PREDICTED BY IDOCK:   -3.19 KCAL/MOL
REMARK 922        TOTAL FREE ENERGY PREDICTED BY IDOCK:   -3.77 KCAL/MOL
REMARK 923 INTER-LIGAND FREE ENERGY PREDICTED BY IDOCK:   -3.62 KCAL/MOL
REMARK 924 INTRA-LIGAND FREE ENERGY PREDICTED BY IDOCK:   -0.15 KCAL/MOL
REMARK 927      BINDING AFFINITY PREDICTED BY RF-SCORE:    0.00 PKD
ROOT
HETATM    1 NA   UNL     1     -10.042  10.495  69.931  1.00  0.00    -0.192 Na 
HETATM    2  C   UNL     2     -11.053   7.056  70.814  1.00  0.00    -0.273 C  
HETATM    3  O   UNL     2     -10.083   9.111  71.496  1.00  0.00    -0.319 OA 
HETATM    4  O   UNL     2     -12.363   6.483  70.934  1.00  0.00    -0.290 OA 
HETATM    5  H   UNL     2     -12.471  10.486  72.645  1.00  0.00     0.000 HD 
HETATM    6  O   UNL     2     -12.965   9.699  72.450  1.00  0.00    -0.377 OA 
HETATM    7  C   UNL     2     -13.177   7.375  71.554  1.00  0.00    -0.372 C  
HETATM    8  C   UNL     2     -12.410   8.596  71.856  1.00  0.00    -0.354 C  
HETATM    9  O   UNL     2     -14.365   7.233  71.797  1.00  0.00    -0.427 OA 
HETATM   10  C   UNL     2     -11.146   8.435  71.455  1.00  0.00    -0.266 C  
ENDROOT
BRANCH   2  11
HETATM   11  C   UNL     2      -9.970   6.090  71.359  1.00  0.00    -0.186 C  
HETATM   12  H   UNL     2      -8.060   5.691  71.000  1.00  0.00     0.000 HD 
HETATM   13  O   UNL     2      -8.723   6.284  70.666  1.00  0.00    -0.137 OA 
BRANCH  11  14
HETATM   14  C   UNL     2      -9.731   6.144  72.875  1.00  0.00    -0.158 C  
HETATM   15  H   UNL     2     -10.712   5.824  74.608  1.00  0.00     0.000 HD 
HETATM   16  O   UNL     2     -10.859   5.791  73.669  1.00  0.00    -0.270 OA 
ENDBRANCH  11  14
ENDBRANCH   2  11
TORSDOF 2
ENDMDL
MODEL      111
REMARK 921   NORMALIZED FREE ENERGY PREDICTED BY IDOCK:   -3.16 KCAL/MOL
REMARK 922        TOTAL FREE ENERGY PREDICTED BY IDOCK:   -3.73 KCAL/MOL
REMARK 923 INTER-LIGAND FREE ENERGY PREDICTED BY IDOCK:   -3.54 KCAL/MOL
REMARK 924 INTRA-LIGAND FREE ENERGY PREDICTED BY IDOCK:   -0.19 KCAL/MOL
REMARK 927      BINDING AFFINITY PREDICTED BY RF-SCORE:    0.00 PKD
ROOT
HETATM    1 NA   UNL     1      -5.337  18.779  64.812  1.00  0.00    -0.119 Na 
HETATM    2  C   UNL     2      -8.524  17.934  66.472  1.00  0.00    -0.258 C  
HETATM    3  O   UNL     2      -6.189  18.310  66.662  1.00  0.00    -0.163 OA 
HETATM    4  O   UNL     2      -9.686  18.743  66.702  1.00  0.00    -0.313 OA 
HETATM    5  H   UNL     2      -6.161  21.201  67.404  1.00  0.00     0.000 HD 
HETATM    6  O   UNL     2      -7.110  21.170  67.394  1.00  0.00    -0.434 OA 
HETATM    7  C   UNL     2      -9.288  19.986  67.075  1.00  0.00    -0.386 C  
HETATM    8  C   UNL     2      -7.817  20.036  67.091  1.00  0.00    -0.304 C  
HETATM    9  O   UNL     2     -10.010  20.940  67.323  1.00  0.00    -0.387 OA 
HETATM   10  C   UNL     2      -7.331  18.835  66.764  1.00  0.00    -0.217 C  
ENDROOT
BRANCH   2  11
HETATM   11  C   UNL     2      -8.612  16.597  67.252  1.00  0.00    -0.191 C  
HETATM   12  H   UNL     2      -8.474  16.000  69.140  1.00  0.00     0.000 HD 
HETATM   13  O   UNL     2      -8.420  16.820  68.662  1.00  0.00    -0.239 OA 
BRANCH  11  14
HETATM   14  C   UNL     2      -9.893  15.779  67.029  1.00  0.00    -0.234 C  
HETATM   15  H   UNL     2     -10.650  14.406  65.762  1.00  0.00     0.000 HD 
HETATM   16  O   UNL     2      -9.857  14.912  65.900  1.00  0.00    -0.295 OA 
ENDBRANCH  11  14
ENDBRANCH   2  11
TORSDOF 2
ENDMDL
MODEL      112
REMARK 921   NORMALIZED FREE ENERGY PREDICTED BY IDOCK:   -3.14 KCAL/MOL
REMARK 922        TOTAL FREE ENERGY PREDICTED BY IDOCK:   -3.71 KCAL/MOL
REMARK 923 INTER-LIGAND FREE ENERGY PREDICTED BY IDOCK:   -3.57 KCAL/MOL
REMARK 924 INTRA-LIGAND FREE ENERGY PREDICTED BY IDOCK:   -0.14 KCAL/MOL
REMARK 927      BINDING AFFINITY PREDICTED BY RF-SCORE:    0.00 PKD
ROOT
HETATM    1 NA   UNL     1     -12.524  11.490  69.728  1.00  0.00    -0.258 Na 
HETATM    2  C   UNL     2     -11.560   8.051  70.663  1.00  0.00    -0.196 C  
HETATM    3  O   UNL     2     -11.719  10.338  71.275  1.00  0.00    -0.354 OA 
HETATM    4  O   UNL     2     -12.379   6.897  70.899  1.00  0.00    -0.386 OA 
HETATM    5  H   UNL     2     -14.364  10.351  72.658  1.00  0.00     0.000 HD 
HETATM    6  O   UNL     2     -14.403   9.415  72.501  1.00  0.00    -0.389 OA 
HETATM    7  C   UNL     2     -13.477   7.274  71.602  1.00  0.00    -0.354 C  
HETATM    8  C   UNL     2     -13.417   8.726  71.845  1.00  0.00    -0.404 C  
HETATM    9  O   UNL     2     -14.401   6.557  71.954  1.00  0.00    -0.162 OA 
HETATM   10  C   UNL     2     -12.288   9.214  71.326  1.00  0.00    -0.315 C  
ENDROOT
BRANCH   2  11
HETATM   11  C   UNL     2     -10.094   7.792  71.093  1.00  0.00    -0.187 C  
HETATM   12  H   UNL     2      -8.905   6.223  71.342  1.00  0.00     0.000 HD 
HETATM   13  O   UNL     2      -9.803   6.382  71.078  1.00  0.00    -0.179 OA 
BRANCH  11  14
HETATM   14  C   UNL     2      -9.021   8.548  70.295  1.00  0.00    -0.149 C  
HETATM   15  H   UNL     2      -7.789  10.133  70.478  1.00  0.00     0.000 HD 
HETATM   16  O   UNL     2      -8.452   9.665  70.972  1.00  0.00    -0.234 OA 
ENDBRANCH  11  14
ENDBRANCH   2  11
TORSDOF 2
ENDMDL
MODEL      113
REMARK 921   NORMALIZED FREE ENERGY PREDICTED BY IDOCK:   -3.12 KCAL/MOL
REMARK 922        TOTAL FREE ENERGY PREDICTED BY IDOCK:   -3.69 KCAL/MOL
REMARK 923 INTER-LIGAND FREE ENERGY PREDICTED BY IDOCK:   -3.51 KCAL/MOL
REMARK 924 INTRA-LIGAND FREE ENERGY PREDICTED BY IDOCK:   -0.18 KCAL/MOL
REMARK 927      BINDING AFFINITY PREDICTED BY RF-SCORE:    0.00 PKD
ROOT
HETATM    1 NA   UNL     1     -10.185   6.877  65.910  1.00  0.00    -0.401 Na 
HETATM    2  C   UNL     2     -10.304  10.561  65.712  1.00  0.00    -0.200 C  
HETATM    3  O   UNL     2      -9.049   8.607  66.201  1.00  0.00    -0.174 OA 
HETATM    4  O   UNL     2     -10.406  11.419  64.567  1.00  0.00    -0.270 OA 
HETATM    5  H   UNL     2      -7.695   8.157  63.580  1.00  0.00     0.000 HD 
HETATM    6  O   UNL     2      -8.118   8.950  63.273  1.00  0.00    -0.156 OA 
HETATM    7  C   UNL     2      -9.611  10.931  63.580  1.00  0.00    -0.302 C  
HETATM    8  C   UNL     2      -8.957   9.700  64.055  1.00  0.00    -0.223 C  
HETATM    9  O   UNL     2      -9.475  11.392  62.457  1.00  0.00    -0.287 OA 
HETATM   10  C   UNL     2      -9.323   9.464  65.318  1.00  0.00    -0.238 C  
ENDROOT
BRANCH   2  11
HETATM   11  C   UNL     2      -9.983  11.375  66.991  1.00  0.00    -0.201 C  
HETATM   12  H   UNL     2      -8.601  12.669  67.586  1.00  0.00     0.000 HD 
HETATM   13  O   UNL     2      -8.798  12.171  66.802  1.00  0.00    -0.197 OA 
BRANCH  11  14
HETATM   14  C   UNL     2     -11.121  12.262  67.520  1.00  0.00    -0.275 C  
HETATM   15  H   UNL     2     -12.989  12.102  68.261  1.00  0.00     0.000 HD 
HETATM   16  O   UNL     2     -12.285  11.553  67.934  1.00  0.00    -0.586 OA 
ENDBRANCH  11  14
ENDBRANCH   2  11
TORSDOF 2
ENDMDL
MODEL      114
REMARK 921   NORMALIZED FREE ENERGY PREDICTED BY IDOCK:   -3.12 KCAL/MOL
REMARK 922        TOTAL FREE ENERGY PREDICTED BY IDOCK:   -3.68 KCAL/MOL
REMARK 923 INTER-LIGAND FREE ENERGY PREDICTED BY IDOCK:   -3.54 KCAL/MOL
REMARK 924 INTRA-LIGAND FREE ENERGY PREDICTED BY IDOCK:   -0.15 KCAL/MOL
REMARK 927      BINDING AFFINITY PREDICTED BY RF-SCORE:    0.00 PKD
ROOT
HETATM    1 NA   UNL     1     -13.723   8.783  70.664  1.00  0.00    -0.523 Na 
HETATM    2  C   UNL     2     -11.149   6.278  69.809  1.00  0.00    -0.406 C  
HETATM    3  O   UNL     2     -11.662   8.500  70.465  1.00  0.00    -0.207 OA 
HETATM    4  O   UNL     2     -10.740   5.099  70.517  1.00  0.00    -0.204 OA 
HETATM    5  H   UNL     2     -11.411   8.265  73.430  1.00  0.00     0.000 HD 
HETATM    6  O   UNL     2     -11.158   7.360  73.295  1.00  0.00    -0.365 OA 
HETATM    7  C   UNL     2     -10.685   5.380  71.844  1.00  0.00    -0.211 C  
HETATM    8  C   UNL     2     -11.078   6.784  72.054  1.00  0.00    -0.250 C  
HETATM    9  O   UNL     2     -10.401   4.605  72.744  1.00  0.00    -0.175 OA 
HETATM   10  C   UNL     2     -11.336   7.353  70.873  1.00  0.00    -0.276 C  
ENDROOT
BRANCH   2  11
HETATM   11  C   UNL     2     -10.177   6.593  68.643  1.00  0.00    -0.171 C  
HETATM   12  H   UNL     2      -8.655   5.702  67.734  1.00  0.00     0.000 HD 
HETATM   13  O   UNL     2      -9.251   5.508  68.448  1.00  0.00    -0.110 OA 
BRANCH  11  14
HETATM   14  C   UNL     2     -10.837   6.956  67.305  1.00  0.00    -0.356 C  
HETATM   15  H   UNL     2     -10.597   8.223  65.755  1.00  0.00     0.000 HD 
HETATM   16  O   UNL     2     -10.188   7.998  66.583  1.00  0.00    -0.285 OA 
ENDBRANCH  11  14
ENDBRANCH   2  11
TORSDOF 2
ENDMDL
MODEL      115
REMARK 921   NORMALIZED FREE ENERGY PREDICTED BY IDOCK:   -3.08 KCAL/MOL
REMARK 922        TOTAL FREE ENERGY PREDICTED BY IDOCK:   -3.65 KCAL/MOL
REMARK 923 INTER-LIGAND FREE ENERGY PREDICTED BY IDOCK:   -3.47 KCAL/MOL
REMARK 924 INTRA-LIGAND FREE ENERGY PREDICTED BY IDOCK:   -0.18 KCAL/MOL
REMARK 927      BINDING AFFINITY PREDICTED BY RF-SCORE:    0.00 PKD
ROOT
HETATM    1 NA   UNL     1      -8.838   5.859  69.393  1.00  0.00    -0.111 Na 
HETATM    2  C   UNL     2     -10.010   9.263  70.211  1.00  0.00    -0.219 C  
HETATM    3  O   UNL     2     -10.172   7.358  68.806  1.00  0.00    -0.181 OA 
HETATM    4  O   UNL     2     -10.755   9.734  71.342  1.00  0.00    -0.267 OA 
HETATM    5  H   UNL     2     -12.404   5.888  70.136  1.00  0.00     0.000 HD 
HETATM    6  O   UNL     2     -12.461   6.613  70.746  1.00  0.00    -0.314 OA 
HETATM    7  C   UNL     2     -11.726   8.831  71.635  1.00  0.00    -0.332 C  
HETATM    8  C   UNL     2     -11.637   7.706  70.688  1.00  0.00    -0.232 C  
HETATM    9  O   UNL     2     -12.529   8.894  72.553  1.00  0.00    -0.361 OA 
HETATM   10  C   UNL     2     -10.651   7.938  69.818  1.00  0.00    -0.242 C  
ENDROOT
BRANCH   2  11
HETATM   11  C   UNL     2      -9.909  10.356  69.116  1.00  0.00    -0.223 C  
HETATM   12  H   UNL     2      -8.607  10.907  67.724  1.00  0.00     0.000 HD 
HETATM   13  O   UNL     2      -8.669  10.237  68.394  1.00  0.00    -0.122 OA 
BRANCH  11  14
HETATM   14  C   UNL     2     -11.080  10.417  68.125  1.00  0.00    -0.285 C  
HETATM   15  H   UNL     2     -12.960  11.131  67.994  1.00  0.00     0.000 HD 
HETATM   16  O   UNL     2     -12.235  11.094  68.608  1.00  0.00    -0.582 OA 
ENDBRANCH  11  14
ENDBRANCH   2  11
TORSDOF 2
ENDMDL
MODEL      116
REMARK 921   NORMALIZED FREE ENERGY PREDICTED BY IDOCK:   -3.07 KCAL/MOL
REMARK 922        TOTAL FREE ENERGY PREDICTED BY IDOCK:   -3.64 KCAL/MOL
REMARK 923 INTER-LIGAND FREE ENERGY PREDICTED BY IDOCK:   -3.49 KCAL/MOL
REMARK 924 INTRA-LIGAND FREE ENERGY PREDICTED BY IDOCK:   -0.15 KCAL/MOL
REMARK 927      BINDING AFFINITY PREDICTED BY RF-SCORE:    0.00 PKD
ROOT
HETATM    1 NA   UNL     1     -12.104   6.735  67.170  1.00  0.00    -0.694 Na 
HETATM    2  C   UNL     2     -10.960   8.244  70.339  1.00  0.00    -0.239 C  
HETATM    3  O   UNL     2     -11.478   6.281  69.112  1.00  0.00    -0.394 OA 
HETATM    4  O   UNL     2      -9.741   8.938  70.642  1.00  0.00    -0.182 OA 
HETATM    5  H   UNL     2      -8.776   5.560  68.069  1.00  0.00     0.000 HD 
HETATM    6  O   UNL     2      -8.438   6.306  68.549  1.00  0.00    -0.115 OA 
HETATM    7  C   UNL     2      -8.708   8.294  70.040  1.00  0.00    -0.133 C  
HETATM    8  C   UNL     2      -9.232   7.137  69.295  1.00  0.00    -0.140 C  
HETATM    9  O   UNL     2      -7.532   8.623  70.060  1.00  0.00    -0.053 OA 
HETATM   10  C   UNL     2     -10.555   7.062  69.469  1.00  0.00    -0.234 C  
ENDROOT
BRANCH   2  11
HETATM   11  C   UNL     2     -11.760   7.936  71.630  1.00  0.00    -0.281 C  
HETATM   12  H   UNL     2     -11.608   8.332  73.568  1.00  0.00     0.000 HD 
HETATM   13  O   UNL     2     -11.118   8.522  72.777  1.00  0.00    -0.258 OA 
BRANCH  11  14
HETATM   14  C   UNL     2     -13.243   8.337  71.607  1.00  0.00    -0.328 C  
HETATM   15  H   UNL     2     -14.449   9.833  72.218  1.00  0.00     0.000 HD 
HETATM   16  O   UNL     2     -13.532   9.584  72.232  1.00  0.00    -0.440 OA 
ENDBRANCH  11  14
ENDBRANCH   2  11
TORSDOF 2
ENDMDL
MODEL      117
REMARK 921   NORMALIZED FREE ENERGY PREDICTED BY IDOCK:   -3.07 KCAL/MOL
REMARK 922        TOTAL FREE ENERGY PREDICTED BY IDOCK:   -3.63 KCAL/MOL
REMARK 923 INTER-LIGAND FREE ENERGY PREDICTED BY IDOCK:   -3.50 KCAL/MOL
REMARK 924 INTRA-LIGAND FREE ENERGY PREDICTED BY IDOCK:   -0.14 KCAL/MOL
REMARK 927      BINDING AFFINITY PREDICTED BY RF-SCORE:    0.00 PKD
ROOT
HETATM    1 NA   UNL     1      -8.650  11.639  69.462  1.00  0.00    -0.345 Na 
HETATM    2  C   UNL     2      -9.969  11.694  66.014  1.00  0.00    -0.228 C  
HETATM    3  O   UNL     2     -10.071  10.771  68.198  1.00  0.00    -0.157 OA 
HETATM    4  O   UNL     2     -10.710  12.713  65.327  1.00  0.00    -0.277 OA 
HETATM    5  H   UNL     2     -12.193  12.481  69.415  1.00  0.00     0.000 HD 
HETATM    6  O   UNL     2     -12.271  12.911  68.571  1.00  0.00    -0.203 OA 
HETATM    7  C   UNL     2     -11.626  13.239  66.179  1.00  0.00    -0.348 C  
HETATM    8  C   UNL     2     -11.505  12.574  67.487  1.00  0.00    -0.336 C  
HETATM    9  O   UNL     2     -12.408  14.146  65.940  1.00  0.00    -0.448 OA 
HETATM   10  C   UNL     2     -10.553  11.639  67.420  1.00  0.00    -0.220 C  
ENDROOT
BRANCH   2  11
HETATM   11  C   UNL     2      -9.950  10.375  65.200  1.00  0.00    -0.322 C  
HETATM   12  H   UNL     2     -10.120   9.834  63.299  1.00  0.00     0.000 HD 
HETATM   13  O   UNL     2     -10.131  10.642  63.797  1.00  0.00    -0.330 OA 
BRANCH  11  14
HETATM   14  C   UNL     2      -8.713   9.486  65.401  1.00  0.00    -0.164 C  
HETATM   15  H   UNL     2      -6.759   9.639  65.870  1.00  0.00     0.000 HD 
HETATM   16  O   UNL     2      -7.524  10.189  65.747  1.00  0.00    -0.118 OA 
ENDBRANCH  11  14
ENDBRANCH   2  11
TORSDOF 2
ENDMDL
MODEL      118
REMARK 921   NORMALIZED FREE ENERGY PREDICTED BY IDOCK:   -3.07 KCAL/MOL
REMARK 922        TOTAL FREE ENERGY PREDICTED BY IDOCK:   -3.63 KCAL/MOL
REMARK 923 INTER-LIGAND FREE ENERGY PREDICTED BY IDOCK:   -3.46 KCAL/MOL
REMARK 924 INTRA-LIGAND FREE ENERGY PREDICTED BY IDOCK:   -0.18 KCAL/MOL
REMARK 927      BINDING AFFINITY PREDICTED BY RF-SCORE:    0.00 PKD
ROOT
HETATM    1 NA   UNL     1      -8.229   8.986  72.086  1.00  0.00    -0.140 Na 
HETATM    2  C   UNL     2     -11.857   9.622  71.829  1.00  0.00    -0.320 C  
HETATM    3  O   UNL     2      -9.752   9.481  70.743  1.00  0.00    -0.269 OA 
HETATM    4  O   UNL     2     -12.963   8.721  71.979  1.00  0.00    -0.341 OA 
HETATM    5  H   UNL     2      -9.821   6.656  69.783  1.00  0.00     0.000 HD 
HETATM    6  O   UNL     2     -10.694   6.596  70.152  1.00  0.00    -0.211 OA 
HETATM    7  C   UNL     2     -12.658   7.546  71.372  1.00  0.00    -0.351 C  
HETATM    8  C   UNL     2     -11.304   7.638  70.800  1.00  0.00    -0.281 C  
HETATM    9  O   UNL     2     -13.355   6.544  71.327  1.00  0.00     0.051 OA 
HETATM   10  C   UNL     2     -10.809   8.857  71.029  1.00  0.00    -0.259 C  
ENDROOT
BRANCH   2  11
HETATM   11  C   UNL     2     -12.324  10.988  71.265  1.00  0.00    -0.321 C  
HETATM   12  H   UNL     2     -12.876  11.727  69.508  1.00  0.00     0.000 HD 
HETATM   13  O   UNL     2     -12.591  10.889  69.853  1.00  0.00    -0.289 OA 
BRANCH  11  14
HETATM   14  C   UNL     2     -13.528  11.626  71.974  1.00  0.00    -0.199 C  
HETATM   15  H   UNL     2     -14.057  13.350  72.874  1.00  0.00     0.000 HD 
HETATM   16  O   UNL     2     -13.312  12.956  72.435  1.00  0.00    -0.528 OA 
ENDBRANCH  11  14
ENDBRANCH   2  11
TORSDOF 2
ENDMDL
MODEL      119
REMARK 921   NORMALIZED FREE ENERGY PREDICTED BY IDOCK:   -3.06 KCAL/MOL
REMARK 922        TOTAL FREE ENERGY PREDICTED BY IDOCK:   -3.63 KCAL/MOL
REMARK 923 INTER-LIGAND FREE ENERGY PREDICTED BY IDOCK:   -3.47 KCAL/MOL
REMARK 924 INTRA-LIGAND FREE ENERGY PREDICTED BY IDOCK:   -0.16 KCAL/MOL
REMARK 927      BINDING AFFINITY PREDICTED BY RF-SCORE:    0.00 PKD
ROOT
HETATM    1 NA   UNL     1     -12.938   9.005  70.228  1.00  0.00    -0.496 Na 
HETATM    2  C   UNL     2     -10.481   6.619  71.606  1.00  0.00    -0.207 C  
HETATM    3  O   UNL     2     -12.646   6.992  70.709  1.00  0.00    -0.314 OA 
HETATM    4  O   UNL     2      -9.241   6.153  71.056  1.00  0.00    -0.155 OA 
HETATM    5  H   UNL     2     -12.155   6.378  67.829  1.00  0.00     0.000 HD 
HETATM    6  O   UNL     2     -11.262   6.166  68.070  1.00  0.00    -0.310 OA 
HETATM    7  C   UNL     2      -9.407   5.926  69.728  1.00  0.00    -0.148 C  
HETATM    8  C   UNL     2     -10.793   6.256  69.354  1.00  0.00    -0.340 C  
HETATM    9  O   UNL     2      -8.553   5.551  68.939  1.00  0.00    -0.100 OA 
HETATM   10  C   UNL     2     -11.463   6.645  70.442  1.00  0.00    -0.386 C  
ENDROOT
BRANCH   2  11
HETATM   11  C   UNL     2     -10.882   5.793  72.855  1.00  0.00    -0.261 C  
HETATM   12  H   UNL     2     -10.824   3.893  73.426  1.00  0.00     0.000 HD 
HETATM   13  O   UNL     2     -10.578   4.399  72.660  1.00  0.00    -0.190 OA 
BRANCH  11  14
HETATM   14  C   UNL     2     -10.285   6.269  74.188  1.00  0.00    -0.324 C  
HETATM   15  H   UNL     2      -8.968   7.620  74.898  1.00  0.00     0.000 HD 
HETATM   16  O   UNL     2      -9.337   7.326  74.073  1.00  0.00    -0.238 OA 
ENDBRANCH  11  14
ENDBRANCH   2  11
TORSDOF 2
ENDMDL
MODEL      120
REMARK 921   NORMALIZED FREE ENERGY PREDICTED BY IDOCK:   -3.05 KCAL/MOL
REMARK 922        TOTAL FREE ENERGY PREDICTED BY IDOCK:   -3.62 KCAL/MOL
REMARK 923 INTER-LIGAND FREE ENERGY PREDICTED BY IDOCK:   -3.42 KCAL/MOL
REMARK 924 INTRA-LIGAND FREE ENERGY PREDICTED BY IDOCK:   -0.19 KCAL/MOL
REMARK 927      BINDING AFFINITY PREDICTED BY RF-SCORE:    0.00 PKD
ROOT
HETATM    1 NA   UNL     1     -13.788   7.361  70.333  1.00  0.00    -0.610 Na 
HETATM    2  C   UNL     2     -10.414   7.682  71.797  1.00  0.00    -0.205 C  
HETATM    3  O   UNL     2     -11.859   6.557  70.289  1.00  0.00    -0.413 OA 
HETATM    4  O   UNL     2      -9.443   8.729  71.654  1.00  0.00    -0.244 OA 
HETATM    5  H   UNL     2     -11.294   8.057  67.771  1.00  0.00     0.000 HD 
HETATM    6  O   UNL     2     -10.657   8.559  68.263  1.00  0.00    -0.198 OA 
HETATM    7  C   UNL     2      -9.423   9.135  70.359  1.00  0.00    -0.227 C  
HETATM    8  C   UNL     2     -10.413   8.357  69.596  1.00  0.00    -0.221 C  
HETATM    9  O   UNL     2      -8.738  10.028  69.885  1.00  0.00    -0.197 OA 
HETATM   10  C   UNL     2     -11.000   7.472  70.407  1.00  0.00    -0.251 C  
ENDROOT
BRANCH   2  11
HETATM   11  C   UNL     2      -9.800   6.446  72.504  1.00  0.00    -0.166 C  
HETATM   12  H   UNL     2      -8.122   6.002  73.465  1.00  0.00     0.000 HD 
HETATM   13  O   UNL     2      -8.498   6.759  73.032  1.00  0.00    -0.116 OA 
BRANCH  11  14
HETATM   14  C   UNL     2     -10.664   5.810  73.604  1.00  0.00    -0.251 C  
HETATM   15  H   UNL     2     -12.160   4.476  73.817  1.00  0.00     0.000 HD 
HETATM   16  O   UNL     2     -11.626   4.869  73.136  1.00  0.00    -0.324 OA 
ENDBRANCH  11  14
ENDBRANCH   2  11
TORSDOF 2
ENDMDL
MODEL      121
REMARK 921   NORMALIZED FREE ENERGY PREDICTED BY IDOCK:   -3.05 KCAL/MOL
REMARK 922        TOTAL FREE ENERGY PREDICTED BY IDOCK:   -3.61 KCAL/MOL
REMARK 923 INTER-LIGAND FREE ENERGY PREDICTED BY IDOCK:   -3.95 KCAL/MOL
REMARK 924 INTRA-LIGAND FREE ENERGY PREDICTED BY IDOCK:    0.34 KCAL/MOL
REMARK 927      BINDING AFFINITY PREDICTED BY RF-SCORE:    0.00 PKD
ROOT
HETATM    1 NA   UNL     1     -13.502  11.282  71.254  1.00  0.00    -0.352 Na 
HETATM    2  C   UNL     2     -12.033  12.101  67.967  1.00  0.00    -0.166 C  
HETATM    3  O   UNL     2     -11.829  12.130  70.331  1.00  0.00    -0.311 OA 
HETATM    4  O   UNL     2     -11.543  11.234  66.935  1.00  0.00    -0.464 OA 
HETATM    5  H   UNL     2     -10.305   9.603  70.778  1.00  0.00     0.000 HD 
HETATM    6  O   UNL     2     -10.289   9.495  69.835  1.00  0.00    -0.204 OA 
HETATM    7  C   UNL     2     -10.849  10.217  67.508  1.00  0.00    -0.298 C  
HETATM    8  C   UNL     2     -10.874  10.384  68.972  1.00  0.00    -0.234 C  
HETATM    9  O   UNL     2     -10.317   9.280  66.933  1.00  0.00    -0.249 OA 
HETATM   10  C   UNL     2     -11.542  11.499  69.278  1.00  0.00    -0.322 C  
ENDROOT
BRANCH   2  11
HETATM   11  C   UNL     2     -11.657  13.577  67.679  1.00  0.00    -0.339 C  
HETATM   12  H   UNL     2     -12.150  14.974  66.359  1.00  0.00     0.000 HD 
HETATM   13  O   UNL     2     -12.380  14.070  66.535  1.00  0.00    -0.457 OA 
BRANCH  11  14
HETATM   14  C   UNL     2     -11.828  14.550  68.855  1.00  0.00    -0.324 C  
HETATM   15  H   UNL     2     -10.720  15.716  70.071  1.00  0.00     0.000 HD 
HETATM   16  O   UNL     2     -10.614  15.114  69.343  1.00  0.00    -0.235 OA 
ENDBRANCH  11  14
ENDBRANCH   2  11
TORSDOF 2
ENDMDL
MODEL      122
REMARK 921   NORMALIZED FREE ENERGY PREDICTED BY IDOCK:   -3.03 KCAL/MOL
REMARK 922        TOTAL FREE ENERGY PREDICTED BY IDOCK:   -3.59 KCAL/MOL
REMARK 923 INTER-LIGAND FREE ENERGY PREDICTED BY IDOCK:   -3.52 KCAL/MOL
REMARK 924 INTRA-LIGAND FREE ENERGY PREDICTED BY IDOCK:   -0.07 KCAL/MOL
REMARK 927      BINDING AFFINITY PREDICTED BY RF-SCORE:    0.00 PKD
ROOT
HETATM    1 NA   UNL     1      -7.364  11.352  70.418  1.00  0.00    -0.343 Na 
HETATM    2  C   UNL     2     -10.797  10.724  69.216  1.00  0.00    -0.242 C  
HETATM    3  O   UNL     2      -8.584   9.920  69.507  1.00  0.00    -0.155 OA 
HETATM    4  O   UNL     2     -12.018  10.572  69.954  1.00  0.00    -0.276 OA 
HETATM    5  H   UNL     2      -8.859   8.498  72.116  1.00  0.00     0.000 HD 
HETATM    6  O   UNL     2      -9.779   8.731  72.099  1.00  0.00    -0.307 OA 
HETATM    7  C   UNL     2     -11.773   9.821  71.058  1.00  0.00    -0.370 C  
HETATM    8  C   UNL     2     -10.346   9.459  71.086  1.00  0.00    -0.307 C  
HETATM    9  O   UNL     2     -12.576   9.516  71.927  1.00  0.00    -0.364 OA 
HETATM   10  C   UNL     2      -9.743   9.954  70.002  1.00  0.00    -0.227 C  
ENDROOT
BRANCH   2  11
HETATM   11  C   UNL     2     -10.995  10.342  67.727  1.00  0.00    -0.300 C  
HETATM   12  H   UNL     2     -10.353  10.980  65.961  1.00  0.00     0.000 HD 
HETATM   13  O   UNL     2     -10.232  11.215  66.874  1.00  0.00    -0.207 OA 
BRANCH  11  14
HETATM   14  C   UNL     2     -10.695   8.878  67.370  1.00  0.00    -0.155 C  
HETATM   15  H   UNL     2      -9.671   7.798  66.010  1.00  0.00     0.000 HD 
HETATM   16  O   UNL     2      -9.857   8.703  66.231  1.00  0.00    -0.267 OA 
ENDBRANCH  11  14
ENDBRANCH   2  11
TORSDOF 2
ENDMDL
MODEL      123
REMARK 921   NORMALIZED FREE ENERGY PREDICTED BY IDOCK:   -3.02 KCAL/MOL
REMARK 922        TOTAL FREE ENERGY PREDICTED BY IDOCK:   -3.58 KCAL/MOL
REMARK 923 INTER-LIGAND FREE ENERGY PREDICTED BY IDOCK:   -3.42 KCAL/MOL
REMARK 924 INTRA-LIGAND FREE ENERGY PREDICTED BY IDOCK:   -0.16 KCAL/MOL
REMARK 927      BINDING AFFINITY PREDICTED BY RF-SCORE:    0.00 PKD
ROOT
HETATM    1 NA   UNL     1      -8.827  10.497  70.465  1.00  0.00    -0.332 Na 
HETATM    2  C   UNL     2     -10.723   7.338  70.695  1.00  0.00    -0.235 C  
HETATM    3  O   UNL     2     -10.752   9.688  70.372  1.00  0.00    -0.251 OA 
HETATM    4  O   UNL     2     -10.744   6.209  69.809  1.00  0.00    -0.244 OA 
HETATM    5  H   UNL     2     -10.666   9.830  67.392  1.00  0.00     0.000 HD 
HETATM    6  O   UNL     2     -10.684   8.881  67.388  1.00  0.00    -0.272 OA 
HETATM    7  C   UNL     2     -10.751   6.657  68.528  1.00  0.00    -0.256 C  
HETATM    8  C   UNL     2     -10.722   8.130  68.534  1.00  0.00    -0.014 C  
HETATM    9  O   UNL     2     -10.740   5.974  67.516  1.00  0.00    -0.247 OA 
HETATM   10  C   UNL     2     -10.729   8.567  69.796  1.00  0.00    -0.213 C  
ENDROOT
BRANCH   2  11
HETATM   11  C   UNL     2     -11.844   7.231  71.760  1.00  0.00    -0.295 C  
HETATM   12  H   UNL     2     -12.202   7.949  73.576  1.00  0.00     0.000 HD 
HETATM   13  O   UNL     2     -11.515   8.015  72.923  1.00  0.00    -0.411 OA 
BRANCH  11  14
HETATM   14  C   UNL     2     -13.258   7.591  71.279  1.00  0.00    -0.257 C  
HETATM   15  H   UNL     2     -14.675   8.998  71.557  1.00  0.00     0.000 HD 
HETATM   16  O   UNL     2     -13.800   8.775  71.855  1.00  0.00    -0.396 OA 
ENDBRANCH  11  14
ENDBRANCH   2  11
TORSDOF 2
ENDMDL
MODEL      124
REMARK 921   NORMALIZED FREE ENERGY PREDICTED BY IDOCK:   -3.00 KCAL/MOL
REMARK 922        TOTAL FREE ENERGY PREDICTED BY IDOCK:   -3.56 KCAL/MOL
REMARK 923 INTER-LIGAND FREE ENERGY PREDICTED BY IDOCK:   -3.36 KCAL/MOL
REMARK 924 INTRA-LIGAND FREE ENERGY PREDICTED BY IDOCK:   -0.20 KCAL/MOL
REMARK 927      BINDING AFFINITY PREDICTED BY RF-SCORE:    0.00 PKD
ROOT
HETATM    1 NA   UNL     1      -8.936   6.549  67.054  1.00  0.00    -0.114 Na 
HETATM    2  C   UNL     2      -9.886   9.770  68.588  1.00  0.00    -0.157 C  
HETATM    3  O   UNL     2     -10.555   7.822  67.409  1.00  0.00    -0.274 OA 
HETATM    4  O   UNL     2      -9.916  10.159  69.969  1.00  0.00    -0.240 OA 
HETATM    5  H   UNL     2     -11.421   6.083  69.676  1.00  0.00     0.000 HD 
HETATM    6  O   UNL     2     -11.220   6.809  70.254  1.00  0.00    -0.287 OA 
HETATM    7  C   UNL     2     -10.419   9.134  70.703  1.00  0.00    -0.245 C  
HETATM    8  C   UNL     2     -10.730   8.008  69.806  1.00  0.00    -0.231 C  
HETATM    9  O   UNL     2     -10.561   9.106  71.916  1.00  0.00    -0.348 OA 
HETATM   10  C   UNL     2     -10.451   8.356  68.547  1.00  0.00    -0.164 C  
ENDROOT
BRANCH   2  11
HETATM   11  C   UNL     2     -10.570  10.835  67.694  1.00  0.00    -0.231 C  
HETATM   12  H   UNL     2     -12.366  11.663  67.529  1.00  0.00     0.000 HD 
HETATM   13  O   UNL     2     -11.947  11.011  68.078  1.00  0.00    -0.623 OA 
BRANCH  11  14
HETATM   14  C   UNL     2      -9.873  12.202  67.633  1.00  0.00    -0.194 C  
HETATM   15  H   UNL     2      -9.931  14.009  68.526  1.00  0.00     0.000 HD 
HETATM   16  O   UNL     2     -10.363  13.162  68.564  1.00  0.00    -0.247 OA 
ENDBRANCH  11  14
ENDBRANCH   2  11
TORSDOF 2
ENDMDL
MODEL      125
REMARK 921   NORMALIZED FREE ENERGY PREDICTED BY IDOCK:   -3.00 KCAL/MOL
REMARK 922        TOTAL FREE ENERGY PREDICTED BY IDOCK:   -3.55 KCAL/MOL
REMARK 923 INTER-LIGAND FREE ENERGY PREDICTED BY IDOCK:   -3.35 KCAL/MOL
REMARK 924 INTRA-LIGAND FREE ENERGY PREDICTED BY IDOCK:   -0.20 KCAL/MOL
REMARK 927      BINDING AFFINITY PREDICTED BY RF-SCORE:    0.00 PKD
ROOT
HETATM    1 NA   UNL     1     -14.175  10.610  72.374  1.00  0.00    -0.317 Na 
HETATM    2  C   UNL     2     -12.347  12.463  69.756  1.00  0.00    -0.012 C  
HETATM    3  O   UNL     2     -12.310  11.415  71.885  1.00  0.00     0.006 OA 
HETATM    4  O   UNL     2     -11.962  12.053  68.436  1.00  0.00    -0.377 OA 
HETATM    5  H   UNL     2     -11.335   8.695  71.137  1.00  0.00     0.000 HD 
HETATM    6  O   UNL     2     -11.274   9.009  70.243  1.00  0.00    -0.245 OA 
HETATM    7  C   UNL     2     -11.519  10.771  68.487  1.00  0.00    -0.292 C  
HETATM    8  C   UNL     2     -11.614  10.283  69.873  1.00  0.00    -0.256 C  
HETATM    9  O   UNL     2     -11.138  10.092  67.545  1.00  0.00    -0.298 OA 
HETATM   10  C   UNL     2     -12.076  11.263  70.655  1.00  0.00    -0.383 C  
ENDROOT
BRANCH   2  11
HETATM   11  C   UNL     2     -11.676  13.806  70.141  1.00  0.00    -0.233 C  
HETATM   12  H   UNL     2     -10.464  15.125  69.288  1.00  0.00     0.000 HD 
HETATM   13  O   UNL     2     -10.876  14.302  69.052  1.00  0.00    -0.247 OA 
BRANCH  11  14
HETATM   14  C   UNL     2     -12.626  14.910  70.629  1.00  0.00    -0.363 C  
HETATM   15  H   UNL     2     -14.083  15.206  71.989  1.00  0.00     0.000 HD 
HETATM   16  O   UNL     2     -13.496  14.523  71.688  1.00  0.00    -0.334 OA 
ENDBRANCH  11  14
ENDBRANCH   2  11
TORSDOF 2
ENDMDL
MODEL      126
REMARK 921   NORMALIZED FREE ENERGY PREDICTED BY IDOCK:   -3.00 KCAL/MOL
REMARK 922        TOTAL FREE ENERGY PREDICTED BY IDOCK:   -3.55 KCAL/MOL
REMARK 923 INTER-LIGAND FREE ENERGY PREDICTED BY IDOCK:   -3.47 KCAL/MOL
REMARK 924 INTRA-LIGAND FREE ENERGY PREDICTED BY IDOCK:   -0.08 KCAL/MOL
REMARK 927      BINDING AFFINITY PREDICTED BY RF-SCORE:    0.00 PKD
ROOT
HETATM    1 NA   UNL     1      -7.798  11.822  66.521  1.00  0.00    -0.139 Na 
HETATM    2  C   UNL     2     -10.671  13.395  68.224  1.00  0.00    -0.258 C  
HETATM    3  O   UNL     2      -9.786  12.412  66.255  1.00  0.00    -0.238 OA 
HETATM    4  O   UNL     2     -11.481  12.908  69.304  1.00  0.00    -0.268 OA 
HETATM    5  H   UNL     2     -10.670   9.583  66.612  1.00  0.00     0.000 HD 
HETATM    6  O   UNL     2     -11.099   9.863  67.412  1.00  0.00    -0.234 OA 
HETATM    7  C   UNL     2     -11.730  11.589  69.106  1.00  0.00    -0.329 C  
HETATM    8  C   UNL     2     -11.065  11.155  67.866  1.00  0.00    -0.273 C  
HETATM    9  O   UNL     2     -12.364  10.847  69.841  1.00  0.00    -0.326 OA 
HETATM   10  C   UNL     2     -10.450  12.200  67.305  1.00  0.00    -0.218 C  
ENDROOT
BRANCH   2  11
HETATM   11  C   UNL     2     -11.288  14.670  67.596  1.00  0.00    -0.336 C  
HETATM   12  H   UNL     2     -12.498  16.137  68.166  1.00  0.00     0.000 HD 
HETATM   13  O   UNL     2     -12.120  15.355  68.552  1.00  0.00    -0.249 OA 
BRANCH  11  14
HETATM   14  C   UNL     2     -10.289  15.660  66.979  1.00  0.00    -0.289 C  
HETATM   15  H   UNL     2     -10.036  17.643  66.721  1.00  0.00     0.000 HD 
HETATM   16  O   UNL     2     -10.654  17.031  67.103  1.00  0.00    -0.312 OA 
ENDBRANCH  11  14
ENDBRANCH   2  11
TORSDOF 2
ENDMDL
MODEL      127
REMARK 921   NORMALIZED FREE ENERGY PREDICTED BY IDOCK:   -2.99 KCAL/MOL
REMARK 922        TOTAL FREE ENERGY PREDICTED BY IDOCK:   -3.54 KCAL/MOL
REMARK 923 INTER-LIGAND FREE ENERGY PREDICTED BY IDOCK:   -3.42 KCAL/MOL
REMARK 924 INTRA-LIGAND FREE ENERGY PREDICTED BY IDOCK:   -0.12 KCAL/MOL
REMARK 927      BINDING AFFINITY PREDICTED BY RF-SCORE:    0.00 PKD
ROOT
HETATM    1 NA   UNL     1     -13.555   9.859  71.711  1.00  0.00    -0.328 Na 
HETATM    2  C   UNL     2     -11.108   9.607  68.959  1.00  0.00    -0.070 C  
HETATM    3  O   UNL     2     -11.815  10.717  70.933  1.00  0.00    -0.326 OA 
HETATM    4  O   UNL     2     -10.135   8.589  68.681  1.00  0.00    -0.180 OA 
HETATM    5  H   UNL     2     -10.191   9.276  72.981  1.00  0.00     0.000 HD 
HETATM    6  O   UNL     2      -9.806   8.783  72.267  1.00  0.00    -0.307 OA 
HETATM    7  C   UNL     2      -9.557   8.206  69.847  1.00  0.00    -0.175 C  
HETATM    8  C   UNL     2     -10.155   8.969  70.955  1.00  0.00    -0.282 C  
HETATM    9  O   UNL     2      -8.706   7.341  69.991  1.00  0.00    -0.139 OA 
HETATM   10  C   UNL     2     -11.058   9.824  70.466  1.00  0.00    -0.321 C  
ENDROOT
BRANCH   2  11
HETATM   11  C   UNL     2     -10.891  10.847  68.054  1.00  0.00    -0.245 C  
HETATM   12  H   UNL     2     -12.003  12.294  67.274  1.00  0.00     0.000 HD 
HETATM   13  O   UNL     2     -12.136  11.534  67.829  1.00  0.00    -0.626 OA 
BRANCH  11  14
HETATM   14  C   UNL     2      -9.830  11.847  68.538  1.00  0.00    -0.183 C  
HETATM   15  H   UNL     2      -9.598  13.825  68.851  1.00  0.00     0.000 HD 
HETATM   16  O   UNL     2     -10.255  13.206  68.552  1.00  0.00    -0.239 OA 
ENDBRANCH  11  14
ENDBRANCH   2  11
TORSDOF 2
ENDMDL
MODEL      128
REMARK 921   NORMALIZED FREE ENERGY PREDICTED BY IDOCK:   -2.98 KCAL/MOL
REMARK 922        TOTAL FREE ENERGY PREDICTED BY IDOCK:   -3.53 KCAL/MOL
REMARK 923 INTER-LIGAND FREE ENERGY PREDICTED BY IDOCK:   -3.48 KCAL/MOL
REMARK 924 INTRA-LIGAND FREE ENERGY PREDICTED BY IDOCK:   -0.05 KCAL/MOL
REMARK 927      BINDING AFFINITY PREDICTED BY RF-SCORE:    0.00 PKD
ROOT
HETATM    1 NA   UNL     1      -9.397  12.091  69.085  1.00  0.00    -0.307 Na 
HETATM    2  C   UNL     2      -9.537  14.864  66.652  1.00  0.00    -0.266 C  
HETATM    3  O   UNL     2     -10.168  14.009  68.773  1.00  0.00    -0.231 OA 
HETATM    4  O   UNL     2      -8.500  15.747  66.201  1.00  0.00    -0.291 OA 
HETATM    5  H   UNL     2      -8.007  15.152  70.486  1.00  0.00     0.000 HD 
HETATM    6  O   UNL     2      -7.673  15.579  69.707  1.00  0.00    -0.182 OA 
HETATM    7  C   UNL     2      -7.737  16.106  67.264  1.00  0.00    -0.180 C  
HETATM    8  C   UNL     2      -8.254  15.444  68.473  1.00  0.00    -0.145 C  
HETATM    9  O   UNL     2      -6.750  16.826  67.244  1.00  0.00    -0.142 OA 
HETATM   10  C   UNL     2      -9.331  14.721  68.155  1.00  0.00    -0.197 C  
ENDROOT
BRANCH   2  11
HETATM   11  C   UNL     2     -10.928  15.345  66.167  1.00  0.00    -0.279 C  
HETATM   12  H   UNL     2     -11.678  16.271  64.580  1.00  0.00     0.000 HD 
HETATM   13  O   UNL     2     -10.825  15.976  64.877  1.00  0.00    -0.534 OA 
BRANCH  11  14
HETATM   14  C   UNL     2     -12.029  14.274  66.131  1.00  0.00    -0.407 C  
HETATM   15  H   UNL     2     -12.332  12.389  65.484  1.00  0.00     0.000 HD 
HETATM   16  O   UNL     2     -11.651  13.052  65.506  1.00  0.00    -0.322 OA 
ENDBRANCH  11  14
ENDBRANCH   2  11
TORSDOF 2
ENDMDL
MODEL      129
REMARK 921   NORMALIZED FREE ENERGY PREDICTED BY IDOCK:   -2.93 KCAL/MOL
REMARK 922        TOTAL FREE ENERGY PREDICTED BY IDOCK:   -3.48 KCAL/MOL
REMARK 923 INTER-LIGAND FREE ENERGY PREDICTED BY IDOCK:   -3.38 KCAL/MOL
REMARK 924 INTRA-LIGAND FREE ENERGY PREDICTED BY IDOCK:   -0.09 KCAL/MOL
REMARK 927      BINDING AFFINITY PREDICTED BY RF-SCORE:    0.00 PKD
ROOT
HETATM    1 NA   UNL     1      -8.474  14.452  69.859  1.00  0.00    -0.350 Na 
HETATM    2  C   UNL     2      -8.571  17.410  67.654  1.00  0.00    -0.217 C  
HETATM    3  O   UNL     2      -7.519  15.366  68.241  1.00  0.00    -0.107 OA 
HETATM    4  O   UNL     2      -9.534  17.786  66.658  1.00  0.00    -0.274 OA 
HETATM    5  H   UNL     2      -8.894  13.489  66.372  1.00  0.00     0.000 HD 
HETATM    6  O   UNL     2      -9.359  14.241  66.025  1.00  0.00    -0.228 OA 
HETATM    7  C   UNL     2      -9.898  16.680  65.960  1.00  0.00    -0.309 C  
HETATM    8  C   UNL     2      -9.178  15.514  66.498  1.00  0.00    -0.293 C  
HETATM    9  O   UNL     2     -10.719  16.624  65.058  1.00  0.00    -0.677 OA 
HETATM   10  C   UNL     2      -8.367  15.910  67.482  1.00  0.00    -0.163 C  
ENDROOT
BRANCH   2  11
HETATM   11  C   UNL     2      -7.313  18.312  67.580  1.00  0.00    -0.211 C  
HETATM   12  H   UNL     2      -5.893  18.935  68.819  1.00  0.00     0.000 HD 
HETATM   13  O   UNL     2      -6.664  18.382  68.864  1.00  0.00    -0.243 OA 
BRANCH  11  14
HETATM   14  C   UNL     2      -6.285  17.936  66.503  1.00  0.00    -0.181 C  
HETATM   15  H   UNL     2      -4.500  18.543  65.789  1.00  0.00     0.000 HD 
HETATM   16  O   UNL     2      -5.136  18.776  66.456  1.00  0.00    -0.132 OA 
ENDBRANCH  11  14
ENDBRANCH   2  11
TORSDOF 2
ENDMDL
MODEL      130
REMARK 921   NORMALIZED FREE ENERGY PREDICTED BY IDOCK:   -2.93 KCAL/MOL
REMARK 922        TOTAL FREE ENERGY PREDICTED BY IDOCK:   -3.48 KCAL/MOL
REMARK 923 INTER-LIGAND FREE ENERGY PREDICTED BY IDOCK:   -3.29 KCAL/MOL
REMARK 924 INTRA-LIGAND FREE ENERGY PREDICTED BY IDOCK:   -0.19 KCAL/MOL
REMARK 927      BINDING AFFINITY PREDICTED BY RF-SCORE:    0.00 PKD
ROOT
HETATM    1 NA   UNL     1     -12.275   9.967  68.207  1.00  0.00    -0.520 Na 
HETATM    2  C   UNL     2      -9.321  11.849  67.040  1.00  0.00    -0.188 C  
HETATM    3  O   UNL     2     -10.886  10.108  66.651  1.00  0.00    -0.136 OA 
HETATM    4  O   UNL     2      -9.212  13.209  66.595  1.00  0.00    -0.246 OA 
HETATM    5  H   UNL     2     -12.901  11.548  64.986  1.00  0.00     0.000 HD 
HETATM    6  O   UNL     2     -12.339  12.311  65.040  1.00  0.00    -0.477 OA 
HETATM    7  C   UNL     2     -10.282  13.502  65.814  1.00  0.00    -0.297 C  
HETATM    8  C   UNL     2     -11.155  12.319  65.730  1.00  0.00    -0.323 C  
HETATM    9  O   UNL     2     -10.529  14.577  65.288  1.00  0.00    -0.337 OA 
HETATM   10  C   UNL     2     -10.607  11.316  66.421  1.00  0.00    -0.266 C  
ENDROOT
BRANCH   2  11
HETATM   11  C   UNL     2      -8.016  11.063  66.754  1.00  0.00    -0.152 C  
HETATM   12  H   UNL     2      -7.180  10.140  65.209  1.00  0.00     0.000 HD 
HETATM   13  O   UNL     2      -7.979  10.622  65.384  1.00  0.00    -0.148 OA 
BRANCH  11  14
HETATM   14  C   UNL     2      -6.709  11.794  67.096  1.00  0.00    -0.145 C  
HETATM   15  H   UNL     2      -5.748  12.582  68.683  1.00  0.00     0.000 HD 
HETATM   16  O   UNL     2      -6.557  12.130  68.472  1.00  0.00    -0.055 OA 
ENDBRANCH  11  14
ENDBRANCH   2  11
TORSDOF 2
ENDMDL
MODEL      131
REMARK 921   NORMALIZED FREE ENERGY PREDICTED BY IDOCK:   -2.92 KCAL/MOL
REMARK 922        TOTAL FREE ENERGY PREDICTED BY IDOCK:   -3.47 KCAL/MOL
REMARK 923 INTER-LIGAND FREE ENERGY PREDICTED BY IDOCK:   -3.33 KCAL/MOL
REMARK 924 INTRA-LIGAND FREE ENERGY PREDICTED BY IDOCK:   -0.14 KCAL/MOL
REMARK 927      BINDING AFFINITY PREDICTED BY RF-SCORE:    0.00 PKD
ROOT
HETATM    1 NA   UNL     1      -7.427   6.669  71.666  1.00  0.00    -0.075 Na 
HETATM    2  C   UNL     2     -10.981   6.803  70.676  1.00  0.00    -0.267 C  
HETATM    3  O   UNL     2      -8.930   7.954  70.991  1.00  0.00    -0.139 OA 
HETATM    4  O   UNL     2     -11.641   6.237  69.535  1.00  0.00    -0.423 OA 
HETATM    5  H   UNL     2      -7.801   7.823  68.232  1.00  0.00     0.000 HD 
HETATM    6  O   UNL     2      -8.599   7.379  67.972  1.00  0.00    -0.122 OA 
HETATM    7  C   UNL     2     -10.853   6.407  68.443  1.00  0.00    -0.311 C  
HETATM    8  C   UNL     2      -9.615   7.095  68.846  1.00  0.00    -0.142 C  
HETATM    9  O   UNL     2     -11.087   6.024  67.307  1.00  0.00    -0.303 OA 
HETATM   10  C   UNL     2      -9.666   7.367  70.153  1.00  0.00    -0.175 C  
ENDROOT
BRANCH   2  11
HETATM   11  C   UNL     2     -11.918   7.775  71.437  1.00  0.00    -0.306 C  
HETATM   12  H   UNL     2     -12.469   9.676  71.296  1.00  0.00     0.000 HD 
HETATM   13  O   UNL     2     -11.895   9.081  70.830  1.00  0.00    -0.274 OA 
BRANCH  11  14
HETATM   14  C   UNL     2     -13.372   7.308  71.602  1.00  0.00    -0.358 C  
HETATM   15  H   UNL     2     -15.202   8.057  71.992  1.00  0.00     0.000 HD 
HETATM   16  O   UNL     2     -14.303   8.347  71.890  1.00  0.00    -0.432 OA 
ENDBRANCH  11  14
ENDBRANCH   2  11
TORSDOF 2
ENDMDL
MODEL      132
REMARK 921   NORMALIZED FREE ENERGY PREDICTED BY IDOCK:   -2.92 KCAL/MOL
REMARK 922        TOTAL FREE ENERGY PREDICTED BY IDOCK:   -3.47 KCAL/MOL
REMARK 923 INTER-LIGAND FREE ENERGY PREDICTED BY IDOCK:   -3.30 KCAL/MOL
REMARK 924 INTRA-LIGAND FREE ENERGY PREDICTED BY IDOCK:   -0.17 KCAL/MOL
REMARK 927      BINDING AFFINITY PREDICTED BY RF-SCORE:    0.00 PKD
ROOT
HETATM    1 NA   UNL     1      -7.346   9.861  67.618  1.00  0.00    -0.080 Na 
HETATM    2  C   UNL     2     -10.025  12.400  67.707  1.00  0.00    -0.205 C  
HETATM    3  O   UNL     2      -9.251  10.313  66.886  1.00  0.00    -0.148 OA 
HETATM    4  O   UNL     2     -10.890  12.789  68.783  1.00  0.00    -0.242 OA 
HETATM    5  H   UNL     2     -10.457   8.458  68.889  1.00  0.00     0.000 HD 
HETATM    6  O   UNL     2     -10.854   9.220  69.293  1.00  0.00    -0.221 OA 
HETATM    7  C   UNL     2     -11.289  11.676  69.450  1.00  0.00    -0.278 C  
HETATM    8  C   UNL     2     -10.673  10.494  68.824  1.00  0.00    -0.216 C  
HETATM    9  O   UNL     2     -12.007  11.635  70.437  1.00  0.00    -0.357 OA 
HETATM   10  C   UNL     2      -9.939  10.881  67.776  1.00  0.00    -0.176 C  
ENDROOT
BRANCH   2  11
HETATM   11  C   UNL     2     -10.488  13.025  66.366  1.00  0.00    -0.276 C  
HETATM   12  H   UNL     2     -12.145  13.072  65.276  1.00  0.00     0.000 HD 
HETATM   13  O   UNL     2     -11.862  12.689  66.098  1.00  0.00    -0.394 OA 
BRANCH  11  14
HETATM   14  C   UNL     2     -10.292  14.543  66.235  1.00  0.00    -0.294 C  
HETATM   15  H   UNL     2     -10.429  16.007  64.856  1.00  0.00     0.000 HD 
HETATM   16  O   UNL     2     -10.550  15.067  64.936  1.00  0.00    -0.409 OA 
ENDBRANCH  11  14
ENDBRANCH   2  11
TORSDOF 2
ENDMDL
MODEL      133
REMARK 921   NORMALIZED FREE ENERGY PREDICTED BY IDOCK:   -2.91 KCAL/MOL
REMARK 922        TOTAL FREE ENERGY PREDICTED BY IDOCK:   -3.46 KCAL/MOL
REMARK 923 INTER-LIGAND FREE ENERGY PREDICTED BY IDOCK:   -3.80 KCAL/MOL
REMARK 924 INTRA-LIGAND FREE ENERGY PREDICTED BY IDOCK:    0.35 KCAL/MOL
REMARK 927      BINDING AFFINITY PREDICTED BY RF-SCORE:    0.00 PKD
ROOT
HETATM    1 NA   UNL     1     -11.956   6.471  68.378  1.00  0.00    -0.535 Na 
HETATM    2  C   UNL     2     -11.530   9.751  70.017  1.00  0.00    -0.180 C  
HETATM    3  O   UNL     2     -11.167   7.406  70.071  1.00  0.00    -0.251 OA 
HETATM    4  O   UNL     2     -10.726  10.875  69.633  1.00  0.00    -0.238 OA 
HETATM    5  H   UNL     2      -8.434   7.250  68.880  1.00  0.00     0.000 HD 
HETATM    6  O   UNL     2      -8.445   8.199  68.836  1.00  0.00    -0.127 OA 
HETATM    7  C   UNL     2      -9.526  10.425  69.186  1.00  0.00    -0.208 C  
HETATM    8  C   UNL     2      -9.509   8.954  69.253  1.00  0.00    -0.161 C  
HETATM    9  O   UNL     2      -8.608  11.103  68.752  1.00  0.00    -0.160 OA 
HETATM   10  C   UNL     2     -10.666   8.522  69.762  1.00  0.00    -0.213 C  
ENDROOT
BRANCH   2  11
HETATM   11  C   UNL     2     -12.099   9.935  71.447  1.00  0.00    -0.413 C  
HETATM   12  H   UNL     2     -13.333  11.182  72.374  1.00  0.00     0.000 HD 
HETATM   13  O   UNL     2     -12.985  11.069  71.498  1.00  0.00    -0.422 OA 
BRANCH  11  14
HETATM   14  C   UNL     2     -12.797   8.708  72.051  1.00  0.00    -0.379 C  
HETATM   15  H   UNL     2     -14.482   8.219  73.045  1.00  0.00     0.000 HD 
HETATM   16  O   UNL     2     -14.050   8.979  72.671  1.00  0.00    -0.516 OA 
ENDBRANCH  11  14
ENDBRANCH   2  11
TORSDOF 2
ENDMDL
MODEL      134
REMARK 921   NORMALIZED FREE ENERGY PREDICTED BY IDOCK:   -2.91 KCAL/MOL
REMARK 922        TOTAL FREE ENERGY PREDICTED BY IDOCK:   -3.45 KCAL/MOL
REMARK 923 INTER-LIGAND FREE ENERGY PREDICTED BY IDOCK:   -3.27 KCAL/MOL
REMARK 924 INTRA-LIGAND FREE ENERGY PREDICTED BY IDOCK:   -0.18 KCAL/MOL
REMARK 927      BINDING AFFINITY PREDICTED BY RF-SCORE:    0.00 PKD
ROOT
HETATM    1 NA   UNL     1     -11.223   8.170  68.288  1.00  0.00    -0.393 Na 
HETATM    2  C   UNL     2      -9.858   7.282  71.601  1.00  0.00    -0.165 C  
HETATM    3  O   UNL     2     -11.157   8.772  70.288  1.00  0.00    -0.245 OA 
HETATM    4  O   UNL     2     -10.173   6.178  72.461  1.00  0.00    -0.181 OA 
HETATM    5  H   UNL     2     -13.885   7.640  70.716  1.00  0.00     0.000 HD 
HETATM    6  O   UNL     2     -13.484   7.004  71.296  1.00  0.00    -0.333 OA 
HETATM    7  C   UNL     2     -11.517   5.982  72.450  1.00  0.00    -0.308 C  
HETATM    8  C   UNL     2     -12.138   6.967  71.549  1.00  0.00    -0.353 C  
HETATM    9  O   UNL     2     -12.133   5.111  73.045  1.00  0.00    -0.176 OA 
HETATM   10  C   UNL     2     -11.193   7.767  71.049  1.00  0.00    -0.266 C  
ENDROOT
BRANCH   2  11
HETATM   11  C   UNL     2      -8.970   8.321  72.331  1.00  0.00    -0.228 C  
HETATM   12  H   UNL     2      -8.224   8.577  74.152  1.00  0.00     0.000 HD 
HETATM   13  O   UNL     2      -8.768   7.939  73.705  1.00  0.00    -0.220 OA 
BRANCH  11  14
HETATM   14  C   UNL     2      -7.615   8.620  71.674  1.00  0.00    -0.106 C  
HETATM   15  H   UNL     2      -6.774   9.924  70.387  1.00  0.00     0.000 HD 
HETATM   16  O   UNL     2      -7.613   9.740  70.795  1.00  0.00    -0.300 OA 
ENDBRANCH  11  14
ENDBRANCH   2  11
TORSDOF 2
ENDMDL
MODEL      135
REMARK 921   NORMALIZED FREE ENERGY PREDICTED BY IDOCK:   -2.91 KCAL/MOL
REMARK 922        TOTAL FREE ENERGY PREDICTED BY IDOCK:   -3.45 KCAL/MOL
REMARK 923 INTER-LIGAND FREE ENERGY PREDICTED BY IDOCK:   -3.54 KCAL/MOL
REMARK 924 INTRA-LIGAND FREE ENERGY PREDICTED BY IDOCK:    0.09 KCAL/MOL
REMARK 927      BINDING AFFINITY PREDICTED BY RF-SCORE:    0.00 PKD
ROOT
HETATM    1 NA   UNL     1     -11.152   4.869  69.987  1.00  0.00    -0.251 Na 
HETATM    2  C   UNL     2     -10.986   7.484  72.588  1.00  0.00    -0.336 C  
HETATM    3  O   UNL     2      -9.873   6.253  70.892  1.00  0.00    -0.178 OA 
HETATM    4  O   UNL     2     -11.609   8.775  72.638  1.00  0.00    -0.249 OA 
HETATM    5  H   UNL     2     -10.223   8.092  68.566  1.00  0.00     0.000 HD 
HETATM    6  O   UNL     2     -10.661   8.690  69.159  1.00  0.00    -0.206 OA 
HETATM    7  C   UNL     2     -11.536   9.345  71.408  1.00  0.00    -0.379 C  
HETATM    8  C   UNL     2     -10.857   8.417  70.488  1.00  0.00    -0.232 C  
HETATM    9  O   UNL     2     -11.989  10.430  71.078  1.00  0.00    -0.339 OA 
HETATM   10  C   UNL     2     -10.496   7.318  71.155  1.00  0.00    -0.209 C  
ENDROOT
BRANCH   2  11
HETATM   11  C   UNL     2      -9.939   7.327  73.720  1.00  0.00    -0.322 C  
HETATM   12  H   UNL     2      -9.555   6.040  75.181  1.00  0.00     0.000 HD 
HETATM   13  O   UNL     2     -10.196   6.136  74.487  1.00  0.00    -0.315 OA 
BRANCH  11  14
HETATM   14  C   UNL     2      -8.469   7.346  73.276  1.00  0.00    -0.136 C  
HETATM   15  H   UNL     2      -6.961   8.651  72.975  1.00  0.00     0.000 HD 
HETATM   16  O   UNL     2      -7.871   8.639  73.250  1.00  0.00    -0.391 OA 
ENDBRANCH  11  14
ENDBRANCH   2  11
TORSDOF 2
ENDMDL
MODEL      136
REMARK 921   NORMALIZED FREE ENERGY PREDICTED BY IDOCK:   -2.89 KCAL/MOL
REMARK 922        TOTAL FREE ENERGY PREDICTED BY IDOCK:   -3.43 KCAL/MOL
REMARK 923 INTER-LIGAND FREE ENERGY PREDICTED BY IDOCK:   -3.37 KCAL/MOL
REMARK 924 INTRA-LIGAND FREE ENERGY PREDICTED BY IDOCK:   -0.06 KCAL/MOL
REMARK 927      BINDING AFFINITY PREDICTED BY RF-SCORE:    0.00 PKD
ROOT
HETATM    1 NA   UNL     1      -9.136  13.614  65.200  1.00  0.00    -0.458 Na 
HETATM    2  C   UNL     2     -10.926  11.056  67.170  1.00  0.00    -0.283 C  
HETATM    3  O   UNL     2      -8.906  12.227  66.746  1.00  0.00    -0.202 OA 
HETATM    4  O   UNL     2     -11.982  11.205  68.130  1.00  0.00    -0.615 OA 
HETATM    5  H   UNL     2      -9.121  14.428  68.750  1.00  0.00     0.000 HD 
HETATM    6  O   UNL     2      -9.935  14.032  69.036  1.00  0.00    -0.151 OA 
HETATM    7  C   UNL     2     -11.718  12.284  68.910  1.00  0.00    -0.328 C  
HETATM    8  C   UNL     2     -10.455  12.899  68.467  1.00  0.00    -0.247 C  
HETATM    9  O   UNL     2     -12.416  12.722  69.811  1.00  0.00    -0.076 OA 
HETATM   10  C   UNL     2      -9.947  12.187  67.457  1.00  0.00    -0.197 C  
ENDROOT
BRANCH   2  11
HETATM   11  C   UNL     2     -10.366   9.611  67.177  1.00  0.00    -0.254 C  
HETATM   12  H   UNL     2      -9.157   8.511  66.052  1.00  0.00     0.000 HD 
HETATM   13  O   UNL     2      -9.500   9.397  66.047  1.00  0.00    -0.200 OA 
BRANCH  11  14
HETATM   14  C   UNL     2      -9.648   9.181  68.466  1.00  0.00    -0.148 C  
HETATM   15  H   UNL     2      -9.883   7.917  70.018  1.00  0.00     0.000 HD 
HETATM   16  O   UNL     2     -10.327   8.183  69.221  1.00  0.00    -0.211 OA 
ENDBRANCH  11  14
ENDBRANCH   2  11
TORSDOF 2
ENDMDL
MODEL      137
REMARK 921   NORMALIZED FREE ENERGY PREDICTED BY IDOCK:   -2.86 KCAL/MOL
REMARK 922        TOTAL FREE ENERGY PREDICTED BY IDOCK:   -3.40 KCAL/MOL
REMARK 923 INTER-LIGAND FREE ENERGY PREDICTED BY IDOCK:   -3.20 KCAL/MOL
REMARK 924 INTRA-LIGAND FREE ENERGY PREDICTED BY IDOCK:   -0.21 KCAL/MOL
REMARK 927      BINDING AFFINITY PREDICTED BY RF-SCORE:    0.00 PKD
ROOT
HETATM    1 NA   UNL     1      -8.590  12.650  65.634  1.00  0.00    -0.389 Na 
HETATM    2  C   UNL     2     -10.498  11.154  68.418  1.00  0.00    -0.188 C  
HETATM    3  O   UNL     2     -10.445  11.834  66.146  1.00  0.00    -0.230 OA 
HETATM    4  O   UNL     2     -10.320   9.897  69.087  1.00  0.00    -0.187 OA 
HETATM    5  H   UNL     2      -9.679   9.269  64.826  1.00  0.00     0.000 HD 
HETATM    6  O   UNL     2      -9.699   8.869  65.687  1.00  0.00    -0.210 OA 
HETATM    7  C   UNL     2     -10.032   8.945  68.163  1.00  0.00    -0.176 C  
HETATM    8  C   UNL     2     -10.000   9.566  66.827  1.00  0.00    -0.233 C  
HETATM    9  O   UNL     2      -9.792   7.767  68.378  1.00  0.00    -0.160 OA 
HETATM   10  C   UNL     2     -10.294  10.864  66.936  1.00  0.00    -0.238 C  
ENDROOT
BRANCH   2  11
HETATM   11  C   UNL     2     -11.833  11.822  68.835  1.00  0.00    -0.320 C  
HETATM   12  H   UNL     2     -13.328  11.436  70.082  1.00  0.00     0.000 HD 
HETATM   13  O   UNL     2     -12.510  11.027  69.827  1.00  0.00    -0.293 OA 
BRANCH  11  14
HETATM   14  C   UNL     2     -11.729  13.275  69.321  1.00  0.00    -0.326 C  
HETATM   15  H   UNL     2     -10.664  14.950  68.969  1.00  0.00     0.000 HD 
HETATM   16  O   UNL     2     -10.729  14.051  68.668  1.00  0.00    -0.246 OA 
ENDBRANCH  11  14
ENDBRANCH   2  11
TORSDOF 2
ENDMDL
MODEL      138
REMARK 921   NORMALIZED FREE ENERGY PREDICTED BY IDOCK:   -2.84 KCAL/MOL
REMARK 922        TOTAL FREE ENERGY PREDICTED BY IDOCK:   -3.37 KCAL/MOL
REMARK 923 INTER-LIGAND FREE ENERGY PREDICTED BY IDOCK:   -3.33 KCAL/MOL
REMARK 924 INTRA-LIGAND FREE ENERGY PREDICTED BY IDOCK:   -0.05 KCAL/MOL
REMARK 927      BINDING AFFINITY PREDICTED BY RF-SCORE:    0.00 PKD
ROOT
HETATM    1 NA   UNL     1      -6.813  15.774  68.831  1.00  0.00    -0.104 Na 
HETATM    2  C   UNL     2     -10.104  14.507  67.740  1.00  0.00    -0.225 C  
HETATM    3  O   UNL     2      -8.867  15.920  69.190  1.00  0.00    -0.227 OA 
HETATM    4  O   UNL     2     -10.808  14.714  66.507  1.00  0.00    -0.303 OA 
HETATM    5  H   UNL     2      -8.950  18.480  67.658  1.00  0.00     0.000 HD 
HETATM    6  O   UNL     2      -9.485  18.030  67.016  1.00  0.00    -0.260 OA 
HETATM    7  C   UNL     2     -10.669  16.012  66.135  1.00  0.00    -0.244 C  
HETATM    8  C   UNL     2      -9.838  16.711  67.130  1.00  0.00    -0.257 C  
HETATM    9  O   UNL     2     -11.113  16.534  65.124  1.00  0.00    -0.325 OA 
HETATM   10  C   UNL     2      -9.506  15.860  68.105  1.00  0.00    -0.203 C  
ENDROOT
BRANCH   2  11
HETATM   11  C   UNL     2     -11.013  13.824  68.793  1.00  0.00    -0.264 C  
HETATM   12  H   UNL     2     -12.133  14.384  70.332  1.00  0.00     0.000 HD 
HETATM   13  O   UNL     2     -11.577  14.802  69.687  1.00  0.00    -0.270 OA 
BRANCH  11  14
HETATM   14  C   UNL     2     -12.132  12.934  68.231  1.00  0.00    -0.129 C  
HETATM   15  H   UNL     2     -12.379  11.159  67.307  1.00  0.00     0.000 HD 
HETATM   16  O   UNL     2     -11.687  11.710  67.655  1.00  0.00    -0.513 OA 
ENDBRANCH  11  14
ENDBRANCH   2  11
TORSDOF 2
ENDMDL
MODEL      139
REMARK 921   NORMALIZED FREE ENERGY PREDICTED BY IDOCK:   -2.83 KCAL/MOL
REMARK 922        TOTAL FREE ENERGY PREDICTED BY IDOCK:   -3.37 KCAL/MOL
REMARK 923 INTER-LIGAND FREE ENERGY PREDICTED BY IDOCK:   -3.23 KCAL/MOL
REMARK 924 INTRA-LIGAND FREE ENERGY PREDICTED BY IDOCK:   -0.14 KCAL/MOL
REMARK 927      BINDING AFFINITY PREDICTED BY RF-SCORE:    0.00 PKD
ROOT
HETATM    1 NA   UNL     1      -9.671   7.464  65.753  1.00  0.00    -0.326 Na 
HETATM    2  C   UNL     2      -9.225  10.426  67.911  1.00  0.00    -0.139 C  
HETATM    3  O   UNL     2     -10.704   9.002  66.722  1.00  0.00    -0.186 OA 
HETATM    4  O   UNL     2      -8.812  10.513  69.282  1.00  0.00    -0.166 OA 
HETATM    5  H   UNL     2     -11.493   7.105  68.887  1.00  0.00     0.000 HD 
HETATM    6  O   UNL     2     -10.954   7.619  69.476  1.00  0.00    -0.204 OA 
HETATM    7  C   UNL     2      -9.411   9.519  69.985  1.00  0.00    -0.232 C  
HETATM    8  C   UNL     2     -10.247   8.721  69.072  1.00  0.00    -0.207 C  
HETATM    9  O   UNL     2      -9.266   9.275  71.173  1.00  0.00    -0.238 OA 
HETATM   10  C   UNL     2     -10.181   9.242  67.844  1.00  0.00    -0.214 C  
ENDROOT
BRANCH   2  11
HETATM   11  C   UNL     2      -9.748  11.792  67.399  1.00  0.00    -0.178 C  
HETATM   12  H   UNL     2      -9.784  12.788  65.683  1.00  0.00     0.000 HD 
HETATM   13  O   UNL     2      -9.463  11.951  65.996  1.00  0.00    -0.231 OA 
BRANCH  11  14
HETATM   14  C   UNL     2     -11.235  12.076  67.658  1.00  0.00    -0.282 C  
HETATM   15  H   UNL     2     -12.968  12.289  66.649  1.00  0.00     0.000 HD 
HETATM   16  O   UNL     2     -12.047  12.113  66.488  1.00  0.00    -0.627 OA 
ENDBRANCH  11  14
ENDBRANCH   2  11
TORSDOF 2
ENDMDL
MODEL      140
REMARK 921   NORMALIZED FREE ENERGY PREDICTED BY IDOCK:   -2.82 KCAL/MOL
REMARK 922        TOTAL FREE ENERGY PREDICTED BY IDOCK:   -3.35 KCAL/MOL
REMARK 923 INTER-LIGAND FREE ENERGY PREDICTED BY IDOCK:   -3.25 KCAL/MOL
REMARK 924 INTRA-LIGAND FREE ENERGY PREDICTED BY IDOCK:   -0.10 KCAL/MOL
REMARK 927      BINDING AFFINITY PREDICTED BY RF-SCORE:    0.00 PKD
ROOT
HETATM    1 NA   UNL     1      -8.834  20.167  65.439  1.00  0.00    -0.345 Na 
HETATM    2  C   UNL     2      -7.818  16.747  66.388  1.00  0.00    -0.318 C  
HETATM    3  O   UNL     2      -8.202  18.994  67.049  1.00  0.00    -0.260 OA 
HETATM    4  O   UNL     2      -8.592  15.542  66.457  1.00  0.00    -0.269 OA 
HETATM    5  H   UNL     2     -11.021  18.803  68.013  1.00  0.00     0.000 HD 
HETATM    6  O   UNL     2     -10.980  17.875  67.819  1.00  0.00    -0.307 OA 
HETATM    7  C   UNL     2      -9.804  15.828  66.998  1.00  0.00    -0.234 C  
HETATM    8  C   UNL     2      -9.868  17.269  67.297  1.00  0.00    -0.267 C  
HETATM    9  O   UNL     2     -10.725  15.047  67.179  1.00  0.00    -0.290 OA 
HETATM   10  C   UNL     2      -8.704  17.839  66.973  1.00  0.00    -0.244 C  
ENDROOT
BRANCH   2  11
HETATM   11  C   UNL     2      -6.420  16.549  67.028  1.00  0.00    -0.186 C  
HETATM   12  H   UNL     2      -4.567  17.185  66.707  1.00  0.00     0.000 HD 
HETATM   13  O   UNL     2      -5.424  17.307  66.316  1.00  0.00    -0.240 OA 
BRANCH  11  14
HETATM   14  C   UNL     2      -6.324  16.854  68.530  1.00  0.00    -0.152 C  
HETATM   15  H   UNL     2      -6.362  15.903  70.307  1.00  0.00     0.000 HD 
HETATM   16  O   UNL     2      -6.421  15.714  69.377  1.00  0.00    -0.136 OA 
ENDBRANCH  11  14
ENDBRANCH   2  11
TORSDOF 2
ENDMDL
MODEL      141
REMARK 921   NORMALIZED FREE ENERGY PREDICTED BY IDOCK:   -2.78 KCAL/MOL
REMARK 922        TOTAL FREE ENERGY PREDICTED BY IDOCK:   -3.31 KCAL/MOL
REMARK 923 INTER-LIGAND FREE ENERGY PREDICTED BY IDOCK:   -3.28 KCAL/MOL
REMARK 924 INTRA-LIGAND FREE ENERGY PREDICTED BY IDOCK:   -0.03 KCAL/MOL
REMARK 927      BINDING AFFINITY PREDICTED BY RF-SCORE:    0.00 PKD
ROOT
HETATM    1 NA   UNL     1     -11.151  18.392  68.862  1.00  0.00    -0.309 Na 
HETATM    2  C   UNL     2      -9.084  15.480  67.927  1.00  0.00    -0.175 C  
HETATM    3  O   UNL     2     -10.844  16.968  67.364  1.00  0.00    -0.281 OA 
HETATM    4  O   UNL     2      -7.691  15.409  67.589  1.00  0.00    -0.133 OA 
HETATM    5  H   UNL     2      -9.354  18.989  65.750  1.00  0.00     0.000 HD 
HETATM    6  O   UNL     2      -8.578  18.457  65.878  1.00  0.00    -0.503 OA 
HETATM    7  C   UNL     2      -7.377  16.468  66.800  1.00  0.00    -0.239 C  
HETATM    8  C   UNL     2      -8.581  17.294  66.602  1.00  0.00    -0.257 C  
HETATM    9  O   UNL     2      -6.275  16.741  66.348  1.00  0.00    -0.279 OA 
HETATM   10  C   UNL     2      -9.613  16.728  67.232  1.00  0.00    -0.234 C  
ENDROOT
BRANCH   2  11
HETATM   11  C   UNL     2      -9.800  14.139  67.623  1.00  0.00    -0.229 C  
HETATM   12  H   UNL     2     -10.895  13.372  66.157  1.00  0.00     0.000 HD 
HETATM   13  O   UNL     2     -10.456  14.194  66.343  1.00  0.00    -0.276 OA 
BRANCH  11  14
HETATM   14  C   UNL     2      -8.921  12.882  67.700  1.00  0.00    -0.192 C  
HETATM   15  H   UNL     2      -8.899  10.970  67.062  1.00  0.00     0.000 HD 
HETATM   16  O   UNL     2      -9.443  11.748  67.015  1.00  0.00    -0.180 OA 
ENDBRANCH  11  14
ENDBRANCH   2  11
TORSDOF 2
ENDMDL
MODEL      142
REMARK 921   NORMALIZED FREE ENERGY PREDICTED BY IDOCK:   -2.78 KCAL/MOL
REMARK 922        TOTAL FREE ENERGY PREDICTED BY IDOCK:   -3.31 KCAL/MOL
REMARK 923 INTER-LIGAND FREE ENERGY PREDICTED BY IDOCK:   -3.10 KCAL/MOL
REMARK 924 INTRA-LIGAND FREE ENERGY PREDICTED BY IDOCK:   -0.21 KCAL/MOL
REMARK 927      BINDING AFFINITY PREDICTED BY RF-SCORE:    0.00 PKD
ROOT
HETATM    1 NA   UNL     1     -10.815   8.296  66.056  1.00  0.00    -0.382 Na 
HETATM    2  C   UNL     2     -10.651   8.777  69.713  1.00  0.00    -0.224 C  
HETATM    3  O   UNL     2      -9.652   9.115  67.587  1.00  0.00    -0.144 OA 
HETATM    4  O   UNL     2     -11.464   9.588  70.573  1.00  0.00    -0.262 OA 
HETATM    5  H   UNL     2     -10.694  11.832  66.922  1.00  0.00     0.000 HD 
HETATM    6  O   UNL     2     -11.119  11.831  67.771  1.00  0.00    -0.213 OA 
HETATM    7  C   UNL     2     -11.697  10.778  69.963  1.00  0.00    -0.336 C  
HETATM    8  C   UNL     2     -11.038  10.780  68.646  1.00  0.00    -0.259 C  
HETATM    9  O   UNL     2     -12.374  11.699  70.393  1.00  0.00    -0.321 OA 
HETATM   10  C   UNL     2     -10.390   9.624  68.474  1.00  0.00    -0.205 C  
ENDROOT
BRANCH   2  11
HETATM   11  C   UNL     2      -9.416   8.226  70.470  1.00  0.00    -0.167 C  
HETATM   12  H   UNL     2      -7.762   8.959  71.288  1.00  0.00     0.000 HD 
HETATM   13  O   UNL     2      -8.519   9.296  70.824  1.00  0.00    -0.197 OA 
BRANCH  11  14
HETATM   14  C   UNL     2      -9.720   7.376  71.713  1.00  0.00    -0.153 C  
HETATM   15  H   UNL     2      -9.839   7.555  73.718  1.00  0.00     0.000 HD 
HETATM   16  O   UNL     2      -9.651   8.081  72.949  1.00  0.00    -0.233 OA 
ENDBRANCH  11  14
ENDBRANCH   2  11
TORSDOF 2
ENDMDL
MODEL      143
REMARK 921   NORMALIZED FREE ENERGY PREDICTED BY IDOCK:   -2.77 KCAL/MOL
REMARK 922        TOTAL FREE ENERGY PREDICTED BY IDOCK:   -3.30 KCAL/MOL
REMARK 923 INTER-LIGAND FREE ENERGY PREDICTED BY IDOCK:   -3.14 KCAL/MOL
REMARK 924 INTRA-LIGAND FREE ENERGY PREDICTED BY IDOCK:   -0.16 KCAL/MOL
REMARK 927      BINDING AFFINITY PREDICTED BY RF-SCORE:    0.00 PKD
ROOT
HETATM    1 NA   UNL     1      -6.876  13.805  66.913  1.00  0.00    -0.234 Na 
HETATM    2  C   UNL     2      -9.476  11.233  67.418  1.00  0.00    -0.165 C  
HETATM    3  O   UNL     2      -8.438  13.228  68.175  1.00  0.00    -0.159 OA 
HETATM    4  O   UNL     2     -10.655  10.952  66.650  1.00  0.00    -0.246 OA 
HETATM    5  H   UNL     2     -10.208  15.275  66.915  1.00  0.00     0.000 HD 
HETATM    6  O   UNL     2     -10.729  14.556  66.578  1.00  0.00    -0.302 OA 
HETATM    7  C   UNL     2     -11.233  12.125  66.287  1.00  0.00    -0.334 C  
HETATM    8  C   UNL     2     -10.424  13.240  66.809  1.00  0.00    -0.270 C  
HETATM    9  O   UNL     2     -12.236  12.265  65.605  1.00  0.00    -0.605 OA 
HETATM   10  C   UNL     2      -9.392  12.752  67.502  1.00  0.00    -0.189 C  
ENDROOT
BRANCH   2  11
HETATM   11  C   UNL     2      -9.480  10.446  68.753  1.00  0.00    -0.175 C  
HETATM   12  H   UNL     2     -10.777   9.383  69.814  1.00  0.00     0.000 HD 
HETATM   13  O   UNL     2     -10.775   9.865  68.995  1.00  0.00    -0.210 OA 
BRANCH  11  14
HETATM   14  C   UNL     2      -8.395   9.367  68.895  1.00  0.00    -0.120 C  
HETATM   15  H   UNL     2      -7.891   7.572  68.128  1.00  0.00     0.000 HD 
HETATM   16  O   UNL     2      -8.562   8.240  68.040  1.00  0.00    -0.130 OA 
ENDBRANCH  11  14
ENDBRANCH   2  11
TORSDOF 2
ENDMDL
MODEL      144
REMARK 921   NORMALIZED FREE ENERGY PREDICTED BY IDOCK:   -2.75 KCAL/MOL
REMARK 922        TOTAL FREE ENERGY PREDICTED BY IDOCK:   -3.28 KCAL/MOL
REMARK 923 INTER-LIGAND FREE ENERGY PREDICTED BY IDOCK:   -3.09 KCAL/MOL
REMARK 924 INTRA-LIGAND FREE ENERGY PREDICTED BY IDOCK:   -0.19 KCAL/MOL
REMARK 927      BINDING AFFINITY PREDICTED BY RF-SCORE:    0.00 PKD
ROOT
HETATM    1 NA   UNL     1     -12.468   6.629  69.244  1.00  0.00    -0.619 Na 
HETATM    2  C   UNL     2     -10.962   6.556  72.614  1.00  0.00    -0.255 C  
HETATM    3  O   UNL     2     -11.008   5.688  70.406  1.00  0.00    -0.285 OA 
HETATM    4  O   UNL     2     -10.155   7.535  73.284  1.00  0.00    -0.271 OA 
HETATM    5  H   UNL     2      -8.904   7.368  69.116  1.00  0.00     0.000 HD 
HETATM    6  O   UNL     2      -8.767   7.772  69.964  1.00  0.00    -0.138 OA 
HETATM    7  C   UNL     2      -9.271   8.056  72.396  1.00  0.00    -0.202 C  
HETATM    8  C   UNL     2      -9.484   7.429  71.081  1.00  0.00    -0.155 C  
HETATM    9  O   UNL     2      -8.450   8.934  72.614  1.00  0.00    -0.388 OA 
HETATM   10  C   UNL     2     -10.458   6.521  71.177  1.00  0.00    -0.220 C  
ENDROOT
BRANCH   2  11
HETATM   11  C   UNL     2     -10.977   5.217  73.395  1.00  0.00    -0.320 C  
HETATM   12  H   UNL     2     -12.206   3.675  73.620  1.00  0.00     0.000 HD 
HETATM   13  O   UNL     2     -12.197   4.495  73.141  1.00  0.00    -0.005 OA 
BRANCH  11  14
HETATM   14  C   UNL     2      -9.773   4.293  73.158  1.00  0.00    -0.128 C  
HETATM   15  H   UNL     2      -7.822   4.139  73.645  1.00  0.00     0.000 HD 
HETATM   16  O   UNL     2      -8.568   4.711  73.792  1.00  0.00    -0.104 OA 
ENDBRANCH  11  14
ENDBRANCH   2  11
TORSDOF 2
ENDMDL
MODEL      145
REMARK 921   NORMALIZED FREE ENERGY PREDICTED BY IDOCK:   -2.74 KCAL/MOL
REMARK 922        TOTAL FREE ENERGY PREDICTED BY IDOCK:   -3.26 KCAL/MOL
REMARK 923 INTER-LIGAND FREE ENERGY PREDICTED BY IDOCK:   -3.11 KCAL/MOL
REMARK 924 INTRA-LIGAND FREE ENERGY PREDICTED BY IDOCK:   -0.16 KCAL/MOL
REMARK 927      BINDING AFFINITY PREDICTED BY RF-SCORE:    0.00 PKD
ROOT
HETATM    1 NA   UNL     1      -9.789  12.223  66.133  1.00  0.00    -0.205 Na 
HETATM    2  C   UNL     2      -8.657  15.072  68.189  1.00  0.00    -0.156 C  
HETATM    3  O   UNL     2      -9.861  14.305  66.294  1.00  0.00    -0.284 OA 
HETATM    4  O   UNL     2      -9.031  15.453  69.521  1.00  0.00    -0.263 OA 
HETATM    5  H   UNL     2     -12.613  14.119  67.435  1.00  0.00     0.000 HD 
HETATM    6  O   UNL     2     -12.253  14.455  68.247  1.00  0.00    -0.266 OA 
HETATM    7  C   UNL     2     -10.370  15.285  69.666  1.00  0.00    -0.262 C  
HETATM    8  C   UNL     2     -10.928  14.764  68.407  1.00  0.00    -0.252 C  
HETATM    9  O   UNL     2     -11.026  15.485  70.677  1.00  0.00    -0.317 OA 
HETATM   10  C   UNL     2      -9.950  14.648  67.504  1.00  0.00    -0.223 C  
ENDROOT
BRANCH   2  11
HETATM   11  C   UNL     2      -7.821  16.184  67.506  1.00  0.00    -0.147 C  
HETATM   12  H   UNL     2      -7.698  18.163  67.573  1.00  0.00     0.000 HD 
HETATM   13  O   UNL     2      -8.210  17.482  67.992  1.00  0.00    -0.225 OA 
BRANCH  11  14
HETATM   14  C   UNL     2      -6.296  16.030  67.608  1.00  0.00    -0.162 C  
HETATM   15  H   UNL     2      -4.873  14.608  67.480  1.00  0.00     0.000 HD 
HETATM   16  O   UNL     2      -5.817  14.703  67.416  1.00  0.00    -0.342 OA 
ENDBRANCH  11  14
ENDBRANCH   2  11
TORSDOF 2
ENDMDL
MODEL      146
REMARK 921   NORMALIZED FREE ENERGY PREDICTED BY IDOCK:   -2.73 KCAL/MOL
REMARK 922        TOTAL FREE ENERGY PREDICTED BY IDOCK:   -3.26 KCAL/MOL
REMARK 923 INTER-LIGAND FREE ENERGY PREDICTED BY IDOCK:   -3.11 KCAL/MOL
REMARK 924 INTRA-LIGAND FREE ENERGY PREDICTED BY IDOCK:   -0.14 KCAL/MOL
REMARK 927      BINDING AFFINITY PREDICTED BY RF-SCORE:    0.00 PKD
ROOT
HETATM    1 NA   UNL     1     -10.652  13.523  67.567  1.00  0.00    -0.225 Na 
HETATM    2  C   UNL     2     -10.012   9.969  68.333  1.00  0.00    -0.160 C  
HETATM    3  O   UNL     2     -11.538  11.630  67.599  1.00  0.00    -0.428 OA 
HETATM    4  O   UNL     2      -9.174   9.018  67.660  1.00  0.00    -0.135 OA 
HETATM    5  H   UNL     2     -11.193  11.421  64.642  1.00  0.00     0.000 HD 
HETATM    6  O   UNL     2     -10.582  10.713  64.806  1.00  0.00    -0.291 OA 
HETATM    7  C   UNL     2      -9.312   9.182  66.319  1.00  0.00    -0.216 C  
HETATM    8  C   UNL     2     -10.259  10.281  66.065  1.00  0.00    -0.228 C  
HETATM    9  O   UNL     2      -8.728   8.562  65.444  1.00  0.00    -0.175 OA 
HETATM   10  C   UNL     2     -10.711  10.753  67.230  1.00  0.00    -0.274 C  
ENDROOT
BRANCH   2  11
HETATM   11  C   UNL     2     -10.908   9.272  69.388  1.00  0.00    -0.169 C  
HETATM   12  H   UNL     2     -11.350   7.414  69.926  1.00  0.00     0.000 HD 
HETATM   13  O   UNL     2     -10.801   7.841  69.279  1.00  0.00    -0.188 OA 
BRANCH  11  14
HETATM   14  C   UNL     2     -10.675   9.698  70.846  1.00  0.00    -0.332 C  
HETATM   15  H   UNL     2     -11.048   9.060  72.721  1.00  0.00     0.000 HD 
HETATM   16  O   UNL     2     -11.192   8.797  71.819  1.00  0.00    -0.292 OA 
ENDBRANCH  11  14
ENDBRANCH   2  11
TORSDOF 2
ENDMDL
MODEL      147
REMARK 921   NORMALIZED FREE ENERGY PREDICTED BY IDOCK:   -2.73 KCAL/MOL
REMARK 922        TOTAL FREE ENERGY PREDICTED BY IDOCK:   -3.26 KCAL/MOL
REMARK 923 INTER-LIGAND FREE ENERGY PREDICTED BY IDOCK:   -3.08 KCAL/MOL
REMARK 924 INTRA-LIGAND FREE ENERGY PREDICTED BY IDOCK:   -0.18 KCAL/MOL
REMARK 927      BINDING AFFINITY PREDICTED BY RF-SCORE:    0.00 PKD
ROOT
HETATM    1 NA   UNL     1     -10.216  14.606  67.444  1.00  0.00    -0.224 Na 
HETATM    2  C   UNL     2      -9.719  10.989  66.898  1.00  0.00    -0.188 C  
HETATM    3  O   UNL     2     -11.215  12.829  66.984  1.00  0.00    -0.267 OA 
HETATM    4  O   UNL     2      -9.043  10.302  65.834  1.00  0.00    -0.154 OA 
HETATM    5  H   UNL     2     -11.281  13.614  64.105  1.00  0.00     0.000 HD 
HETATM    6  O   UNL     2     -10.702  12.880  63.935  1.00  0.00    -0.406 OA 
HETATM    7  C   UNL     2      -9.348  10.908  64.658  1.00  0.00    -0.223 C  
HETATM    8  C   UNL     2     -10.245  12.046  64.921  1.00  0.00    -0.270 C  
HETATM    9  O   UNL     2      -8.928  10.606  63.551  1.00  0.00    -0.186 OA 
HETATM   10  C   UNL     2     -10.505  12.110  66.229  1.00  0.00    -0.239 C  
ENDROOT
BRANCH   2  11
HETATM   11  C   UNL     2     -10.511   9.997  67.787  1.00  0.00    -0.234 C  
HETATM   12  H   UNL     2     -10.525   8.043  68.133  1.00  0.00     0.000 HD 
HETATM   13  O   UNL     2     -10.039   8.651  67.589  1.00  0.00    -0.185 OA 
BRANCH  11  14
HETATM   14  C   UNL     2     -10.534  10.320  69.288  1.00  0.00    -0.228 C  
HETATM   15  H   UNL     2     -11.743  11.146  70.674  1.00  0.00     0.000 HD 
HETATM   16  O   UNL     2     -11.729  10.947  69.744  1.00  0.00    -0.278 OA 
ENDBRANCH  11  14
ENDBRANCH   2  11
TORSDOF 2
ENDMDL
MODEL      148
REMARK 921   NORMALIZED FREE ENERGY PREDICTED BY IDOCK:   -2.73 KCAL/MOL
REMARK 922        TOTAL FREE ENERGY PREDICTED BY IDOCK:   -3.26 KCAL/MOL
REMARK 923 INTER-LIGAND FREE ENERGY PREDICTED BY IDOCK:   -3.06 KCAL/MOL
REMARK 924 INTRA-LIGAND FREE ENERGY PREDICTED BY IDOCK:   -0.19 KCAL/MOL
REMARK 927      BINDING AFFINITY PREDICTED BY RF-SCORE:    0.00 PKD
ROOT
HETATM    1 NA   UNL     1      -9.308   3.302  71.927  1.00  0.00    -0.089 Na 
HETATM    2  C   UNL     2     -11.014   6.311  70.638  1.00  0.00    -0.309 C  
HETATM    3  O   UNL     2      -8.995   5.285  71.346  1.00  0.00    -0.138 OA 
HETATM    4  O   UNL     2     -11.614   6.553  69.357  1.00  0.00    -0.339 OA 
HETATM    5  H   UNL     2      -7.914   4.344  68.728  1.00  0.00     0.000 HD 
HETATM    6  O   UNL     2      -8.669   4.749  68.318  1.00  0.00    -0.100 OA 
HETATM    7  C   UNL     2     -10.816   6.028  68.392  1.00  0.00    -0.281 C  
HETATM    8  C   UNL     2      -9.645   5.400  69.027  1.00  0.00    -0.141 C  
HETATM    9  O   UNL     2     -11.029   6.025  67.190  1.00  0.00    -0.313 OA 
HETATM   10  C   UNL     2      -9.715   5.568  70.350  1.00  0.00    -0.183 C  
ENDROOT
BRANCH   2  11
HETATM   11  C   UNL     2     -10.917   7.620  71.463  1.00  0.00    -0.233 C  
HETATM   12  H   UNL     2     -11.546   9.495  71.300  1.00  0.00     0.000 HD 
HETATM   13  O   UNL     2     -11.606   8.693  70.794  1.00  0.00    -0.278 OA 
BRANCH  11  14
HETATM   14  C   UNL     2     -11.397   7.527  72.919  1.00  0.00    -0.304 C  
HETATM   15  H   UNL     2     -10.669   7.190  74.768  1.00  0.00     0.000 HD 
HETATM   16  O   UNL     2     -10.372   7.248  73.867  1.00  0.00    -0.352 OA 
ENDBRANCH  11  14
ENDBRANCH   2  11
TORSDOF 2
ENDMDL
MODEL      149
REMARK 921   NORMALIZED FREE ENERGY PREDICTED BY IDOCK:   -2.71 KCAL/MOL
REMARK 922        TOTAL FREE ENERGY PREDICTED BY IDOCK:   -3.23 KCAL/MOL
REMARK 923 INTER-LIGAND FREE ENERGY PREDICTED BY IDOCK:   -3.26 KCAL/MOL
REMARK 924 INTRA-LIGAND FREE ENERGY PREDICTED BY IDOCK:    0.03 KCAL/MOL
REMARK 927      BINDING AFFINITY PREDICTED BY RF-SCORE:    0.00 PKD
ROOT
HETATM    1 NA   UNL     1      -8.209  19.952  69.882  1.00  0.00    -0.310 Na 
HETATM    2  C   UNL     2      -7.799  16.949  67.774  1.00  0.00    -0.178 C  
HETATM    3  O   UNL     2      -6.957  19.057  68.467  1.00  0.00    -0.253 OA 
HETATM    4  O   UNL     2      -7.520  15.592  68.148  1.00  0.00    -0.118 OA 
HETATM    5  H   UNL     2      -5.102  18.213  70.648  1.00  0.00     0.000 HD 
HETATM    6  O   UNL     2      -5.335  17.316  70.441  1.00  0.00    -0.225 OA 
HETATM    7  C   UNL     2      -6.588  15.592  69.135  1.00  0.00    -0.136 C  
HETATM    8  C   UNL     2      -6.228  16.983  69.456  1.00  0.00    -0.237 C  
HETATM    9  O   UNL     2      -6.136  14.615  69.712  1.00  0.00    -0.111 OA 
HETATM   10  C   UNL     2      -6.904  17.811  68.656  1.00  0.00    -0.242 C  
ENDROOT
BRANCH   2  11
HETATM   11  C   UNL     2      -7.681  17.140  66.240  1.00  0.00    -0.315 C  
HETATM   12  H   UNL     2      -8.746  17.978  64.790  1.00  0.00     0.000 HD 
HETATM   13  O   UNL     2      -8.818  17.862  65.730  1.00  0.00    -0.495 OA 
BRANCH  11  14
HETATM   14  C   UNL     2      -6.386  17.804  65.748  1.00  0.00    -0.179 C  
HETATM   15  H   UNL     2      -5.776  19.406  64.687  1.00  0.00     0.000 HD 
HETATM   16  O   UNL     2      -6.577  18.995  64.992  1.00  0.00    -0.462 OA 
ENDBRANCH  11  14
ENDBRANCH   2  11
TORSDOF 2
ENDMDL
MODEL      150
REMARK 921   NORMALIZED FREE ENERGY PREDICTED BY IDOCK:   -2.69 KCAL/MOL
REMARK 922        TOTAL FREE ENERGY PREDICTED BY IDOCK:   -3.21 KCAL/MOL
REMARK 923 INTER-LIGAND FREE ENERGY PREDICTED BY IDOCK:   -3.03 KCAL/MOL
REMARK 924 INTRA-LIGAND FREE ENERGY PREDICTED BY IDOCK:   -0.18 KCAL/MOL
REMARK 927      BINDING AFFINITY PREDICTED BY RF-SCORE:    0.00 PKD
ROOT
HETATM    1 NA   UNL     1     -13.083  13.505  65.820  1.00  0.00    -0.427 Na 
HETATM    2  C   UNL     2      -9.740  12.935  67.279  1.00  0.00    -0.220 C  
HETATM    3  O   UNL     2     -11.037  13.555  65.392  1.00  0.00    -0.289 OA 
HETATM    4  O   UNL     2      -9.040  13.670  68.293  1.00  0.00    -0.191 OA 
HETATM    5  H   UNL     2     -11.050  16.525  65.691  1.00  0.00     0.000 HD 
HETATM    6  O   UNL     2     -10.495  16.409  66.452  1.00  0.00    -0.305 OA 
HETATM    7  C   UNL     2      -9.229  14.998  68.082  1.00  0.00    -0.183 C  
HETATM    8  C   UNL     2     -10.091  15.179  66.901  1.00  0.00    -0.255 C  
HETATM    9  O   UNL     2      -8.802  15.914  68.767  1.00  0.00    -0.187 OA 
HETATM   10  C   UNL     2     -10.392  13.984  66.387  1.00  0.00    -0.289 C  
ENDROOT
BRANCH   2  11
HETATM   11  C   UNL     2      -8.808  11.901  66.597  1.00  0.00    -0.191 C  
HETATM   12  H   UNL     2      -6.860  11.537  66.499  1.00  0.00     0.000 HD 
HETATM   13  O   UNL     2      -7.431  12.171  66.918  1.00  0.00    -0.117 OA 
BRANCH  11  14
HETATM   14  C   UNL     2      -9.126  10.426  66.885  1.00  0.00    -0.143 C  
HETATM   15  H   UNL     2     -10.709   9.189  67.052  1.00  0.00     0.000 HD 
HETATM   16  O   UNL     2     -10.513  10.102  66.873  1.00  0.00    -0.233 OA 
ENDBRANCH  11  14
ENDBRANCH   2  11
TORSDOF 2
ENDMDL
MODEL      151
REMARK 921   NORMALIZED FREE ENERGY PREDICTED BY IDOCK:   -2.68 KCAL/MOL
REMARK 922        TOTAL FREE ENERGY PREDICTED BY IDOCK:   -3.19 KCAL/MOL
REMARK 923 INTER-LIGAND FREE ENERGY PREDICTED BY IDOCK:   -3.13 KCAL/MOL
REMARK 924 INTRA-LIGAND FREE ENERGY PREDICTED BY IDOCK:   -0.06 KCAL/MOL
REMARK 927      BINDING AFFINITY PREDICTED BY RF-SCORE:    0.00 PKD
ROOT
HETATM    1 NA   UNL     1     -12.325   7.532  69.847  1.00  0.00    -0.484 Na 
HETATM    2  C   UNL     2     -10.759   9.667  67.274  1.00  0.00    -0.214 C  
HETATM    3  O   UNL     2     -10.876   9.009  69.551  1.00  0.00    -0.229 OA 
HETATM    4  O   UNL     2      -9.906   9.311  66.176  1.00  0.00    -0.261 OA 
HETATM    5  H   UNL     2      -8.740   6.926  69.628  1.00  0.00     0.000 HD 
HETATM    6  O   UNL     2      -8.573   7.123  68.714  1.00  0.00    -0.125 OA 
HETATM    7  C   UNL     2      -9.021   8.371  66.595  1.00  0.00    -0.151 C  
HETATM    8  C   UNL     2      -9.280   8.064  68.012  1.00  0.00    -0.135 C  
HETATM    9  O   UNL     2      -8.166   7.820  65.918  1.00  0.00    -0.113 OA 
HETATM   10  C   UNL     2     -10.283   8.827  68.453  1.00  0.00    -0.196 C  
ENDROOT
BRANCH   2  11
HETATM   11  C   UNL     2     -10.805  11.204  67.468  1.00  0.00    -0.254 C  
HETATM   12  H   UNL     2     -12.150  12.566  67.992  1.00  0.00     0.000 HD 
HETATM   13  O   UNL     2     -12.122  11.624  67.873  1.00  0.00    -0.613 OA 
BRANCH  11  14
HETATM   14  C   UNL     2      -9.759  11.786  68.430  1.00  0.00    -0.197 C  
HETATM   15  H   UNL     2      -8.141  12.988  68.411  1.00  0.00     0.000 HD 
HETATM   16  O   UNL     2      -8.788  12.628  67.816  1.00  0.00    -0.161 OA 
ENDBRANCH  11  14
ENDBRANCH   2  11
TORSDOF 2
ENDMDL
MODEL      152
REMARK 921   NORMALIZED FREE ENERGY PREDICTED BY IDOCK:   -2.66 KCAL/MOL
REMARK 922        TOTAL FREE ENERGY PREDICTED BY IDOCK:   -3.17 KCAL/MOL
REMARK 923 INTER-LIGAND FREE ENERGY PREDICTED BY IDOCK:   -2.98 KCAL/MOL
REMARK 924 INTRA-LIGAND FREE ENERGY PREDICTED BY IDOCK:   -0.20 KCAL/MOL
REMARK 927      BINDING AFFINITY PREDICTED BY RF-SCORE:    0.00 PKD
ROOT
HETATM    1 NA   UNL     1     -13.680   9.934  71.631  1.00  0.00    -0.337 Na 
HETATM    2  C   UNL     2     -10.750   8.489  69.912  1.00  0.00    -0.224 C  
HETATM    3  O   UNL     2     -11.592   9.972  71.562  1.00  0.00    -0.353 OA 
HETATM    4  O   UNL     2     -10.229   7.153  69.944  1.00  0.00    -0.198 OA 
HETATM    5  H   UNL     2     -11.483   8.219  73.976  1.00  0.00     0.000 HD 
HETATM    6  O   UNL     2     -11.104   7.548  73.420  1.00  0.00    -0.344 OA 
HETATM    7  C   UNL     2     -10.289   6.689  71.219  1.00  0.00    -0.205 C  
HETATM    8  C   UNL     2     -10.877   7.728  72.081  1.00  0.00    -0.257 C  
HETATM    9  O   UNL     2      -9.957   5.580  71.609  1.00  0.00    -0.171 OA 
HETATM   10  C   UNL     2     -11.139   8.814  71.348  1.00  0.00    -0.291 C  
ENDROOT
BRANCH   2  11
HETATM   11  C   UNL     2      -9.764   9.455  69.207  1.00  0.00    -0.172 C  
HETATM   12  H   UNL     2      -7.942  10.171  69.534  1.00  0.00     0.000 HD 
HETATM   13  O   UNL     2      -8.546   9.579  69.966  1.00  0.00    -0.177 OA 
BRANCH  11  14
HETATM   14  C   UNL     2      -9.428   9.116  67.747  1.00  0.00    -0.140 C  
HETATM   15  H   UNL     2      -7.830   8.777  66.566  1.00  0.00     0.000 HD 
HETATM   16  O   UNL     2      -8.037   8.986  67.469  1.00  0.00    -0.107 OA 
ENDBRANCH  11  14
ENDBRANCH   2  11
TORSDOF 2
ENDMDL
MODEL      153
REMARK 921   NORMALIZED FREE ENERGY PREDICTED BY IDOCK:   -2.64 KCAL/MOL
REMARK 922        TOTAL FREE ENERGY PREDICTED BY IDOCK:   -3.15 KCAL/MOL
REMARK 923 INTER-LIGAND FREE ENERGY PREDICTED BY IDOCK:   -3.00 KCAL/MOL
REMARK 924 INTRA-LIGAND FREE ENERGY PREDICTED BY IDOCK:   -0.15 KCAL/MOL
REMARK 927      BINDING AFFINITY PREDICTED BY RF-SCORE:    0.00 PKD
ROOT
HETATM    1 NA   UNL     1     -11.005   3.662  65.818  1.00  0.00    -0.416 Na 
HETATM    2  C   UNL     2     -10.794   6.617  68.021  1.00  0.00    -0.271 C  
HETATM    3  O   UNL     2      -9.797   4.613  67.235  1.00  0.00    -0.178 OA 
HETATM    4  O   UNL     2     -10.639   8.005  67.689  1.00  0.00    -0.235 OA 
HETATM    5  H   UNL     2      -8.075   5.683  65.044  1.00  0.00     0.000 HD 
HETATM    6  O   UNL     2      -8.376   6.549  65.287  1.00  0.00    -0.142 OA 
HETATM    7  C   UNL     2      -9.736   8.117  66.681  1.00  0.00    -0.248 C  
HETATM    8  C   UNL     2      -9.269   6.772  66.303  1.00  0.00    -0.127 C  
HETATM    9  O   UNL     2      -9.382   9.147  66.130  1.00  0.00    -0.190 OA 
HETATM   10  C   UNL     2      -9.853   5.864  67.089  1.00  0.00    -0.143 C  
ENDROOT
BRANCH   2  11
HETATM   11  C   UNL     2     -10.621   6.386  69.544  1.00  0.00    -0.253 C  
HETATM   12  H   UNL     2      -9.121   6.150  70.821  1.00  0.00     0.000 HD 
HETATM   13  O   UNL     2      -9.226   6.292  69.887  1.00  0.00    -0.149 OA 
BRANCH  11  14
HETATM   14  C   UNL     2     -11.309   7.413  70.456  1.00  0.00    -0.271 C  
HETATM   15  H   UNL     2     -12.902   7.571  71.681  1.00  0.00     0.000 HD 
HETATM   16  O   UNL     2     -12.477   6.935  71.117  1.00  0.00    -0.378 OA 
ENDBRANCH  11  14
ENDBRANCH   2  11
TORSDOF 2
ENDMDL
MODEL      154
REMARK 921   NORMALIZED FREE ENERGY PREDICTED BY IDOCK:   -2.64 KCAL/MOL
REMARK 922        TOTAL FREE ENERGY PREDICTED BY IDOCK:   -3.15 KCAL/MOL
REMARK 923 INTER-LIGAND FREE ENERGY PREDICTED BY IDOCK:   -3.00 KCAL/MOL
REMARK 924 INTRA-LIGAND FREE ENERGY PREDICTED BY IDOCK:   -0.16 KCAL/MOL
REMARK 927      BINDING AFFINITY PREDICTED BY RF-SCORE:    0.00 PKD
ROOT
HETATM    1 NA   UNL     1     -10.884  12.175  66.847  1.00  0.00    -0.212 Na 
HETATM    2  C   UNL     2      -9.019  15.244  67.702  1.00  0.00    -0.179 C  
HETATM    3  O   UNL     2      -9.278  13.378  66.260  1.00  0.00    -0.180 OA 
HETATM    4  O   UNL     2      -9.426  16.618  67.637  1.00  0.00    -0.223 OA 
HETATM    5  H   UNL     2     -10.967  14.579  64.112  1.00  0.00     0.000 HD 
HETATM    6  O   UNL     2     -10.909  15.401  64.584  1.00  0.00    -0.387 OA 
HETATM    7  C   UNL     2     -10.133  16.813  66.495  1.00  0.00    -0.315 C  
HETATM    8  C   UNL     2     -10.224  15.538  65.763  1.00  0.00    -0.366 C  
HETATM    9  O   UNL     2     -10.657  17.854  66.129  1.00  0.00    -0.344 OA 
HETATM   10  C   UNL     2      -9.557  14.595  66.433  1.00  0.00    -0.301 C  
ENDROOT
BRANCH   2  11
HETATM   11  C   UNL     2      -7.497  15.127  67.970  1.00  0.00    -0.120 C  
HETATM   12  H   UNL     2      -5.924  16.337  67.996  1.00  0.00     0.000 HD 
HETATM   13  O   UNL     2      -6.857  16.409  67.832  1.00  0.00    -0.126 OA 
BRANCH  11  14
HETATM   14  C   UNL     2      -7.103  14.496  69.314  1.00  0.00    -0.140 C  
HETATM   15  H   UNL     2      -6.478  12.736  70.072  1.00  0.00     0.000 HD 
HETATM   16  O   UNL     2      -6.721  13.126  69.240  1.00  0.00    -0.106 OA 
ENDBRANCH  11  14
ENDBRANCH   2  11
TORSDOF 2
ENDMDL
MODEL      155
REMARK 921   NORMALIZED FREE ENERGY PREDICTED BY IDOCK:   -2.62 KCAL/MOL
REMARK 922        TOTAL FREE ENERGY PREDICTED BY IDOCK:   -3.13 KCAL/MOL
REMARK 923 INTER-LIGAND FREE ENERGY PREDICTED BY IDOCK:   -2.94 KCAL/MOL
REMARK 924 INTRA-LIGAND FREE ENERGY PREDICTED BY IDOCK:   -0.19 KCAL/MOL
REMARK 927      BINDING AFFINITY PREDICTED BY RF-SCORE:    0.00 PKD
ROOT
HETATM    1 NA   UNL     1     -10.786  12.298  68.556  1.00  0.00    -0.183 Na 
HETATM    2  C   UNL     2      -9.607   9.027  67.315  1.00  0.00    -0.159 C  
HETATM    3  O   UNL     2     -11.422  10.512  67.677  1.00  0.00    -0.444 OA 
HETATM    4  O   UNL     2      -8.786   8.714  66.180  1.00  0.00    -0.150 OA 
HETATM    5  H   UNL     2     -11.555  11.869  65.021  1.00  0.00     0.000 HD 
HETATM    6  O   UNL     2     -10.845  11.303  64.744  1.00  0.00    -0.302 OA 
HETATM    7  C   UNL     2      -9.166   9.493  65.135  1.00  0.00    -0.244 C  
HETATM    8  C   UNL     2     -10.267  10.372  65.566  1.00  0.00    -0.246 C  
HETATM    9  O   UNL     2      -8.667   9.513  64.020  1.00  0.00    -0.198 OA 
HETATM   10  C   UNL     2     -10.570  10.108  66.839  1.00  0.00    -0.200 C  
ENDROOT
BRANCH   2  11
HETATM   11  C   UNL     2     -10.224   7.744  67.927  1.00  0.00    -0.206 C  
HETATM   12  H   UNL     2     -11.449   6.296  67.345  1.00  0.00     0.000 HD 
HETATM   13  O   UNL     2     -11.071   7.082  66.969  1.00  0.00    -0.373 OA 
BRANCH  11  14
HETATM   14  C   UNL     2      -9.223   6.738  68.514  1.00  0.00    -0.128 C  
HETATM   15  H   UNL     2      -8.831   4.760  68.500  1.00  0.00     0.000 HD 
HETATM   16  O   UNL     2      -9.450   5.383  68.137  1.00  0.00    -0.111 OA 
ENDBRANCH  11  14
ENDBRANCH   2  11
TORSDOF 2
ENDMDL
MODEL      156
REMARK 921   NORMALIZED FREE ENERGY PREDICTED BY IDOCK:   -2.58 KCAL/MOL
REMARK 922        TOTAL FREE ENERGY PREDICTED BY IDOCK:   -3.08 KCAL/MOL
REMARK 923 INTER-LIGAND FREE ENERGY PREDICTED BY IDOCK:   -2.90 KCAL/MOL
REMARK 924 INTRA-LIGAND FREE ENERGY PREDICTED BY IDOCK:   -0.19 KCAL/MOL
REMARK 927      BINDING AFFINITY PREDICTED BY RF-SCORE:    0.00 PKD
ROOT
HETATM    1 NA   UNL     1      -8.388   3.574  71.804  1.00  0.00    -0.058 Na 
HETATM    2  C   UNL     2      -9.699   6.714  70.371  1.00  0.00    -0.175 C  
HETATM    3  O   UNL     2      -9.921   4.365  70.624  1.00  0.00    -0.212 OA 
HETATM    4  O   UNL     2     -10.291   7.847  71.022  1.00  0.00    -0.201 OA 
HETATM    5  H   UNL     2     -11.778   4.240  72.957  1.00  0.00     0.000 HD 
HETATM    6  O   UNL     2     -11.799   5.189  72.937  1.00  0.00    -0.256 OA 
HETATM    7  C   UNL     2     -11.122   7.406  72.001  1.00  0.00    -0.242 C  
HETATM    8  C   UNL     2     -11.090   5.934  72.031  1.00  0.00    -0.274 C  
HETATM    9  O   UNL     2     -11.770   8.095  72.774  1.00  0.00    -0.403 OA 
HETATM   10  C   UNL     2     -10.280   5.490  71.067  1.00  0.00    -0.223 C  
ENDROOT
BRANCH   2  11
HETATM   11  C   UNL     2      -9.868   6.804  68.833  1.00  0.00    -0.145 C  
HETATM   12  H   UNL     2     -11.290   6.435  67.499  1.00  0.00     0.000 HD 
HETATM   13  O   UNL     2     -11.187   6.380  68.442  1.00  0.00    -0.320 OA 
BRANCH  11  14
HETATM   14  C   UNL     2      -9.559   8.173  68.208  1.00  0.00    -0.144 C  
HETATM   15  H   UNL     2     -10.497   9.691  67.270  1.00  0.00     0.000 HD 
HETATM   16  O   UNL     2     -10.688   8.844  67.657  1.00  0.00    -0.244 OA 
ENDBRANCH  11  14
ENDBRANCH   2  11
TORSDOF 2
ENDMDL
MODEL      157
REMARK 921   NORMALIZED FREE ENERGY PREDICTED BY IDOCK:   -2.53 KCAL/MOL
REMARK 922        TOTAL FREE ENERGY PREDICTED BY IDOCK:   -3.03 KCAL/MOL
REMARK 923 INTER-LIGAND FREE ENERGY PREDICTED BY IDOCK:   -2.86 KCAL/MOL
REMARK 924 INTRA-LIGAND FREE ENERGY PREDICTED BY IDOCK:   -0.17 KCAL/MOL
REMARK 927      BINDING AFFINITY PREDICTED BY RF-SCORE:    0.00 PKD
ROOT
HETATM    1 NA   UNL     1      -6.597   9.801  67.281  1.00  0.00    -0.061 Na 
HETATM    2  C   UNL     2      -8.898  12.657  67.706  1.00  0.00    -0.179 C  
HETATM    3  O   UNL     2      -7.679  11.251  66.234  1.00  0.00    -0.139 OA 
HETATM    4  O   UNL     2     -10.258  12.684  68.161  1.00  0.00    -0.226 OA 
HETATM    5  H   UNL     2      -9.761   9.216  65.576  1.00  0.00     0.000 HD 
HETATM    6  O   UNL     2     -10.360   9.715  66.118  1.00  0.00    -0.230 OA 
HETATM    7  C   UNL     2     -10.924  11.634  67.617  1.00  0.00    -0.239 C  
HETATM    8  C   UNL     2      -9.995  10.859  66.777  1.00  0.00    -0.205 C  
HETATM    9  O   UNL     2     -12.092  11.332  67.808  1.00  0.00    -0.631 OA 
HETATM   10  C   UNL     2      -8.796  11.447  66.786  1.00  0.00    -0.179 C  
ENDROOT
BRANCH   2  11
HETATM   11  C   UNL     2      -8.477  14.031  67.124  1.00  0.00    -0.190 C  
HETATM   12  H   UNL     2      -9.350  15.539  66.175  1.00  0.00     0.000 HD 
HETATM   13  O   UNL     2      -9.608  14.698  66.532  1.00  0.00    -0.261 OA 
BRANCH  11  14
HETATM   14  C   UNL     2      -7.771  14.982  68.102  1.00  0.00    -0.113 C  
HETATM   15  H   UNL     2      -8.169  16.098  69.732  1.00  0.00     0.000 HD 
HETATM   16  O   UNL     2      -8.606  15.509  69.128  1.00  0.00    -0.210 OA 
ENDBRANCH  11  14
ENDBRANCH   2  11
TORSDOF 2
ENDMDL
MODEL      158
REMARK 921   NORMALIZED FREE ENERGY PREDICTED BY IDOCK:   -2.53 KCAL/MOL
REMARK 922        TOTAL FREE ENERGY PREDICTED BY IDOCK:   -3.03 KCAL/MOL
REMARK 923 INTER-LIGAND FREE ENERGY PREDICTED BY IDOCK:   -2.88 KCAL/MOL
REMARK 924 INTRA-LIGAND FREE ENERGY PREDICTED BY IDOCK:   -0.15 KCAL/MOL
REMARK 927      BINDING AFFINITY PREDICTED BY RF-SCORE:    0.00 PKD
ROOT
HETATM    1 NA   UNL     1      -8.982   6.153  68.449  1.00  0.00    -0.115 Na 
HETATM    2  C   UNL     2     -11.023   5.755  71.499  1.00  0.00    -0.239 C  
HETATM    3  O   UNL     2      -9.011   6.525  70.505  1.00  0.00    -0.150 OA 
HETATM    4  O   UNL     2     -12.257   6.387  71.871  1.00  0.00    -0.346 OA 
HETATM    5  H   UNL     2      -9.720   9.376  69.976  1.00  0.00     0.000 HD 
HETATM    6  O   UNL     2     -10.558   9.200  70.388  1.00  0.00    -0.203 OA 
HETATM    7  C   UNL     2     -12.201   7.698  71.523  1.00  0.00    -0.324 C  
HETATM    8  C   UNL     2     -10.903   7.971  70.884  1.00  0.00    -0.230 C  
HETATM    9  O   UNL     2     -13.085   8.529  71.664  1.00  0.00    -0.330 OA 
HETATM   10  C   UNL     2     -10.171   6.853  70.875  1.00  0.00    -0.197 C  
ENDROOT
BRANCH   2  11
HETATM   11  C   UNL     2     -10.415   4.975  72.692  1.00  0.00    -0.209 C  
HETATM   12  H   UNL     2     -10.946   4.497  74.544  1.00  0.00     0.000 HD 
HETATM   13  O   UNL     2     -11.320   4.975  73.812  1.00  0.00    -0.217 OA 
BRANCH  11  14
HETATM   14  C   UNL     2      -9.968   3.537  72.390  1.00  0.00    -0.167 C  
HETATM   15  H   UNL     2     -10.474   1.636  72.832  1.00  0.00     0.000 HD 
HETATM   16  O   UNL     2     -10.750   2.526  73.019  1.00  0.00    -0.155 OA 
ENDBRANCH  11  14
ENDBRANCH   2  11
TORSDOF 2
ENDMDL
MODEL      159
REMARK 921   NORMALIZED FREE ENERGY PREDICTED BY IDOCK:   -2.52 KCAL/MOL
REMARK 922        TOTAL FREE ENERGY PREDICTED BY IDOCK:   -3.02 KCAL/MOL
REMARK 923 INTER-LIGAND FREE ENERGY PREDICTED BY IDOCK:   -2.89 KCAL/MOL
REMARK 924 INTRA-LIGAND FREE ENERGY PREDICTED BY IDOCK:   -0.13 KCAL/MOL
REMARK 927      BINDING AFFINITY PREDICTED BY RF-SCORE:    0.00 PKD
ROOT
HETATM    1 NA   UNL     1      -7.969  11.328  70.315  1.00  0.00    -0.330 Na 
HETATM    2  C   UNL     2     -10.594   8.738  70.154  1.00  0.00    -0.221 C  
HETATM    3  O   UNL     2      -8.296   9.296  69.956  1.00  0.00    -0.132 OA 
HETATM    4  O   UNL     2     -11.396   8.173  71.202  1.00  0.00    -0.259 OA 
HETATM    5  H   UNL     2      -7.339   8.657  72.710  1.00  0.00     0.000 HD 
HETATM    6  O   UNL     2      -8.223   8.370  72.905  1.00  0.00    -0.269 OA 
HETATM    7  C   UNL     2     -10.613   7.967  72.291  1.00  0.00    -0.291 C  
HETATM    8  C   UNL     2      -9.242   8.414  71.990  1.00  0.00    -0.234 C  
HETATM    9  O   UNL     2     -10.969   7.525  73.373  1.00  0.00    -0.380 OA 
HETATM   10  C   UNL     2      -9.188   8.852  70.729  1.00  0.00    -0.223 C  
ENDROOT
BRANCH   2  11
HETATM   11  C   UNL     2     -10.760   7.942  68.835  1.00  0.00    -0.073 C  
HETATM   12  H   UNL     2     -10.365   8.216  66.909  1.00  0.00     0.000 HD 
HETATM   13  O   UNL     2     -10.262   8.704  67.718  1.00  0.00    -0.199 OA 
BRANCH  11  14
HETATM   14  C   UNL     2     -10.138   6.538  68.820  1.00  0.00    -0.161 C  
HETATM   15  H   UNL     2      -8.522   5.570  68.100  1.00  0.00     0.000 HD 
HETATM   16  O   UNL     2      -8.907   6.439  68.109  1.00  0.00    -0.116 OA 
ENDBRANCH  11  14
ENDBRANCH   2  11
TORSDOF 2
ENDMDL
MODEL      160
REMARK 921   NORMALIZED FREE ENERGY PREDICTED BY IDOCK:   -2.51 KCAL/MOL
REMARK 922        TOTAL FREE ENERGY PREDICTED BY IDOCK:   -3.01 KCAL/MOL
REMARK 923 INTER-LIGAND FREE ENERGY PREDICTED BY IDOCK:   -2.82 KCAL/MOL
REMARK 924 INTRA-LIGAND FREE ENERGY PREDICTED BY IDOCK:   -0.19 KCAL/MOL
REMARK 927      BINDING AFFINITY PREDICTED BY RF-SCORE:    0.00 PKD
ROOT
HETATM    1 NA   UNL     1      -9.626  11.240  69.058  1.00  0.00    -0.167 Na 
HETATM    2  C   UNL     2     -10.169   7.776  70.215  1.00  0.00    -0.199 C  
HETATM    3  O   UNL     2     -11.077   9.749  69.260  1.00  0.00    -0.219 OA 
HETATM    4  O   UNL     2      -9.686   6.538  69.674  1.00  0.00    -0.156 OA 
HETATM    5  H   UNL     2     -10.826   9.115  66.354  1.00  0.00     0.000 HD 
HETATM    6  O   UNL     2     -10.477   8.271  66.612  1.00  0.00    -0.305 OA 
HETATM    7  C   UNL     2      -9.768   6.589  68.320  1.00  0.00    -0.131 C  
HETATM    8  C   UNL     2     -10.308   7.899  67.920  1.00  0.00    -0.221 C  
HETATM    9  O   UNL     2      -9.417   5.722  67.534  1.00  0.00    -0.111 OA 
HETATM   10  C   UNL     2     -10.580   8.617  69.013  1.00  0.00    -0.160 C  
ENDROOT
BRANCH   2  11
HETATM   11  C   UNL     2     -11.239   7.527  71.307  1.00  0.00    -0.251 C  
HETATM   12  H   UNL     2     -12.940   6.518  71.478  1.00  0.00     0.000 HD 
HETATM   13  O   UNL     2     -12.283   6.670  70.808  1.00  0.00    -0.378 OA 
BRANCH  11  14
HETATM   14  C   UNL     2     -10.714   6.976  72.642  1.00  0.00    -0.259 C  
HETATM   15  H   UNL     2     -10.767   5.291  73.747  1.00  0.00     0.000 HD 
HETATM   16  O   UNL     2     -11.092   5.632  72.921  1.00  0.00    -0.259 OA 
ENDBRANCH  11  14
ENDBRANCH   2  11
TORSDOF 2
ENDMDL
MODEL      161
REMARK 921   NORMALIZED FREE ENERGY PREDICTED BY IDOCK:   -2.50 KCAL/MOL
REMARK 922        TOTAL FREE ENERGY PREDICTED BY IDOCK:   -3.00 KCAL/MOL
REMARK 923 INTER-LIGAND FREE ENERGY PREDICTED BY IDOCK:   -2.85 KCAL/MOL
REMARK 924 INTRA-LIGAND FREE ENERGY PREDICTED BY IDOCK:   -0.15 KCAL/MOL
REMARK 927      BINDING AFFINITY PREDICTED BY RF-SCORE:    0.00 PKD
ROOT
HETATM    1 NA   UNL     1      -9.678   9.622  68.308  1.00  0.00    -0.137 Na 
HETATM    2  C   UNL     2      -9.196   7.008  70.870  1.00  0.00    -0.156 C  
HETATM    3  O   UNL     2     -10.673   8.501  69.765  1.00  0.00    -0.229 OA 
HETATM    4  O   UNL     2      -8.889   5.615  70.718  1.00  0.00    -0.135 OA 
HETATM    5  H   UNL     2     -11.766   6.714  67.640  1.00  0.00     0.000 HD 
HETATM    6  O   UNL     2     -11.241   6.017  68.014  1.00  0.00    -0.253 OA 
HETATM    7  C   UNL     2      -9.612   5.116  69.683  1.00  0.00    -0.167 C  
HETATM    8  C   UNL     2     -10.427   6.197  69.101  1.00  0.00    -0.251 C  
HETATM    9  O   UNL     2      -9.581   3.973  69.254  1.00  0.00    -0.181 OA 
HETATM   10  C   UNL     2     -10.225   7.323  69.792  1.00  0.00    -0.210 C  
ENDROOT
BRANCH   2  11
HETATM   11  C   UNL     2      -9.578   7.338  72.336  1.00  0.00    -0.150 C  
HETATM   12  H   UNL     2      -9.530   8.919  73.533  1.00  0.00     0.000 HD 
HETATM   13  O   UNL     2      -9.296   8.718  72.635  1.00  0.00    -0.300 OA 
BRANCH  11  14
HETATM   14  C   UNL     2     -11.023   7.008  72.738  1.00  0.00    -0.294 C  
HETATM   15  H   UNL     2     -12.785   7.931  73.071  1.00  0.00     0.000 HD 
HETATM   16  O   UNL     2     -11.890   8.135  72.822  1.00  0.00    -0.389 OA 
ENDBRANCH  11  14
ENDBRANCH   2  11
TORSDOF 2
ENDMDL
MODEL      162
REMARK 921   NORMALIZED FREE ENERGY PREDICTED BY IDOCK:   -2.50 KCAL/MOL
REMARK 922        TOTAL FREE ENERGY PREDICTED BY IDOCK:   -3.00 KCAL/MOL
REMARK 923 INTER-LIGAND FREE ENERGY PREDICTED BY IDOCK:   -2.83 KCAL/MOL
REMARK 924 INTRA-LIGAND FREE ENERGY PREDICTED BY IDOCK:   -0.17 KCAL/MOL
REMARK 927      BINDING AFFINITY PREDICTED BY RF-SCORE:    0.00 PKD
ROOT
HETATM    1 NA   UNL     1     -11.123  11.693  69.293  1.00  0.00    -0.189 Na 
HETATM    2  C   UNL     2     -10.399   8.073  69.254  1.00  0.00    -0.220 C  
HETATM    3  O   UNL     2      -9.926  10.215  70.160  1.00  0.00    -0.229 OA 
HETATM    4  O   UNL     2     -11.207   6.967  69.680  1.00  0.00    -0.243 OA 
HETATM    5  H   UNL     2     -11.696  10.194  72.563  1.00  0.00     0.000 HD 
HETATM    6  O   UNL     2     -11.942   9.309  72.322  1.00  0.00    -0.299 OA 
HETATM    7  C   UNL     2     -11.829   7.299  70.840  1.00  0.00    -0.316 C  
HETATM    8  C   UNL     2     -11.448   8.672  71.214  1.00  0.00    -0.283 C  
HETATM    9  O   UNL     2     -12.615   6.609  71.471  1.00  0.00    -0.336 OA 
HETATM   10  C   UNL     2     -10.586   9.152  70.314  1.00  0.00    -0.223 C  
ENDROOT
BRANCH   2  11
HETATM   11  C   UNL     2      -8.948   7.619  68.951  1.00  0.00    -0.137 C  
HETATM   12  H   UNL     2      -7.495   8.124  67.698  1.00  0.00     0.000 HD 
HETATM   13  O   UNL     2      -8.384   8.403  67.884  1.00  0.00    -0.128 OA 
BRANCH  11  14
HETATM   14  C   UNL     2      -7.987   7.611  70.149  1.00  0.00    -0.109 C  
HETATM   15  H   UNL     2      -7.508   6.469  71.740  1.00  0.00     0.000 HD 
HETATM   16  O   UNL     2      -8.103   6.474  70.998  1.00  0.00    -0.116 OA 
ENDBRANCH  11  14
ENDBRANCH   2  11
TORSDOF 2
ENDMDL
MODEL      163
REMARK 921   NORMALIZED FREE ENERGY PREDICTED BY IDOCK:   -2.49 KCAL/MOL
REMARK 922        TOTAL FREE ENERGY PREDICTED BY IDOCK:   -2.99 KCAL/MOL
REMARK 923 INTER-LIGAND FREE ENERGY PREDICTED BY IDOCK:   -2.85 KCAL/MOL
REMARK 924 INTRA-LIGAND FREE ENERGY PREDICTED BY IDOCK:   -0.14 KCAL/MOL
REMARK 927      BINDING AFFINITY PREDICTED BY RF-SCORE:    0.00 PKD
ROOT
HETATM    1 NA   UNL     1      -8.934   8.844  71.341  1.00  0.00    -0.126 Na 
HETATM    2  C   UNL     2      -9.562  11.032  68.434  1.00  0.00    -0.181 C  
HETATM    3  O   UNL     2      -9.986   8.976  69.540  1.00  0.00    -0.181 OA 
HETATM    4  O   UNL     2     -10.257  12.285  68.357  1.00  0.00    -0.212 OA 
HETATM    5  H   UNL     2     -12.470   9.668  71.044  1.00  0.00     0.000 HD 
HETATM    6  O   UNL     2     -12.428  10.524  70.635  1.00  0.00    -0.317 OA 
HETATM    7  C   UNL     2     -11.371  12.217  69.130  1.00  0.00    -0.276 C  
HETATM    8  C   UNL     2     -11.436  10.889  69.764  1.00  0.00    -0.313 C  
HETATM    9  O   UNL     2     -12.182  13.109  69.322  1.00  0.00    -0.249 OA 
HETATM   10  C   UNL     2     -10.397  10.154  69.357  1.00  0.00    -0.232 C  
ENDROOT
BRANCH   2  11
HETATM   11  C   UNL     2      -9.249  10.481  67.020  1.00  0.00    -0.150 C  
HETATM   12  H   UNL     2     -10.170   9.382  65.648  1.00  0.00     0.000 HD 
HETATM   13  O   UNL     2     -10.362   9.720  66.514  1.00  0.00    -0.234 OA 
BRANCH  11  14
HETATM   14  C   UNL     2      -8.821  11.524  65.977  1.00  0.00    -0.143 C  
HETATM   15  H   UNL     2      -9.272  12.112  64.102  1.00  0.00     0.000 HD 
HETATM   16  O   UNL     2      -9.537  11.466  64.747  1.00  0.00    -0.236 OA 
ENDBRANCH  11  14
ENDBRANCH   2  11
TORSDOF 2
ENDMDL
MODEL      164
REMARK 921   NORMALIZED FREE ENERGY PREDICTED BY IDOCK:   -2.47 KCAL/MOL
REMARK 922        TOTAL FREE ENERGY PREDICTED BY IDOCK:   -2.96 KCAL/MOL
REMARK 923 INTER-LIGAND FREE ENERGY PREDICTED BY IDOCK:   -2.82 KCAL/MOL
REMARK 924 INTRA-LIGAND FREE ENERGY PREDICTED BY IDOCK:   -0.14 KCAL/MOL
REMARK 927      BINDING AFFINITY PREDICTED BY RF-SCORE:    0.00 PKD
ROOT
HETATM    1 NA   UNL     1      -9.374   4.951  68.737  1.00  0.00    -0.102 Na 
HETATM    2  C   UNL     2     -10.259   8.154  70.345  1.00  0.00    -0.201 C  
HETATM    3  O   UNL     2     -10.989   6.144  69.316  1.00  0.00    -0.313 OA 
HETATM    4  O   UNL     2     -10.100   8.576  71.707  1.00  0.00    -0.226 OA 
HETATM    5  H   UNL     2     -11.399   4.420  71.718  1.00  0.00     0.000 HD 
HETATM    6  O   UNL     2     -11.153   5.170  72.246  1.00  0.00    -0.198 OA 
HETATM    7  C   UNL     2     -10.425   7.544  72.527  1.00  0.00    -0.249 C  
HETATM    8  C   UNL     2     -10.806   6.381  71.708  1.00  0.00    -0.241 C  
HETATM    9  O   UNL     2     -10.379   7.539  73.748  1.00  0.00    -0.323 OA 
HETATM   10  C   UNL     2     -10.743   6.711  70.416  1.00  0.00    -0.250 C  
ENDROOT
BRANCH   2  11
HETATM   11  C   UNL     2     -11.131   9.158  69.549  1.00  0.00    -0.051 C  
HETATM   12  H   UNL     2     -11.865  10.982  69.818  1.00  0.00     0.000 HD 
HETATM   13  O   UNL     2     -11.331  10.367  70.306  1.00  0.00    -0.284 OA 
BRANCH  11  14
HETATM   14  C   UNL     2     -10.627   9.509  68.141  1.00  0.00    -0.217 C  
HETATM   15  H   UNL     2      -9.689  11.000  67.161  1.00  0.00     0.000 HD 
HETATM   16  O   UNL     2     -10.001  10.783  68.033  1.00  0.00    -0.159 OA 
ENDBRANCH  11  14
ENDBRANCH   2  11
TORSDOF 2
ENDMDL
MODEL      165
REMARK 921   NORMALIZED FREE ENERGY PREDICTED BY IDOCK:   -2.45 KCAL/MOL
REMARK 922        TOTAL FREE ENERGY PREDICTED BY IDOCK:   -2.95 KCAL/MOL
REMARK 923 INTER-LIGAND FREE ENERGY PREDICTED BY IDOCK:   -2.79 KCAL/MOL
REMARK 924 INTRA-LIGAND FREE ENERGY PREDICTED BY IDOCK:   -0.16 KCAL/MOL
REMARK 927      BINDING AFFINITY PREDICTED BY RF-SCORE:    0.00 PKD
ROOT
HETATM    1 NA   UNL     1     -10.915  12.700  66.556  1.00  0.00    -0.241 Na 
HETATM    2  C   UNL     2     -10.410   9.292  67.882  1.00  0.00    -0.227 C  
HETATM    3  O   UNL     2      -9.663  11.030  66.450  1.00  0.00    -0.191 OA 
HETATM    4  O   UNL     2     -10.045   8.861  69.202  1.00  0.00    -0.185 OA 
HETATM    5  H   UNL     2      -7.694  12.396  68.230  1.00  0.00     0.000 HD 
HETATM    6  O   UNL     2      -7.884  11.730  68.880  1.00  0.00    -0.105 OA 
HETATM    7  C   UNL     2      -9.083   9.689  69.683  1.00  0.00    -0.210 C  
HETATM    8  C   UNL     2      -8.789  10.722  68.675  1.00  0.00    -0.152 C  
HETATM    9  O   UNL     2      -8.560   9.637  70.786  1.00  0.00    -0.227 OA 
HETATM   10  C   UNL     2      -9.536  10.504  67.589  1.00  0.00    -0.149 C  
ENDROOT
BRANCH   2  11
HETATM   11  C   UNL     2     -10.352   8.114  66.876  1.00  0.00    -0.331 C  
HETATM   12  H   UNL     2      -8.964   7.162  65.825  1.00  0.00     0.000 HD 
HETATM   13  O   UNL     2      -8.999   7.884  66.442  1.00  0.00    -0.150 OA 
BRANCH  11  14
HETATM   14  C   UNL     2     -10.971   6.794  67.359  1.00  0.00    -0.337 C  
HETATM   15  H   UNL     2     -11.174   4.876  66.773  1.00  0.00     0.000 HD 
HETATM   16  O   UNL     2     -10.791   5.693  66.474  1.00  0.00    -0.284 OA 
ENDBRANCH  11  14
ENDBRANCH   2  11
TORSDOF 2
ENDMDL
MODEL      166
REMARK 921   NORMALIZED FREE ENERGY PREDICTED BY IDOCK:   -2.40 KCAL/MOL
REMARK 922        TOTAL FREE ENERGY PREDICTED BY IDOCK:   -2.88 KCAL/MOL
REMARK 923 INTER-LIGAND FREE ENERGY PREDICTED BY IDOCK:   -2.73 KCAL/MOL
REMARK 924 INTRA-LIGAND FREE ENERGY PREDICTED BY IDOCK:   -0.15 KCAL/MOL
REMARK 927      BINDING AFFINITY PREDICTED BY RF-SCORE:    0.00 PKD
ROOT
HETATM    1 NA   UNL     1     -13.029   6.634  69.707  1.00  0.00    -0.621 Na 
HETATM    2  C   UNL     2      -9.638   6.256  71.117  1.00  0.00    -0.175 C  
HETATM    3  O   UNL     2     -11.051   6.172  69.212  1.00  0.00    -0.352 OA 
HETATM    4  O   UNL     2      -8.748   7.244  71.655  1.00  0.00    -0.118 OA 
HETATM    5  H   UNL     2     -10.678   8.931  68.135  1.00  0.00     0.000 HD 
HETATM    6  O   UNL     2     -10.061   9.078  68.841  1.00  0.00    -0.184 OA 
HETATM    7  C   UNL     2      -8.801   8.353  70.875  1.00  0.00    -0.159 C  
HETATM    8  C   UNL     2      -9.759   8.126  69.780  1.00  0.00    -0.173 C  
HETATM    9  O   UNL     2      -8.195   9.400  71.052  1.00  0.00    -0.294 OA 
HETATM   10  C   UNL     2     -10.255   6.890  69.876  1.00  0.00    -0.199 C  
ENDROOT
BRANCH   2  11
HETATM   11  C   UNL     2      -8.916   4.896  70.936  1.00  0.00    -0.132 C  
HETATM   12  H   UNL     2      -9.430   2.993  70.709  1.00  0.00     0.000 HD 
HETATM   13  O   UNL     2      -9.872   3.826  70.819  1.00  0.00    -0.181 OA 
BRANCH  11  14
HETATM   14  C   UNL     2      -7.915   4.822  69.773  1.00  0.00    -0.066 C  
HETATM   15  H   UNL     2      -7.714   3.968  67.958  1.00  0.00     0.000 HD 
HETATM   16  O   UNL     2      -8.333   4.014  68.677  1.00  0.00    -0.081 OA 
ENDBRANCH  11  14
ENDBRANCH   2  11
TORSDOF 2
ENDMDL
MODEL      167
REMARK 921   NORMALIZED FREE ENERGY PREDICTED BY IDOCK:   -2.38 KCAL/MOL
REMARK 922        TOTAL FREE ENERGY PREDICTED BY IDOCK:   -2.86 KCAL/MOL
REMARK 923 INTER-LIGAND FREE ENERGY PREDICTED BY IDOCK:   -2.70 KCAL/MOL
REMARK 924 INTRA-LIGAND FREE ENERGY PREDICTED BY IDOCK:   -0.16 KCAL/MOL
REMARK 927      BINDING AFFINITY PREDICTED BY RF-SCORE:    0.00 PKD
ROOT
HETATM    1 NA   UNL     1      -6.161  14.822  71.582  1.00  0.00    -0.134 Na 
HETATM    2  C   UNL     2      -7.015  17.494  69.183  1.00  0.00    -0.211 C  
HETATM    3  O   UNL     2      -5.968  15.403  69.584  1.00  0.00    -0.116 OA 
HETATM    4  O   UNL     2      -8.290  17.885  68.655  1.00  0.00    -0.299 OA 
HETATM    5  H   UNL     2      -8.171  13.536  68.830  1.00  0.00     0.000 HD 
HETATM    6  O   UNL     2      -8.684  14.301  68.601  1.00  0.00    -0.181 OA 
HETATM    7  C   UNL     2      -9.011  16.769  68.376  1.00  0.00    -0.233 C  
HETATM    8  C   UNL     2      -8.215  15.582  68.732  1.00  0.00    -0.177 C  
HETATM    9  O   UNL     2     -10.151  16.727  67.940  1.00  0.00    -0.265 OA 
HETATM   10  C   UNL     2      -7.022  15.971  69.189  1.00  0.00    -0.189 C  
ENDROOT
BRANCH   2  11
HETATM   11  C   UNL     2      -5.859  18.196  68.425  1.00  0.00    -0.178 C  
HETATM   12  H   UNL     2      -5.580  19.036  66.649  1.00  0.00     0.000 HD 
HETATM   13  O   UNL     2      -6.288  18.606  67.113  1.00  0.00    -0.183 OA 
BRANCH  11  14
HETATM   14  C   UNL     2      -5.212  19.386  69.150  1.00  0.00    -0.193 C  
HETATM   15  H   UNL     2      -5.549  21.337  69.525  1.00  0.00     0.000 HD 
HETATM   16  O   UNL     2      -5.950  20.601  69.077  1.00  0.00    -0.340 OA 
ENDBRANCH  11  14
ENDBRANCH   2  11
TORSDOF 2
ENDMDL
MODEL      168
REMARK 921   NORMALIZED FREE ENERGY PREDICTED BY IDOCK:   -2.34 KCAL/MOL
REMARK 922        TOTAL FREE ENERGY PREDICTED BY IDOCK:   -2.82 KCAL/MOL
REMARK 923 INTER-LIGAND FREE ENERGY PREDICTED BY IDOCK:   -3.31 KCAL/MOL
REMARK 924 INTRA-LIGAND FREE ENERGY PREDICTED BY IDOCK:    0.49 KCAL/MOL
REMARK 927      BINDING AFFINITY PREDICTED BY RF-SCORE:    0.00 PKD
ROOT
HETATM    1 NA   UNL     1      -9.491  10.159  69.670  1.00  0.00    -0.153 Na 
HETATM    2  C   UNL     2     -10.486  13.362  68.127  1.00  0.00    -0.245 C  
HETATM    3  O   UNL     2      -8.916  11.588  68.257  1.00  0.00    -0.165 OA 
HETATM    4  O   UNL     2     -11.582  13.661  67.249  1.00  0.00    -0.318 OA 
HETATM    5  H   UNL     2      -9.907   9.819  66.067  1.00  0.00     0.000 HD 
HETATM    6  O   UNL     2     -10.570  10.476  65.893  1.00  0.00    -0.181 OA 
HETATM    7  C   UNL     2     -11.707  12.656  66.345  1.00  0.00    -0.405 C  
HETATM    8  C   UNL     2     -10.680  11.635  66.615  1.00  0.00    -0.270 C  
HETATM    9  O   UNL     2     -12.551  12.565  65.467  1.00  0.00    -0.642 OA 
HETATM   10  C   UNL     2      -9.925  12.030  67.645  1.00  0.00    -0.191 C  
ENDROOT
BRANCH   2  11
HETATM   11  C   UNL     2      -9.503  14.556  68.217  1.00  0.00    -0.207 C  
HETATM   12  H   UNL     2      -9.337  16.231  69.269  1.00  0.00     0.000 HD 
HETATM   13  O   UNL     2      -9.940  15.498  69.215  1.00  0.00    -0.228 OA 
BRANCH  11  14
HETATM   14  C   UNL     2      -8.031  14.191  68.462  1.00  0.00    -0.145 C  
HETATM   15  H   UNL     2      -6.421  14.857  69.476  1.00  0.00     0.000 HD 
HETATM   16  O   UNL     2      -7.332  15.083  69.325  1.00  0.00    -0.156 OA 
ENDBRANCH  11  14
ENDBRANCH   2  11
TORSDOF 2
ENDMDL
MODEL      169
REMARK 921   NORMALIZED FREE ENERGY PREDICTED BY IDOCK:   -2.33 KCAL/MOL
REMARK 922        TOTAL FREE ENERGY PREDICTED BY IDOCK:   -2.80 KCAL/MOL
REMARK 923 INTER-LIGAND FREE ENERGY PREDICTED BY IDOCK:   -3.21 KCAL/MOL
REMARK 924 INTRA-LIGAND FREE ENERGY PREDICTED BY IDOCK:    0.41 KCAL/MOL
REMARK 927      BINDING AFFINITY PREDICTED BY RF-SCORE:    0.00 PKD
ROOT
HETATM    1 NA   UNL     1      -7.632  11.339  70.313  1.00  0.00    -0.346 Na 
HETATM    2  C   UNL     2      -9.518   9.876  67.497  1.00  0.00    -0.151 C  
HETATM    3  O   UNL     2      -9.185  10.023  69.841  1.00  0.00    -0.215 OA 
HETATM    4  O   UNL     2     -10.430  10.495  66.579  1.00  0.00    -0.241 OA 
HETATM    5  H   UNL     2     -11.180  12.128  70.545  1.00  0.00     0.000 HD 
HETATM    6  O   UNL     2     -11.429  12.139  69.629  1.00  0.00    -0.280 OA 
HETATM    7  C   UNL     2     -11.222  11.359  67.263  1.00  0.00    -0.304 C  
HETATM    8  C   UNL     2     -10.836  11.343  68.684  1.00  0.00    -0.208 C  
HETATM    9  O   UNL     2     -12.093  12.078  66.796  1.00  0.00    -0.613 OA 
HETATM   10  C   UNL     2      -9.849  10.461  68.864  1.00  0.00    -0.200 C  
ENDROOT
BRANCH   2  11
HETATM   11  C   UNL     2      -9.548   8.333  67.357  1.00  0.00    -0.160 C  
HETATM   12  H   UNL     2      -8.474   6.930  66.454  1.00  0.00     0.000 HD 
HETATM   13  O   UNL     2      -8.455   7.876  66.540  1.00  0.00    -0.123 OA 
BRANCH  11  14
HETATM   14  C   UNL     2      -9.571   7.545  68.676  1.00  0.00    -0.151 C  
HETATM   15  H   UNL     2     -10.870   6.582  69.879  1.00  0.00     0.000 HD 
HETATM   16  O   UNL     2     -10.856   7.069  69.063  1.00  0.00    -0.222 OA 
ENDBRANCH  11  14
ENDBRANCH   2  11
TORSDOF 2
ENDMDL
MODEL      170
REMARK 921   NORMALIZED FREE ENERGY PREDICTED BY IDOCK:   -2.32 KCAL/MOL
REMARK 922        TOTAL FREE ENERGY PREDICTED BY IDOCK:   -2.79 KCAL/MOL
REMARK 923 INTER-LIGAND FREE ENERGY PREDICTED BY IDOCK:   -2.65 KCAL/MOL
REMARK 924 INTRA-LIGAND FREE ENERGY PREDICTED BY IDOCK:   -0.14 KCAL/MOL
REMARK 927      BINDING AFFINITY PREDICTED BY RF-SCORE:    0.00 PKD
ROOT
HETATM    1 NA   UNL     1     -12.313   6.694  69.198  1.00  0.00    -0.605 Na 
HETATM    2  C   UNL     2      -9.068   5.975  67.591  1.00  0.00    -0.109 C  
HETATM    3  O   UNL     2     -11.393   6.383  67.347  1.00  0.00    -0.283 OA 
HETATM    4  O   UNL     2      -7.895   6.793  67.477  1.00  0.00    -0.108 OA 
HETATM    5  H   UNL     2     -11.381   9.328  66.861  1.00  0.00     0.000 HD 
HETATM    6  O   UNL     2     -10.434   9.289  66.904  1.00  0.00    -0.248 OA 
HETATM    7  C   UNL     2      -8.273   8.067  67.200  1.00  0.00    -0.117 C  
HETATM    8  C   UNL     2      -9.743   8.128  67.133  1.00  0.00    -0.199 C  
HETATM    9  O   UNL     2      -7.539   9.033  67.064  1.00  0.00    -0.090 OA 
HETATM   10  C   UNL     2     -10.246   6.907  67.335  1.00  0.00    -0.203 C  
ENDROOT
BRANCH   2  11
HETATM   11  C   UNL     2      -8.955   4.711  66.700  1.00  0.00    -0.112 C  
HETATM   12  H   UNL     2      -9.582   2.830  66.755  1.00  0.00     0.000 HD 
HETATM   13  O   UNL     2      -9.652   3.604  67.301  1.00  0.00    -0.209 OA 
BRANCH  11  14
HETATM   14  C   UNL     2      -9.411   4.880  65.243  1.00  0.00    -0.120 C  
HETATM   15  H   UNL     2     -10.880   4.275  64.003  1.00  0.00     0.000 HD 
HETATM   16  O   UNL     2     -10.598   4.171  64.905  1.00  0.00    -0.250 OA 
ENDBRANCH  11  14
ENDBRANCH   2  11
TORSDOF 2
ENDMDL
MODEL      171
REMARK 921   NORMALIZED FREE ENERGY PREDICTED BY IDOCK:   -2.31 KCAL/MOL
REMARK 922        TOTAL FREE ENERGY PREDICTED BY IDOCK:   -2.78 KCAL/MOL
REMARK 923 INTER-LIGAND FREE ENERGY PREDICTED BY IDOCK:   -2.59 KCAL/MOL
REMARK 924 INTRA-LIGAND FREE ENERGY PREDICTED BY IDOCK:   -0.19 KCAL/MOL
REMARK 927      BINDING AFFINITY PREDICTED BY RF-SCORE:    0.00 PKD
ROOT
HETATM    1 NA   UNL     1     -11.108   6.383  73.991  1.00  0.00    -0.331 Na 
HETATM    2  C   UNL     2     -10.253   7.058  70.464  1.00  0.00    -0.196 C  
HETATM    3  O   UNL     2     -11.929   6.613  72.083  1.00  0.00    -0.305 OA 
HETATM    4  O   UNL     2      -9.753   8.255  69.850  1.00  0.00    -0.177 OA 
HETATM    5  H   UNL     2     -12.767   9.392  72.781  1.00  0.00     0.000 HD 
HETATM    6  O   UNL     2     -12.147   9.697  72.129  1.00  0.00    -0.291 OA 
HETATM    7  C   UNL     2     -10.402   9.324  70.378  1.00  0.00    -0.240 C  
HETATM    8  C   UNL     2     -11.363   8.851  71.390  1.00  0.00    -0.309 C  
HETATM    9  O   UNL     2     -10.211  10.500  70.110  1.00  0.00    -0.110 OA 
HETATM   10  C   UNL     2     -11.320   7.517  71.450  1.00  0.00    -0.258 C  
ENDROOT
BRANCH   2  11
HETATM   11  C   UNL     2     -10.673   6.017  69.395  1.00  0.00    -0.334 C  
HETATM   12  H   UNL     2     -12.141   5.792  68.079  1.00  0.00     0.000 HD 
HETATM   13  O   UNL     2     -11.884   6.430  68.734  1.00  0.00     0.175 OA 
BRANCH  11  14
HETATM   14  C   UNL     2      -9.605   5.670  68.347  1.00  0.00    -0.126 C  
HETATM   15  H   UNL     2      -7.995   4.480  68.116  1.00  0.00     0.000 HD 
HETATM   16  O   UNL     2      -8.656   4.694  68.764  1.00  0.00    -0.084 OA 
ENDBRANCH  11  14
ENDBRANCH   2  11
TORSDOF 2
ENDMDL
MODEL      172
REMARK 921   NORMALIZED FREE ENERGY PREDICTED BY IDOCK:   -2.28 KCAL/MOL
REMARK 922        TOTAL FREE ENERGY PREDICTED BY IDOCK:   -2.75 KCAL/MOL
REMARK 923 INTER-LIGAND FREE ENERGY PREDICTED BY IDOCK:   -2.65 KCAL/MOL
REMARK 924 INTRA-LIGAND FREE ENERGY PREDICTED BY IDOCK:   -0.09 KCAL/MOL
REMARK 927      BINDING AFFINITY PREDICTED BY RF-SCORE:    0.00 PKD
ROOT
HETATM    1 NA   UNL     1      -6.696  10.240  69.760  1.00  0.00    -0.042 Na 
HETATM    2  C   UNL     2      -9.586  10.097  67.467  1.00  0.00    -0.156 C  
HETATM    3  O   UNL     2      -8.177   8.971  69.009  1.00  0.00    -0.114 OA 
HETATM    4  O   UNL     2     -10.872  10.724  67.567  1.00  0.00    -0.246 OA 
HETATM    5  H   UNL     2      -9.742   9.311  71.528  1.00  0.00     0.000 HD 
HETATM    6  O   UNL     2     -10.401   9.754  71.008  1.00  0.00    -0.273 OA 
HETATM    7  C   UNL     2     -11.301  10.645  68.853  1.00  0.00    -0.274 C  
HETATM    8  C   UNL     2     -10.278   9.957  69.659  1.00  0.00    -0.237 C  
HETATM    9  O   UNL     2     -12.341  11.098  69.305  1.00  0.00    -0.381 OA 
HETATM   10  C   UNL     2      -9.262   9.598  68.870  1.00  0.00    -0.147 C  
ENDROOT
BRANCH   2  11
HETATM   11  C   UNL     2      -9.560   9.057  66.319  1.00  0.00    -0.260 C  
HETATM   12  H   UNL     2     -10.476   7.352  65.877  1.00  0.00     0.000 HD 
HETATM   13  O   UNL     2     -10.492   7.990  66.580  1.00  0.00    -0.303 OA 
BRANCH  11  14
HETATM   14  C   UNL     2      -9.799   9.615  64.908  1.00  0.00     0.003 C  
HETATM   15  H   UNL     2      -9.797  11.372  63.919  1.00  0.00     0.000 HD 
HETATM   16  O   UNL     2      -9.649  11.027  64.793  1.00  0.00    -0.223 OA 
ENDBRANCH  11  14
ENDBRANCH   2  11
TORSDOF 2
ENDMDL
MODEL      173
REMARK 921   NORMALIZED FREE ENERGY PREDICTED BY IDOCK:   -2.25 KCAL/MOL
REMARK 922        TOTAL FREE ENERGY PREDICTED BY IDOCK:   -2.72 KCAL/MOL
REMARK 923 INTER-LIGAND FREE ENERGY PREDICTED BY IDOCK:   -2.61 KCAL/MOL
REMARK 924 INTRA-LIGAND FREE ENERGY PREDICTED BY IDOCK:   -0.11 KCAL/MOL
REMARK 927      BINDING AFFINITY PREDICTED BY RF-SCORE:    0.00 PKD
ROOT
HETATM    1 NA   UNL     1      -8.124  10.376  67.374  1.00  0.00    -0.101 Na 
HETATM    2  C   UNL     2      -8.938   8.572  70.491  1.00  0.00    -0.155 C  
HETATM    3  O   UNL     2      -8.210  10.578  69.453  1.00  0.00    -0.158 OA 
HETATM    4  O   UNL     2     -10.202   8.106  70.982  1.00  0.00    -0.186 OA 
HETATM    5  H   UNL     2     -10.803  12.034  69.202  1.00  0.00     0.000 HD 
HETATM    6  O   UNL     2     -11.210  11.299  69.643  1.00  0.00    -0.257 OA 
HETATM    7  C   UNL     2     -11.143   9.054  70.741  1.00  0.00    -0.272 C  
HETATM    8  C   UNL     2     -10.512  10.194  70.055  1.00  0.00    -0.274 C  
HETATM    9  O   UNL     2     -12.335   8.983  71.000  1.00  0.00    -0.280 OA 
HETATM   10  C   UNL     2      -9.205   9.956  69.913  1.00  0.00    -0.212 C  
ENDROOT
BRANCH   2  11
HETATM   11  C   UNL     2      -7.840   8.457  71.580  1.00  0.00    -0.120 C  
HETATM   12  H   UNL     2      -7.699   8.732  73.540  1.00  0.00     0.000 HD 
HETATM   13  O   UNL     2      -8.371   8.802  72.873  1.00  0.00    -0.414 OA 
BRANCH  11  14
HETATM   14  C   UNL     2      -7.122   7.102  71.662  1.00  0.00    -0.069 C  
HETATM   15  H   UNL     2      -7.498   5.136  71.422  1.00  0.00     0.000 HD 
HETATM   16  O   UNL     2      -7.942   5.974  71.371  1.00  0.00    -0.110 OA 
ENDBRANCH  11  14
ENDBRANCH   2  11
TORSDOF 2
ENDMDL
MODEL      174
REMARK 921   NORMALIZED FREE ENERGY PREDICTED BY IDOCK:   -2.24 KCAL/MOL
REMARK 922        TOTAL FREE ENERGY PREDICTED BY IDOCK:   -2.71 KCAL/MOL
REMARK 923 INTER-LIGAND FREE ENERGY PREDICTED BY IDOCK:   -2.54 KCAL/MOL
REMARK 924 INTRA-LIGAND FREE ENERGY PREDICTED BY IDOCK:   -0.17 KCAL/MOL
REMARK 927      BINDING AFFINITY PREDICTED BY RF-SCORE:    0.00 PKD
ROOT
HETATM    1 NA   UNL     1      -7.278  12.451  66.265  1.00  0.00    -0.350 Na 
HETATM    2  C   UNL     2      -8.951   9.160  66.347  1.00  0.00    -0.149 C  
HETATM    3  O   UNL     2      -9.023  11.444  65.707  1.00  0.00    -0.204 OA 
HETATM    4  O   UNL     2      -8.623   7.943  65.661  1.00  0.00    -0.147 OA 
HETATM    5  H   UNL     2      -8.016  11.258  62.904  1.00  0.00     0.000 HD 
HETATM    6  O   UNL     2      -7.973  10.317  63.026  1.00  0.00    -0.146 OA 
HETATM    7  C   UNL     2      -8.256   8.241  64.389  1.00  0.00    -0.127 C  
HETATM    8  C   UNL     2      -8.321   9.700  64.199  1.00  0.00    -0.170 C  
HETATM    9  O   UNL     2      -7.886   7.453  63.532  1.00  0.00    -0.123 OA 
HETATM   10  C   UNL     2      -8.751  10.274  65.326  1.00  0.00    -0.172 C  
ENDROOT
BRANCH   2  11
HETATM   11  C   UNL     2     -10.340   9.060  67.026  1.00  0.00    -0.269 C  
HETATM   12  H   UNL     2     -11.560   7.622  67.643  1.00  0.00     0.000 HD 
HETATM   13  O   UNL     2     -10.708   7.683  67.227  1.00  0.00    -0.306 OA 
BRANCH  11  14
HETATM   14  C   UNL     2     -10.494   9.832  68.345  1.00  0.00    -0.218 C  
HETATM   15  H   UNL     2      -9.366  10.756  69.737  1.00  0.00     0.000 HD 
HETATM   16  O   UNL     2      -9.270  10.278  68.921  1.00  0.00    -0.156 OA 
ENDBRANCH  11  14
ENDBRANCH   2  11
TORSDOF 2
ENDMDL
MODEL      175
REMARK 921   NORMALIZED FREE ENERGY PREDICTED BY IDOCK:   -2.23 KCAL/MOL
REMARK 922        TOTAL FREE ENERGY PREDICTED BY IDOCK:   -2.69 KCAL/MOL
REMARK 923 INTER-LIGAND FREE ENERGY PREDICTED BY IDOCK:   -2.55 KCAL/MOL
REMARK 924 INTRA-LIGAND FREE ENERGY PREDICTED BY IDOCK:   -0.14 KCAL/MOL
REMARK 927      BINDING AFFINITY PREDICTED BY RF-SCORE:    0.00 PKD
ROOT
HETATM    1 NA   UNL     1      -8.214   9.423  69.844  1.00  0.00    -0.077 Na 
HETATM    2  C   UNL     2     -10.653   6.765  69.060  1.00  0.00    -0.230 C  
HETATM    3  O   UNL     2      -8.489   7.680  68.725  1.00  0.00    -0.128 OA 
HETATM    4  O   UNL     2     -11.175   5.719  69.892  1.00  0.00    -0.346 OA 
HETATM    5  H   UNL     2      -6.925   6.138  70.746  1.00  0.00     0.000 HD 
HETATM    6  O   UNL     2      -7.728   5.673  70.950  1.00  0.00    -0.091 OA 
HETATM    7  C   UNL     2     -10.165   5.210  70.643  1.00  0.00    -0.256 C  
HETATM    8  C   UNL     2      -8.920   5.932  70.328  1.00  0.00    -0.146 C  
HETATM    9  O   UNL     2     -10.252   4.326  71.482  1.00  0.00    -0.160 OA 
HETATM   10  C   UNL     2      -9.165   6.841  69.380  1.00  0.00    -0.143 C  
ENDROOT
BRANCH   2  11
HETATM   11  C   UNL     2     -11.051   6.549  67.578  1.00  0.00    -0.308 C  
HETATM   12  H   UNL     2     -11.141   7.636  65.920  1.00  0.00     0.000 HD 
HETATM   13  O   UNL     2     -10.896   7.768  66.829  1.00  0.00    -0.254 OA 
BRANCH  11  14
HETATM   14  C   UNL     2     -10.329   5.403  66.854  1.00  0.00    -0.260 C  
HETATM   15  H   UNL     2      -8.915   5.111  65.447  1.00  0.00     0.000 HD 
HETATM   16  O   UNL     2      -9.361   5.820  65.896  1.00  0.00    -0.152 OA 
ENDBRANCH  11  14
ENDBRANCH   2  11
TORSDOF 2
ENDMDL
MODEL      176
REMARK 921   NORMALIZED FREE ENERGY PREDICTED BY IDOCK:   -2.22 KCAL/MOL
REMARK 922        TOTAL FREE ENERGY PREDICTED BY IDOCK:   -2.68 KCAL/MOL
REMARK 923 INTER-LIGAND FREE ENERGY PREDICTED BY IDOCK:   -2.50 KCAL/MOL
REMARK 924 INTRA-LIGAND FREE ENERGY PREDICTED BY IDOCK:   -0.19 KCAL/MOL
REMARK 927      BINDING AFFINITY PREDICTED BY RF-SCORE:    0.00 PKD
ROOT
HETATM    1 NA   UNL     1      -6.904  11.122  70.030  1.00  0.00    -0.098 Na 
HETATM    2  C   UNL     2      -8.884  11.027  66.916  1.00  0.00    -0.149 C  
HETATM    3  O   UNL     2      -7.914   9.838  68.726  1.00  0.00    -0.083 OA 
HETATM    4  O   UNL     2     -10.200  11.531  66.645  1.00  0.00    -0.209 OA 
HETATM    5  H   UNL     2     -10.223   9.742  70.615  1.00  0.00     0.000 HD 
HETATM    6  O   UNL     2     -10.732  10.191  69.950  1.00  0.00    -0.255 OA 
HETATM    7  C   UNL     2     -11.001  11.261  67.708  1.00  0.00    -0.252 C  
HETATM    8  C   UNL     2     -10.212  10.566  68.739  1.00  0.00    -0.190 C  
HETATM    9  O   UNL     2     -12.175  11.571  67.834  1.00  0.00    -0.586 OA 
HETATM   10  C   UNL     2      -8.965  10.388  68.297  1.00  0.00    -0.135 C  
ENDROOT
BRANCH   2  11
HETATM   11  C   UNL     2      -8.377  10.139  65.751  1.00  0.00    -0.145 C  
HETATM   12  H   UNL     2      -8.876   9.788  63.862  1.00  0.00     0.000 HD 
HETATM   13  O   UNL     2      -9.187  10.333  64.576  1.00  0.00    -0.205 OA 
BRANCH  11  14
HETATM   14  C   UNL     2      -6.894  10.301  65.386  1.00  0.00    -0.140 C  
HETATM   15  H   UNL     2      -5.114   9.414  65.719  1.00  0.00     0.000 HD 
HETATM   16  O   UNL     2      -6.032   9.314  65.945  1.00  0.00    -0.050 OA 
ENDBRANCH  11  14
ENDBRANCH   2  11
TORSDOF 2
ENDMDL
MODEL      177
REMARK 921   NORMALIZED FREE ENERGY PREDICTED BY IDOCK:   -2.22 KCAL/MOL
REMARK 922        TOTAL FREE ENERGY PREDICTED BY IDOCK:   -2.68 KCAL/MOL
REMARK 923 INTER-LIGAND FREE ENERGY PREDICTED BY IDOCK:   -2.50 KCAL/MOL
REMARK 924 INTRA-LIGAND FREE ENERGY PREDICTED BY IDOCK:   -0.18 KCAL/MOL
REMARK 927      BINDING AFFINITY PREDICTED BY RF-SCORE:    0.00 PKD
ROOT
HETATM    1 NA   UNL     1      -8.930   3.232  71.767  1.00  0.00    -0.079 Na 
HETATM    2  C   UNL     2      -9.629   6.720  70.781  1.00  0.00    -0.168 C  
HETATM    3  O   UNL     2     -10.395   4.722  71.807  1.00  0.00    -0.200 OA 
HETATM    4  O   UNL     2      -9.075   7.947  71.278  1.00  0.00    -0.134 OA 
HETATM    5  H   UNL     2      -9.736   5.288  74.663  1.00  0.00     0.000 HD 
HETATM    6  O   UNL     2      -9.427   6.140  74.379  1.00  0.00    -0.159 OA 
HETATM    7  C   UNL     2      -8.965   7.864  72.628  1.00  0.00    -0.192 C  
HETATM    8  C   UNL     2      -9.444   6.543  73.069  1.00  0.00    -0.141 C  
HETATM    9  O   UNL     2      -8.507   8.713  73.377  1.00  0.00    -0.385 OA 
HETATM   10  C   UNL     2      -9.867   5.850  72.009  1.00  0.00    -0.157 C  
ENDROOT
BRANCH   2  11
HETATM   11  C   UNL     2     -10.843   6.992  69.856  1.00  0.00    -0.251 C  
HETATM   12  H   UNL     2     -11.762   8.573  69.085  1.00  0.00     0.000 HD 
HETATM   13  O   UNL     2     -11.018   8.407  69.652  1.00  0.00    -0.200 OA 
BRANCH  11  14
HETATM   14  C   UNL     2     -10.821   6.273  68.499  1.00  0.00    -0.323 C  
HETATM   15  H   UNL     2      -9.522   5.378  67.244  1.00  0.00     0.000 HD 
HETATM   16  O   UNL     2      -9.535   5.823  68.084  1.00  0.00    -0.109 OA 
ENDBRANCH  11  14
ENDBRANCH   2  11
TORSDOF 2
ENDMDL
MODEL      178
REMARK 921   NORMALIZED FREE ENERGY PREDICTED BY IDOCK:   -2.18 KCAL/MOL
REMARK 922        TOTAL FREE ENERGY PREDICTED BY IDOCK:   -2.64 KCAL/MOL
REMARK 923 INTER-LIGAND FREE ENERGY PREDICTED BY IDOCK:   -2.54 KCAL/MOL
REMARK 924 INTRA-LIGAND FREE ENERGY PREDICTED BY IDOCK:   -0.10 KCAL/MOL
REMARK 927      BINDING AFFINITY PREDICTED BY RF-SCORE:    0.00 PKD
ROOT
HETATM    1 NA   UNL     1      -6.375   8.221  68.452  1.00  0.00    -0.042 Na 
HETATM    2  C   UNL     2      -8.995  10.493  67.185  1.00  0.00    -0.140 C  
HETATM    3  O   UNL     2      -8.070   9.304  69.019  1.00  0.00    -0.101 OA 
HETATM    4  O   UNL     2      -8.895  11.847  66.723  1.00  0.00    -0.184 OA 
HETATM    5  H   UNL     2      -6.323  11.410  70.210  1.00  0.00     0.000 HD 
HETATM    6  O   UNL     2      -6.647  11.999  69.538  1.00  0.00    -0.116 OA 
HETATM    7  C   UNL     2      -8.051  12.529  67.540  1.00  0.00    -0.176 C  
HETATM    8  C   UNL     2      -7.549  11.616  68.581  1.00  0.00    -0.133 C  
HETATM    9  O   UNL     2      -7.712  13.697  67.428  1.00  0.00    -0.170 OA 
HETATM   10  C   UNL     2      -8.103  10.412  68.418  1.00  0.00    -0.112 C  
ENDROOT
BRANCH   2  11
HETATM   11  C   UNL     2     -10.476  10.068  67.350  1.00  0.00    -0.260 C  
HETATM   12  H   UNL     2     -11.528   8.387  67.264  1.00  0.00     0.000 HD 
HETATM   13  O   UNL     2     -10.620   8.647  67.163  1.00  0.00    -0.294 OA 
BRANCH  11  14
HETATM   14  C   UNL     2     -11.147  10.486  68.667  1.00  0.00    -0.267 C  
HETATM   15  H   UNL     2     -12.759  11.500  69.327  1.00  0.00     0.000 HD 
HETATM   16  O   UNL     2     -12.345  11.241  68.512  1.00  0.00    -0.543 OA 
ENDBRANCH  11  14
ENDBRANCH   2  11
TORSDOF 2
ENDMDL
MODEL      179
REMARK 921   NORMALIZED FREE ENERGY PREDICTED BY IDOCK:   -2.18 KCAL/MOL
REMARK 922        TOTAL FREE ENERGY PREDICTED BY IDOCK:   -2.64 KCAL/MOL
REMARK 923 INTER-LIGAND FREE ENERGY PREDICTED BY IDOCK:   -2.48 KCAL/MOL
REMARK 924 INTRA-LIGAND FREE ENERGY PREDICTED BY IDOCK:   -0.16 KCAL/MOL
REMARK 927      BINDING AFFINITY PREDICTED BY RF-SCORE:    0.00 PKD
ROOT
HETATM    1 NA   UNL     1      -9.242   5.108  72.208  1.00  0.00    -0.128 Na 
HETATM    2  C   UNL     2     -10.288   7.232  69.374  1.00  0.00    -0.208 C  
HETATM    3  O   UNL     2      -8.518   6.271  70.629  1.00  0.00    -0.131 OA 
HETATM    4  O   UNL     2     -10.951   6.877  68.153  1.00  0.00    -0.207 OA 
HETATM    5  H   UNL     2      -8.008   3.794  69.043  1.00  0.00     0.000 HD 
HETATM    6  O   UNL     2      -8.682   4.090  68.443  1.00  0.00    -0.092 OA 
HETATM    7  C   UNL     2     -10.423   5.717  67.687  1.00  0.00    -0.219 C  
HETATM    8  C   UNL     2      -9.379   5.256  68.619  1.00  0.00    -0.121 C  
HETATM    9  O   UNL     2     -10.766   5.108  66.685  1.00  0.00    -0.279 OA 
HETATM   10  C   UNL     2      -9.254   6.139  69.614  1.00  0.00    -0.143 C  
ENDROOT
BRANCH   2  11
HETATM   11  C   UNL     2      -9.777   8.695  69.326  1.00  0.00    -0.173 C  
HETATM   12  H   UNL     2     -10.146  10.332  68.268  1.00  0.00     0.000 HD 
HETATM   13  O   UNL     2     -10.459   9.436  68.297  1.00  0.00    -0.204 OA 
BRANCH  11  14
HETATM   14  C   UNL     2      -9.847   9.469  70.651  1.00  0.00    -0.262 C  
HETATM   15  H   UNL     2     -10.996   9.611  72.301  1.00  0.00     0.000 HD 
HETATM   16  O   UNL     2     -10.953   9.131  71.481  1.00  0.00    -0.314 OA 
ENDBRANCH  11  14
ENDBRANCH   2  11
TORSDOF 2
ENDMDL
MODEL      180
REMARK 921   NORMALIZED FREE ENERGY PREDICTED BY IDOCK:   -2.18 KCAL/MOL
REMARK 922        TOTAL FREE ENERGY PREDICTED BY IDOCK:   -2.64 KCAL/MOL
REMARK 923 INTER-LIGAND FREE ENERGY PREDICTED BY IDOCK:   -2.44 KCAL/MOL
REMARK 924 INTRA-LIGAND FREE ENERGY PREDICTED BY IDOCK:   -0.19 KCAL/MOL
REMARK 927      BINDING AFFINITY PREDICTED BY RF-SCORE:    0.00 PKD
ROOT
HETATM    1 NA   UNL     1     -10.641  11.849  68.527  1.00  0.00    -0.173 Na 
HETATM    2  C   UNL     2      -9.852   8.257  68.210  1.00  0.00    -0.172 C  
HETATM    3  O   UNL     2     -10.961  10.163  67.334  1.00  0.00    -0.292 OA 
HETATM    4  O   UNL     2      -8.604   7.609  67.921  1.00  0.00    -0.122 OA 
HETATM    5  H   UNL     2      -8.913  11.145  65.399  1.00  0.00     0.000 HD 
HETATM    6  O   UNL     2      -8.384  10.395  65.643  1.00  0.00    -0.152 OA 
HETATM    7  C   UNL     2      -7.960   8.309  66.952  1.00  0.00    -0.099 C  
HETATM    8  C   UNL     2      -8.780   9.472  66.574  1.00  0.00    -0.134 C  
HETATM    9  O   UNL     2      -6.861   8.062  66.482  1.00  0.00    -0.064 OA 
HETATM   10  C   UNL     2      -9.915   9.461  67.278  1.00  0.00    -0.196 C  
ENDROOT
BRANCH   2  11
HETATM   11  C   UNL     2     -11.028   7.249  68.151  1.00  0.00     0.007 C  
HETATM   12  H   UNL     2     -11.833   6.026  66.812  1.00  0.00     0.000 HD 
HETATM   13  O   UNL     2     -11.112   6.643  66.848  1.00  0.00    -0.400 OA 
BRANCH  11  14
HETATM   14  C   UNL     2     -11.024   6.156  69.230  1.00  0.00    -0.381 C  
HETATM   15  H   UNL     2     -11.040   5.963  71.236  1.00  0.00     0.000 HD 
HETATM   16  O   UNL     2     -11.043   6.640  70.569  1.00  0.00    -0.263 OA 
ENDBRANCH  11  14
ENDBRANCH   2  11
TORSDOF 2
ENDMDL
MODEL      181
REMARK 921   NORMALIZED FREE ENERGY PREDICTED BY IDOCK:   -2.18 KCAL/MOL
REMARK 922        TOTAL FREE ENERGY PREDICTED BY IDOCK:   -2.63 KCAL/MOL
REMARK 923 INTER-LIGAND FREE ENERGY PREDICTED BY IDOCK:   -2.50 KCAL/MOL
REMARK 924 INTRA-LIGAND FREE ENERGY PREDICTED BY IDOCK:   -0.14 KCAL/MOL
REMARK 927      BINDING AFFINITY PREDICTED BY RF-SCORE:    0.00 PKD
ROOT
HETATM    1 NA   UNL     1     -10.935  12.922  68.741  1.00  0.00    -0.200 Na 
HETATM    2  C   UNL     2     -10.387   9.769  66.900  1.00  0.00    -0.234 C  
HETATM    3  O   UNL     2      -9.498  11.819  67.698  1.00  0.00    -0.173 OA 
HETATM    4  O   UNL     2     -10.358   8.417  67.378  1.00  0.00    -0.241 OA 
HETATM    5  H   UNL     2      -8.309  10.928  70.286  1.00  0.00     0.000 HD 
HETATM    6  O   UNL     2      -8.587  10.048  70.063  1.00  0.00    -0.190 OA 
HETATM    7  C   UNL     2      -9.688   8.383  68.558  1.00  0.00    -0.160 C  
HETATM    8  C   UNL     2      -9.257   9.747  68.906  1.00  0.00    -0.155 C  
HETATM    9  O   UNL     2      -9.496   7.402  69.261  1.00  0.00    -0.154 OA 
HETATM   10  C   UNL     2      -9.631  10.589  67.938  1.00  0.00    -0.150 C  
ENDROOT
BRANCH   2  11
HETATM   11  C   UNL     2      -9.895   9.852  65.433  1.00  0.00    -0.313 C  
HETATM   12  H   UNL     2     -10.370  10.862  63.792  1.00  0.00     0.000 HD 
HETATM   13  O   UNL     2     -10.671  10.812  64.691  1.00  0.00    -0.284 OA 
BRANCH  11  14
HETATM   14  C   UNL     2      -8.399  10.146  65.247  1.00  0.00    -0.159 C  
HETATM   15  H   UNL     2      -6.608   9.248  65.471  1.00  0.00     0.000 HD 
HETATM   16  O   UNL     2      -7.534   9.066  65.585  1.00  0.00    -0.085 OA 
ENDBRANCH  11  14
ENDBRANCH   2  11
TORSDOF 2
ENDMDL
MODEL      182
REMARK 921   NORMALIZED FREE ENERGY PREDICTED BY IDOCK:   -2.18 KCAL/MOL
REMARK 922        TOTAL FREE ENERGY PREDICTED BY IDOCK:   -2.63 KCAL/MOL
REMARK 923 INTER-LIGAND FREE ENERGY PREDICTED BY IDOCK:   -2.45 KCAL/MOL
REMARK 924 INTRA-LIGAND FREE ENERGY PREDICTED BY IDOCK:   -0.18 KCAL/MOL
REMARK 927      BINDING AFFINITY PREDICTED BY RF-SCORE:    0.00 PKD
ROOT
HETATM    1 NA   UNL     1     -11.799   7.014  67.275  1.00  0.00    -0.559 Na 
HETATM    2  C   UNL     2      -9.881   9.377  69.364  1.00  0.00    -0.178 C  
HETATM    3  O   UNL     2      -9.983   8.039  67.407  1.00  0.00    -0.172 OA 
HETATM    4  O   UNL     2     -10.114  10.767  69.635  1.00  0.00    -0.156 OA 
HETATM    5  H   UNL     2     -10.973  10.042  65.428  1.00  0.00     0.000 HD 
HETATM    6  O   UNL     2     -10.943  10.685  66.127  1.00  0.00    -0.076 OA 
HETATM    7  C   UNL     2     -10.503  11.378  68.488  1.00  0.00    -0.203 C  
HETATM    8  C   UNL     2     -10.550  10.382  67.404  1.00  0.00    -0.269 C  
HETATM    9  O   UNL     2     -10.812  12.553  68.355  1.00  0.00    -0.224 OA 
HETATM   10  C   UNL     2     -10.165   9.194  67.879  1.00  0.00    -0.216 C  
ENDROOT
BRANCH   2  11
HETATM   11  C   UNL     2      -8.488   8.935  69.881  1.00  0.00    -0.135 C  
HETATM   12  H   UNL     2      -7.646   7.271  70.560  1.00  0.00     0.000 HD 
HETATM   13  O   UNL     2      -8.500   7.542  70.243  1.00  0.00    -0.134 OA 
BRANCH  11  14
HETATM   14  C   UNL     2      -7.308   9.213  68.937  1.00  0.00    -0.074 C  
HETATM   15  H   UNL     2      -6.063  10.711  68.417  1.00  0.00     0.000 HD 
HETATM   16  O   UNL     2      -6.793  10.539  69.001  1.00  0.00    -0.058 OA 
ENDBRANCH  11  14
ENDBRANCH   2  11
TORSDOF 2
ENDMDL
MODEL      183
REMARK 921   NORMALIZED FREE ENERGY PREDICTED BY IDOCK:   -2.17 KCAL/MOL
REMARK 922        TOTAL FREE ENERGY PREDICTED BY IDOCK:   -2.63 KCAL/MOL
REMARK 923 INTER-LIGAND FREE ENERGY PREDICTED BY IDOCK:   -2.48 KCAL/MOL
REMARK 924 INTRA-LIGAND FREE ENERGY PREDICTED BY IDOCK:   -0.14 KCAL/MOL
REMARK 927      BINDING AFFINITY PREDICTED BY RF-SCORE:    0.00 PKD
ROOT
HETATM    1 NA   UNL     1      -7.472   7.360  66.707  1.00  0.00    -0.076 Na 
HETATM    2  C   UNL     2     -10.176   9.011  68.601  1.00  0.00    -0.205 C  
HETATM    3  O   UNL     2      -7.857   8.849  68.122  1.00  0.00    -0.099 OA 
HETATM    4  O   UNL     2     -11.231   9.869  68.143  1.00  0.00    -0.207 OA 
HETATM    5  H   UNL     2      -7.592  10.931  65.999  1.00  0.00     0.000 HD 
HETATM    6  O   UNL     2      -8.515  11.114  66.123  1.00  0.00    -0.169 OA 
HETATM    7  C   UNL     2     -10.729  10.725  67.216  1.00  0.00    -0.274 C  
HETATM    8  C   UNL     2      -9.297  10.440  67.024  1.00  0.00    -0.154 C  
HETATM    9  O   UNL     2     -11.350  11.574  66.596  1.00  0.00    -0.344 OA 
HETATM   10  C   UNL     2      -8.930   9.451  67.843  1.00  0.00    -0.123 C  
ENDROOT
BRANCH   2  11
HETATM   11  C   UNL     2     -10.099   9.001  70.149  1.00  0.00    -0.193 C  
HETATM   12  H   UNL     2     -10.993   9.929  71.658  1.00  0.00     0.000 HD 
HETATM   13  O   UNL     2     -11.040   9.935  70.710  1.00  0.00    -0.303 OA 
BRANCH  11  14
HETATM   14  C   UNL     2     -10.275   7.629  70.816  1.00  0.00    -0.201 C  
HETATM   15  H   UNL     2      -9.592   6.578  72.396  1.00  0.00     0.000 HD 
HETATM   16  O   UNL     2      -9.483   7.428  71.983  1.00  0.00    -0.136 OA 
ENDBRANCH  11  14
ENDBRANCH   2  11
TORSDOF 2
ENDMDL
MODEL      184
REMARK 921   NORMALIZED FREE ENERGY PREDICTED BY IDOCK:   -2.16 KCAL/MOL
REMARK 922        TOTAL FREE ENERGY PREDICTED BY IDOCK:   -2.61 KCAL/MOL
REMARK 923 INTER-LIGAND FREE ENERGY PREDICTED BY IDOCK:   -2.43 KCAL/MOL
REMARK 924 INTRA-LIGAND FREE ENERGY PREDICTED BY IDOCK:   -0.19 KCAL/MOL
REMARK 927      BINDING AFFINITY PREDICTED BY RF-SCORE:    0.00 PKD
ROOT
HETATM    1 NA   UNL     1      -8.184   6.980  67.643  1.00  0.00    -0.104 Na 
HETATM    2  C   UNL     2      -9.653   5.544  70.710  1.00  0.00    -0.170 C  
HETATM    3  O   UNL     2      -8.281   7.206  69.719  1.00  0.00    -0.127 OA 
HETATM    4  O   UNL     2     -11.019   5.510  71.149  1.00  0.00    -0.221 OA 
HETATM    5  H   UNL     2     -10.258   9.417  69.383  1.00  0.00     0.000 HD 
HETATM    6  O   UNL     2     -10.896   8.853  69.802  1.00  0.00    -0.235 OA 
HETATM    7  C   UNL     2     -11.596   6.709  70.881  1.00  0.00    -0.361 C  
HETATM    8  C   UNL     2     -10.606   7.584  70.230  1.00  0.00    -0.229 C  
HETATM    9  O   UNL     2     -12.756   7.025  71.094  1.00  0.00    -0.381 OA 
HETATM   10  C   UNL     2      -9.440   6.938  70.135  1.00  0.00    -0.162 C  
ENDROOT
BRANCH   2  11
HETATM   11  C   UNL     2      -8.694   5.086  71.838  1.00  0.00    -0.129 C  
HETATM   12  H   UNL     2      -6.888   4.274  71.975  1.00  0.00     0.000 HD 
HETATM   13  O   UNL     2      -7.476   4.555  71.284  1.00  0.00    -0.063 OA 
BRANCH  11  14
HETATM   14  C   UNL     2      -8.359   6.145  72.899  1.00  0.00    -0.116 C  
HETATM   15  H   UNL     2      -9.167   7.009  74.532  1.00  0.00     0.000 HD 
HETATM   16  O   UNL     2      -9.375   6.353  73.875  1.00  0.00    -0.131 OA 
ENDBRANCH  11  14
ENDBRANCH   2  11
TORSDOF 2
ENDMDL
MODEL      185
REMARK 921   NORMALIZED FREE ENERGY PREDICTED BY IDOCK:   -2.16 KCAL/MOL
REMARK 922        TOTAL FREE ENERGY PREDICTED BY IDOCK:   -2.61 KCAL/MOL
REMARK 923 INTER-LIGAND FREE ENERGY PREDICTED BY IDOCK:   -2.43 KCAL/MOL
REMARK 924 INTRA-LIGAND FREE ENERGY PREDICTED BY IDOCK:   -0.19 KCAL/MOL
REMARK 927      BINDING AFFINITY PREDICTED BY RF-SCORE:    0.00 PKD
ROOT
HETATM    1 NA   UNL     1      -7.159   5.978  66.908  1.00  0.00    -0.055 Na 
HETATM    2  C   UNL     2      -8.690   7.833  69.709  1.00  0.00    -0.139 C  
HETATM    3  O   UNL     2      -8.233   7.707  67.384  1.00  0.00    -0.114 OA 
HETATM    4  O   UNL     2      -9.826   7.503  70.521  1.00  0.00    -0.183 OA 
HETATM    5  H   UNL     2     -10.740   6.416  66.404  1.00  0.00     0.000 HD 
HETATM    6  O   UNL     2     -11.052   6.441  67.300  1.00  0.00    -0.368 OA 
HETATM    7  C   UNL     2     -10.797   6.985  69.727  1.00  0.00    -0.248 C  
HETATM    8  C   UNL     2     -10.312   6.946  68.337  1.00  0.00    -0.190 C  
HETATM    9  O   UNL     2     -11.889   6.570  70.085  1.00  0.00    -0.416 OA 
HETATM   10  C   UNL     2      -9.081   7.462  68.284  1.00  0.00    -0.128 C  
ENDROOT
BRANCH   2  11
HETATM   11  C   UNL     2      -8.229   9.291  69.962  1.00  0.00    -0.154 C  
HETATM   12  H   UNL     2      -6.523  10.305  69.935  1.00  0.00     0.000 HD 
HETATM   13  O   UNL     2      -6.805   9.412  69.779  1.00  0.00    -0.048 OA 
BRANCH  11  14
HETATM   14  C   UNL     2      -8.948  10.370  69.140  1.00  0.00    -0.179 C  
HETATM   15  H   UNL     2     -10.699  11.369  69.094  1.00  0.00     0.000 HD 
HETATM   16  O   UNL     2     -10.253  10.701  69.604  1.00  0.00    -0.206 OA 
ENDBRANCH  11  14
ENDBRANCH   2  11
TORSDOF 2
ENDMDL
MODEL      186
REMARK 921   NORMALIZED FREE ENERGY PREDICTED BY IDOCK:   -2.14 KCAL/MOL
REMARK 922        TOTAL FREE ENERGY PREDICTED BY IDOCK:   -2.59 KCAL/MOL
REMARK 923 INTER-LIGAND FREE ENERGY PREDICTED BY IDOCK:   -2.39 KCAL/MOL
REMARK 924 INTRA-LIGAND FREE ENERGY PREDICTED BY IDOCK:   -0.20 KCAL/MOL
REMARK 927      BINDING AFFINITY PREDICTED BY RF-SCORE:    0.00 PKD
ROOT
HETATM    1 NA   UNL     1      -8.524   4.528  67.406  1.00  0.00    -0.100 Na 
HETATM    2  C   UNL     2      -8.922   8.176  67.812  1.00  0.00    -0.132 C  
HETATM    3  O   UNL     2      -9.744   6.146  66.897  1.00  0.00    -0.137 OA 
HETATM    4  O   UNL     2      -9.242   8.943  68.982  1.00  0.00    -0.140 OA 
HETATM    5  H   UNL     2     -11.690   5.342  69.012  1.00  0.00     0.000 HD 
HETATM    6  O   UNL     2     -11.468   6.148  69.463  1.00  0.00    -0.429 OA 
HETATM    7  C   UNL     2     -10.206   8.294  69.683  1.00  0.00    -0.209 C  
HETATM    8  C   UNL     2     -10.549   7.044  68.984  1.00  0.00    -0.217 C  
HETATM    9  O   UNL     2     -10.698   8.644  70.745  1.00  0.00    -0.203 OA 
HETATM   10  C   UNL     2      -9.829   6.952  67.863  1.00  0.00    -0.135 C  
ENDROOT
BRANCH   2  11
HETATM   11  C   UNL     2      -8.984   9.053  66.536  1.00  0.00    -0.146 C  
HETATM   12  H   UNL     2     -10.388   9.855  65.386  1.00  0.00     0.000 HD 
HETATM   13  O   UNL     2     -10.350   9.318  66.168  1.00  0.00    -0.229 OA 
BRANCH  11  14
HETATM   14  C   UNL     2      -8.201  10.374  66.597  1.00  0.00    -0.128 C  
HETATM   15  H   UNL     2      -8.504  12.360  66.429  1.00  0.00     0.000 HD 
HETATM   16  O   UNL     2      -8.988  11.543  66.391  1.00  0.00    -0.190 OA 
ENDBRANCH  11  14
ENDBRANCH   2  11
TORSDOF 2
ENDMDL
MODEL      187
REMARK 921   NORMALIZED FREE ENERGY PREDICTED BY IDOCK:   -2.14 KCAL/MOL
REMARK 922        TOTAL FREE ENERGY PREDICTED BY IDOCK:   -2.59 KCAL/MOL
REMARK 923 INTER-LIGAND FREE ENERGY PREDICTED BY IDOCK:   -2.48 KCAL/MOL
REMARK 924 INTRA-LIGAND FREE ENERGY PREDICTED BY IDOCK:   -0.11 KCAL/MOL
REMARK 927      BINDING AFFINITY PREDICTED BY RF-SCORE:    0.00 PKD
ROOT
HETATM    1 NA   UNL     1      -9.170  10.874  69.996  1.00  0.00    -0.374 Na 
HETATM    2  C   UNL     2      -9.429   7.220  70.455  1.00  0.00    -0.165 C  
HETATM    3  O   UNL     2      -9.972   9.134  69.161  1.00  0.00    -0.177 OA 
HETATM    4  O   UNL     2      -8.419   6.206  70.359  1.00  0.00    -0.129 OA 
HETATM    5  H   UNL     2      -7.762   9.080  67.155  1.00  0.00     0.000 HD 
HETATM    6  O   UNL     2      -7.462   8.281  67.570  1.00  0.00    -0.091 OA 
HETATM    7  C   UNL     2      -7.621   6.480  69.296  1.00  0.00    -0.100 C  
HETATM    8  C   UNL     2      -8.087   7.720  68.653  1.00  0.00    -0.127 C  
HETATM    9  O   UNL     2      -6.644   5.843  68.933  1.00  0.00    -0.050 OA 
HETATM   10  C   UNL     2      -9.167   8.172  69.295  1.00  0.00    -0.151 C  
ENDROOT
BRANCH   2  11
HETATM   11  C   UNL     2     -10.842   6.592  70.553  1.00  0.00    -0.271 C  
HETATM   12  H   UNL     2     -11.646   4.913  71.243  1.00  0.00     0.000 HD 
HETATM   13  O   UNL     2     -10.779   5.298  71.183  1.00  0.00    -0.206 OA 
BRANCH  11  14
HETATM   14  C   UNL     2     -11.908   7.452  71.249  1.00  0.00    -0.301 C  
HETATM   15  H   UNL     2     -12.058   8.896  72.648  1.00  0.00     0.000 HD 
HETATM   16  O   UNL     2     -11.399   8.364  72.217  1.00  0.00    -0.336 OA 
ENDBRANCH  11  14
ENDBRANCH   2  11
TORSDOF 2
ENDMDL
MODEL      188
REMARK 921   NORMALIZED FREE ENERGY PREDICTED BY IDOCK:   -2.12 KCAL/MOL
REMARK 922        TOTAL FREE ENERGY PREDICTED BY IDOCK:   -2.57 KCAL/MOL
REMARK 923 INTER-LIGAND FREE ENERGY PREDICTED BY IDOCK:   -2.43 KCAL/MOL
REMARK 924 INTRA-LIGAND FREE ENERGY PREDICTED BY IDOCK:   -0.14 KCAL/MOL
REMARK 927      BINDING AFFINITY PREDICTED BY RF-SCORE:    0.00 PKD
ROOT
HETATM    1 NA   UNL     1      -9.334  12.257  70.248  1.00  0.00     0.955 Na 
HETATM    2  C   UNL     2     -10.595  14.869  67.964  1.00  0.00    -0.248 C  
HETATM    3  O   UNL     2      -8.841  13.385  68.559  1.00  0.00    -0.157 OA 
HETATM    4  O   UNL     2     -11.661  14.818  67.005  1.00  0.00    -0.368 OA 
HETATM    5  H   UNL     2      -9.485  11.050  66.815  1.00  0.00     0.000 HD 
HETATM    6  O   UNL     2     -10.207  11.561  66.469  1.00  0.00    -0.207 OA 
HETATM    7  C   UNL     2     -11.614  13.625  66.359  1.00  0.00    -0.350 C  
HETATM    8  C   UNL     2     -10.494  12.832  66.895  1.00  0.00    -0.240 C  
HETATM    9  O   UNL     2     -12.386  13.229  65.499  1.00  0.00    -0.435 OA 
HETATM   10  C   UNL     2      -9.855  13.544  67.827  1.00  0.00    -0.233 C  
ENDROOT
BRANCH   2  11
HETATM   11  C   UNL     2      -9.763  16.167  67.803  1.00  0.00    -0.229 C  
HETATM   12  H   UNL     2      -9.281  17.416  66.339  1.00  0.00     0.000 HD 
HETATM   13  O   UNL     2      -9.792  16.621  66.437  1.00  0.00    -0.261 OA 
BRANCH  11  14
HETATM   14  C   UNL     2     -10.144  17.323  68.739  1.00  0.00    -0.337 C  
HETATM   15  H   UNL     2     -10.254  19.336  68.746  1.00  0.00     0.000 HD 
HETATM   16  O   UNL     2     -10.019  18.620  68.166  1.00  0.00    -0.322 OA 
ENDBRANCH  11  14
ENDBRANCH   2  11
TORSDOF 2
ENDMDL
MODEL      189
REMARK 921   NORMALIZED FREE ENERGY PREDICTED BY IDOCK:   -2.11 KCAL/MOL
REMARK 922        TOTAL FREE ENERGY PREDICTED BY IDOCK:   -2.56 KCAL/MOL
REMARK 923 INTER-LIGAND FREE ENERGY PREDICTED BY IDOCK:   -2.40 KCAL/MOL
REMARK 924 INTRA-LIGAND FREE ENERGY PREDICTED BY IDOCK:   -0.17 KCAL/MOL
REMARK 927      BINDING AFFINITY PREDICTED BY RF-SCORE:    0.00 PKD
ROOT
HETATM    1 NA   UNL     1      -7.084   6.801  68.034  1.00  0.00    -0.062 Na 
HETATM    2  C   UNL     2      -9.325   6.355  70.934  1.00  0.00    -0.161 C  
HETATM    3  O   UNL     2      -9.094   6.770  68.610  1.00  0.00    -0.129 OA 
HETATM    4  O   UNL     2      -9.599   5.183  71.716  1.00  0.00    -0.145 OA 
HETATM    5  H   UNL     2      -9.357   3.998  67.533  1.00  0.00     0.000 HD 
HETATM    6  O   UNL     2      -9.497   3.710  68.426  1.00  0.00    -0.172 OA 
HETATM    7  C   UNL     2      -9.706   4.116  70.884  1.00  0.00    -0.189 C  
HETATM    8  C   UNL     2      -9.488   4.564  69.498  1.00  0.00    -0.174 C  
HETATM    9  O   UNL     2      -9.907   2.956  71.207  1.00  0.00    -0.156 OA 
HETATM   10  C   UNL     2      -9.285   5.884  69.486  1.00  0.00    -0.135 C  
ENDROOT
BRANCH   2  11
HETATM   11  C   UNL     2     -10.311   7.500  71.282  1.00  0.00    -0.192 C  
HETATM   12  H   UNL     2     -12.080   7.681  72.162  1.00  0.00     0.000 HD 
HETATM   13  O   UNL     2     -11.476   6.979  71.949  1.00  0.00    -0.251 OA 
BRANCH  11  14
HETATM   14  C   UNL     2      -9.724   8.660  72.100  1.00  0.00    -0.313 C  
HETATM   15  H   UNL     2      -8.196   9.975  72.042  1.00  0.00     0.000 HD 
HETATM   16  O   UNL     2      -8.560   9.257  71.536  1.00  0.00    -0.320 OA 
ENDBRANCH  11  14
ENDBRANCH   2  11
TORSDOF 2
ENDMDL
MODEL      190
REMARK 921   NORMALIZED FREE ENERGY PREDICTED BY IDOCK:   -2.08 KCAL/MOL
REMARK 922        TOTAL FREE ENERGY PREDICTED BY IDOCK:   -2.53 KCAL/MOL
REMARK 923 INTER-LIGAND FREE ENERGY PREDICTED BY IDOCK:   -2.33 KCAL/MOL
REMARK 924 INTRA-LIGAND FREE ENERGY PREDICTED BY IDOCK:   -0.20 KCAL/MOL
REMARK 927      BINDING AFFINITY PREDICTED BY RF-SCORE:    0.00 PKD
ROOT
HETATM    1 NA   UNL     1     -10.756  10.363  68.011  1.00  0.00    -0.162 Na 
HETATM    2  C   UNL     2      -8.558  13.248  68.697  1.00  0.00     0.026 C  
HETATM    3  O   UNL     2      -9.397  11.681  67.126  1.00  0.00    -0.170 OA 
HETATM    4  O   UNL     2      -8.893  14.603  69.031  1.00  0.00    -0.166 OA 
HETATM    5  H   UNL     2     -11.666  13.235  65.965  1.00  0.00     0.000 HD 
HETATM    6  O   UNL     2     -11.406  13.955  66.528  1.00  0.00    -0.314 OA 
HETATM    7  C   UNL     2      -9.943  14.997  68.266  1.00  0.00    -0.225 C  
HETATM    8  C   UNL     2     -10.347  13.881  67.394  1.00  0.00    -0.252 C  
HETATM    9  O   UNL     2     -10.508  16.079  68.303  1.00  0.00    -0.251 OA 
HETATM   10  C   UNL     2      -9.537  12.840  67.604  1.00  0.00    -0.192 C  
ENDROOT
BRANCH   2  11
HETATM   11  C   UNL     2      -7.046  13.109  68.386  1.00  0.00    -0.107 C  
HETATM   12  H   UNL     2      -5.764  13.808  67.042  1.00  0.00     0.000 HD 
HETATM   13  O   UNL     2      -6.691  13.894  67.232  1.00  0.00    -0.237 OA 
BRANCH  11  14
HETATM   14  C   UNL     2      -6.094  13.437  69.546  1.00  0.00    -0.110 C  
HETATM   15  H   UNL     2      -5.622  12.782  71.393  1.00  0.00     0.000 HD 
HETATM   16  O   UNL     2      -6.212  12.578  70.676  1.00  0.00    -0.168 OA 
ENDBRANCH  11  14
ENDBRANCH   2  11
TORSDOF 2
ENDMDL
MODEL      191
REMARK 921   NORMALIZED FREE ENERGY PREDICTED BY IDOCK:   -2.06 KCAL/MOL
REMARK 922        TOTAL FREE ENERGY PREDICTED BY IDOCK:   -2.50 KCAL/MOL
REMARK 923 INTER-LIGAND FREE ENERGY PREDICTED BY IDOCK:   -2.41 KCAL/MOL
REMARK 924 INTRA-LIGAND FREE ENERGY PREDICTED BY IDOCK:   -0.09 KCAL/MOL
REMARK 927      BINDING AFFINITY PREDICTED BY RF-SCORE:    0.00 PKD
ROOT
HETATM    1 NA   UNL     1      -6.840   6.761  68.246  1.00  0.00    -0.053 Na 
HETATM    2  C   UNL     2     -10.230   8.080  68.874  1.00  0.00    -0.209 C  
HETATM    3  O   UNL     2      -8.123   7.434  69.753  1.00  0.00    -0.123 OA 
HETATM    4  O   UNL     2     -10.812   9.338  68.503  1.00  0.00    -0.175 OA 
HETATM    5  H   UNL     2      -6.711  10.064  69.776  1.00  0.00     0.000 HD 
HETATM    6  O   UNL     2      -7.516  10.451  69.452  1.00  0.00    -0.107 OA 
HETATM    7  C   UNL     2      -9.894  10.320  68.694  1.00  0.00    -0.173 C  
HETATM    8  C   UNL     2      -8.646   9.720  69.196  1.00  0.00    -0.153 C  
HETATM    9  O   UNL     2     -10.037  11.510  68.456  1.00  0.00    -0.197 OA 
HETATM   10  C   UNL     2      -8.815   8.403  69.338  1.00  0.00    -0.142 C  
ENDROOT
BRANCH   2  11
HETATM   11  C   UNL     2     -11.144   7.313  69.862  1.00  0.00    -0.212 C  
HETATM   12  H   UNL     2     -11.489   5.423  70.359  1.00  0.00     0.000 HD 
HETATM   13  O   UNL     2     -10.928   5.893  69.754  1.00  0.00    -0.349 OA 
BRANCH  11  14
HETATM   14  C   UNL     2     -11.042   7.740  71.334  1.00  0.00    -0.238 C  
HETATM   15  H   UNL     2     -11.676   7.163  73.159  1.00  0.00     0.000 HD 
HETATM   16  O   UNL     2     -11.739   6.898  72.248  1.00  0.00    -0.278 OA 
ENDBRANCH  11  14
ENDBRANCH   2  11
TORSDOF 2
ENDMDL
MODEL      192
REMARK 921   NORMALIZED FREE ENERGY PREDICTED BY IDOCK:   -2.03 KCAL/MOL
REMARK 922        TOTAL FREE ENERGY PREDICTED BY IDOCK:   -2.47 KCAL/MOL
REMARK 923 INTER-LIGAND FREE ENERGY PREDICTED BY IDOCK:   -2.31 KCAL/MOL
REMARK 924 INTRA-LIGAND FREE ENERGY PREDICTED BY IDOCK:   -0.16 KCAL/MOL
REMARK 927      BINDING AFFINITY PREDICTED BY RF-SCORE:    0.00 PKD
ROOT
HETATM    1 NA   UNL     1      -6.508   4.302  72.212  1.00  0.00    -0.015 Na 
HETATM    2  C   UNL     2      -9.924   5.071  71.042  1.00  0.00    -0.211 C  
HETATM    3  O   UNL     2      -7.862   5.865  71.908  1.00  0.00    -0.103 OA 
HETATM    4  O   UNL     2     -10.486   4.989  69.724  1.00  0.00    -0.263 OA 
HETATM    5  H   UNL     2      -6.452   6.591  69.379  1.00  0.00     0.000 HD 
HETATM    6  O   UNL     2      -7.239   6.333  68.915  1.00  0.00    -0.079 OA 
HETATM    7  C   UNL     2      -9.578   5.455  68.829  1.00  0.00    -0.137 C  
HETATM    8  C   UNL     2      -8.356   5.855  69.548  1.00  0.00    -0.114 C  
HETATM    9  O   UNL     2      -9.708   5.506  67.616  1.00  0.00    -0.118 OA 
HETATM   10  C   UNL     2      -8.533   5.665  70.859  1.00  0.00    -0.125 C  
ENDROOT
BRANCH   2  11
HETATM   11  C   UNL     2     -10.886   5.800  72.014  1.00  0.00    -0.251 C  
HETATM   12  H   UNL     2     -12.508   6.935  71.880  1.00  0.00     0.000 HD 
HETATM   13  O   UNL     2     -11.919   6.488  71.284  1.00  0.00    -0.336 OA 
BRANCH  11  14
HETATM   14  C   UNL     2     -11.521   4.924  73.105  1.00  0.00    -0.278 C  
HETATM   15  H   UNL     2     -11.075   4.129  74.903  1.00  0.00     0.000 HD 
HETATM   16  O   UNL     2     -10.683   4.671  74.228  1.00  0.00    -0.280 OA 
ENDBRANCH  11  14
ENDBRANCH   2  11
TORSDOF 2
ENDMDL
MODEL      193
REMARK 921   NORMALIZED FREE ENERGY PREDICTED BY IDOCK:   -2.02 KCAL/MOL
REMARK 922        TOTAL FREE ENERGY PREDICTED BY IDOCK:   -2.47 KCAL/MOL
REMARK 923 INTER-LIGAND FREE ENERGY PREDICTED BY IDOCK:   -2.26 KCAL/MOL
REMARK 924 INTRA-LIGAND FREE ENERGY PREDICTED BY IDOCK:   -0.20 KCAL/MOL
REMARK 927      BINDING AFFINITY PREDICTED BY RF-SCORE:    0.00 PKD
ROOT
HETATM    1 NA   UNL     1      -8.310   4.421  70.466  1.00  0.00    -0.064 Na 
HETATM    2  C   UNL     2      -9.074   7.666  68.879  1.00  0.00    -0.140 C  
HETATM    3  O   UNL     2      -9.689   5.992  70.445  1.00  0.00    -0.165 OA 
HETATM    4  O   UNL     2      -8.392   8.924  68.981  1.00  0.00    -0.120 OA 
HETATM    5  H   UNL     2      -8.464   7.097  72.933  1.00  0.00     0.000 HD 
HETATM    6  O   UNL     2      -8.188   7.844  72.415  1.00  0.00    -0.111 OA 
HETATM    7  C   UNL     2      -8.022   9.120  70.272  1.00  0.00    -0.133 C  
HETATM    8  C   UNL     2      -8.449   7.961  71.075  1.00  0.00    -0.123 C  
HETATM    9  O   UNL     2      -7.399  10.071  70.716  1.00  0.00    -0.323 OA 
HETATM   10  C   UNL     2      -9.095   7.094  70.291  1.00  0.00    -0.156 C  
ENDROOT
BRANCH   2  11
HETATM   11  C   UNL     2     -10.436   7.826  68.157  1.00  0.00    -0.176 C  
HETATM   12  H   UNL     2     -11.472   9.292  67.310  1.00  0.00     0.000 HD 
HETATM   13  O   UNL     2     -10.637   9.194  67.752  1.00  0.00    -0.248 OA 
BRANCH  11  14
HETATM   14  C   UNL     2     -10.669   6.894  66.958  1.00  0.00    -0.362 C  
HETATM   15  H   UNL     2      -9.834   5.297  66.056  1.00  0.00     0.000 HD 
HETATM   16  O   UNL     2      -9.689   5.874  66.798  1.00  0.00    -0.140 OA 
ENDBRANCH  11  14
ENDBRANCH   2  11
TORSDOF 2
ENDMDL
MODEL      194
REMARK 921   NORMALIZED FREE ENERGY PREDICTED BY IDOCK:   -2.00 KCAL/MOL
REMARK 922        TOTAL FREE ENERGY PREDICTED BY IDOCK:   -2.43 KCAL/MOL
REMARK 923 INTER-LIGAND FREE ENERGY PREDICTED BY IDOCK:   -2.26 KCAL/MOL
REMARK 924 INTRA-LIGAND FREE ENERGY PREDICTED BY IDOCK:   -0.17 KCAL/MOL
REMARK 927      BINDING AFFINITY PREDICTED BY RF-SCORE:    0.00 PKD
ROOT
HETATM    1 NA   UNL     1      -5.514   9.333  69.213  1.00  0.00    -0.033 Na 
HETATM    2  C   UNL     2      -8.094  11.605  67.867  1.00  0.00    -0.138 C  
HETATM    3  O   UNL     2      -6.989  10.707  69.766  1.00  0.00    -0.123 OA 
HETATM    4  O   UNL     2      -7.952  12.816  67.111  1.00  0.00    -0.167 OA 
HETATM    5  H   UNL     2      -4.888  12.782  70.206  1.00  0.00     0.000 HD 
HETATM    6  O   UNL     2      -5.264  13.257  69.475  1.00  0.00    -0.082 OA 
HETATM    7  C   UNL     2      -6.927  13.540  67.630  1.00  0.00    -0.167 C  
HETATM    8  C   UNL     2      -6.343  12.802  68.763  1.00  0.00    -0.080 C  
HETATM    9  O   UNL     2      -6.508  14.610  67.218  1.00  0.00    -0.298 OA 
HETATM   10  C   UNL     2      -7.022  11.667  68.948  1.00  0.00    -0.109 C  
ENDROOT
BRANCH   2  11
HETATM   11  C   UNL     2      -9.560  11.406  68.331  1.00  0.00    -0.197 C  
HETATM   12  H   UNL     2     -10.944  12.467  69.278  1.00  0.00     0.000 HD 
HETATM   13  O   UNL     2     -10.046  12.589  68.993  1.00  0.00    -0.016 OA 
BRANCH  11  14
HETATM   14  C   UNL     2     -10.553  10.982  67.238  1.00  0.00    -0.245 C  
HETATM   15  H   UNL     2     -12.424  11.387  66.608  1.00  0.00     0.000 HD 
HETATM   16  O   UNL     2     -11.810  11.650  67.284  1.00  0.00    -0.609 OA 
ENDBRANCH  11  14
ENDBRANCH   2  11
TORSDOF 2
ENDMDL
MODEL      195
REMARK 921   NORMALIZED FREE ENERGY PREDICTED BY IDOCK:   -1.98 KCAL/MOL
REMARK 922        TOTAL FREE ENERGY PREDICTED BY IDOCK:   -2.41 KCAL/MOL
REMARK 923 INTER-LIGAND FREE ENERGY PREDICTED BY IDOCK:   -2.22 KCAL/MOL
REMARK 924 INTRA-LIGAND FREE ENERGY PREDICTED BY IDOCK:   -0.19 KCAL/MOL
REMARK 927      BINDING AFFINITY PREDICTED BY RF-SCORE:    0.00 PKD
ROOT
HETATM    1 NA   UNL     1     -12.329   9.180  70.114  1.00  0.00    -0.452 Na 
HETATM    2  C   UNL     2      -9.273   7.114  70.252  1.00  0.00    -0.156 C  
HETATM    3  O   UNL     2     -11.572   7.279  69.688  1.00  0.00    -0.014 OA 
HETATM    4  O   UNL     2      -8.053   7.223  69.505  1.00  0.00    -0.125 OA 
HETATM    5  H   UNL     2     -11.374   8.007  66.800  1.00  0.00     0.000 HD 
HETATM    6  O   UNL     2     -10.431   7.939  66.891  1.00  0.00    -0.325 OA 
HETATM    7  C   UNL     2      -8.353   7.513  68.214  1.00  0.00    -0.125 C  
HETATM    8  C   UNL     2      -9.815   7.619  68.073  1.00  0.00    -0.161 C  
HETATM    9  O   UNL     2      -7.560   7.704  67.304  1.00  0.00    -0.103 OA 
HETATM   10  C   UNL     2     -10.392   7.365  69.250  1.00  0.00    -0.204 C  
ENDROOT
BRANCH   2  11
HETATM   11  C   UNL     2      -9.319   5.788  71.053  1.00  0.00    -0.160 C  
HETATM   12  H   UNL     2      -8.151   4.206  71.320  1.00  0.00     0.000 HD 
HETATM   13  O   UNL     2      -8.122   5.019  70.830  1.00  0.00    -0.091 OA 
BRANCH  11  14
HETATM   14  C   UNL     2      -9.568   5.928  72.562  1.00  0.00    -0.154 C  
HETATM   15  H   UNL     2      -9.753   7.357  73.972  1.00  0.00     0.000 HD 
HETATM   16  O   UNL     2      -9.599   7.270  73.038  1.00  0.00    -0.150 OA 
ENDBRANCH  11  14
ENDBRANCH   2  11
TORSDOF 2
ENDMDL
MODEL      196
REMARK 921   NORMALIZED FREE ENERGY PREDICTED BY IDOCK:   -1.97 KCAL/MOL
REMARK 922        TOTAL FREE ENERGY PREDICTED BY IDOCK:   -2.40 KCAL/MOL
REMARK 923 INTER-LIGAND FREE ENERGY PREDICTED BY IDOCK:   -2.26 KCAL/MOL
REMARK 924 INTRA-LIGAND FREE ENERGY PREDICTED BY IDOCK:   -0.14 KCAL/MOL
REMARK 927      BINDING AFFINITY PREDICTED BY RF-SCORE:    0.00 PKD
ROOT
HETATM    1 NA   UNL     1      -7.865   3.164  70.458  1.00  0.00    -0.041 Na 
HETATM    2  C   UNL     2     -10.208   5.693  69.137  1.00  0.00    -0.236 C  
HETATM    3  O   UNL     2      -7.968   5.072  69.612  1.00  0.00    -0.070 OA 
HETATM    4  O   UNL     2     -11.020   5.667  67.955  1.00  0.00    -0.176 OA 
HETATM    5  H   UNL     2      -7.144   3.944  66.974  1.00  0.00     0.000 HD 
HETATM    6  O   UNL     2      -8.006   4.177  66.652  1.00  0.00    -0.096 OA 
HETATM    7  C   UNL     2     -10.298   5.135  66.937  1.00  0.00    -0.240 C  
HETATM    8  C   UNL     2      -8.960   4.773  67.435  1.00  0.00    -0.109 C  
HETATM    9  O   UNL     2     -10.682   4.935  65.795  1.00  0.00    -0.270 OA 
HETATM   10  C   UNL     2      -8.862   5.110  68.724  1.00  0.00    -0.093 C  
ENDROOT
BRANCH   2  11
HETATM   11  C   UNL     2     -10.205   7.102  69.781  1.00  0.00    -0.208 C  
HETATM   12  H   UNL     2     -10.654   8.956  69.232  1.00  0.00     0.000 HD 
HETATM   13  O   UNL     2     -10.656   8.092  68.837  1.00  0.00    -0.210 OA 
BRANCH  11  14
HETATM   14  C   UNL     2     -10.998   7.239  71.090  1.00  0.00    -0.247 C  
HETATM   15  H   UNL     2     -12.068   8.607  72.114  1.00  0.00     0.000 HD 
HETATM   16  O   UNL     2     -11.578   8.522  71.304  1.00  0.00    -0.266 OA 
ENDBRANCH  11  14
ENDBRANCH   2  11
TORSDOF 2
ENDMDL
MODEL      197
REMARK 921   NORMALIZED FREE ENERGY PREDICTED BY IDOCK:   -1.97 KCAL/MOL
REMARK 922        TOTAL FREE ENERGY PREDICTED BY IDOCK:   -2.40 KCAL/MOL
REMARK 923 INTER-LIGAND FREE ENERGY PREDICTED BY IDOCK:   -2.20 KCAL/MOL
REMARK 924 INTRA-LIGAND FREE ENERGY PREDICTED BY IDOCK:   -0.20 KCAL/MOL
REMARK 927      BINDING AFFINITY PREDICTED BY RF-SCORE:    0.00 PKD
ROOT
HETATM    1 NA   UNL     1      -7.623   8.658  67.271  1.00  0.00    -0.081 Na 
HETATM    2  C   UNL     2      -9.507   6.276  69.371  1.00  0.00    -0.139 C  
HETATM    3  O   UNL     2      -9.548   7.972  67.711  1.00  0.00    -0.145 OA 
HETATM    4  O   UNL     2      -9.542   4.842  69.332  1.00  0.00    -0.145 OA 
HETATM    5  H   UNL     2      -9.519   6.310  65.232  1.00  0.00     0.000 HD 
HETATM    6  O   UNL     2      -9.536   5.545  65.795  1.00  0.00    -0.141 OA 
HETATM    7  C   UNL     2      -9.575   4.439  68.036  1.00  0.00    -0.148 C  
HETATM    8  C   UNL     2      -9.549   5.624  67.163  1.00  0.00    -0.131 C  
HETATM    9  O   UNL     2      -9.582   3.287  67.630  1.00  0.00    -0.206 OA 
HETATM   10  C   UNL     2      -9.533   6.727  67.916  1.00  0.00    -0.118 C  
ENDROOT
BRANCH   2  11
HETATM   11  C   UNL     2     -10.606   6.835  70.309  1.00  0.00    -0.215 C  
HETATM   12  H   UNL     2     -12.582   6.729  70.463  1.00  0.00     0.000 HD 
HETATM   13  O   UNL     2     -11.908   6.385  69.888  1.00  0.00    -0.384 OA 
BRANCH  11  14
HETATM   14  C   UNL     2     -10.419   6.543  71.805  1.00  0.00    -0.211 C  
HETATM   15  H   UNL     2      -8.990   6.608  73.225  1.00  0.00     0.000 HD 
HETATM   16  O   UNL     2      -9.106   6.789  72.299  1.00  0.00    -0.134 OA 
ENDBRANCH  11  14
ENDBRANCH   2  11
TORSDOF 2
ENDMDL
MODEL      198
REMARK 921   NORMALIZED FREE ENERGY PREDICTED BY IDOCK:   -1.97 KCAL/MOL
REMARK 922        TOTAL FREE ENERGY PREDICTED BY IDOCK:   -2.40 KCAL/MOL
REMARK 923 INTER-LIGAND FREE ENERGY PREDICTED BY IDOCK:   -2.25 KCAL/MOL
REMARK 924 INTRA-LIGAND FREE ENERGY PREDICTED BY IDOCK:   -0.15 KCAL/MOL
REMARK 927      BINDING AFFINITY PREDICTED BY RF-SCORE:    0.00 PKD
ROOT
HETATM    1 NA   UNL     1     -12.202   6.600  68.697  1.00  0.00    -0.560 Na 
HETATM    2  C   UNL     2      -9.295   7.972  66.883  1.00  0.00    -0.164 C  
HETATM    3  O   UNL     2     -10.614   7.949  68.855  1.00  0.00    -0.211 OA 
HETATM    4  O   UNL     2      -8.067   7.338  66.497  1.00  0.00    -0.108 OA 
HETATM    5  H   UNL     2      -9.101   5.970  70.500  1.00  0.00     0.000 HD 
HETATM    6  O   UNL     2      -8.478   5.916  69.786  1.00  0.00    -0.121 OA 
HETATM    7  C   UNL     2      -7.642   6.548  67.516  1.00  0.00    -0.105 C  
HETATM    8  C   UNL     2      -8.609   6.631  68.624  1.00  0.00    -0.125 C  
HETATM    9  O   UNL     2      -6.647   5.839  67.524  1.00  0.00    -0.052 OA 
HETATM   10  C   UNL     2      -9.585   7.481  68.296  1.00  0.00    -0.152 C  
ENDROOT
BRANCH   2  11
HETATM   11  C   UNL     2      -9.224   9.504  66.663  1.00  0.00    -0.152 C  
HETATM   12  H   UNL     2     -10.487  10.976  66.243  1.00  0.00     0.000 HD 
HETATM   13  O   UNL     2     -10.531  10.037  66.379  1.00  0.00    -0.203 OA 
BRANCH  11  14
HETATM   14  C   UNL     2      -8.573  10.311  67.796  1.00  0.00    -0.118 C  
HETATM   15  H   UNL     2      -9.064  11.654  69.217  1.00  0.00     0.000 HD 
HETATM   16  O   UNL     2      -9.467  11.155  68.516  1.00  0.00    -0.181 OA 
ENDBRANCH  11  14
ENDBRANCH   2  11
TORSDOF 2
ENDMDL
MODEL      199
REMARK 921   NORMALIZED FREE ENERGY PREDICTED BY IDOCK:   -1.96 KCAL/MOL
REMARK 922        TOTAL FREE ENERGY PREDICTED BY IDOCK:   -2.39 KCAL/MOL
REMARK 923 INTER-LIGAND FREE ENERGY PREDICTED BY IDOCK:   -2.25 KCAL/MOL
REMARK 924 INTRA-LIGAND FREE ENERGY PREDICTED BY IDOCK:   -0.14 KCAL/MOL
REMARK 927      BINDING AFFINITY PREDICTED BY RF-SCORE:    0.00 PKD
ROOT
HETATM    1 NA   UNL     1      -8.107   8.178  72.262  1.00  0.00    -0.081 Na 
HETATM    2  C   UNL     2      -8.856   9.161  68.783  1.00  0.00    -0.132 C  
HETATM    3  O   UNL     2      -8.943   7.496  70.472  1.00  0.00    -0.150 OA 
HETATM    4  O   UNL     2      -9.797  10.119  68.278  1.00  0.00    -0.142 OA 
HETATM    5  H   UNL     2     -11.677   7.974  71.569  1.00  0.00     0.000 HD 
HETATM    6  O   UNL     2     -11.778   8.650  70.909  1.00  0.00    -0.282 OA 
HETATM    7  C   UNL     2     -10.951  10.015  68.985  1.00  0.00    -0.212 C  
HETATM    8  C   UNL     2     -10.795   8.968  70.009  1.00  0.00    -0.231 C  
HETATM    9  O   UNL     2     -11.957  10.694  68.846  1.00  0.00    -0.330 OA 
HETATM   10  C   UNL     2      -9.579   8.425  69.903  1.00  0.00    -0.171 C  
ENDROOT
BRANCH   2  11
HETATM   11  C   UNL     2      -8.265   8.303  67.635  1.00  0.00    -0.127 C  
HETATM   12  H   UNL     2      -8.754   6.652  66.649  1.00  0.00     0.000 HD 
HETATM   13  O   UNL     2      -9.117   7.177  67.353  1.00  0.00    -0.120 OA 
BRANCH  11  14
HETATM   14  C   UNL     2      -7.956   9.056  66.332  1.00  0.00    -0.103 C  
HETATM   15  H   UNL     2      -8.300   8.922  64.350  1.00  0.00     0.000 HD 
HETATM   16  O   UNL     2      -8.491   8.456  65.156  1.00  0.00    -0.168 OA 
ENDBRANCH  11  14
ENDBRANCH   2  11
TORSDOF 2
ENDMDL
MODEL      200
REMARK 921   NORMALIZED FREE ENERGY PREDICTED BY IDOCK:   -1.96 KCAL/MOL
REMARK 922        TOTAL FREE ENERGY PREDICTED BY IDOCK:   -2.39 KCAL/MOL
REMARK 923 INTER-LIGAND FREE ENERGY PREDICTED BY IDOCK:   -2.32 KCAL/MOL
REMARK 924 INTRA-LIGAND FREE ENERGY PREDICTED BY IDOCK:   -0.07 KCAL/MOL
REMARK 927      BINDING AFFINITY PREDICTED BY RF-SCORE:    0.00 PKD
ROOT
HETATM    1 NA   UNL     1      -8.245   3.297  69.030  1.00  0.00    -0.058 Na 
HETATM    2  C   UNL     2      -8.852   5.334  66.011  1.00  0.00    -0.141 C  
HETATM    3  O   UNL     2      -9.579   3.591  67.448  1.00  0.00    -0.210 OA 
HETATM    4  O   UNL     2      -9.176   6.726  65.889  1.00  0.00    -0.091 OA 
HETATM    5  H   UNL     2     -11.397   5.107  69.267  1.00  0.00     0.000 HD 
HETATM    6  O   UNL     2     -11.209   5.877  68.744  1.00  0.00    -0.258 OA 
HETATM    7  C   UNL     2     -10.074   7.053  66.853  1.00  0.00    -0.226 C  
HETATM    8  C   UNL     2     -10.364   5.860  67.665  1.00  0.00    -0.212 C  
HETATM    9  O   UNL     2     -10.549   8.159  67.063  1.00  0.00    -0.329 OA 
HETATM   10  C   UNL     2      -9.679   4.820  67.183  1.00  0.00    -0.184 C  
ENDROOT
BRANCH   2  11
HETATM   11  C   UNL     2      -9.011   4.603  64.653  1.00  0.00    -0.151 C  
HETATM   12  H   UNL     2      -8.135   3.102  63.695  1.00  0.00     0.000 HD 
HETATM   13  O   UNL     2      -8.038   3.549  64.527  1.00  0.00    -0.085 OA 
BRANCH  11  14
HETATM   14  C   UNL     2     -10.412   4.049  64.355  1.00  0.00    -0.197 C  
HETATM   15  H   UNL     2     -11.315   2.673  63.191  1.00  0.00     0.000 HD 
HETATM   16  O   UNL     2     -10.448   3.015  63.376  1.00  0.00    -0.176 OA 
ENDBRANCH  11  14
ENDBRANCH   2  11
TORSDOF 2
ENDMDL
MODEL      201
REMARK 921   NORMALIZED FREE ENERGY PREDICTED BY IDOCK:   -1.95 KCAL/MOL
REMARK 922        TOTAL FREE ENERGY PREDICTED BY IDOCK:   -2.38 KCAL/MOL
REMARK 923 INTER-LIGAND FREE ENERGY PREDICTED BY IDOCK:   -2.30 KCAL/MOL
REMARK 924 INTRA-LIGAND FREE ENERGY PREDICTED BY IDOCK:   -0.08 KCAL/MOL
REMARK 927      BINDING AFFINITY PREDICTED BY RF-SCORE:    0.00 PKD
ROOT
HETATM    1 NA   UNL     1     -10.594   4.047  68.214  1.00  0.00     0.026 Na 
HETATM    2  C   UNL     2     -10.447   7.637  69.064  1.00  0.00    -0.205 C  
HETATM    3  O   UNL     2      -9.288   5.592  68.739  1.00  0.00    -0.119 OA 
HETATM    4  O   UNL     2     -10.686   8.789  68.243  1.00  0.00    -0.173 OA 
HETATM    5  H   UNL     2      -8.476   5.873  65.881  1.00  0.00     0.000 HD 
HETATM    6  O   UNL     2      -8.881   6.732  65.894  1.00  0.00    -0.156 OA 
HETATM    7  C   UNL     2     -10.127   8.582  67.023  1.00  0.00    -0.277 C  
HETATM    8  C   UNL     2      -9.499   7.249  67.002  1.00  0.00    -0.156 C  
HETATM    9  O   UNL     2     -10.161   9.340  66.066  1.00  0.00    -0.297 OA 
HETATM   10  C   UNL     2      -9.647   6.672  68.197  1.00  0.00    -0.120 C  
ENDROOT
BRANCH   2  11
HETATM   11  C   UNL     2      -9.833   8.043  70.428  1.00  0.00    -0.183 C  
HETATM   12  H   UNL     2      -9.855   7.368  72.294  1.00  0.00     0.000 HD 
HETATM   13  O   UNL     2     -10.231   7.119  71.458  1.00  0.00    -0.198 OA 
BRANCH  11  14
HETATM   14  C   UNL     2      -8.307   8.212  70.449  1.00  0.00    -0.120 C  
HETATM   15  H   UNL     2      -6.890   9.363  71.304  1.00  0.00     0.000 HD 
HETATM   16  O   UNL     2      -7.835   9.258  71.292  1.00  0.00    -0.322 OA 
ENDBRANCH  11  14
ENDBRANCH   2  11
TORSDOF 2
ENDMDL
MODEL      202
REMARK 921   NORMALIZED FREE ENERGY PREDICTED BY IDOCK:   -1.86 KCAL/MOL
REMARK 922        TOTAL FREE ENERGY PREDICTED BY IDOCK:   -2.28 KCAL/MOL
REMARK 923 INTER-LIGAND FREE ENERGY PREDICTED BY IDOCK:   -3.70 KCAL/MOL
REMARK 924 INTRA-LIGAND FREE ENERGY PREDICTED BY IDOCK:    1.42 KCAL/MOL
REMARK 927      BINDING AFFINITY PREDICTED BY RF-SCORE:    0.00 PKD
ROOT
HETATM    1 NA   UNL     1      -7.884  14.425  66.230  1.00  0.00    -0.337 Na 
HETATM    2  C   UNL     2     -10.843  15.649  68.067  1.00  0.00    -0.308 C  
HETATM    3  O   UNL     2      -8.728  14.575  68.136  1.00  0.00    -0.158 OA 
HETATM    4  O   UNL     2     -11.287  16.991  68.308  1.00  0.00    -0.174 OA 
HETATM    5  H   UNL     2      -6.955  16.901  68.734  1.00  0.00     0.000 HD 
HETATM    6  O   UNL     2      -7.739  17.436  68.767  1.00  0.00    -0.264 OA 
HETATM    7  C   UNL     2     -10.211  17.764  68.602  1.00  0.00    -0.377 C  
HETATM    8  C   UNL     2      -8.995  16.935  68.551  1.00  0.00    -0.254 C  
HETATM    9  O   UNL     2     -10.215  18.964  68.834  1.00  0.00    -0.360 OA 
HETATM   10  C   UNL     2      -9.332  15.675  68.262  1.00  0.00    -0.192 C  
ENDROOT
BRANCH   2  11
HETATM   11  C   UNL     2     -11.651  14.634  68.915  1.00  0.00    -0.310 C  
HETATM   12  H   UNL     2     -11.497  12.727  69.442  1.00  0.00     0.000 HD 
HETATM   13  O   UNL     2     -11.001  13.349  68.923  1.00  0.00    -0.251 OA 
BRANCH  11  14
HETATM   14  C   UNL     2     -11.959  15.065  70.357  1.00  0.00    -0.323 C  
HETATM   15  H   UNL     2     -11.498  16.528  71.665  1.00  0.00     0.000 HD 
HETATM   16  O   UNL     2     -11.308  16.262  70.772  1.00  0.00    -0.395 OA 
ENDBRANCH  11  14
ENDBRANCH   2  11
TORSDOF 2
ENDMDL
MODEL      203
REMARK 921   NORMALIZED FREE ENERGY PREDICTED BY IDOCK:   -1.84 KCAL/MOL
REMARK 922        TOTAL FREE ENERGY PREDICTED BY IDOCK:   -2.26 KCAL/MOL
REMARK 923 INTER-LIGAND FREE ENERGY PREDICTED BY IDOCK:   -2.09 KCAL/MOL
REMARK 924 INTRA-LIGAND FREE ENERGY PREDICTED BY IDOCK:   -0.17 KCAL/MOL
REMARK 927      BINDING AFFINITY PREDICTED BY RF-SCORE:    0.00 PKD
ROOT
HETATM    1 NA   UNL     1      -7.273  10.712  66.707  1.00  0.00    -0.086 Na 
HETATM    2  C   UNL     2     -10.309   9.655  68.521  1.00  0.00    -0.205 C  
HETATM    3  O   UNL     2      -8.091  10.493  68.617  1.00  0.00    -0.112 OA 
HETATM    4  O   UNL     2     -11.607  10.263  68.577  1.00  0.00    -0.178 OA 
HETATM    5  H   UNL     2      -8.620  13.428  68.725  1.00  0.00     0.000 HD 
HETATM    6  O   UNL     2      -9.547  13.219  68.725  1.00  0.00    -0.089 OA 
HETATM    7  C   UNL     2     -11.458  11.609  68.675  1.00  0.00    -0.290 C  
HETATM    8  C   UNL     2     -10.022  11.935  68.674  1.00  0.00    -0.154 C  
HETATM    9  O   UNL     2     -12.351  12.441  68.716  1.00  0.00    -0.048 OA 
HETATM   10  C   UNL     2      -9.313  10.805  68.609  1.00  0.00    -0.184 C  
ENDROOT
BRANCH   2  11
HETATM   11  C   UNL     2     -10.180   8.521  69.569  1.00  0.00    -0.206 C  
HETATM   12  H   UNL     2     -11.317   7.695  70.970  1.00  0.00     0.000 HD 
HETATM   13  O   UNL     2     -11.397   8.390  70.327  1.00  0.00    -0.234 OA 
BRANCH  11  14
HETATM   14  C   UNL     2      -9.766   7.148  69.018  1.00  0.00    -0.150 C  
HETATM   15  H   UNL     2      -9.986   6.015  67.365  1.00  0.00     0.000 HD 
HETATM   16  O   UNL     2     -10.242   6.865  67.706  1.00  0.00    -0.156 OA 
ENDBRANCH  11  14
ENDBRANCH   2  11
TORSDOF 2
ENDMDL
MODEL      204
REMARK 921   NORMALIZED FREE ENERGY PREDICTED BY IDOCK:   -1.83 KCAL/MOL
REMARK 922        TOTAL FREE ENERGY PREDICTED BY IDOCK:   -2.25 KCAL/MOL
REMARK 923 INTER-LIGAND FREE ENERGY PREDICTED BY IDOCK:   -2.08 KCAL/MOL
REMARK 924 INTRA-LIGAND FREE ENERGY PREDICTED BY IDOCK:   -0.17 KCAL/MOL
REMARK 927      BINDING AFFINITY PREDICTED BY RF-SCORE:    0.00 PKD
ROOT
HETATM    1 NA   UNL     1     -11.050   8.564  69.189  1.00  0.00    -0.237 Na 
HETATM    2  C   UNL     2      -9.198   6.399  66.842  1.00  0.00    -0.135 C  
HETATM    3  O   UNL     2     -11.194   7.575  67.354  1.00  0.00    -0.037 OA 
HETATM    4  O   UNL     2      -8.050   6.689  66.031  1.00  0.00    -0.110 OA 
HETATM    5  H   UNL     2     -10.692  10.150  65.930  1.00  0.00     0.000 HD 
HETATM    6  O   UNL     2      -9.872   9.775  65.629  1.00  0.00    -0.277 OA 
HETATM    7  C   UNL     2      -8.191   7.930  65.499  1.00  0.00    -0.140 C  
HETATM    8  C   UNL     2      -9.461   8.512  65.965  1.00  0.00    -0.186 C  
HETATM    9  O   UNL     2      -7.391   8.512  64.782  1.00  0.00    -0.086 OA 
HETATM   10  C   UNL     2     -10.094   7.627  66.740  1.00  0.00    -0.255 C  
ENDROOT
BRANCH   2  11
HETATM   11  C   UNL     2      -9.819   5.032  66.458  1.00  0.00    -0.199 C  
HETATM   12  H   UNL     2      -9.966   3.903  64.833  1.00  0.00     0.000 HD 
HETATM   13  O   UNL     2      -9.585   4.741  65.067  1.00  0.00    -0.139 OA 
BRANCH  11  14
HETATM   14  C   UNL     2      -9.381   3.836  67.316  1.00  0.00    -0.197 C  
HETATM   15  H   UNL     2      -7.703   2.873  67.884  1.00  0.00     0.000 HD 
HETATM   16  O   UNL     2      -7.974   3.613  67.353  1.00  0.00    -0.082 OA 
ENDBRANCH  11  14
ENDBRANCH   2  11
TORSDOF 2
ENDMDL
MODEL      205
REMARK 921   NORMALIZED FREE ENERGY PREDICTED BY IDOCK:   -1.82 KCAL/MOL
REMARK 922        TOTAL FREE ENERGY PREDICTED BY IDOCK:   -2.23 KCAL/MOL
REMARK 923 INTER-LIGAND FREE ENERGY PREDICTED BY IDOCK:   -2.09 KCAL/MOL
REMARK 924 INTRA-LIGAND FREE ENERGY PREDICTED BY IDOCK:   -0.14 KCAL/MOL
REMARK 927      BINDING AFFINITY PREDICTED BY RF-SCORE:    0.00 PKD
ROOT
HETATM    1 NA   UNL     1      -7.973   3.643  67.837  1.00  0.00    -0.073 Na 
HETATM    2  C   UNL     2      -9.335   6.888  68.952  1.00  0.00    -0.134 C  
HETATM    3  O   UNL     2      -9.747   4.640  68.314  1.00  0.00    -0.147 OA 
HETATM    4  O   UNL     2      -9.202   7.558  70.214  1.00  0.00    -0.157 OA 
HETATM    5  H   UNL     2      -9.772   3.311  70.987  1.00  0.00     0.000 HD 
HETATM    6  O   UNL     2      -9.639   4.170  71.369  1.00  0.00    -0.146 OA 
HETATM    7  C   UNL     2      -9.318   6.644  71.211  1.00  0.00    -0.158 C  
HETATM    8  C   UNL     2      -9.523   5.311  70.619  1.00  0.00    -0.168 C  
HETATM    9  O   UNL     2      -9.229   6.856  72.410  1.00  0.00    -0.135 OA 
HETATM   10  C   UNL     2      -9.563   5.420  69.288  1.00  0.00    -0.145 C  
ENDROOT
BRANCH   2  11
HETATM   11  C   UNL     2     -10.392   7.586  68.060  1.00  0.00    -0.204 C  
HETATM   12  H   UNL     2     -11.423   9.281  68.076  1.00  0.00     0.000 HD 
HETATM   13  O   UNL     2     -10.774   8.854  68.623  1.00  0.00    -0.178 OA 
BRANCH  11  14
HETATM   14  C   UNL     2     -10.002   7.772  66.586  1.00  0.00    -0.228 C  
HETATM   15  H   UNL     2      -9.351   9.208  65.328  1.00  0.00     0.000 HD 
HETATM   16  O   UNL     2      -9.593   9.092  66.241  1.00  0.00    -0.217 OA 
ENDBRANCH  11  14
ENDBRANCH   2  11
TORSDOF 2
ENDMDL
MODEL      206
REMARK 921   NORMALIZED FREE ENERGY PREDICTED BY IDOCK:   -1.81 KCAL/MOL
REMARK 922        TOTAL FREE ENERGY PREDICTED BY IDOCK:   -2.23 KCAL/MOL
REMARK 923 INTER-LIGAND FREE ENERGY PREDICTED BY IDOCK:   -2.03 KCAL/MOL
REMARK 924 INTRA-LIGAND FREE ENERGY PREDICTED BY IDOCK:   -0.20 KCAL/MOL
REMARK 927      BINDING AFFINITY PREDICTED BY RF-SCORE:    0.00 PKD
ROOT
HETATM    1 NA   UNL     1      -6.447  10.816  68.756  1.00  0.00    -0.046 Na 
HETATM    2  C   UNL     2      -8.964   8.159  68.277  1.00  0.00    -0.136 C  
HETATM    3  O   UNL     2      -6.845   8.799  69.130  1.00  0.00    -0.053 OA 
HETATM    4  O   UNL     2     -10.269   8.010  68.856  1.00  0.00    -0.201 OA 
HETATM    5  H   UNL     2      -7.570   9.468  71.947  1.00  0.00     0.000 HD 
HETATM    6  O   UNL     2      -8.458   9.205  71.736  1.00  0.00    -0.340 OA 
HETATM    7  C   UNL     2     -10.209   8.356  70.167  1.00  0.00    -0.195 C  
HETATM    8  C   UNL     2      -8.832   8.764  70.494  1.00  0.00    -0.176 C  
HETATM    9  O   UNL     2     -11.138   8.376  70.960  1.00  0.00    -0.245 OA 
HETATM   10  C   UNL     2      -8.064   8.637  69.409  1.00  0.00    -0.111 C  
ENDROOT
BRANCH   2  11
HETATM   11  C   UNL     2      -8.538   6.872  67.525  1.00  0.00    -0.121 C  
HETATM   12  H   UNL     2      -8.133   4.984  67.984  1.00  0.00     0.000 HD 
HETATM   13  O   UNL     2      -8.394   5.772  68.444  1.00  0.00    -0.107 OA 
BRANCH  11  14
HETATM   14  C   UNL     2      -9.442   6.452  66.357  1.00  0.00    -0.133 C  
HETATM   15  H   UNL     2     -10.572   4.893  65.758  1.00  0.00     0.000 HD 
HETATM   16  O   UNL     2     -10.013   5.153  66.482  1.00  0.00    -0.168 OA 
ENDBRANCH  11  14
ENDBRANCH   2  11
TORSDOF 2
ENDMDL
MODEL      207
REMARK 921   NORMALIZED FREE ENERGY PREDICTED BY IDOCK:   -1.79 KCAL/MOL
REMARK 922        TOTAL FREE ENERGY PREDICTED BY IDOCK:   -2.20 KCAL/MOL
REMARK 923 INTER-LIGAND FREE ENERGY PREDICTED BY IDOCK:   -2.00 KCAL/MOL
REMARK 924 INTRA-LIGAND FREE ENERGY PREDICTED BY IDOCK:   -0.21 KCAL/MOL
REMARK 927      BINDING AFFINITY PREDICTED BY RF-SCORE:    0.00 PKD
ROOT
HETATM    1 NA   UNL     1      -9.158   3.139  69.267  1.00  0.00    -0.068 Na 
HETATM    2  C   UNL     2      -8.707   6.469  67.737  1.00  0.00    -0.115 C  
HETATM    3  O   UNL     2      -9.991   4.480  67.897  1.00  0.00    -0.134 OA 
HETATM    4  O   UNL     2      -8.814   7.774  68.323  1.00  0.00    -0.130 OA 
HETATM    5  H   UNL     2     -12.014   5.299  69.934  1.00  0.00     0.000 HD 
HETATM    6  O   UNL     2     -11.604   6.155  69.935  1.00  0.00    -0.404 OA 
HETATM    7  C   UNL     2      -9.882   7.793  69.161  1.00  0.00    -0.173 C  
HETATM    8  C   UNL     2     -10.518   6.465  69.159  1.00  0.00    -0.229 C  
HETATM    9  O   UNL     2     -10.253   8.732  69.849  1.00  0.00    -0.190 OA 
HETATM   10  C   UNL     2      -9.866   5.664  68.312  1.00  0.00    -0.141 C  
ENDROOT
BRANCH   2  11
HETATM   11  C   UNL     2      -8.600   6.559  66.193  1.00  0.00    -0.145 C  
HETATM   12  H   UNL     2      -8.313   7.975  64.833  1.00  0.00     0.000 HD 
HETATM   13  O   UNL     2      -8.378   7.920  65.779  1.00  0.00    -0.122 OA 
BRANCH  11  14
HETATM   14  C   UNL     2      -7.552   5.644  65.543  1.00  0.00    -0.083 C  
HETATM   15  H   UNL     2      -6.332   4.110  66.016  1.00  0.00     0.000 HD 
HETATM   16  O   UNL     2      -6.981   4.676  66.418  1.00  0.00    -0.063 OA 
ENDBRANCH  11  14
ENDBRANCH   2  11
TORSDOF 2
ENDMDL
MODEL      208
REMARK 921   NORMALIZED FREE ENERGY PREDICTED BY IDOCK:   -1.77 KCAL/MOL
REMARK 922        TOTAL FREE ENERGY PREDICTED BY IDOCK:   -2.18 KCAL/MOL
REMARK 923 INTER-LIGAND FREE ENERGY PREDICTED BY IDOCK:   -2.10 KCAL/MOL
REMARK 924 INTRA-LIGAND FREE ENERGY PREDICTED BY IDOCK:   -0.08 KCAL/MOL
REMARK 927      BINDING AFFINITY PREDICTED BY RF-SCORE:    0.00 PKD
ROOT
HETATM    1 NA   UNL     1      -8.668   3.234  71.623  1.00  0.00    -0.069 Na 
HETATM    2  C   UNL     2      -9.801   6.717  71.168  1.00  0.00    -0.177 C  
HETATM    3  O   UNL     2      -8.047   5.226  71.741  1.00  0.00    -0.112 OA 
HETATM    4  O   UNL     2     -10.160   7.420  69.969  1.00  0.00    -0.187 OA 
HETATM    5  H   UNL     2      -6.679   4.953  69.102  1.00  0.00     0.000 HD 
HETATM    6  O   UNL     2      -7.310   5.574  68.758  1.00  0.00    -0.072 OA 
HETATM    7  C   UNL     2      -9.284   7.090  68.987  1.00  0.00    -0.137 C  
HETATM    8  C   UNL     2      -8.305   6.127  69.520  1.00  0.00    -0.120 C  
HETATM    9  O   UNL     2      -9.304   7.479  67.829  1.00  0.00    -0.140 OA 
HETATM   10  C   UNL     2      -8.564   5.902  70.811  1.00  0.00    -0.130 C  
ENDROOT
BRANCH   2  11
HETATM   11  C   UNL     2      -9.689   7.688  72.371  1.00  0.00    -0.178 C  
HETATM   12  H   UNL     2     -10.205   7.699  74.287  1.00  0.00     0.000 HD 
HETATM   13  O   UNL     2     -10.273   7.104  73.550  1.00  0.00    -0.279 OA 
BRANCH  11  14
HETATM   14  C   UNL     2      -8.274   8.192  72.692  1.00  0.00    -0.170 C  
HETATM   15  H   UNL     2      -6.846   9.389  71.921  1.00  0.00     0.000 HD 
HETATM   16  O   UNL     2      -7.722   9.077  71.722  1.00  0.00    -0.327 OA 
ENDBRANCH  11  14
ENDBRANCH   2  11
TORSDOF 2
ENDMDL
MODEL      209
REMARK 921   NORMALIZED FREE ENERGY PREDICTED BY IDOCK:   -1.75 KCAL/MOL
REMARK 922        TOTAL FREE ENERGY PREDICTED BY IDOCK:   -2.16 KCAL/MOL
REMARK 923 INTER-LIGAND FREE ENERGY PREDICTED BY IDOCK:   -2.43 KCAL/MOL
REMARK 924 INTRA-LIGAND FREE ENERGY PREDICTED BY IDOCK:    0.27 KCAL/MOL
REMARK 927      BINDING AFFINITY PREDICTED BY RF-SCORE:    0.00 PKD
ROOT
HETATM    1 NA   UNL     1     -10.305   4.463  67.511  1.00  0.00    -0.177 Na 
HETATM    2  C   UNL     2     -10.687   7.184  69.977  1.00  0.00    -0.248 C  
HETATM    3  O   UNL     2      -9.599   5.171  69.346  1.00  0.00    -0.135 OA 
HETATM    4  O   UNL     2     -10.349   8.574  69.875  1.00  0.00    -0.200 OA 
HETATM    5  H   UNL     2      -7.175   6.264  67.990  1.00  0.00     0.000 HD 
HETATM    6  O   UNL     2      -7.491   7.130  68.215  1.00  0.00    -0.097 OA 
HETATM    7  C   UNL     2      -9.152   8.690  69.244  1.00  0.00    -0.149 C  
HETATM    8  C   UNL     2      -8.662   7.346  68.894  1.00  0.00    -0.132 C  
HETATM    9  O   UNL     2      -8.572   9.727  68.962  1.00  0.00    -0.130 OA 
HETATM   10  C   UNL     2      -9.530   6.431  69.333  1.00  0.00    -0.140 C  
ENDROOT
BRANCH   2  11
HETATM   11  C   UNL     2     -11.057   6.807  71.434  1.00  0.00    -0.254 C  
HETATM   12  H   UNL     2     -11.297   5.145  72.493  1.00  0.00     0.000 HD 
HETATM   13  O   UNL     2     -11.069   5.376  71.600  1.00  0.00    -0.174 OA 
BRANCH  11  14
HETATM   14  C   UNL     2     -10.190   7.445  72.529  1.00  0.00    -0.216 C  
HETATM   15  H   UNL     2      -9.995   7.458  74.536  1.00  0.00     0.000 HD 
HETATM   16  O   UNL     2     -10.531   7.063  73.858  1.00  0.00    -0.375 OA 
ENDBRANCH  11  14
ENDBRANCH   2  11
TORSDOF 2
ENDMDL
MODEL      210
REMARK 921   NORMALIZED FREE ENERGY PREDICTED BY IDOCK:   -1.68 KCAL/MOL
REMARK 922        TOTAL FREE ENERGY PREDICTED BY IDOCK:   -2.08 KCAL/MOL
REMARK 923 INTER-LIGAND FREE ENERGY PREDICTED BY IDOCK:   -1.94 KCAL/MOL
REMARK 924 INTRA-LIGAND FREE ENERGY PREDICTED BY IDOCK:   -0.14 KCAL/MOL
REMARK 927      BINDING AFFINITY PREDICTED BY RF-SCORE:    0.00 PKD
ROOT
HETATM    1 NA   UNL     1      -8.427   3.980  69.658  1.00  0.00    -0.059 Na 
HETATM    2  C   UNL     2      -8.379   7.667  69.466  1.00  0.00    -0.130 C  
HETATM    3  O   UNL     2      -9.240   5.615  68.641  1.00  0.00    -0.119 OA 
HETATM    4  O   UNL     2      -8.857   8.644  70.401  1.00  0.00    -0.140 OA 
HETATM    5  H   UNL     2     -11.735   5.380  70.262  1.00  0.00     0.000 HD 
HETATM    6  O   UNL     2     -11.515   6.220  70.645  1.00  0.00    -0.347 OA 
HETATM    7  C   UNL     2     -10.046   8.226  70.904  1.00  0.00    -0.190 C  
HETATM    8  C   UNL     2     -10.387   6.922  70.310  1.00  0.00    -0.199 C  
HETATM    9  O   UNL     2     -10.724   8.795  71.746  1.00  0.00    -0.290 OA 
HETATM   10  C   UNL     2      -9.438   6.572  69.438  1.00  0.00    -0.145 C  
ENDROOT
BRANCH   2  11
HETATM   11  C   UNL     2      -8.002   8.326  68.115  1.00  0.00    -0.123 C  
HETATM   12  H   UNL     2      -7.721  10.163  67.418  1.00  0.00     0.000 HD 
HETATM   13  O   UNL     2      -7.952   9.759  68.246  1.00  0.00    -0.095 OA 
BRANCH  11  14
HETATM   14  C   UNL     2      -6.703   7.822  67.467  1.00  0.00    -0.068 C  
HETATM   15  H   UNL     2      -4.843   8.464  67.029  1.00  0.00     0.000 HD 
HETATM   16  O   UNL     2      -5.646   8.776  67.431  1.00  0.00    -0.038 OA 
ENDBRANCH  11  14
ENDBRANCH   2  11
TORSDOF 2
ENDMDL
MODEL      211
REMARK 921   NORMALIZED FREE ENERGY PREDICTED BY IDOCK:   -1.65 KCAL/MOL
REMARK 922        TOTAL FREE ENERGY PREDICTED BY IDOCK:   -2.05 KCAL/MOL
REMARK 923 INTER-LIGAND FREE ENERGY PREDICTED BY IDOCK:   -1.84 KCAL/MOL
REMARK 924 INTRA-LIGAND FREE ENERGY PREDICTED BY IDOCK:   -0.21 KCAL/MOL
REMARK 927      BINDING AFFINITY PREDICTED BY RF-SCORE:    0.00 PKD
ROOT
HETATM    1 NA   UNL     1      -9.997   7.573  68.243  1.00  0.00    -0.147 Na 
HETATM    2  C   UNL     2      -8.137   6.728  71.318  1.00  0.00    -0.111 C  
HETATM    3  O   UNL     2      -8.718   8.360  69.696  1.00  0.00    -0.131 OA 
HETATM    4  O   UNL     2      -8.623   6.410  72.630  1.00  0.00    -0.123 OA 
HETATM    5  H   UNL     2     -11.048   9.658  71.038  1.00  0.00     0.000 HD 
HETATM    6  O   UNL     2     -10.895   9.076  71.772  1.00  0.00    -0.334 OA 
HETATM    7  C   UNL     2      -9.655   7.240  72.930  1.00  0.00    -0.164 C  
HETATM    8  C   UNL     2      -9.892   8.142  71.790  1.00  0.00    -0.194 C  
HETATM    9  O   UNL     2     -10.324   7.233  73.952  1.00  0.00    -0.352 OA 
HETATM   10  C   UNL     2      -8.999   7.886  70.831  1.00  0.00    -0.143 C  
ENDROOT
BRANCH   2  11
HETATM   11  C   UNL     2      -6.602   6.941  71.329  1.00  0.00    -0.049 C  
HETATM   12  H   UNL     2      -5.324   8.298  72.008  1.00  0.00     0.000 HD 
HETATM   13  O   UNL     2      -6.265   8.168  72.002  1.00  0.00    -0.042 OA 
BRANCH  11  14
HETATM   14  C   UNL     2      -5.774   5.787  71.914  1.00  0.00    -0.022 C  
HETATM   15  H   UNL     2      -4.863   5.253  73.632  1.00  0.00     0.000 HD 
HETATM   16  O   UNL     2      -5.376   5.967  73.270  1.00  0.00    -0.030 OA 
ENDBRANCH  11  14
ENDBRANCH   2  11
TORSDOF 2
ENDMDL
MODEL      212
REMARK 921   NORMALIZED FREE ENERGY PREDICTED BY IDOCK:   -1.65 KCAL/MOL
REMARK 922        TOTAL FREE ENERGY PREDICTED BY IDOCK:   -2.04 KCAL/MOL
REMARK 923 INTER-LIGAND FREE ENERGY PREDICTED BY IDOCK:   -1.90 KCAL/MOL
REMARK 924 INTRA-LIGAND FREE ENERGY PREDICTED BY IDOCK:   -0.14 KCAL/MOL
REMARK 927      BINDING AFFINITY PREDICTED BY RF-SCORE:    0.00 PKD
ROOT
HETATM    1 NA   UNL     1      -6.523  11.945  67.780  1.00  0.00    -0.057 Na 
HETATM    2  C   UNL     2      -8.284   9.721  65.417  1.00  0.00    -0.131 C  
HETATM    3  O   UNL     2      -6.482  10.036  66.929  1.00  0.00    -0.067 OA 
HETATM    4  O   UNL     2      -9.576   9.104  65.521  1.00  0.00    -0.257 OA 
HETATM    5  H   UNL     2      -7.659   8.901  69.426  1.00  0.00     0.000 HD 
HETATM    6  O   UNL     2      -8.432   8.690  68.915  1.00  0.00    -0.126 OA 
HETATM    7  C   UNL     2      -9.747   8.655  66.790  1.00  0.00    -0.233 C  
HETATM    8  C   UNL     2      -8.549   8.982  67.582  1.00  0.00    -0.120 C  
HETATM    9  O   UNL     2     -10.740   8.105  67.242  1.00  0.00    -0.298 OA 
HETATM   10  C   UNL     2      -7.654   9.590  66.799  1.00  0.00    -0.098 C  
ENDROOT
BRANCH   2  11
HETATM   11  C   UNL     2      -7.488   9.149  64.216  1.00  0.00    -0.106 C  
HETATM   12  H   UNL     2      -7.862   8.025  62.624  1.00  0.00     0.000 HD 
HETATM   13  O   UNL     2      -8.350   8.376  63.360  1.00  0.00    -0.153 OA 
BRANCH  11  14
HETATM   14  C   UNL     2      -6.716  10.178  63.378  1.00  0.00    -0.128 C  
HETATM   15  H   UNL     2      -7.028  11.524  61.909  1.00  0.00     0.000 HD 
HETATM   16  O   UNL     2      -7.506  10.887  62.428  1.00  0.00    -0.128 OA 
ENDBRANCH  11  14
ENDBRANCH   2  11
TORSDOF 2
ENDMDL
MODEL      213
REMARK 921   NORMALIZED FREE ENERGY PREDICTED BY IDOCK:   -1.60 KCAL/MOL
REMARK 922        TOTAL FREE ENERGY PREDICTED BY IDOCK:   -1.99 KCAL/MOL
REMARK 923 INTER-LIGAND FREE ENERGY PREDICTED BY IDOCK:   -1.87 KCAL/MOL
REMARK 924 INTRA-LIGAND FREE ENERGY PREDICTED BY IDOCK:   -0.12 KCAL/MOL
REMARK 927      BINDING AFFINITY PREDICTED BY RF-SCORE:    0.00 PKD
ROOT
HETATM    1 NA   UNL     1      -6.899   3.541  72.754  1.00  0.00    -0.026 Na 
HETATM    2  C   UNL     2      -9.111   6.396  71.989  1.00  0.00    -0.141 C  
HETATM    3  O   UNL     2      -7.089   5.613  72.953  1.00  0.00    -0.085 OA 
HETATM    4  O   UNL     2      -9.450   6.986  70.726  1.00  0.00    -0.161 OA 
HETATM    5  H   UNL     2      -5.208   6.003  70.668  1.00  0.00     0.000 HD 
HETATM    6  O   UNL     2      -5.938   6.370  70.185  1.00  0.00    -0.021 OA 
HETATM    7  C   UNL     2      -8.333   7.051  69.958  1.00  0.00    -0.138 C  
HETATM    8  C   UNL     2      -7.200   6.481  70.707  1.00  0.00    -0.071 C  
HETATM    9  O   UNL     2      -8.257   7.470  68.813  1.00  0.00    -0.126 OA 
HETATM   10  C   UNL     2      -7.617   6.106  71.919  1.00  0.00    -0.096 C  
ENDROOT
BRANCH   2  11
HETATM   11  C   UNL     2      -9.610   7.273  73.165  1.00  0.00    -0.193 C  
HETATM   12  H   UNL     2      -9.150   9.025  73.974  1.00  0.00     0.000 HD 
HETATM   13  O   UNL     2      -8.844   8.488  73.253  1.00  0.00    -0.308 OA 
BRANCH  11  14
HETATM   14  C   UNL     2     -11.109   7.608  73.157  1.00  0.00    -0.317 C  
HETATM   15  H   UNL     2     -12.861   6.845  72.514  1.00  0.00     0.000 HD 
HETATM   16  O   UNL     2     -11.934   6.637  72.520  1.00  0.00    -0.186 OA 
ENDBRANCH  11  14
ENDBRANCH   2  11
TORSDOF 2
ENDMDL
MODEL      214
REMARK 921   NORMALIZED FREE ENERGY PREDICTED BY IDOCK:   -1.59 KCAL/MOL
REMARK 922        TOTAL FREE ENERGY PREDICTED BY IDOCK:   -1.97 KCAL/MOL
REMARK 923 INTER-LIGAND FREE ENERGY PREDICTED BY IDOCK:   -1.83 KCAL/MOL
REMARK 924 INTRA-LIGAND FREE ENERGY PREDICTED BY IDOCK:   -0.14 KCAL/MOL
REMARK 927      BINDING AFFINITY PREDICTED BY RF-SCORE:    0.00 PKD
ROOT
HETATM    1 NA   UNL     1      -8.066   4.857  68.582  1.00  0.00    -0.078 Na 
HETATM    2  C   UNL     2      -7.283   6.735  71.662  1.00  0.00    -0.080 C  
HETATM    3  O   UNL     2      -8.776   6.351  69.859  1.00  0.00    -0.139 OA 
HETATM    4  O   UNL     2      -7.230   6.288  73.025  1.00  0.00    -0.085 OA 
HETATM    5  H   UNL     2     -10.648   4.390  71.108  1.00  0.00     0.000 HD 
HETATM    6  O   UNL     2     -10.145   4.484  71.908  1.00  0.00    -0.183 OA 
HETATM    7  C   UNL     2      -8.270   5.446  73.252  1.00  0.00    -0.115 C  
HETATM    8  C   UNL     2      -9.050   5.300  72.011  1.00  0.00    -0.137 C  
HETATM    9  O   UNL     2      -8.519   4.857  74.292  1.00  0.00    -0.105 OA 
HETATM   10  C   UNL     2      -8.511   6.065  71.058  1.00  0.00    -0.124 C  
ENDROOT
BRANCH   2  11
HETATM   11  C   UNL     2      -7.202   8.280  71.579  1.00  0.00    -0.084 C  
HETATM   12  H   UNL     2      -7.809   9.831  72.658  1.00  0.00     0.000 HD 
HETATM   13  O   UNL     2      -7.858   8.884  72.710  1.00  0.00    -0.371 OA 
BRANCH  11  14
HETATM   14  C   UNL     2      -5.791   8.867  71.428  1.00  0.00    -0.054 C  
HETATM   15  H   UNL     2      -4.649  10.358  72.160  1.00  0.00     0.000 HD 
HETATM   16  O   UNL     2      -5.523   9.995  72.254  1.00  0.00    -0.275 OA 
ENDBRANCH  11  14
ENDBRANCH   2  11
TORSDOF 2
ENDMDL
MODEL      215
REMARK 921   NORMALIZED FREE ENERGY PREDICTED BY IDOCK:   -1.57 KCAL/MOL
REMARK 922        TOTAL FREE ENERGY PREDICTED BY IDOCK:   -1.96 KCAL/MOL
REMARK 923 INTER-LIGAND FREE ENERGY PREDICTED BY IDOCK:   -1.80 KCAL/MOL
REMARK 924 INTRA-LIGAND FREE ENERGY PREDICTED BY IDOCK:   -0.16 KCAL/MOL
REMARK 927      BINDING AFFINITY PREDICTED BY RF-SCORE:    0.00 PKD
ROOT
HETATM    1 NA   UNL     1      -7.282   8.822  67.185  1.00  0.00    -0.069 Na 
HETATM    2  C   UNL     2      -7.952   5.953  69.409  1.00  0.00    -0.102 C  
HETATM    3  O   UNL     2      -8.718   7.387  67.681  1.00  0.00    -0.125 OA 
HETATM    4  O   UNL     2      -7.360   4.646  69.432  1.00  0.00    -0.051 OA 
HETATM    5  H   UNL     2      -7.956   5.795  65.274  1.00  0.00     0.000 HD 
HETATM    6  O   UNL     2      -7.641   5.125  65.869  1.00  0.00    -0.081 OA 
HETATM    7  C   UNL     2      -7.207   4.212  68.155  1.00  0.00    -0.060 C  
HETATM    8  C   UNL     2      -7.695   5.251  67.232  1.00  0.00    -0.096 C  
HETATM    9  O   UNL     2      -6.710   3.155  67.798  1.00  0.00    -0.043 OA 
HETATM   10  C   UNL     2      -8.165   6.283  67.937  1.00  0.00    -0.114 C  
ENDROOT
BRANCH   2  11
HETATM   11  C   UNL     2      -9.191   6.019  70.339  1.00  0.00    -0.156 C  
HETATM   12  H   UNL     2     -10.222   7.420  71.294  1.00  0.00     0.000 HD 
HETATM   13  O   UNL     2      -9.463   7.379  70.725  1.00  0.00    -0.166 OA 
BRANCH  11  14
HETATM   14  C   UNL     2     -10.472   5.373  69.790  1.00  0.00    -0.307 C  
HETATM   15  H   UNL     2     -12.307   5.890  69.134  1.00  0.00     0.000 HD 
HETATM   16  O   UNL     2     -11.514   6.290  69.474  1.00  0.00    -0.428 OA 
ENDBRANCH  11  14
ENDBRANCH   2  11
TORSDOF 2
ENDMDL
MODEL      216
REMARK 921   NORMALIZED FREE ENERGY PREDICTED BY IDOCK:   -1.54 KCAL/MOL
REMARK 922        TOTAL FREE ENERGY PREDICTED BY IDOCK:   -1.93 KCAL/MOL
REMARK 923 INTER-LIGAND FREE ENERGY PREDICTED BY IDOCK:   -1.77 KCAL/MOL
REMARK 924 INTRA-LIGAND FREE ENERGY PREDICTED BY IDOCK:   -0.16 KCAL/MOL
REMARK 927      BINDING AFFINITY PREDICTED BY RF-SCORE:    0.00 PKD
ROOT
HETATM    1 NA   UNL     1      -8.698   9.808  66.824  1.00  0.00    -0.121 Na 
HETATM    2  C   UNL     2      -7.693   6.284  67.269  1.00  0.00    -0.100 C  
HETATM    3  O   UNL     2      -8.792   8.194  68.148  1.00  0.00    -0.132 OA 
HETATM    4  O   UNL     2      -8.138   5.105  66.583  1.00  0.00    -0.107 OA 
HETATM    5  H   UNL     2     -11.598   7.653  67.287  1.00  0.00     0.000 HD 
HETATM    6  O   UNL     2     -11.283   6.836  66.920  1.00  0.00    -0.375 OA 
HETATM    7  C   UNL     2      -9.482   5.181  66.406  1.00  0.00    -0.153 C  
HETATM    8  C   UNL     2      -9.970   6.449  66.974  1.00  0.00    -0.163 C  
HETATM    9  O   UNL     2     -10.191   4.366  65.836  1.00  0.00    -0.243 OA 
HETATM   10  C   UNL     2      -8.946   7.115  67.514  1.00  0.00    -0.121 C  
ENDROOT
BRANCH   2  11
HETATM   11  C   UNL     2      -6.830   5.917  68.503  1.00  0.00    -0.070 C  
HETATM   12  H   UNL     2      -5.456   6.797  69.633  1.00  0.00     0.000 HD 
HETATM   13  O   UNL     2      -5.985   7.022  68.877  1.00  0.00    -0.021 OA 
BRANCH  11  14
HETATM   14  C   UNL     2      -7.603   5.420  69.733  1.00  0.00    -0.070 C  
HETATM   15  H   UNL     2      -8.212   6.067  71.543  1.00  0.00     0.000 HD 
HETATM   16  O   UNL     2      -7.734   6.375  70.781  1.00  0.00    -0.097 OA 
ENDBRANCH  11  14
ENDBRANCH   2  11
TORSDOF 2
ENDMDL
MODEL      217
REMARK 921   NORMALIZED FREE ENERGY PREDICTED BY IDOCK:   -1.54 KCAL/MOL
REMARK 922        TOTAL FREE ENERGY PREDICTED BY IDOCK:   -1.93 KCAL/MOL
REMARK 923 INTER-LIGAND FREE ENERGY PREDICTED BY IDOCK:   -1.78 KCAL/MOL
REMARK 924 INTRA-LIGAND FREE ENERGY PREDICTED BY IDOCK:   -0.15 KCAL/MOL
REMARK 927      BINDING AFFINITY PREDICTED BY RF-SCORE:    0.00 PKD
ROOT
HETATM    1 NA   UNL     1      -6.503  12.070  67.905  1.00  0.00    -0.054 Na 
HETATM    2  C   UNL     2      -8.703   9.203  67.152  1.00  0.00    -0.123 C  
HETATM    3  O   UNL     2      -6.652   9.990  68.047  1.00  0.00    -0.062 OA 
HETATM    4  O   UNL     2      -9.966   8.834  67.726  1.00  0.00    -0.172 OA 
HETATM    5  H   UNL     2      -7.377  10.242  70.932  1.00  0.00     0.000 HD 
HETATM    6  O   UNL     2      -8.233   9.901  70.703  1.00  0.00    -0.210 OA 
HETATM    7  C   UNL     2      -9.912   9.033  69.067  1.00  0.00    -0.185 C  
HETATM    8  C   UNL     2      -8.585   9.563  69.422  1.00  0.00    -0.159 C  
HETATM    9  O   UNL     2     -10.816   8.852  69.869  1.00  0.00    -0.229 OA 
HETATM   10  C   UNL     2      -7.836   9.653  68.320  1.00  0.00    -0.085 C  
ENDROOT
BRANCH   2  11
HETATM   11  C   UNL     2      -8.149   8.070  66.250  1.00  0.00    -0.112 C  
HETATM   12  H   UNL     2      -8.788   6.332  65.537  1.00  0.00     0.000 HD 
HETATM   13  O   UNL     2      -9.128   7.026  66.089  1.00  0.00    -0.162 OA 
BRANCH  11  14
HETATM   14  C   UNL     2      -7.630   8.508  64.873  1.00  0.00    -0.098 C  
HETATM   15  H   UNL     2      -8.320   8.974  63.037  1.00  0.00     0.000 HD 
HETATM   16  O   UNL     2      -8.642   8.703  63.889  1.00  0.00    -0.126 OA 
ENDBRANCH  11  14
ENDBRANCH   2  11
TORSDOF 2
ENDMDL
MODEL      218
REMARK 921   NORMALIZED FREE ENERGY PREDICTED BY IDOCK:   -1.44 KCAL/MOL
REMARK 922        TOTAL FREE ENERGY PREDICTED BY IDOCK:   -1.81 KCAL/MOL
REMARK 923 INTER-LIGAND FREE ENERGY PREDICTED BY IDOCK:   -1.60 KCAL/MOL
REMARK 924 INTRA-LIGAND FREE ENERGY PREDICTED BY IDOCK:   -0.21 KCAL/MOL
REMARK 927      BINDING AFFINITY PREDICTED BY RF-SCORE:    0.00 PKD
ROOT
HETATM    1 NA   UNL     1     -10.999   5.912  68.579  1.00  0.00    -0.179 Na 
HETATM    2  C   UNL     2      -8.762   7.714  66.260  1.00  0.00    -0.152 C  
HETATM    3  O   UNL     2      -9.092   6.749  68.403  1.00  0.00    -0.127 OA 
HETATM    4  O   UNL     2      -8.134   7.266  65.051  1.00  0.00    -0.125 OA 
HETATM    5  H   UNL     2      -7.943   4.031  67.959  1.00  0.00     0.000 HD 
HETATM    6  O   UNL     2      -7.726   4.312  67.079  1.00  0.00    -0.090 OA 
HETATM    7  C   UNL     2      -7.682   5.999  65.235  1.00  0.00    -0.093 C  
HETATM    8  C   UNL     2      -8.019   5.562  66.600  1.00  0.00    -0.101 C  
HETATM    9  O   UNL     2      -7.122   5.296  64.407  1.00  0.00    -0.048 OA 
HETATM   10  C   UNL     2      -8.635   6.557  67.243  1.00  0.00    -0.111 C  
ENDROOT
BRANCH   2  11
HETATM   11  C   UNL     2      -8.200   9.089  66.703  1.00  0.00    -0.118 C  
HETATM   12  H   UNL     2      -6.490   9.802  67.416  1.00  0.00     0.000 HD 
HETATM   13  O   UNL     2      -6.835   8.960  67.144  1.00  0.00    -0.072 OA 
BRANCH  11  14
HETATM   14  C   UNL     2      -8.302  10.217  65.666  1.00  0.00    -0.158 C  
HETATM   15  H   UNL     2      -9.657  11.078  64.447  1.00  0.00     0.000 HD 
HETATM   16  O   UNL     2      -9.594  10.380  65.089  1.00  0.00    -0.225 OA 
ENDBRANCH  11  14
ENDBRANCH   2  11
TORSDOF 2
ENDMDL
MODEL      219
REMARK 921   NORMALIZED FREE ENERGY PREDICTED BY IDOCK:   -1.39 KCAL/MOL
REMARK 922        TOTAL FREE ENERGY PREDICTED BY IDOCK:   -1.75 KCAL/MOL
REMARK 923 INTER-LIGAND FREE ENERGY PREDICTED BY IDOCK:   -1.67 KCAL/MOL
REMARK 924 INTRA-LIGAND FREE ENERGY PREDICTED BY IDOCK:   -0.08 KCAL/MOL
REMARK 927      BINDING AFFINITY PREDICTED BY RF-SCORE:    0.00 PKD
ROOT
HETATM    1 NA   UNL     1      -8.056   3.341  71.848  1.00  0.00    -0.053 Na 
HETATM    2  C   UNL     2      -7.994   6.439  69.843  1.00  0.00    -0.116 C  
HETATM    3  O   UNL     2      -8.840   4.241  70.133  1.00  0.00    -0.075 OA 
HETATM    4  O   UNL     2      -8.493   7.748  70.154  1.00  0.00    -0.130 OA 
HETATM    5  H   UNL     2     -11.374   4.821  71.599  1.00  0.00     0.000 HD 
HETATM    6  O   UNL     2     -11.161   5.743  71.517  1.00  0.00    -0.253 OA 
HETATM    7  C   UNL     2      -9.695   7.625  70.773  1.00  0.00    -0.173 C  
HETATM    8  C   UNL     2     -10.024   6.195  70.901  1.00  0.00    -0.185 C  
HETATM    9  O   UNL     2     -10.391   8.531  71.203  1.00  0.00    -0.196 OA 
HETATM   10  C   UNL     2      -9.055   5.466  70.341  1.00  0.00    -0.141 C  
ENDROOT
BRANCH   2  11
HETATM   11  C   UNL     2      -7.583   6.340  68.352  1.00  0.00    -0.096 C  
HETATM   12  H   UNL     2      -6.223   5.373  67.277  1.00  0.00     0.000 HD 
HETATM   13  O   UNL     2      -6.476   5.434  68.191  1.00  0.00    -0.040 OA 
BRANCH  11  14
HETATM   14  C   UNL     2      -8.706   5.962  67.374  1.00  0.00    -0.108 C  
HETATM   15  H   UNL     2      -8.960   5.088  65.575  1.00  0.00     0.000 HD 
HETATM   16  O   UNL     2      -8.265   5.322  66.180  1.00  0.00    -0.108 OA 
ENDBRANCH  11  14
ENDBRANCH   2  11
TORSDOF 2
ENDMDL
MODEL      220
REMARK 921   NORMALIZED FREE ENERGY PREDICTED BY IDOCK:   -1.36 KCAL/MOL
REMARK 922        TOTAL FREE ENERGY PREDICTED BY IDOCK:   -1.73 KCAL/MOL
REMARK 923 INTER-LIGAND FREE ENERGY PREDICTED BY IDOCK:   -1.52 KCAL/MOL
REMARK 924 INTRA-LIGAND FREE ENERGY PREDICTED BY IDOCK:   -0.20 KCAL/MOL
REMARK 927      BINDING AFFINITY PREDICTED BY RF-SCORE:    0.00 PKD
ROOT
HETATM    1 NA   UNL     1      -8.181   3.918  72.635  1.00  0.00    -0.077 Na 
HETATM    2  C   UNL     2      -9.307   5.947  69.764  1.00  0.00    -0.148 C  
HETATM    3  O   UNL     2      -7.564   5.374  71.269  1.00  0.00    -0.095 OA 
HETATM    4  O   UNL     2      -9.643   5.546  68.428  1.00  0.00    -0.114 OA 
HETATM    5  H   UNL     2      -6.143   3.280  69.684  1.00  0.00     0.000 HD 
HETATM    6  O   UNL     2      -6.767   3.444  68.988  1.00  0.00    -0.036 OA 
HETATM    7  C   UNL     2      -8.747   4.616  68.010  1.00  0.00    -0.103 C  
HETATM    8  C   UNL     2      -7.778   4.362  69.091  1.00  0.00    -0.055 C  
HETATM    9  O   UNL     2      -8.744   4.036  66.936  1.00  0.00    -0.110 OA 
HETATM   10  C   UNL     2      -8.063   5.148  70.133  1.00  0.00    -0.083 C  
ENDROOT
BRANCH   2  11
HETATM   11  C   UNL     2      -9.220   7.490  69.878  1.00  0.00    -0.147 C  
HETATM   12  H   UNL     2      -8.091   8.944  69.136  1.00  0.00     0.000 HD 
HETATM   13  O   UNL     2      -8.144   7.998  69.066  1.00  0.00    -0.119 OA 
BRANCH  11  14
HETATM   14  C   UNL     2     -10.512   8.256  69.559  1.00  0.00    -0.227 C  
HETATM   15  H   UNL     2     -11.416   9.192  68.019  1.00  0.00     0.000 HD 
HETATM   16  O   UNL     2     -10.616   8.718  68.216  1.00  0.00    -0.210 OA 
ENDBRANCH  11  14
ENDBRANCH   2  11
TORSDOF 2
ENDMDL
MODEL      221
REMARK 921   NORMALIZED FREE ENERGY PREDICTED BY IDOCK:   -1.35 KCAL/MOL
REMARK 922        TOTAL FREE ENERGY PREDICTED BY IDOCK:   -1.71 KCAL/MOL
REMARK 923 INTER-LIGAND FREE ENERGY PREDICTED BY IDOCK:   -1.73 KCAL/MOL
REMARK 924 INTRA-LIGAND FREE ENERGY PREDICTED BY IDOCK:    0.02 KCAL/MOL
REMARK 927      BINDING AFFINITY PREDICTED BY RF-SCORE:    0.00 PKD
ROOT
HETATM    1 NA   UNL     1     -11.678  13.152  65.326  1.00  0.00    -0.305 Na 
HETATM    2  C   UNL     2      -9.842  13.326  68.524  1.00  0.00    -0.168 C  
HETATM    3  O   UNL     2     -10.129  14.147  66.317  1.00  0.00    -0.281 OA 
HETATM    4  O   UNL     2     -10.284  13.766  69.817  1.00  0.00     0.464 OA 
HETATM    5  H   UNL     2     -11.946  16.460  66.827  1.00  0.00     0.000 HD 
HETATM    6  O   UNL     2     -11.884  16.251  67.751  1.00  0.00     0.130 OA 
HETATM    7  C   UNL     2     -11.049  14.877  69.665  1.00  0.00    -0.276 C  
HETATM    8  C   UNL     2     -11.146  15.201  68.231  1.00  0.00    -0.291 C  
HETATM    9  O   UNL     2     -11.613  15.502  70.550  1.00  0.00    -0.283 OA 
HETATM   10  C   UNL     2     -10.426  14.322  67.530  1.00  0.00    -0.252 C  
ENDROOT
BRANCH   2  11
HETATM   11  C   UNL     2      -8.307  13.116  68.501  1.00  0.00    -0.063 C  
HETATM   12  H   UNL     2      -6.953  12.401  67.239  1.00  0.00     0.000 HD 
HETATM   13  O   UNL     2      -7.894  12.530  67.252  1.00  0.00    -0.165 OA 
BRANCH  11  14
HETATM   14  C   UNL     2      -7.459  14.364  68.791  1.00  0.00    -0.133 C  
HETATM   15  H   UNL     2      -5.770  14.896  69.755  1.00  0.00     0.000 HD 
HETATM   16  O   UNL     2      -6.295  14.124  69.575  1.00  0.00    -0.107 OA 
ENDBRANCH  11  14
ENDBRANCH   2  11
TORSDOF 2
ENDMDL
MODEL      222
REMARK 921   NORMALIZED FREE ENERGY PREDICTED BY IDOCK:   -0.67 KCAL/MOL
REMARK 922        TOTAL FREE ENERGY PREDICTED BY IDOCK:   -0.96 KCAL/MOL
REMARK 923 INTER-LIGAND FREE ENERGY PREDICTED BY IDOCK:   -0.87 KCAL/MOL
REMARK 924 INTRA-LIGAND FREE ENERGY PREDICTED BY IDOCK:   -0.08 KCAL/MOL
REMARK 927      BINDING AFFINITY PREDICTED BY RF-SCORE:    0.00 PKD
ROOT
HETATM    1 NA   UNL     1      -6.609  13.870  71.435  1.00  0.00    -0.367 Na 
HETATM    2  C   UNL     2      -6.842  13.894  67.750  1.00  0.00    -0.175 C  
HETATM    3  O   UNL     2      -7.585  12.985  69.812  1.00  0.00     0.711 OA 
HETATM    4  O   UNL     2      -7.348  14.904  66.866  1.00  0.00    -0.067 OA 
HETATM    5  H   UNL     2      -9.981  14.688  70.327  1.00  0.00     0.000 HD 
HETATM    6  O   UNL     2      -9.807  15.112  69.495  1.00  0.00    -0.224 OA 
HETATM    7  C   UNL     2      -8.479  15.429  67.401  1.00  0.00    -0.181 C  
HETATM    8  C   UNL     2      -8.750  14.773  68.691  1.00  0.00    -0.178 C  
HETATM    9  O   UNL     2      -9.159  16.330  66.933  1.00  0.00    -0.202 OA 
HETATM   10  C   UNL     2      -7.818  13.844  68.919  1.00  0.00    -0.022 C  
ENDROOT
BRANCH   2  11
HETATM   11  C   UNL     2      -6.575  12.570  66.990  1.00  0.00     0.070 C  
HETATM   12  H   UNL     2      -5.321  11.038  67.129  1.00  0.00     0.000 HD 
HETATM   13  O   UNL     2      -5.485  11.849  67.595  1.00  0.00    -0.055 OA 
BRANCH  11  14
HETATM   14  C   UNL     2      -7.784  11.637  66.830  1.00  0.00    -0.147 C  
HETATM   15  H   UNL     2      -8.636  10.431  65.458  1.00  0.00     0.000 HD 
HETATM   16  O   UNL     2      -7.887  11.008  65.557  1.00  0.00    -0.036 OA 
ENDBRANCH  11  14
ENDBRANCH   2  11
TORSDOF 2
ENDMDL
