MODEL        1
REMARK 921   NORMALIZED FREE ENERGY PREDICTED BY IDOCK:   -5.30 KCAL/MOL
REMARK 922        TOTAL FREE ENERGY PREDICTED BY IDOCK:   -7.00 KCAL/MOL
REMARK 923 INTER-LIGAND FREE ENERGY PREDICTED BY IDOCK:   -6.23 KCAL/MOL
REMARK 924 INTRA-LIGAND FREE ENERGY PREDICTED BY IDOCK:   -0.77 KCAL/MOL
REMARK 927      BINDING AFFINITY PREDICTED BY RF-SCORE:    0.00 PKD
ROOT
HETATM    1 NA   UNL     1     -12.951  15.521  63.637  1.00  0.00    -0.697 Na 
HETATM    2 NA   UNL     2     -11.083  10.964  62.331  1.00  0.00    -0.709 Na 
HETATM    3  O   UNL     3     -13.528  12.226  64.458  1.00  0.00    -0.686 OA 
HETATM    4  C   UNL     3     -12.535  12.951  65.188  1.00  0.00    -0.501 C  
HETATM    5  H   UNL     3     -14.330  12.216  64.967  1.00  0.00     0.000 HD 
ENDROOT
BRANCH   4   6
HETATM    6  C   UNL     3     -11.241  12.966  64.368  1.00  0.00    -0.351 C  
HETATM    7  O   UNL     3     -11.525  13.103  62.940  1.00  0.00    -0.594 OA 
HETATM    8  H   UNL     3     -10.723  13.113  62.431  1.00  0.00     0.000 HD 
BRANCH   6   9
HETATM    9  C   UNL     3     -10.319  14.073  64.776  1.00  0.00    -0.380 C  
BRANCH   9  10
HETATM   10  O   UNL     3     -10.917  14.830  65.816  1.00  0.00    -0.315 OA 
HETATM   11  P   UNL     3     -10.300  16.446  65.774  1.00  0.00    -0.269 P  
HETATM   12  O   UNL     3      -9.747  17.892  65.735  1.00  0.00    -0.527 OA 
HETATM   13  O   UNL     3      -8.926  15.772  65.988  1.00  0.00    -0.333 OA 
HETATM   14  O   UNL     3     -10.973  16.489  64.373  1.00  0.00    -0.872 OA 
ENDBRANCH   9  10
ENDBRANCH   6   9
ENDBRANCH   4   6
TORSDOF 3
ENDMDL
MODEL        2
REMARK 921   NORMALIZED FREE ENERGY PREDICTED BY IDOCK:   -5.22 KCAL/MOL
REMARK 922        TOTAL FREE ENERGY PREDICTED BY IDOCK:   -6.90 KCAL/MOL
REMARK 923 INTER-LIGAND FREE ENERGY PREDICTED BY IDOCK:   -6.35 KCAL/MOL
REMARK 924 INTRA-LIGAND FREE ENERGY PREDICTED BY IDOCK:   -0.55 KCAL/MOL
REMARK 927      BINDING AFFINITY PREDICTED BY RF-SCORE:    0.00 PKD
ROOT
HETATM    1 NA   UNL     1     -11.275  18.912  64.707  1.00  0.00    -0.469 Na 
HETATM    2 NA   UNL     2     -13.146  14.622  66.723  1.00  0.00    -0.595 Na 
HETATM    3  O   UNL     3     -10.586  16.877  67.400  1.00  0.00    -0.329 OA 
HETATM    4  C   UNL     3      -9.976  16.580  66.142  1.00  0.00    -0.343 C  
HETATM    5  H   UNL     3      -9.960  17.350  67.936  1.00  0.00     0.000 HD 
ENDROOT
BRANCH   4   6
HETATM    6  C   UNL     3     -10.985  15.817  65.278  1.00  0.00    -0.344 C  
HETATM    7  O   UNL     3     -11.303  16.563  64.060  1.00  0.00    -1.475 OA 
HETATM    8  H   UNL     3     -11.929  16.090  63.524  1.00  0.00     0.000 HD 
BRANCH   6   9
HETATM    9  C   UNL     3     -10.492  14.459  64.887  1.00  0.00    -0.423 C  
BRANCH   9  10
HETATM   10  O   UNL     3     -11.227  13.468  65.587  1.00  0.00    -0.293 OA 
HETATM   11  P   UNL     3     -12.239  12.614  64.473  1.00  0.00    -0.437 P  
HETATM   12  O   UNL     3     -13.144  11.850  63.476  1.00  0.00    -0.715 OA 
HETATM   13  O   UNL     3     -12.862  14.001  64.201  1.00  0.00    -0.581 OA 
HETATM   14  O   UNL     3     -10.889  12.189  63.829  1.00  0.00    -0.352 OA 
ENDBRANCH   9  10
ENDBRANCH   6   9
ENDBRANCH   4   6
TORSDOF 3
ENDMDL
MODEL        3
REMARK 921   NORMALIZED FREE ENERGY PREDICTED BY IDOCK:   -5.02 KCAL/MOL
REMARK 922        TOTAL FREE ENERGY PREDICTED BY IDOCK:   -6.67 KCAL/MOL
REMARK 923 INTER-LIGAND FREE ENERGY PREDICTED BY IDOCK:   -5.96 KCAL/MOL
REMARK 924 INTRA-LIGAND FREE ENERGY PREDICTED BY IDOCK:   -0.71 KCAL/MOL
REMARK 927      BINDING AFFINITY PREDICTED BY RF-SCORE:    0.00 PKD
ROOT
HETATM    1 NA   UNL     1     -12.505  10.950  62.424  1.00  0.00    -0.889 Na 
HETATM    2 NA   UNL     2     -11.792  15.877  63.512  1.00  0.00    -0.813 Na 
HETATM    3  O   UNL     3      -9.924  12.944  63.536  1.00  0.00    -0.681 OA 
HETATM    4  C   UNL     3     -10.814  12.372  64.499  1.00  0.00    -0.321 C  
HETATM    5  H   UNL     3      -9.140  12.409  63.494  1.00  0.00     0.000 HD 
ENDROOT
BRANCH   4   6
HETATM    6  C   UNL     3     -12.078  13.234  64.567  1.00  0.00    -0.408 C  
HETATM    7  O   UNL     3     -13.282  12.405  64.507  1.00  0.00    -0.834 OA 
HETATM    8  H   UNL     3     -14.067  12.939  64.549  1.00  0.00     0.000 HD 
BRANCH   6   9
HETATM    9  C   UNL     3     -12.137  14.064  65.811  1.00  0.00    -0.427 C  
BRANCH   9  10
HETATM   10  O   UNL     3     -10.871  14.049  66.452  1.00  0.00    -0.295 OA 
HETATM   11  P   UNL     3     -10.510  15.636  67.040  1.00  0.00    -0.304 P  
HETATM   12  O   UNL     3     -10.187  17.056  67.566  1.00  0.00    -0.302 OA 
HETATM   13  O   UNL     3     -10.630  16.054  65.558  1.00  0.00    -0.371 OA 
HETATM   14  O   UNL     3     -11.769  15.414  67.926  1.00  0.00    -0.319 OA 
ENDBRANCH   9  10
ENDBRANCH   6   9
ENDBRANCH   4   6
TORSDOF 3
ENDMDL
MODEL        4
REMARK 921   NORMALIZED FREE ENERGY PREDICTED BY IDOCK:   -5.00 KCAL/MOL
REMARK 922        TOTAL FREE ENERGY PREDICTED BY IDOCK:   -6.64 KCAL/MOL
REMARK 923 INTER-LIGAND FREE ENERGY PREDICTED BY IDOCK:   -5.77 KCAL/MOL
REMARK 924 INTRA-LIGAND FREE ENERGY PREDICTED BY IDOCK:   -0.88 KCAL/MOL
REMARK 927      BINDING AFFINITY PREDICTED BY RF-SCORE:    0.00 PKD
ROOT
HETATM    1 NA   UNL     1     -12.214  14.967  62.865  1.00  0.00    -0.835 Na 
HETATM    2 NA   UNL     2      -8.702  11.396  63.808  1.00  0.00    -0.280 Na 
HETATM    3  O   UNL     3     -12.102  11.531  63.086  1.00  0.00    -0.925 OA 
HETATM    4  C   UNL     3     -12.336  12.287  64.275  1.00  0.00    -0.427 C  
HETATM    5  H   UNL     3     -12.936  11.217  62.757  1.00  0.00     0.000 HD 
ENDROOT
BRANCH   4   6
HETATM    6  C   UNL     3     -10.991  12.793  64.806  1.00  0.00    -0.305 C  
HETATM    7  O   UNL     3     -10.134  13.250  63.712  1.00  0.00    -0.712 OA 
HETATM    8  H   UNL     3      -9.299  13.564  64.041  1.00  0.00     0.000 HD 
BRANCH   6   9
HETATM    9  C   UNL     3     -11.148  13.913  65.786  1.00  0.00    -0.294 C  
BRANCH   9  10
HETATM   10  O   UNL     3      -9.912  14.596  65.929  1.00  0.00    -0.295 OA 
HETATM   11  P   UNL     3     -10.208  16.297  66.041  1.00  0.00    -0.361 P  
HETATM   12  O   UNL     3     -10.474  17.818  66.142  1.00  0.00    -0.366 OA 
HETATM   13  O   UNL     3     -10.852  16.129  64.647  1.00  0.00    -0.650 OA 
HETATM   14  O   UNL     3     -10.971  15.909  67.340  1.00  0.00    -0.318 OA 
ENDBRANCH   9  10
ENDBRANCH   6   9
ENDBRANCH   4   6
TORSDOF 3
ENDMDL
MODEL        5
REMARK 921   NORMALIZED FREE ENERGY PREDICTED BY IDOCK:   -4.99 KCAL/MOL
REMARK 922        TOTAL FREE ENERGY PREDICTED BY IDOCK:   -6.63 KCAL/MOL
REMARK 923 INTER-LIGAND FREE ENERGY PREDICTED BY IDOCK:   -6.15 KCAL/MOL
REMARK 924 INTRA-LIGAND FREE ENERGY PREDICTED BY IDOCK:   -0.48 KCAL/MOL
REMARK 927      BINDING AFFINITY PREDICTED BY RF-SCORE:    0.00 PKD
ROOT
HETATM    1 NA   UNL     1     -12.725  10.914  62.425  1.00  0.00    -0.994 Na 
HETATM    2 NA   UNL     2     -11.733  15.757  63.662  1.00  0.00    -0.672 Na 
HETATM    3  O   UNL     3      -9.977  12.771  63.356  1.00  0.00    -0.642 OA 
HETATM    4  C   UNL     3     -10.783  12.179  64.377  1.00  0.00    -0.323 C  
HETATM    5  H   UNL     3      -9.220  12.216  63.208  1.00  0.00     0.000 HD 
ENDROOT
BRANCH   4   6
HETATM    6  C   UNL     3     -12.003  13.074  64.617  1.00  0.00    -0.392 C  
HETATM    7  O   UNL     3     -13.229  12.422  64.157  1.00  0.00    -0.761 OA 
HETATM    8  H   UNL     3     -13.987  12.977  64.306  1.00  0.00     0.000 HD 
BRANCH   6   9
HETATM    9  C   UNL     3     -12.171  13.437  66.059  1.00  0.00    -0.437 C  
BRANCH   9  10
HETATM   10  O   UNL     3     -10.992  13.102  66.773  1.00  0.00    -0.273 OA 
HETATM   11  P   UNL     3     -11.420  12.556  68.359  1.00  0.00    -0.356 P  
HETATM   12  O   UNL     3     -11.804  12.068  69.776  1.00  0.00    -0.309 OA 
HETATM   13  O   UNL     3     -12.056  13.957  68.511  1.00  0.00    -0.362 OA 
HETATM   14  O   UNL     3     -12.145  11.415  67.589  1.00  0.00    -0.630 OA 
ENDBRANCH   9  10
ENDBRANCH   6   9
ENDBRANCH   4   6
TORSDOF 3
ENDMDL
MODEL        6
REMARK 921   NORMALIZED FREE ENERGY PREDICTED BY IDOCK:   -4.95 KCAL/MOL
REMARK 922        TOTAL FREE ENERGY PREDICTED BY IDOCK:   -6.59 KCAL/MOL
REMARK 923 INTER-LIGAND FREE ENERGY PREDICTED BY IDOCK:   -6.21 KCAL/MOL
REMARK 924 INTRA-LIGAND FREE ENERGY PREDICTED BY IDOCK:   -0.38 KCAL/MOL
REMARK 927      BINDING AFFINITY PREDICTED BY RF-SCORE:    0.00 PKD
ROOT
HETATM    1 NA   UNL     1     -12.302  14.289  62.370  1.00  0.00    -0.950 Na 
HETATM    2 NA   UNL     2      -8.320  14.978  65.474  1.00  0.00    -0.332 Na 
HETATM    3  O   UNL     3     -11.397  13.360  65.561  1.00  0.00    -0.292 OA 
HETATM    4  C   UNL     3     -12.071  14.606  65.374  1.00  0.00    -0.250 C  
HETATM    5  H   UNL     3     -12.033  12.710  65.838  1.00  0.00     0.000 HD 
ENDROOT
BRANCH   4   6
HETATM    6  C   UNL     3     -11.046  15.654  64.929  1.00  0.00    -0.402 C  
HETATM    7  O   UNL     3     -11.567  16.461  63.825  1.00  0.00    -1.605 OA 
HETATM    8  H   UNL     3     -10.931  17.111  63.549  1.00  0.00     0.000 HD 
BRANCH   6   9
HETATM    9  C   UNL     3     -10.647  16.572  66.041  1.00  0.00    -0.253 C  
BRANCH   9  10
HETATM   10  O   UNL     3     -10.621  17.909  65.567  1.00  0.00    -0.638 OA 
HETATM   11  P   UNL     3      -9.456  18.814  66.471  1.00  0.00    -0.316 P  
HETATM   12  O   UNL     3      -8.413  19.622  67.281  1.00  0.00    -0.288 OA 
HETATM   13  O   UNL     3     -10.324  18.434  67.692  1.00  0.00    -0.366 OA 
HETATM   14  O   UNL     3      -8.442  17.810  65.853  1.00  0.00    -0.522 OA 
ENDBRANCH   9  10
ENDBRANCH   6   9
ENDBRANCH   4   6
TORSDOF 3
ENDMDL
MODEL        7
REMARK 921   NORMALIZED FREE ENERGY PREDICTED BY IDOCK:   -4.81 KCAL/MOL
REMARK 922        TOTAL FREE ENERGY PREDICTED BY IDOCK:   -6.42 KCAL/MOL
REMARK 923 INTER-LIGAND FREE ENERGY PREDICTED BY IDOCK:   -5.64 KCAL/MOL
REMARK 924 INTRA-LIGAND FREE ENERGY PREDICTED BY IDOCK:   -0.79 KCAL/MOL
REMARK 927      BINDING AFFINITY PREDICTED BY RF-SCORE:    0.00 PKD
ROOT
HETATM    1 NA   UNL     1     -12.675  14.735  67.557  1.00  0.00    -0.566 Na 
HETATM    2 NA   UNL     2     -12.350  14.129  62.508  1.00  0.00    -0.952 Na 
HETATM    3  O   UNL     3     -12.232  12.127  65.350  1.00  0.00    -0.515 OA 
HETATM    4  C   UNL     3     -11.081  12.836  65.815  1.00  0.00    -0.285 C  
HETATM    5  H   UNL     3     -12.323  11.331  65.860  1.00  0.00     0.000 HD 
ENDROOT
BRANCH   4   6
HETATM    6  C   UNL     3     -10.933  14.120  64.993  1.00  0.00    -0.384 C  
HETATM    7  O   UNL     3     -12.234  14.747  64.760  1.00  0.00    -0.408 OA 
HETATM    8  H   UNL     3     -12.142  15.543  64.250  1.00  0.00     0.000 HD 
BRANCH   6   9
HETATM    9  C   UNL     3     -10.036  15.121  65.653  1.00  0.00    -0.363 C  
BRANCH   9  10
HETATM   10  O   UNL     3     -10.810  15.989  66.466  1.00  0.00    -0.276 OA 
HETATM   11  P   UNL     3     -10.377  17.629  66.125  1.00  0.00    -0.163 P  
HETATM   12  O   UNL     3      -9.989  19.096  65.819  1.00  0.00    -0.462 OA 
HETATM   13  O   UNL     3      -8.962  17.195  66.571  1.00  0.00    -0.247 OA 
HETATM   14  O   UNL     3     -10.917  17.301  64.704  1.00  0.00    -1.013 OA 
ENDBRANCH   9  10
ENDBRANCH   6   9
ENDBRANCH   4   6
TORSDOF 3
ENDMDL
MODEL        8
REMARK 921   NORMALIZED FREE ENERGY PREDICTED BY IDOCK:   -4.68 KCAL/MOL
REMARK 922        TOTAL FREE ENERGY PREDICTED BY IDOCK:   -6.27 KCAL/MOL
REMARK 923 INTER-LIGAND FREE ENERGY PREDICTED BY IDOCK:   -5.72 KCAL/MOL
REMARK 924 INTRA-LIGAND FREE ENERGY PREDICTED BY IDOCK:   -0.55 KCAL/MOL
REMARK 927      BINDING AFFINITY PREDICTED BY RF-SCORE:    0.00 PKD
ROOT
HETATM    1 NA   UNL     1     -14.277  11.747  64.114  1.00  0.00    -0.665 Na 
HETATM    2 NA   UNL     2     -11.965  16.203  63.244  1.00  0.00    -0.914 Na 
HETATM    3  O   UNL     3     -11.164  12.822  63.103  1.00  0.00    -0.721 OA 
HETATM    4  C   UNL     3     -11.424  12.691  64.503  1.00  0.00    -0.339 C  
HETATM    5  H   UNL     3     -10.700  12.047  62.808  1.00  0.00     0.000 HD 
ENDROOT
BRANCH   4   6
HETATM    6  C   UNL     3     -12.173  13.939  64.980  1.00  0.00    -0.425 C  
HETATM    7  O   UNL     3     -13.531  13.605  65.408  1.00  0.00    -0.550 OA 
HETATM    8  H   UNL     3     -13.996  14.379  65.704  1.00  0.00     0.000 HD 
BRANCH   6   9
HETATM    9  C   UNL     3     -11.475  14.626  66.112  1.00  0.00    -0.339 C  
BRANCH   9  10
HETATM   10  O   UNL     3     -10.095  14.758  65.809  1.00  0.00    -0.300 OA 
HETATM   11  P   UNL     3      -9.585  16.375  66.157  1.00  0.00    -0.307 P  
HETATM   12  O   UNL     3      -9.130  17.821  66.469  1.00  0.00    -0.262 OA 
HETATM   13  O   UNL     3     -10.656  16.780  65.119  1.00  0.00    -0.663 OA 
HETATM   14  O   UNL     3      -9.969  16.004  67.617  1.00  0.00    -0.234 OA 
ENDBRANCH   9  10
ENDBRANCH   6   9
ENDBRANCH   4   6
TORSDOF 3
ENDMDL
MODEL        9
REMARK 921   NORMALIZED FREE ENERGY PREDICTED BY IDOCK:   -4.62 KCAL/MOL
REMARK 922        TOTAL FREE ENERGY PREDICTED BY IDOCK:   -6.20 KCAL/MOL
REMARK 923 INTER-LIGAND FREE ENERGY PREDICTED BY IDOCK:   -5.43 KCAL/MOL
REMARK 924 INTRA-LIGAND FREE ENERGY PREDICTED BY IDOCK:   -0.77 KCAL/MOL
REMARK 927      BINDING AFFINITY PREDICTED BY RF-SCORE:    0.00 PKD
ROOT
HETATM    1 NA   UNL     1     -11.598   9.120  68.014  1.00  0.00    -0.494 Na 
HETATM    2 NA   UNL     2     -13.452  12.460  64.641  1.00  0.00    -0.635 Na 
HETATM    3  O   UNL     3     -10.532  10.629  65.105  1.00  0.00    -0.280 OA 
HETATM    4  C   UNL     3     -10.299  11.294  66.349  1.00  0.00    -0.245 C  
HETATM    5  H   UNL     3      -9.736  10.177  64.850  1.00  0.00     0.000 HD 
ENDROOT
BRANCH   4   6
HETATM    6  C   UNL     3     -11.582  12.022  66.762  1.00  0.00    -0.321 C  
HETATM    7  O   UNL     3     -11.923  11.735  68.155  1.00  0.00    -0.521 OA 
HETATM    8  H   UNL     3     -12.719  12.186  68.412  1.00  0.00     0.000 HD 
BRANCH   6   9
HETATM    9  C   UNL     3     -11.476  13.505  66.596  1.00  0.00    -0.339 C  
BRANCH   9  10
HETATM   10  O   UNL     3     -10.596  13.801  65.523  1.00  0.00    -0.286 OA 
HETATM   11  P   UNL     3     -11.076  15.291  64.784  1.00  0.00    -0.259 P  
HETATM   12  O   UNL     3     -11.506  16.623  64.124  1.00  0.00    -1.131 OA 
HETATM   13  O   UNL     3     -12.413  14.561  64.521  1.00  0.00    -0.600 OA 
HETATM   14  O   UNL     3     -10.743  15.896  66.177  1.00  0.00    -0.314 OA 
ENDBRANCH   9  10
ENDBRANCH   6   9
ENDBRANCH   4   6
TORSDOF 3
ENDMDL
MODEL       10
REMARK 921   NORMALIZED FREE ENERGY PREDICTED BY IDOCK:   -4.62 KCAL/MOL
REMARK 922        TOTAL FREE ENERGY PREDICTED BY IDOCK:   -6.20 KCAL/MOL
REMARK 923 INTER-LIGAND FREE ENERGY PREDICTED BY IDOCK:   -5.57 KCAL/MOL
REMARK 924 INTRA-LIGAND FREE ENERGY PREDICTED BY IDOCK:   -0.63 KCAL/MOL
REMARK 927      BINDING AFFINITY PREDICTED BY RF-SCORE:    0.00 PKD
ROOT
HETATM    1 NA   UNL     1     -12.458  12.475  67.450  1.00  0.00    -0.327 Na 
HETATM    2 NA   UNL     2     -12.877  11.195  62.535  1.00  0.00    -0.894 Na 
HETATM    3  O   UNL     3     -10.525  10.889  65.079  1.00  0.00    -0.295 OA 
HETATM    4  C   UNL     3     -10.445  12.312  65.191  1.00  0.00    -0.288 C  
HETATM    5  H   UNL     3      -9.793  10.507  65.548  1.00  0.00     0.000 HD 
ENDROOT
BRANCH   4   6
HETATM    6  C   UNL     3     -11.625  12.930  64.435  1.00  0.00    -0.363 C  
HETATM    7  O   UNL     3     -12.894  12.357  64.886  1.00  0.00    -0.711 OA 
HETATM    8  H   UNL     3     -13.627  12.739  64.417  1.00  0.00     0.000 HD 
BRANCH   6   9
HETATM    9  C   UNL     3     -11.693  14.416  64.596  1.00  0.00    -0.430 C  
BRANCH   9  10
HETATM   10  O   UNL     3     -10.380  14.940  64.724  1.00  0.00    -0.368 OA 
HETATM   11  P   UNL     3     -10.461  16.515  65.434  1.00  0.00    -0.032 P  
HETATM   12  O   UNL     3     -10.533  17.925  66.070  1.00  0.00    -0.413 OA 
HETATM   13  O   UNL     3     -11.326  16.867  64.203  1.00  0.00    -1.208 OA 
HETATM   14  O   UNL     3     -11.054  15.754  66.653  1.00  0.00    -0.241 OA 
ENDBRANCH   9  10
ENDBRANCH   6   9
ENDBRANCH   4   6
TORSDOF 3
ENDMDL
MODEL       11
REMARK 921   NORMALIZED FREE ENERGY PREDICTED BY IDOCK:   -4.61 KCAL/MOL
REMARK 922        TOTAL FREE ENERGY PREDICTED BY IDOCK:   -6.19 KCAL/MOL
REMARK 923 INTER-LIGAND FREE ENERGY PREDICTED BY IDOCK:   -5.77 KCAL/MOL
REMARK 924 INTRA-LIGAND FREE ENERGY PREDICTED BY IDOCK:   -0.42 KCAL/MOL
REMARK 927      BINDING AFFINITY PREDICTED BY RF-SCORE:    0.00 PKD
ROOT
HETATM    1 NA   UNL     1     -10.432  10.967  65.641  1.00  0.00    -0.215 Na 
HETATM    2 NA   UNL     2     -14.158  14.435  65.394  1.00  0.00    -0.800 Na 
HETATM    3  O   UNL     3     -12.944  11.824  63.444  1.00  0.00    -0.699 OA 
HETATM    4  C   UNL     3     -11.679  12.481  63.331  1.00  0.00    -0.488 C  
HETATM    5  H   UNL     3     -12.981  11.127  62.800  1.00  0.00     0.000 HD 
ENDROOT
BRANCH   4   6
HETATM    6  C   UNL     3     -11.619  13.606  64.369  1.00  0.00    -0.393 C  
HETATM    7  O   UNL     3     -12.430  14.749  63.952  1.00  0.00    -0.997 OA 
HETATM    8  H   UNL     3     -12.393  15.447  64.595  1.00  0.00     0.000 HD 
BRANCH   6   9
HETATM    9  C   UNL     3     -12.084  13.162  65.720  1.00  0.00    -0.447 C  
BRANCH   9  10
HETATM   10  O   UNL     3     -10.976  13.081  66.602  1.00  0.00    -0.272 OA 
HETATM   11  P   UNL     3     -11.540  12.737  68.201  1.00  0.00    -0.351 P  
HETATM   12  O   UNL     3     -12.047  12.429  69.631  1.00  0.00    -0.276 OA 
HETATM   13  O   UNL     3     -12.325  14.060  68.051  1.00  0.00    -0.239 OA 
HETATM   14  O   UNL     3     -12.048  11.415  67.558  1.00  0.00    -0.592 OA 
ENDBRANCH   9  10
ENDBRANCH   6   9
ENDBRANCH   4   6
TORSDOF 3
ENDMDL
MODEL       12
REMARK 921   NORMALIZED FREE ENERGY PREDICTED BY IDOCK:   -4.60 KCAL/MOL
REMARK 922        TOTAL FREE ENERGY PREDICTED BY IDOCK:   -6.18 KCAL/MOL
REMARK 923 INTER-LIGAND FREE ENERGY PREDICTED BY IDOCK:   -5.25 KCAL/MOL
REMARK 924 INTRA-LIGAND FREE ENERGY PREDICTED BY IDOCK:   -0.93 KCAL/MOL
REMARK 927      BINDING AFFINITY PREDICTED BY RF-SCORE:    0.00 PKD
ROOT
HETATM    1 NA   UNL     1     -14.010  14.347  65.376  1.00  0.00    -0.804 Na 
HETATM    2 NA   UNL     2     -11.060  18.239  66.832  1.00  0.00    -0.363 Na 
HETATM    3  O   UNL     3     -11.658  16.411  63.935  1.00  0.00    -1.564 OA 
HETATM    4  C   UNL     3     -11.217  15.216  64.584  1.00  0.00    -0.343 C  
HETATM    5  H   UNL     3     -11.701  16.249  62.999  1.00  0.00     0.000 HD 
ENDROOT
BRANCH   4   6
HETATM    6  C   UNL     3     -11.147  15.477  66.092  1.00  0.00    -0.177 C  
HETATM    7  O   UNL     3     -11.764  14.384  66.843  1.00  0.00    -0.372 OA 
HETATM    8  H   UNL     3     -11.721  14.545  67.778  1.00  0.00     0.000 HD 
BRANCH   6   9
HETATM    9  C   UNL     3      -9.742  15.651  66.577  1.00  0.00    -0.266 C  
BRANCH   9  10
HETATM   10  O   UNL     3      -9.155  16.774  65.939  1.00  0.00    -0.492 OA 
HETATM   11  P   UNL     3      -7.880  17.394  66.932  1.00  0.00    -0.269 P  
HETATM   12  O   UNL     3      -6.740  17.947  67.821  1.00  0.00    -0.185 OA 
HETATM   13  O   UNL     3      -8.993  17.586  67.987  1.00  0.00    -0.245 OA 
HETATM   14  O   UNL     3      -7.232  16.003  66.680  1.00  0.00    -0.169 OA 
ENDBRANCH   9  10
ENDBRANCH   6   9
ENDBRANCH   4   6
TORSDOF 3
ENDMDL
MODEL       13
REMARK 921   NORMALIZED FREE ENERGY PREDICTED BY IDOCK:   -4.60 KCAL/MOL
REMARK 922        TOTAL FREE ENERGY PREDICTED BY IDOCK:   -6.17 KCAL/MOL
REMARK 923 INTER-LIGAND FREE ENERGY PREDICTED BY IDOCK:   -5.07 KCAL/MOL
REMARK 924 INTRA-LIGAND FREE ENERGY PREDICTED BY IDOCK:   -1.10 KCAL/MOL
REMARK 927      BINDING AFFINITY PREDICTED BY RF-SCORE:    0.00 PKD
ROOT
HETATM    1 NA   UNL     1      -9.364  14.235  64.931  1.00  0.00    -0.500 Na 
HETATM    2 NA   UNL     2     -12.527  11.181  62.354  1.00  0.00    -0.899 Na 
HETATM    3  O   UNL     3     -12.358  14.537  63.253  1.00  0.00    -1.033 OA 
HETATM    4  C   UNL     3     -12.380  14.179  64.637  1.00  0.00    -0.410 C  
HETATM    5  H   UNL     3     -12.527  15.469  63.178  1.00  0.00     0.000 HD 
ENDROOT
BRANCH   4   6
HETATM    6  C   UNL     3     -12.108  12.676  64.757  1.00  0.00    -0.436 C  
HETATM    7  O   UNL     3     -11.017  12.268  63.873  1.00  0.00    -0.334 OA 
HETATM    8  H   UNL     3     -10.848  11.336  63.947  1.00  0.00     0.000 HD 
BRANCH   6   9
HETATM    9  C   UNL     3     -11.764  12.268  66.155  1.00  0.00    -0.376 C  
BRANCH   9  10
HETATM   10  O   UNL     3     -11.063  13.321  66.798  1.00  0.00    -0.283 OA 
HETATM   11  P   UNL     3      -9.705  12.668  67.649  1.00  0.00    -0.209 P  
HETATM   12  O   UNL     3      -8.491  12.083  68.411  1.00  0.00    -0.163 OA 
HETATM   13  O   UNL     3     -10.767  11.850  68.419  1.00  0.00    -0.202 OA 
HETATM   14  O   UNL     3      -9.229  12.248  66.230  1.00  0.00    -0.225 OA 
ENDBRANCH   9  10
ENDBRANCH   6   9
ENDBRANCH   4   6
TORSDOF 3
ENDMDL
MODEL       14
REMARK 921   NORMALIZED FREE ENERGY PREDICTED BY IDOCK:   -4.55 KCAL/MOL
REMARK 922        TOTAL FREE ENERGY PREDICTED BY IDOCK:   -6.12 KCAL/MOL
REMARK 923 INTER-LIGAND FREE ENERGY PREDICTED BY IDOCK:   -5.64 KCAL/MOL
REMARK 924 INTRA-LIGAND FREE ENERGY PREDICTED BY IDOCK:   -0.48 KCAL/MOL
REMARK 927      BINDING AFFINITY PREDICTED BY RF-SCORE:    0.00 PKD
ROOT
HETATM    1 NA   UNL     1     -12.681  10.724  63.152  1.00  0.00    -0.582 Na 
HETATM    2 NA   UNL     2      -8.512  12.257  65.649  1.00  0.00    -0.379 Na 
HETATM    3  O   UNL     3     -11.896  11.820  66.323  1.00  0.00    -0.501 OA 
HETATM    4  C   UNL     3     -12.231  12.788  65.325  1.00  0.00    -0.483 C  
HETATM    5  H   UNL     3     -12.665  11.658  66.857  1.00  0.00     0.000 HD 
ENDROOT
BRANCH   4   6
HETATM    6  C   UNL     3     -10.992  13.051  64.464  1.00  0.00    -0.358 C  
HETATM    7  O   UNL     3     -11.291  12.867  63.044  1.00  0.00    -0.721 OA 
HETATM    8  H   UNL     3     -10.523  13.030  62.509  1.00  0.00     0.000 HD 
BRANCH   6   9
HETATM    9  C   UNL     3     -10.443  14.429  64.658  1.00  0.00    -0.257 C  
BRANCH   9  10
HETATM   10  O   UNL     3     -11.241  15.130  65.599  1.00  0.00    -0.336 OA 
HETATM   11  P   UNL     3     -11.008  16.832  65.391  1.00  0.00     0.262 P  
HETATM   12  O   UNL     3     -10.799  18.355  65.204  1.00  0.00    -0.630 OA 
HETATM   13  O   UNL     3      -9.526  16.520  65.700  1.00  0.00    -0.497 OA 
HETATM   14  O   UNL     3     -11.615  16.575  63.983  1.00  0.00    -1.154 OA 
ENDBRANCH   9  10
ENDBRANCH   6   9
ENDBRANCH   4   6
TORSDOF 3
ENDMDL
MODEL       15
REMARK 921   NORMALIZED FREE ENERGY PREDICTED BY IDOCK:   -4.54 KCAL/MOL
REMARK 922        TOTAL FREE ENERGY PREDICTED BY IDOCK:   -6.11 KCAL/MOL
REMARK 923 INTER-LIGAND FREE ENERGY PREDICTED BY IDOCK:   -5.35 KCAL/MOL
REMARK 924 INTRA-LIGAND FREE ENERGY PREDICTED BY IDOCK:   -0.76 KCAL/MOL
REMARK 927      BINDING AFFINITY PREDICTED BY RF-SCORE:    0.00 PKD
ROOT
HETATM    1 NA   UNL     1     -10.292  10.466  64.458  1.00  0.00    -0.272 Na 
HETATM    2 NA   UNL     2     -12.922  14.070  66.921  1.00  0.00    -0.445 Na 
HETATM    3  O   UNL     3     -13.218  12.224  63.988  1.00  0.00    -0.757 OA 
HETATM    4  C   UNL     3     -11.995  12.782  63.500  1.00  0.00    -0.555 C  
HETATM    5  H   UNL     3     -13.667  11.801  63.265  1.00  0.00     0.000 HD 
ENDROOT
BRANCH   4   6
HETATM    6  C   UNL     3     -11.271  13.464  64.665  1.00  0.00    -0.359 C  
HETATM    7  O   UNL     3      -9.910  12.948  64.810  1.00  0.00    -0.524 OA 
HETATM    8  H   UNL     3      -9.460  13.371  65.532  1.00  0.00     0.000 HD 
BRANCH   6   9
HETATM    9  C   UNL     3     -11.200  14.950  64.502  1.00  0.00    -0.264 C  
BRANCH   9  10
HETATM   10  O   UNL     3     -11.380  15.575  65.763  1.00  0.00    -0.199 OA 
HETATM   11  P   UNL     3     -10.319  16.938  65.882  1.00  0.00    -0.153 P  
HETATM   12  O   UNL     3      -9.371  18.157  65.987  1.00  0.00    -0.507 OA 
HETATM   13  O   UNL     3      -9.196  15.896  65.678  1.00  0.00    -0.333 OA 
HETATM   14  O   UNL     3     -11.151  17.479  64.684  1.00  0.00    -0.978 OA 
ENDBRANCH   9  10
ENDBRANCH   6   9
ENDBRANCH   4   6
TORSDOF 3
ENDMDL
MODEL       16
REMARK 921   NORMALIZED FREE ENERGY PREDICTED BY IDOCK:   -4.54 KCAL/MOL
REMARK 922        TOTAL FREE ENERGY PREDICTED BY IDOCK:   -6.10 KCAL/MOL
REMARK 923 INTER-LIGAND FREE ENERGY PREDICTED BY IDOCK:   -5.32 KCAL/MOL
REMARK 924 INTRA-LIGAND FREE ENERGY PREDICTED BY IDOCK:   -0.78 KCAL/MOL
REMARK 927      BINDING AFFINITY PREDICTED BY RF-SCORE:    0.00 PKD
ROOT
HETATM    1 NA   UNL     1      -8.762  13.380  65.849  1.00  0.00    -0.413 Na 
HETATM    2 NA   UNL     2     -12.341  14.384  62.363  1.00  0.00    -0.928 Na 
HETATM    3  O   UNL     3     -10.559  16.122  64.791  1.00  0.00    -0.676 OA 
HETATM    4  C   UNL     3     -11.115  15.290  65.812  1.00  0.00    -0.301 C  
HETATM    5  H   UNL     3     -10.156  16.878  65.204  1.00  0.00     0.000 HD 
ENDROOT
BRANCH   4   6
HETATM    6  C   UNL     3     -11.765  14.072  65.148  1.00  0.00    -0.350 C  
HETATM    7  O   UNL     3     -10.893  13.507  64.119  1.00  0.00    -0.534 OA 
HETATM    8  H   UNL     3     -11.296  12.752  63.707  1.00  0.00     0.000 HD 
BRANCH   6   9
HETATM    9  C   UNL     3     -12.097  12.994  66.132  1.00  0.00    -0.409 C  
BRANCH   9  10
HETATM   10  O   UNL     3     -10.939  12.661  66.881  1.00  0.00    -0.249 OA 
HETATM   11  P   UNL     3     -11.413  12.117  68.454  1.00  0.00    -0.349 P  
HETATM   12  O   UNL     3     -11.838  11.630  69.860  1.00  0.00    -0.312 OA 
HETATM   13  O   UNL     3     -12.054  13.517  68.586  1.00  0.00    -0.352 OA 
HETATM   14  O   UNL     3     -12.113  10.974  67.665  1.00  0.00    -0.447 OA 
ENDBRANCH   9  10
ENDBRANCH   6   9
ENDBRANCH   4   6
TORSDOF 3
ENDMDL
MODEL       17
REMARK 921   NORMALIZED FREE ENERGY PREDICTED BY IDOCK:   -4.53 KCAL/MOL
REMARK 922        TOTAL FREE ENERGY PREDICTED BY IDOCK:   -6.10 KCAL/MOL
REMARK 923 INTER-LIGAND FREE ENERGY PREDICTED BY IDOCK:   -5.10 KCAL/MOL
REMARK 924 INTRA-LIGAND FREE ENERGY PREDICTED BY IDOCK:   -1.00 KCAL/MOL
REMARK 927      BINDING AFFINITY PREDICTED BY RF-SCORE:    0.00 PKD
ROOT
HETATM    1 NA   UNL     1     -13.647  14.449  66.220  1.00  0.00    -0.564 Na 
HETATM    2 NA   UNL     2     -10.581  12.916  69.990  1.00  0.00    -0.426 Na 
HETATM    3  O   UNL     3     -11.509  15.913  68.490  1.00  0.00    -0.367 OA 
HETATM    4  C   UNL     3     -10.981  15.465  67.240  1.00  0.00    -0.317 C  
HETATM    5  H   UNL     3     -11.665  16.849  68.435  1.00  0.00     0.000 HD 
ENDROOT
BRANCH   4   6
HETATM    6  C   UNL     3     -10.729  13.956  67.329  1.00  0.00    -0.284 C  
HETATM    7  O   UNL     3     -11.856  13.273  67.964  1.00  0.00    -0.340 OA 
HETATM    8  H   UNL     3     -11.700  12.337  68.020  1.00  0.00     0.000 HD 
BRANCH   6   9
HETATM    9  C   UNL     3     -10.494  13.336  65.988  1.00  0.00    -0.286 C  
BRANCH   9  10
HETATM   10  O   UNL     3     -11.210  14.057  64.999  1.00  0.00    -0.324 OA 
HETATM   11  P   UNL     3     -12.083  12.945  64.000  1.00  0.00    -0.481 P  
HETATM   12  O   UNL     3     -12.863  11.950  63.107  1.00  0.00    -0.636 OA 
HETATM   13  O   UNL     3     -10.688  12.360  63.684  1.00  0.00    -0.417 OA 
HETATM   14  O   UNL     3     -12.827  12.601  65.321  1.00  0.00    -0.656 OA 
ENDBRANCH   9  10
ENDBRANCH   6   9
ENDBRANCH   4   6
TORSDOF 3
ENDMDL
MODEL       18
REMARK 921   NORMALIZED FREE ENERGY PREDICTED BY IDOCK:   -4.52 KCAL/MOL
REMARK 922        TOTAL FREE ENERGY PREDICTED BY IDOCK:   -6.08 KCAL/MOL
REMARK 923 INTER-LIGAND FREE ENERGY PREDICTED BY IDOCK:   -5.23 KCAL/MOL
REMARK 924 INTRA-LIGAND FREE ENERGY PREDICTED BY IDOCK:   -0.85 KCAL/MOL
REMARK 927      BINDING AFFINITY PREDICTED BY RF-SCORE:    0.00 PKD
ROOT
HETATM    1 NA   UNL     1      -9.486  13.049  64.416  1.00  0.00    -0.481 Na 
HETATM    2 NA   UNL     2     -14.381  11.653  64.188  1.00  0.00    -0.538 Na 
HETATM    3  O   UNL     3     -12.408  14.297  63.086  1.00  0.00    -1.096 OA 
HETATM    4  C   UNL     3     -12.074  14.625  64.437  1.00  0.00    -0.462 C  
HETATM    5  H   UNL     3     -12.156  15.022  62.527  1.00  0.00     0.000 HD 
ENDROOT
BRANCH   4   6
HETATM    6  C   UNL     3     -12.481  13.455  65.339  1.00  0.00    -0.494 C  
HETATM    7  O   UNL     3     -12.094  12.176  64.745  1.00  0.00    -0.362 OA 
HETATM    8  H   UNL     3     -12.347  11.450  65.304  1.00  0.00     0.000 HD 
BRANCH   6   9
HETATM    9  C   UNL     3     -11.874  13.548  66.703  1.00  0.00    -0.407 C  
BRANCH   9  10
HETATM   10  O   UNL     3     -10.559  13.016  66.676  1.00  0.00    -0.263 OA 
HETATM   11  P   UNL     3     -10.353  11.931  68.008  1.00  0.00    -0.209 P  
HETATM   12  O   UNL     3     -10.170  10.960  69.200  1.00  0.00    -0.213 OA 
HETATM   13  O   UNL     3     -10.678  13.167  68.876  1.00  0.00    -0.233 OA 
HETATM   14  O   UNL     3     -11.475  11.116  67.303  1.00  0.00    -0.473 OA 
ENDBRANCH   9  10
ENDBRANCH   6   9
ENDBRANCH   4   6
TORSDOF 3
ENDMDL
MODEL       19
REMARK 921   NORMALIZED FREE ENERGY PREDICTED BY IDOCK:   -4.49 KCAL/MOL
REMARK 922        TOTAL FREE ENERGY PREDICTED BY IDOCK:   -6.05 KCAL/MOL
REMARK 923 INTER-LIGAND FREE ENERGY PREDICTED BY IDOCK:   -5.48 KCAL/MOL
REMARK 924 INTRA-LIGAND FREE ENERGY PREDICTED BY IDOCK:   -0.57 KCAL/MOL
REMARK 927      BINDING AFFINITY PREDICTED BY RF-SCORE:    0.00 PKD
ROOT
HETATM    1 NA   UNL     1      -8.868  13.318  69.368  1.00  0.00    -0.351 Na 
HETATM    2 NA   UNL     2     -13.538  15.193  70.173  1.00  0.00    -0.558 Na 
HETATM    3  O   UNL     3     -11.902  12.142  70.500  1.00  0.00    -0.500 OA 
HETATM    4  C   UNL     3     -11.638  12.120  69.095  1.00  0.00    -0.319 C  
HETATM    5  H   UNL     3     -11.735  11.275  70.853  1.00  0.00     0.000 HD 
ENDROOT
BRANCH   4   6
HETATM    6  C   UNL     3     -11.908  13.516  68.525  1.00  0.00    -0.362 C  
HETATM    7  O   UNL     3     -11.136  14.532  69.240  1.00  0.00    -0.254 OA 
HETATM    8  H   UNL     3     -11.303  15.399  68.887  1.00  0.00     0.000 HD 
BRANCH   6   9
HETATM    9  C   UNL     3     -11.583  13.611  67.068  1.00  0.00    -0.359 C  
BRANCH   9  10
HETATM   10  O   UNL     3     -12.156  12.511  66.380  1.00  0.00    -0.576 OA 
HETATM   11  P   UNL     3     -12.319  12.907  64.703  1.00  0.00    -0.410 P  
HETATM   12  O   UNL     3     -12.463  13.262  63.203  1.00  0.00    -0.696 OA 
HETATM   13  O   UNL     3     -13.210  14.062  65.212  1.00  0.00    -0.782 OA 
HETATM   14  O   UNL     3     -10.767  13.000  64.746  1.00  0.00    -0.314 OA 
ENDBRANCH   9  10
ENDBRANCH   6   9
ENDBRANCH   4   6
TORSDOF 3
ENDMDL
MODEL       20
REMARK 921   NORMALIZED FREE ENERGY PREDICTED BY IDOCK:   -4.49 KCAL/MOL
REMARK 922        TOTAL FREE ENERGY PREDICTED BY IDOCK:   -6.05 KCAL/MOL
REMARK 923 INTER-LIGAND FREE ENERGY PREDICTED BY IDOCK:   -5.26 KCAL/MOL
REMARK 924 INTRA-LIGAND FREE ENERGY PREDICTED BY IDOCK:   -0.79 KCAL/MOL
REMARK 927      BINDING AFFINITY PREDICTED BY RF-SCORE:    0.00 PKD
ROOT
HETATM    1 NA   UNL     1     -10.454  16.650  67.183  1.00  0.00    -0.269 Na 
HETATM    2 NA   UNL     2     -13.828  14.602  70.407  1.00  0.00    -0.529 Na 
HETATM    3  O   UNL     3     -10.397  15.159  70.288  1.00  0.00    -0.481 OA 
HETATM    4  C   UNL     3     -10.291  14.332  69.127  1.00  0.00    -0.125 C  
HETATM    5  H   UNL     3      -9.525  15.306  70.636  1.00  0.00     0.000 HD 
ENDROOT
BRANCH   4   6
HETATM    6  C   UNL     3     -11.697  14.095  68.566  1.00  0.00    -0.345 C  
HETATM    7  O   UNL     3     -12.485  15.327  68.587  1.00  0.00    -0.542 OA 
HETATM    8  H   UNL     3     -13.357  15.181  68.239  1.00  0.00     0.000 HD 
BRANCH   6   9
HETATM    9  C   UNL     3     -11.673  13.572  67.165  1.00  0.00    -0.379 C  
BRANCH   9  10
HETATM   10  O   UNL     3     -11.607  14.657  66.253  1.00  0.00    -0.366 OA 
HETATM   11  P   UNL     3     -12.109  14.120  64.687  1.00  0.00    -0.435 P  
HETATM   12  O   UNL     3     -12.558  13.638  63.286  1.00  0.00    -0.816 OA 
HETATM   13  O   UNL     3     -10.929  13.129  64.809  1.00  0.00    -0.305 OA 
HETATM   14  O   UNL     3     -13.467  13.855  65.396  1.00  0.00    -0.672 OA 
ENDBRANCH   9  10
ENDBRANCH   6   9
ENDBRANCH   4   6
TORSDOF 3
ENDMDL
MODEL       21
REMARK 921   NORMALIZED FREE ENERGY PREDICTED BY IDOCK:   -4.47 KCAL/MOL
REMARK 922        TOTAL FREE ENERGY PREDICTED BY IDOCK:   -6.03 KCAL/MOL
REMARK 923 INTER-LIGAND FREE ENERGY PREDICTED BY IDOCK:   -5.43 KCAL/MOL
REMARK 924 INTRA-LIGAND FREE ENERGY PREDICTED BY IDOCK:   -0.60 KCAL/MOL
REMARK 927      BINDING AFFINITY PREDICTED BY RF-SCORE:    0.00 PKD
ROOT
HETATM    1 NA   UNL     1     -10.046   7.781  65.436  1.00  0.00    -0.390 Na 
HETATM    2 NA   UNL     2     -12.620  11.152  62.612  1.00  0.00    -0.835 Na 
HETATM    3  O   UNL     3      -9.552   9.517  62.501  1.00  0.00    -0.566 OA 
HETATM    4  C   UNL     3      -9.168  10.130  63.734  1.00  0.00    -0.281 C  
HETATM    5  H   UNL     3      -8.779   9.139  62.097  1.00  0.00     0.000 HD 
ENDROOT
BRANCH   4   6
HETATM    6  C   UNL     3     -10.414  10.739  64.386  1.00  0.00    -0.274 C  
HETATM    7  O   UNL     3     -10.513  10.351  65.793  1.00  0.00    -0.210 OA 
HETATM    8  H   UNL     3     -11.285  10.729  66.197  1.00  0.00     0.000 HD 
BRANCH   6   9
HETATM    9  C   UNL     3     -10.428  12.233  64.304  1.00  0.00    -0.346 C  
BRANCH   9  10
HETATM   10  O   UNL     3     -11.451  12.745  65.144  1.00  0.00    -0.302 OA 
HETATM   11  P   UNL     3     -12.030  14.240  64.494  1.00  0.00    -0.415 P  
HETATM   12  O   UNL     3     -12.547  15.578  63.911  1.00  0.00    -0.677 OA 
HETATM   13  O   UNL     3     -10.568  14.713  64.664  1.00  0.00    -0.392 OA 
HETATM   14  O   UNL     3     -12.462  13.357  63.289  1.00  0.00    -0.739 OA 
ENDBRANCH   9  10
ENDBRANCH   6   9
ENDBRANCH   4   6
TORSDOF 3
ENDMDL
MODEL       22
REMARK 921   NORMALIZED FREE ENERGY PREDICTED BY IDOCK:   -4.47 KCAL/MOL
REMARK 922        TOTAL FREE ENERGY PREDICTED BY IDOCK:   -6.02 KCAL/MOL
REMARK 923 INTER-LIGAND FREE ENERGY PREDICTED BY IDOCK:   -5.44 KCAL/MOL
REMARK 924 INTRA-LIGAND FREE ENERGY PREDICTED BY IDOCK:   -0.58 KCAL/MOL
REMARK 927      BINDING AFFINITY PREDICTED BY RF-SCORE:    0.00 PKD
ROOT
HETATM    1 NA   UNL     1     -10.179  15.957  64.820  1.00  0.00    -0.335 Na 
HETATM    2 NA   UNL     2     -10.343  11.505  62.348  1.00  0.00    -0.530 Na 
HETATM    3  O   UNL     3     -12.528  14.096  63.122  1.00  0.00    -1.126 OA 
HETATM    4  C   UNL     3     -12.339  13.854  64.518  1.00  0.00    -0.372 C  
HETATM    5  H   UNL     3     -13.285  14.661  63.013  1.00  0.00     0.000 HD 
ENDROOT
BRANCH   4   6
HETATM    6  C   UNL     3     -11.120  12.943  64.695  1.00  0.00    -0.324 C  
HETATM    7  O   UNL     3      -9.990  13.418  63.897  1.00  0.00    -0.715 OA 
HETATM    8  H   UNL     3      -9.234  12.853  64.007  1.00  0.00     0.000 HD 
BRANCH   6   9
HETATM    9  C   UNL     3     -10.684  12.843  66.123  1.00  0.00    -0.272 C  
BRANCH   9  10
HETATM   10  O   UNL     3     -11.751  13.229  66.974  1.00  0.00    -0.347 OA 
HETATM   11  P   UNL     3     -11.628  12.370  68.471  1.00  0.00    -0.329 P  
HETATM   12  O   UNL     3     -11.517  11.601  69.810  1.00  0.00    -0.282 OA 
HETATM   13  O   UNL     3     -11.750  11.107  67.589  1.00  0.00    -0.573 OA 
HETATM   14  O   UNL     3     -10.283  13.138  68.610  1.00  0.00    -0.234 OA 
ENDBRANCH   9  10
ENDBRANCH   6   9
ENDBRANCH   4   6
TORSDOF 3
ENDMDL
MODEL       23
REMARK 921   NORMALIZED FREE ENERGY PREDICTED BY IDOCK:   -4.46 KCAL/MOL
REMARK 922        TOTAL FREE ENERGY PREDICTED BY IDOCK:   -6.01 KCAL/MOL
REMARK 923 INTER-LIGAND FREE ENERGY PREDICTED BY IDOCK:   -5.34 KCAL/MOL
REMARK 924 INTRA-LIGAND FREE ENERGY PREDICTED BY IDOCK:   -0.67 KCAL/MOL
REMARK 927      BINDING AFFINITY PREDICTED BY RF-SCORE:    0.00 PKD
ROOT
HETATM    1 NA   UNL     1      -9.653  17.068  69.255  1.00  0.00    -0.231 Na 
HETATM    2 NA   UNL     2      -8.829  13.460  65.752  1.00  0.00    -0.419 Na 
HETATM    3  O   UNL     3      -8.854  16.934  65.906  1.00  0.00    -0.516 OA 
HETATM    4  C   UNL     3     -10.233  16.919  66.284  1.00  0.00    -0.329 C  
HETATM    5  H   UNL     3      -8.619  17.820  65.654  1.00  0.00     0.000 HD 
ENDROOT
BRANCH   4   6
HETATM    6  C   UNL     3     -10.613  15.491  66.689  1.00  0.00    -0.307 C  
HETATM    7  O   UNL     3     -11.205  15.465  68.026  1.00  0.00    -0.303 OA 
HETATM    8  H   UNL     3     -11.440  14.580  68.278  1.00  0.00     0.000 HD 
BRANCH   6   9
HETATM    9  C   UNL     3     -11.576  14.862  65.732  1.00  0.00    -0.234 C  
BRANCH   9  10
HETATM   10  O   UNL     3     -10.864  14.077  64.789  1.00  0.00    -0.382 OA 
HETATM   11  P   UNL     3     -11.949  12.951  64.047  1.00  0.00    -0.510 P  
HETATM   12  O   UNL     3     -12.920  11.944  63.385  1.00  0.00    -0.730 OA 
HETATM   13  O   UNL     3     -12.166  12.436  65.488  1.00  0.00    -0.568 OA 
HETATM   14  O   UNL     3     -12.660  14.232  63.528  1.00  0.00    -0.814 OA 
ENDBRANCH   9  10
ENDBRANCH   6   9
ENDBRANCH   4   6
TORSDOF 3
ENDMDL
MODEL       24
REMARK 921   NORMALIZED FREE ENERGY PREDICTED BY IDOCK:   -4.44 KCAL/MOL
REMARK 922        TOTAL FREE ENERGY PREDICTED BY IDOCK:   -5.99 KCAL/MOL
REMARK 923 INTER-LIGAND FREE ENERGY PREDICTED BY IDOCK:   -4.91 KCAL/MOL
REMARK 924 INTRA-LIGAND FREE ENERGY PREDICTED BY IDOCK:   -1.08 KCAL/MOL
REMARK 927      BINDING AFFINITY PREDICTED BY RF-SCORE:    0.00 PKD
ROOT
HETATM    1 NA   UNL     1      -9.913  11.508  66.749  1.00  0.00    -0.189 Na 
HETATM    2 NA   UNL     2     -13.513  12.405  63.256  1.00  0.00    -0.671 Na 
HETATM    3  O   UNL     3     -10.113  13.016  63.658  1.00  0.00    -0.699 OA 
HETATM    4  C   UNL     3     -10.380  13.801  64.823  1.00  0.00    -0.398 C  
HETATM    5  H   UNL     3      -9.218  13.177  63.383  1.00  0.00     0.000 HD 
ENDROOT
BRANCH   4   6
HETATM    6  C   UNL     3     -11.824  13.542  65.265  1.00  0.00    -0.352 C  
HETATM    7  O   UNL     3     -12.165  12.125  65.140  1.00  0.00    -0.445 OA 
HETATM    8  H   UNL     3     -13.061  11.964  65.415  1.00  0.00     0.000 HD 
BRANCH   6   9
HETATM    9  C   UNL     3     -12.074  13.967  66.678  1.00  0.00    -0.448 C  
BRANCH   9  10
HETATM   10  O   UNL     3     -10.964  13.605  67.486  1.00  0.00    -0.261 OA 
HETATM   11  P   UNL     3     -11.534  13.022  69.012  1.00  0.00    -0.316 P  
HETATM   12  O   UNL     3     -12.045  12.500  70.377  1.00  0.00    -0.362 OA 
HETATM   13  O   UNL     3     -12.174  14.423  69.144  1.00  0.00    -0.300 OA 
HETATM   14  O   UNL     3     -12.193  11.906  68.152  1.00  0.00    -0.470 OA 
ENDBRANCH   9  10
ENDBRANCH   6   9
ENDBRANCH   4   6
TORSDOF 3
ENDMDL
MODEL       25
REMARK 921   NORMALIZED FREE ENERGY PREDICTED BY IDOCK:   -4.39 KCAL/MOL
REMARK 922        TOTAL FREE ENERGY PREDICTED BY IDOCK:   -5.93 KCAL/MOL
REMARK 923 INTER-LIGAND FREE ENERGY PREDICTED BY IDOCK:   -4.81 KCAL/MOL
REMARK 924 INTRA-LIGAND FREE ENERGY PREDICTED BY IDOCK:   -1.12 KCAL/MOL
REMARK 927      BINDING AFFINITY PREDICTED BY RF-SCORE:    0.00 PKD
ROOT
HETATM    1 NA   UNL     1     -12.025  11.382  66.576  1.00  0.00    -0.304 Na 
HETATM    2 NA   UNL     2     -13.280  14.164  62.495  1.00  0.00    -0.618 Na 
HETATM    3  O   UNL     3     -11.401  11.321  63.189  1.00  0.00    -0.837 OA 
HETATM    4  C   UNL     3     -10.535  12.084  64.033  1.00  0.00    -0.372 C  
HETATM    5  H   UNL     3     -10.988  10.483  63.011  1.00  0.00     0.000 HD 
ENDROOT
BRANCH   4   6
HETATM    6  C   UNL     3     -11.200  13.435  64.319  1.00  0.00    -0.380 C  
HETATM    7  O   UNL     3     -12.627  13.269  64.595  1.00  0.00    -0.588 OA 
HETATM    8  H   UNL     3     -13.039  14.106  64.773  1.00  0.00     0.000 HD 
BRANCH   6   9
HETATM    9  C   UNL     3     -10.573  14.146  65.477  1.00  0.00    -0.326 C  
BRANCH   9  10
HETATM   10  O   UNL     3     -10.207  13.203  66.472  1.00  0.00    -0.266 OA 
HETATM   11  P   UNL     3     -10.656  13.811  68.029  1.00  0.00    -0.264 P  
HETATM   12  O   UNL     3     -11.059  14.356  69.421  1.00  0.00    -0.259 OA 
HETATM   13  O   UNL     3      -9.714  14.985  67.680  1.00  0.00    -0.214 OA 
HETATM   14  O   UNL     3     -12.101  13.733  67.458  1.00  0.00    -0.384 OA 
ENDBRANCH   9  10
ENDBRANCH   6   9
ENDBRANCH   4   6
TORSDOF 3
ENDMDL
MODEL       26
REMARK 921   NORMALIZED FREE ENERGY PREDICTED BY IDOCK:   -4.38 KCAL/MOL
REMARK 922        TOTAL FREE ENERGY PREDICTED BY IDOCK:   -5.92 KCAL/MOL
REMARK 923 INTER-LIGAND FREE ENERGY PREDICTED BY IDOCK:   -5.80 KCAL/MOL
REMARK 924 INTRA-LIGAND FREE ENERGY PREDICTED BY IDOCK:   -0.12 KCAL/MOL
REMARK 927      BINDING AFFINITY PREDICTED BY RF-SCORE:    0.00 PKD
ROOT
HETATM    1 NA   UNL     1     -10.289  12.647  66.597  1.00  0.00    -0.221 Na 
HETATM    2 NA   UNL     2     -12.107  15.990  63.208  1.00  0.00    -0.918 Na 
HETATM    3  O   UNL     3     -13.378  13.763  65.557  1.00  0.00    -0.613 OA 
HETATM    4  C   UNL     3     -12.775  12.669  64.863  1.00  0.00    -0.370 C  
HETATM    5  H   UNL     3     -14.008  13.417  66.179  1.00  0.00     0.000 HD 
ENDROOT
BRANCH   4   6
HETATM    6  C   UNL     3     -11.760  13.227  63.860  1.00  0.00    -0.431 C  
HETATM    7  O   UNL     3     -12.425  14.026  62.831  1.00  0.00    -1.028 OA 
HETATM    8  H   UNL     3     -11.795  14.372  62.208  1.00  0.00     0.000 HD 
BRANCH   6   9
HETATM    9  C   UNL     3     -10.714  14.073  64.516  1.00  0.00    -0.336 C  
BRANCH   9  10
HETATM   10  O   UNL     3     -11.204  14.559  65.755  1.00  0.00    -0.322 OA 
HETATM   11  P   UNL     3     -10.262  15.924  66.247  1.00  0.00    -0.347 P  
HETATM   12  O   UNL     3      -9.418  17.146  66.686  1.00  0.00    -0.245 OA 
HETATM   13  O   UNL     3      -9.076  14.935  66.209  1.00  0.00    -0.282 OA 
HETATM   14  O   UNL     3     -10.822  16.569  64.947  1.00  0.00    -0.684 OA 
ENDBRANCH   9  10
ENDBRANCH   6   9
ENDBRANCH   4   6
TORSDOF 3
ENDMDL
MODEL       27
REMARK 921   NORMALIZED FREE ENERGY PREDICTED BY IDOCK:   -4.38 KCAL/MOL
REMARK 922        TOTAL FREE ENERGY PREDICTED BY IDOCK:   -5.91 KCAL/MOL
REMARK 923 INTER-LIGAND FREE ENERGY PREDICTED BY IDOCK:   -5.12 KCAL/MOL
REMARK 924 INTRA-LIGAND FREE ENERGY PREDICTED BY IDOCK:   -0.79 KCAL/MOL
REMARK 927      BINDING AFFINITY PREDICTED BY RF-SCORE:    0.00 PKD
ROOT
HETATM    1 NA   UNL     1     -12.714  11.160  68.721  1.00  0.00    -0.316 Na 
HETATM    2 NA   UNL     2      -8.438  13.754  69.698  1.00  0.00    -0.334 Na 
HETATM    3  O   UNL     3     -11.693  13.614  70.914  1.00  0.00    -0.499 OA 
HETATM    4  C   UNL     3     -12.200  14.003  69.635  1.00  0.00    -0.332 C  
HETATM    5  H   UNL     3     -12.389  13.702  71.555  1.00  0.00     0.000 HD 
ENDROOT
BRANCH   4   6
HETATM    6  C   UNL     3     -11.078  13.862  68.601  1.00  0.00    -0.265 C  
HETATM    7  O   UNL     3     -10.420  12.561  68.717  1.00  0.00    -0.302 OA 
HETATM    8  H   UNL     3      -9.724  12.473  68.076  1.00  0.00     0.000 HD 
BRANCH   6   9
HETATM    9  C   UNL     3     -11.572  14.020  67.197  1.00  0.00    -0.372 C  
BRANCH   9  10
HETATM   10  O   UNL     3     -12.075  12.779  66.728  1.00  0.00    -0.457 OA 
HETATM   11  P   UNL     3     -12.282  12.859  65.012  1.00  0.00    -0.489 P  
HETATM   12  O   UNL     3     -12.466  12.931  63.476  1.00  0.00    -0.683 OA 
HETATM   13  O   UNL     3     -13.246  14.024  65.328  1.00  0.00    -0.782 OA 
HETATM   14  O   UNL     3     -10.740  13.060  65.002  1.00  0.00    -0.293 OA 
ENDBRANCH   9  10
ENDBRANCH   6   9
ENDBRANCH   4   6
TORSDOF 3
ENDMDL
MODEL       28
REMARK 921   NORMALIZED FREE ENERGY PREDICTED BY IDOCK:   -4.37 KCAL/MOL
REMARK 922        TOTAL FREE ENERGY PREDICTED BY IDOCK:   -5.91 KCAL/MOL
REMARK 923 INTER-LIGAND FREE ENERGY PREDICTED BY IDOCK:   -4.80 KCAL/MOL
REMARK 924 INTRA-LIGAND FREE ENERGY PREDICTED BY IDOCK:   -1.11 KCAL/MOL
REMARK 927      BINDING AFFINITY PREDICTED BY RF-SCORE:    0.00 PKD
ROOT
HETATM    1 NA   UNL     1     -10.128  16.070  65.192  1.00  0.00    -0.289 Na 
HETATM    2 NA   UNL     2     -10.418  11.764  62.483  1.00  0.00    -0.546 Na 
HETATM    3  O   UNL     3     -12.507  14.412  63.333  1.00  0.00    -1.109 OA 
HETATM    4  C   UNL     3     -12.372  14.089  64.719  1.00  0.00    -0.413 C  
HETATM    5  H   UNL     3     -13.234  15.016  63.232  1.00  0.00     0.000 HD 
ENDROOT
BRANCH   4   6
HETATM    6  C   UNL     3     -11.201  13.114  64.881  1.00  0.00    -0.310 C  
HETATM    7  O   UNL     3     -10.039  13.557  64.111  1.00  0.00    -0.760 OA 
HETATM    8  H   UNL     3      -9.313  12.952  64.211  1.00  0.00     0.000 HD 
BRANCH   6   9
HETATM    9  C   UNL     3     -10.789  12.949  66.310  1.00  0.00    -0.275 C  
BRANCH   9  10
HETATM   10  O   UNL     3     -10.940  14.183  66.993  1.00  0.00    -0.292 OA 
HETATM   11  P   UNL     3      -9.533  14.480  67.956  1.00  0.00    -0.222 P  
HETATM   12  O   UNL     3      -8.274  14.744  68.817  1.00  0.00    -0.151 OA 
HETATM   13  O   UNL     3      -9.907  13.150  68.650  1.00  0.00    -0.188 OA 
HETATM   14  O   UNL     3      -8.802  14.501  66.584  1.00  0.00    -0.243 OA 
ENDBRANCH   9  10
ENDBRANCH   6   9
ENDBRANCH   4   6
TORSDOF 3
ENDMDL
MODEL       29
REMARK 921   NORMALIZED FREE ENERGY PREDICTED BY IDOCK:   -4.35 KCAL/MOL
REMARK 922        TOTAL FREE ENERGY PREDICTED BY IDOCK:   -5.89 KCAL/MOL
REMARK 923 INTER-LIGAND FREE ENERGY PREDICTED BY IDOCK:   -5.25 KCAL/MOL
REMARK 924 INTRA-LIGAND FREE ENERGY PREDICTED BY IDOCK:   -0.64 KCAL/MOL
REMARK 927      BINDING AFFINITY PREDICTED BY RF-SCORE:    0.00 PKD
ROOT
HETATM    1 NA   UNL     1     -13.244  13.959  62.472  1.00  0.00    -0.571 Na 
HETATM    2 NA   UNL     2     -12.787  14.931  67.453  1.00  0.00    -0.559 Na 
HETATM    3  O   UNL     3     -10.792  15.094  64.609  1.00  0.00    -0.588 OA 
HETATM    4  C   UNL     3     -10.935  13.685  64.414  1.00  0.00    -0.366 C  
HETATM    5  H   UNL     3     -10.084  15.405  64.058  1.00  0.00     0.000 HD 
ENDROOT
BRANCH   4   6
HETATM    6  C   UNL     3     -12.077  13.182  65.304  1.00  0.00    -0.429 C  
HETATM    7  O   UNL     3     -13.079  12.466  64.515  1.00  0.00    -0.823 OA 
HETATM    8  H   UNL     3     -13.788  12.154  65.066  1.00  0.00     0.000 HD 
BRANCH   6   9
HETATM    9  C   UNL     3     -11.596  12.276  66.393  1.00  0.00    -0.383 C  
BRANCH   9  10
HETATM   10  O   UNL     3     -12.175  12.669  67.628  1.00  0.00    -0.367 OA 
HETATM   11  P   UNL     3     -11.468  11.747  68.910  1.00  0.00    -0.352 P  
HETATM   12  O   UNL     3     -10.835  10.921  70.056  1.00  0.00    -0.215 OA 
HETATM   13  O   UNL     3     -12.020  10.526  68.140  1.00  0.00    -0.375 OA 
HETATM   14  O   UNL     3     -10.155  12.455  68.472  1.00  0.00    -0.221 OA 
ENDBRANCH   9  10
ENDBRANCH   6   9
ENDBRANCH   4   6
TORSDOF 3
ENDMDL
MODEL       30
REMARK 921   NORMALIZED FREE ENERGY PREDICTED BY IDOCK:   -4.35 KCAL/MOL
REMARK 922        TOTAL FREE ENERGY PREDICTED BY IDOCK:   -5.88 KCAL/MOL
REMARK 923 INTER-LIGAND FREE ENERGY PREDICTED BY IDOCK:   -5.02 KCAL/MOL
REMARK 924 INTRA-LIGAND FREE ENERGY PREDICTED BY IDOCK:   -0.86 KCAL/MOL
REMARK 927      BINDING AFFINITY PREDICTED BY RF-SCORE:    0.00 PKD
ROOT
HETATM    1 NA   UNL     1     -13.051  13.982  62.630  1.00  0.00    -0.749 Na 
HETATM    2 NA   UNL     2     -10.849  16.622  66.391  1.00  0.00    -0.305 Na 
HETATM    3  O   UNL     3     -10.072  13.909  64.359  1.00  0.00    -0.711 OA 
HETATM    4  C   UNL     3     -11.188  13.183  64.882  1.00  0.00    -0.310 C  
HETATM    5  H   UNL     3      -9.510  13.303  63.891  1.00  0.00     0.000 HD 
ENDROOT
BRANCH   4   6
HETATM    6  C   UNL     3     -12.095  14.160  65.637  1.00  0.00    -0.415 C  
HETATM    7  O   UNL     3     -13.488  14.013  65.216  1.00  0.00    -0.622 OA 
HETATM    8  H   UNL     3     -14.052  14.619  65.684  1.00  0.00     0.000 HD 
BRANCH   6   9
HETATM    9  C   UNL     3     -12.026  13.974  67.120  1.00  0.00    -0.430 C  
BRANCH   9  10
HETATM   10  O   UNL     3     -10.709  14.250  67.572  1.00  0.00    -0.265 OA 
HETATM   11  P   UNL     3     -10.782  14.953  69.151  1.00  0.00    -0.259 P  
HETATM   12  O   UNL     3     -10.849  15.583  70.564  1.00  0.00    -0.316 OA 
HETATM   13  O   UNL     3     -11.619  16.055  68.462  1.00  0.00    -0.381 OA 
HETATM   14  O   UNL     3     -11.410  13.587  69.549  1.00  0.00    -0.257 OA 
ENDBRANCH   9  10
ENDBRANCH   6   9
ENDBRANCH   4   6
TORSDOF 3
ENDMDL
MODEL       31
REMARK 921   NORMALIZED FREE ENERGY PREDICTED BY IDOCK:   -4.34 KCAL/MOL
REMARK 922        TOTAL FREE ENERGY PREDICTED BY IDOCK:   -5.87 KCAL/MOL
REMARK 923 INTER-LIGAND FREE ENERGY PREDICTED BY IDOCK:   -5.30 KCAL/MOL
REMARK 924 INTRA-LIGAND FREE ENERGY PREDICTED BY IDOCK:   -0.57 KCAL/MOL
REMARK 927      BINDING AFFINITY PREDICTED BY RF-SCORE:    0.00 PKD
ROOT
HETATM    1 NA   UNL     1     -13.554  14.887  70.137  1.00  0.00    -0.555 Na 
HETATM    2 NA   UNL     2      -8.723  13.382  69.539  1.00  0.00    -0.330 Na 
HETATM    3  O   UNL     3     -10.469  16.379  69.786  1.00  0.00    -0.290 OA 
HETATM    4  C   UNL     3     -11.213  16.056  68.609  1.00  0.00    -0.366 C  
HETATM    5  H   UNL     3     -10.597  17.300  69.981  1.00  0.00     0.000 HD 
ENDROOT
BRANCH   4   6
HETATM    6  C   UNL     3     -11.007  14.571  68.293  1.00  0.00    -0.247 C  
HETATM    7  O   UNL     3     -11.175  13.752  69.493  1.00  0.00    -0.352 OA 
HETATM    8  H   UNL     3     -11.047  12.830  69.298  1.00  0.00     0.000 HD 
BRANCH   6   9
HETATM    9  C   UNL     3     -11.951  14.073  67.244  1.00  0.00    -0.413 C  
BRANCH   9  10
HETATM   10  O   UNL     3     -11.280  14.004  65.996  1.00  0.00    -0.304 OA 
HETATM   11  P   UNL     3     -12.201  13.027  64.905  1.00  0.00    -0.463 P  
HETATM   12  O   UNL     3     -13.026  12.152  63.929  1.00  0.00    -0.726 OA 
HETATM   13  O   UNL     3     -12.002  11.917  65.962  1.00  0.00    -0.511 OA 
HETATM   14  O   UNL     3     -13.277  14.135  65.083  1.00  0.00    -0.743 OA 
ENDBRANCH   9  10
ENDBRANCH   6   9
ENDBRANCH   4   6
TORSDOF 3
ENDMDL
MODEL       32
REMARK 921   NORMALIZED FREE ENERGY PREDICTED BY IDOCK:   -4.34 KCAL/MOL
REMARK 922        TOTAL FREE ENERGY PREDICTED BY IDOCK:   -5.87 KCAL/MOL
REMARK 923 INTER-LIGAND FREE ENERGY PREDICTED BY IDOCK:   -5.33 KCAL/MOL
REMARK 924 INTRA-LIGAND FREE ENERGY PREDICTED BY IDOCK:   -0.53 KCAL/MOL
REMARK 927      BINDING AFFINITY PREDICTED BY RF-SCORE:    0.00 PKD
ROOT
HETATM    1 NA   UNL     1     -12.397  13.199  70.065  1.00  0.00    -0.264 Na 
HETATM    2 NA   UNL     2     -11.527   8.673  67.890  1.00  0.00    -0.476 Na 
HETATM    3  O   UNL     3      -9.704  11.107  69.578  1.00  0.00    -0.418 OA 
HETATM    4  C   UNL     3     -10.021  12.064  68.564  1.00  0.00    -0.184 C  
HETATM    5  H   UNL     3      -8.998  11.454  70.112  1.00  0.00     0.000 HD 
ENDROOT
BRANCH   4   6
HETATM    6  C   UNL     3     -11.158  11.504  67.703  1.00  0.00    -0.266 C  
HETATM    7  O   UNL     3     -12.187  10.879  68.534  1.00  0.00    -0.799 OA 
HETATM    8  H   UNL     3     -12.892  10.532  68.000  1.00  0.00     0.000 HD 
BRANCH   6   9
HETATM    9  C   UNL     3     -11.805  12.555  66.857  1.00  0.00    -0.334 C  
BRANCH   9  10
HETATM   10  O   UNL     3     -11.064  12.722  65.658  1.00  0.00    -0.271 OA 
HETATM   11  P   UNL     3     -11.841  13.909  64.667  1.00  0.00    -0.446 P  
HETATM   12  O   UNL     3     -12.537  14.970  63.781  1.00  0.00    -0.776 OA 
HETATM   13  O   UNL     3     -13.048  12.944  64.713  1.00  0.00    -0.754 OA 
HETATM   14  O   UNL     3     -11.522  14.865  65.850  1.00  0.00    -0.342 OA 
ENDBRANCH   9  10
ENDBRANCH   6   9
ENDBRANCH   4   6
TORSDOF 3
ENDMDL
MODEL       33
REMARK 921   NORMALIZED FREE ENERGY PREDICTED BY IDOCK:   -4.31 KCAL/MOL
REMARK 922        TOTAL FREE ENERGY PREDICTED BY IDOCK:   -5.83 KCAL/MOL
REMARK 923 INTER-LIGAND FREE ENERGY PREDICTED BY IDOCK:   -4.99 KCAL/MOL
REMARK 924 INTRA-LIGAND FREE ENERGY PREDICTED BY IDOCK:   -0.84 KCAL/MOL
REMARK 927      BINDING AFFINITY PREDICTED BY RF-SCORE:    0.00 PKD
ROOT
HETATM    1 NA   UNL     1     -12.474  14.428  62.504  1.00  0.00    -0.929 Na 
HETATM    2 NA   UNL     2      -8.623  13.743  65.770  1.00  0.00    -0.409 Na 
HETATM    3  O   UNL     3     -12.039  13.102  65.654  1.00  0.00    -0.399 OA 
HETATM    4  C   UNL     3     -12.309  14.500  65.529  1.00  0.00    -0.267 C  
HETATM    5  H   UNL     3     -12.850  12.655  65.867  1.00  0.00     0.000 HD 
ENDROOT
BRANCH   4   6
HETATM    6  C   UNL     3     -11.002  15.221  65.186  1.00  0.00    -0.416 C  
HETATM    7  O   UNL     3     -11.175  16.099  64.029  1.00  0.00    -1.164 OA 
HETATM    8  H   UNL     3     -10.364  16.547  63.816  1.00  0.00     0.000 HD 
BRANCH   6   9
HETATM    9  C   UNL     3     -10.483  16.038  66.328  1.00  0.00    -0.320 C  
BRANCH   9  10
HETATM   10  O   UNL     3      -9.961  15.178  67.328  1.00  0.00    -0.228 OA 
HETATM   11  P   UNL     3      -8.589  15.929  68.068  1.00  0.00    -0.168 P  
HETATM   12  O   UNL     3      -7.362  16.602  68.730  1.00  0.00    -0.194 OA 
HETATM   13  O   UNL     3      -7.996  15.918  66.641  1.00  0.00    -0.247 OA 
HETATM   14  O   UNL     3      -9.623  17.003  68.509  1.00  0.00    -0.254 OA 
ENDBRANCH   9  10
ENDBRANCH   6   9
ENDBRANCH   4   6
TORSDOF 3
ENDMDL
MODEL       34
REMARK 921   NORMALIZED FREE ENERGY PREDICTED BY IDOCK:   -4.31 KCAL/MOL
REMARK 922        TOTAL FREE ENERGY PREDICTED BY IDOCK:   -5.83 KCAL/MOL
REMARK 923 INTER-LIGAND FREE ENERGY PREDICTED BY IDOCK:   -5.08 KCAL/MOL
REMARK 924 INTRA-LIGAND FREE ENERGY PREDICTED BY IDOCK:   -0.75 KCAL/MOL
REMARK 927      BINDING AFFINITY PREDICTED BY RF-SCORE:    0.00 PKD
ROOT
HETATM    1 NA   UNL     1     -11.327  16.625  65.053  1.00  0.00    -0.336 Na 
HETATM    2 NA   UNL     2      -9.206  12.376  63.206  1.00  0.00    -0.497 Na 
HETATM    3  O   UNL     3     -12.341  13.881  63.234  1.00  0.00    -1.115 OA 
HETATM    4  C   UNL     3     -12.375  13.809  64.662  1.00  0.00    -0.372 C  
HETATM    5  H   UNL     3     -13.216  14.079  62.920  1.00  0.00     0.000 HD 
ENDROOT
BRANCH   4   6
HETATM    6  C   UNL     3     -10.966  13.487  65.169  1.00  0.00    -0.320 C  
HETATM    7  O   UNL     3      -9.960  14.278  64.458  1.00  0.00    -0.640 OA 
HETATM    8  H   UNL     3      -9.086  14.079  64.772  1.00  0.00     0.000 HD 
BRANCH   6   9
HETATM    9  C   UNL     3     -10.816  13.738  66.636  1.00  0.00    -0.288 C  
BRANCH   9  10
HETATM   10  O   UNL     3     -11.601  14.859  67.010  1.00  0.00    -0.362 OA 
HETATM   11  P   UNL     3     -11.542  15.051  68.729  1.00  0.00    -0.330 P  
HETATM   12  O   UNL     3     -11.489  15.221  70.266  1.00  0.00    -0.253 OA 
HETATM   13  O   UNL     3     -12.145  13.628  68.762  1.00  0.00    -0.355 OA 
HETATM   14  O   UNL     3     -10.024  15.284  68.484  1.00  0.00    -0.213 OA 
ENDBRANCH   9  10
ENDBRANCH   6   9
ENDBRANCH   4   6
TORSDOF 3
ENDMDL
MODEL       35
REMARK 921   NORMALIZED FREE ENERGY PREDICTED BY IDOCK:   -4.29 KCAL/MOL
REMARK 922        TOTAL FREE ENERGY PREDICTED BY IDOCK:   -5.81 KCAL/MOL
REMARK 923 INTER-LIGAND FREE ENERGY PREDICTED BY IDOCK:   -5.38 KCAL/MOL
REMARK 924 INTRA-LIGAND FREE ENERGY PREDICTED BY IDOCK:   -0.43 KCAL/MOL
REMARK 927      BINDING AFFINITY PREDICTED BY RF-SCORE:    0.00 PKD
ROOT
HETATM    1 NA   UNL     1     -12.989  14.581  62.456  1.00  0.00    -0.574 Na 
HETATM    2 NA   UNL     2      -8.620  12.091  63.282  1.00  0.00    -0.439 Na 
HETATM    3  O   UNL     3     -12.000  11.326  63.001  1.00  0.00    -0.863 OA 
HETATM    4  C   UNL     3     -12.293  12.152  64.130  1.00  0.00    -0.409 C  
HETATM    5  H   UNL     3     -12.759  10.784  62.817  1.00  0.00     0.000 HD 
ENDROOT
BRANCH   4   6
HETATM    6  C   UNL     3     -11.069  13.025  64.427  1.00  0.00    -0.370 C  
HETATM    7  O   UNL     3     -11.339  14.429  64.119  1.00  0.00    -0.612 OA 
HETATM    8  H   UNL     3     -10.581  14.971  64.303  1.00  0.00     0.000 HD 
BRANCH   6   9
HETATM    9  C   UNL     3     -10.632  12.928  65.855  1.00  0.00    -0.269 C  
BRANCH   9  10
HETATM   10  O   UNL     3     -11.584  13.570  66.688  1.00  0.00    -0.331 OA 
HETATM   11  P   UNL     3     -11.559  12.835  68.255  1.00  0.00    -0.354 P  
HETATM   12  O   UNL     3     -11.536  12.178  69.656  1.00  0.00    -0.298 OA 
HETATM   13  O   UNL     3     -11.931  11.543  67.494  1.00  0.00    -0.629 OA 
HETATM   14  O   UNL     3     -10.096  13.361  68.295  1.00  0.00    -0.237 OA 
ENDBRANCH   9  10
ENDBRANCH   6   9
ENDBRANCH   4   6
TORSDOF 3
ENDMDL
MODEL       36
REMARK 921   NORMALIZED FREE ENERGY PREDICTED BY IDOCK:   -4.27 KCAL/MOL
REMARK 922        TOTAL FREE ENERGY PREDICTED BY IDOCK:   -5.79 KCAL/MOL
REMARK 923 INTER-LIGAND FREE ENERGY PREDICTED BY IDOCK:   -5.37 KCAL/MOL
REMARK 924 INTRA-LIGAND FREE ENERGY PREDICTED BY IDOCK:   -0.42 KCAL/MOL
REMARK 927      BINDING AFFINITY PREDICTED BY RF-SCORE:    0.00 PKD
ROOT
HETATM    1 NA   UNL     1      -9.233  13.311  64.370  1.00  0.00    -0.495 Na 
HETATM    2 NA   UNL     2     -14.092  14.456  65.394  1.00  0.00    -0.800 Na 
HETATM    3  O   UNL     3     -11.282  16.070  64.131  1.00  0.00    -1.016 OA 
HETATM    4  C   UNL     3     -10.583  15.838  65.357  1.00  0.00    -0.421 C  
HETATM    5  H   UNL     3     -10.800  16.715  63.626  1.00  0.00     0.000 HD 
ENDROOT
BRANCH   4   6
HETATM    6  C   UNL     3     -11.360  14.799  66.172  1.00  0.00    -0.330 C  
HETATM    7  O   UNL     3     -11.218  13.464  65.592  1.00  0.00    -0.292 OA 
HETATM    8  H   UNL     3     -11.699  12.819  66.097  1.00  0.00     0.000 HD 
BRANCH   6   9
HETATM    9  C   UNL     3     -10.916  14.745  67.600  1.00  0.00    -0.291 C  
BRANCH   9  10
HETATM   10  O   UNL     3     -11.313  15.933  68.266  1.00  0.00    -0.350 OA 
HETATM   11  P   UNL     3     -11.240  15.682  69.977  1.00  0.00    -0.392 P  
HETATM   12  O   UNL     3     -11.174  15.456  71.507  1.00  0.00    -0.384 OA 
HETATM   13  O   UNL     3     -12.264  14.556  69.708  1.00  0.00    -0.315 OA 
HETATM   14  O   UNL     3      -9.721  15.477  69.714  1.00  0.00    -0.287 OA 
ENDBRANCH   9  10
ENDBRANCH   6   9
ENDBRANCH   4   6
TORSDOF 3
ENDMDL
MODEL       37
REMARK 921   NORMALIZED FREE ENERGY PREDICTED BY IDOCK:   -4.27 KCAL/MOL
REMARK 922        TOTAL FREE ENERGY PREDICTED BY IDOCK:   -5.79 KCAL/MOL
REMARK 923 INTER-LIGAND FREE ENERGY PREDICTED BY IDOCK:   -4.99 KCAL/MOL
REMARK 924 INTRA-LIGAND FREE ENERGY PREDICTED BY IDOCK:   -0.80 KCAL/MOL
REMARK 927      BINDING AFFINITY PREDICTED BY RF-SCORE:    0.00 PKD
ROOT
HETATM    1 NA   UNL     1      -9.731  13.262  63.644  1.00  0.00    -0.479 Na 
HETATM    2 NA   UNL     2     -14.330  14.585  65.395  1.00  0.00    -0.665 Na 
HETATM    3  O   UNL     3     -11.615  16.137  63.872  1.00  0.00    -1.369 OA 
HETATM    4  C   UNL     3     -10.777  15.776  64.973  1.00  0.00    -0.421 C  
HETATM    5  H   UNL     3     -11.165  16.791  63.350  1.00  0.00     0.000 HD 
ENDROOT
BRANCH   4   6
HETATM    6  C   UNL     3     -11.503  14.722  65.815  1.00  0.00    -0.322 C  
HETATM    7  O   UNL     3     -12.292  13.827  64.969  1.00  0.00    -0.399 OA 
HETATM    8  H   UNL     3     -12.743  13.173  65.491  1.00  0.00     0.000 HD 
BRANCH   6   9
HETATM    9  C   UNL     3     -10.561  13.895  66.632  1.00  0.00    -0.274 C  
BRANCH   9  10
HETATM   10  O   UNL     3     -11.236  12.745  67.116  1.00  0.00    -0.266 OA 
HETATM   11  P   UNL     3     -10.164  11.388  67.063  1.00  0.00    -0.228 P  
HETATM   12  O   UNL     3      -9.203  10.175  67.015  1.00  0.00    -0.144 OA 
HETATM   13  O   UNL     3     -10.104  11.680  65.546  1.00  0.00    -0.227 OA 
HETATM   14  O   UNL     3      -9.332  12.217  68.082  1.00  0.00    -0.196 OA 
ENDBRANCH   9  10
ENDBRANCH   6   9
ENDBRANCH   4   6
TORSDOF 3
ENDMDL
MODEL       38
REMARK 921   NORMALIZED FREE ENERGY PREDICTED BY IDOCK:   -4.26 KCAL/MOL
REMARK 922        TOTAL FREE ENERGY PREDICTED BY IDOCK:   -5.78 KCAL/MOL
REMARK 923 INTER-LIGAND FREE ENERGY PREDICTED BY IDOCK:   -5.21 KCAL/MOL
REMARK 924 INTRA-LIGAND FREE ENERGY PREDICTED BY IDOCK:   -0.57 KCAL/MOL
REMARK 927      BINDING AFFINITY PREDICTED BY RF-SCORE:    0.00 PKD
ROOT
HETATM    1 NA   UNL     1     -11.723  11.095  71.187  1.00  0.00    -0.289 Na 
HETATM    2 NA   UNL     2      -8.895  12.379  67.147  1.00  0.00    -0.149 Na 
HETATM    3  O   UNL     3     -10.759  13.996  69.597  1.00  0.00    -0.449 OA 
HETATM    4  C   UNL     3     -11.943  13.330  69.152  1.00  0.00    -0.296 C  
HETATM    5  H   UNL     3     -11.012  14.709  70.172  1.00  0.00     0.000 HD 
ENDROOT
BRANCH   4   6
HETATM    6  C   UNL     3     -11.538  12.180  68.224  1.00  0.00    -0.325 C  
HETATM    7  O   UNL     3     -12.276  10.960  68.548  1.00  0.00    -0.799 OA 
HETATM    8  H   UNL     3     -12.025  10.246  67.973  1.00  0.00     0.000 HD 
BRANCH   6   9
HETATM    9  C   UNL     3     -11.765  12.503  66.781  1.00  0.00    -0.384 C  
BRANCH   9  10
HETATM   10  O   UNL     3     -11.522  13.883  66.559  1.00  0.00    -0.324 OA 
HETATM   11  P   UNL     3     -12.099  14.320  64.987  1.00  0.00    -0.424 P  
HETATM   12  O   UNL     3     -12.615  14.709  63.580  1.00  0.00    -0.773 OA 
HETATM   13  O   UNL     3     -11.094  13.258  64.484  1.00  0.00    -0.337 OA 
HETATM   14  O   UNL     3     -13.485  13.916  65.565  1.00  0.00    -0.657 OA 
ENDBRANCH   9  10
ENDBRANCH   6   9
ENDBRANCH   4   6
TORSDOF 3
ENDMDL
MODEL       39
REMARK 921   NORMALIZED FREE ENERGY PREDICTED BY IDOCK:   -4.26 KCAL/MOL
REMARK 922        TOTAL FREE ENERGY PREDICTED BY IDOCK:   -5.77 KCAL/MOL
REMARK 923 INTER-LIGAND FREE ENERGY PREDICTED BY IDOCK:   -4.97 KCAL/MOL
REMARK 924 INTRA-LIGAND FREE ENERGY PREDICTED BY IDOCK:   -0.80 KCAL/MOL
REMARK 927      BINDING AFFINITY PREDICTED BY RF-SCORE:    0.00 PKD
ROOT
HETATM    1 NA   UNL     1     -14.155   7.121  70.331  1.00  0.00    -0.619 Na 
HETATM    2 NA   UNL     2     -11.236   7.044  74.508  1.00  0.00    -0.400 Na 
HETATM    3  O   UNL     3     -13.948   8.855  73.301  1.00  0.00    -1.203 OA 
HETATM    4  C   UNL     3     -13.169   9.303  72.189  1.00  0.00    -0.461 C  
HETATM    5  H   UNL     3     -14.735   9.386  73.353  1.00  0.00     0.000 HD 
ENDROOT
BRANCH   4   6
HETATM    6  C   UNL     3     -11.901   8.448  72.105  1.00  0.00    -0.375 C  
HETATM    7  O   UNL     3     -12.201   7.039  72.358  1.00  0.00    -0.485 OA 
HETATM    8  H   UNL     3     -11.414   6.508  72.306  1.00  0.00     0.000 HD 
BRANCH   6   9
HETATM    9  C   UNL     3     -11.224   8.558  70.775  1.00  0.00    -0.257 C  
BRANCH   9  10
HETATM   10  O   UNL     3     -10.257   7.528  70.647  1.00  0.00    -0.201 OA 
HETATM   11  P   UNL     3     -10.459   6.740  69.120  1.00  0.00    -0.247 P  
HETATM   12  O   UNL     3     -10.641   6.036  67.753  1.00  0.00    -0.212 OA 
HETATM   13  O   UNL     3     -11.880   6.420  69.638  1.00  0.00    -0.323 OA 
HETATM   14  O   UNL     3     -10.103   8.138  68.540  1.00  0.00    -0.189 OA 
ENDBRANCH   9  10
ENDBRANCH   6   9
ENDBRANCH   4   6
TORSDOF 3
ENDMDL
MODEL       40
REMARK 921   NORMALIZED FREE ENERGY PREDICTED BY IDOCK:   -4.25 KCAL/MOL
REMARK 922        TOTAL FREE ENERGY PREDICTED BY IDOCK:   -5.76 KCAL/MOL
REMARK 923 INTER-LIGAND FREE ENERGY PREDICTED BY IDOCK:   -4.96 KCAL/MOL
REMARK 924 INTRA-LIGAND FREE ENERGY PREDICTED BY IDOCK:   -0.80 KCAL/MOL
REMARK 927      BINDING AFFINITY PREDICTED BY RF-SCORE:    0.00 PKD
ROOT
HETATM    1 NA   UNL     1      -9.796  11.977  66.574  1.00  0.00    -0.188 Na 
HETATM    2 NA   UNL     2      -9.044  16.848  67.869  1.00  0.00    -0.205 Na 
HETATM    3  O   UNL     3     -10.350  13.973  69.327  1.00  0.00    -0.418 OA 
HETATM    4  C   UNL     3     -11.358  13.904  68.315  1.00  0.00    -0.294 C  
HETATM    5  H   UNL     3     -10.592  13.387  70.035  1.00  0.00     0.000 HD 
ENDROOT
BRANCH   4   6
HETATM    6  C   UNL     3     -10.969  14.849  67.173  1.00  0.00    -0.323 C  
HETATM    7  O   UNL     3      -9.541  14.750  66.873  1.00  0.00    -0.225 OA 
HETATM    8  H   UNL     3      -9.300  15.336  66.165  1.00  0.00     0.000 HD 
BRANCH   6   9
HETATM    9  C   UNL     3     -11.738  14.577  65.919  1.00  0.00    -0.345 C  
BRANCH   9  10
HETATM   10  O   UNL     3     -10.949  13.791  65.039  1.00  0.00    -0.322 OA 
HETATM   11  P   UNL     3     -11.986  12.792  64.080  1.00  0.00    -0.520 P  
HETATM   12  O   UNL     3     -12.914  11.898  63.222  1.00  0.00    -0.707 OA 
HETATM   13  O   UNL     3     -12.449  12.219  65.438  1.00  0.00    -0.596 OA 
HETATM   14  O   UNL     3     -12.524  14.150  63.546  1.00  0.00    -0.817 OA 
ENDBRANCH   9  10
ENDBRANCH   6   9
ENDBRANCH   4   6
TORSDOF 3
ENDMDL
MODEL       41
REMARK 921   NORMALIZED FREE ENERGY PREDICTED BY IDOCK:   -4.23 KCAL/MOL
REMARK 922        TOTAL FREE ENERGY PREDICTED BY IDOCK:   -5.74 KCAL/MOL
REMARK 923 INTER-LIGAND FREE ENERGY PREDICTED BY IDOCK:   -5.14 KCAL/MOL
REMARK 924 INTRA-LIGAND FREE ENERGY PREDICTED BY IDOCK:   -0.60 KCAL/MOL
REMARK 927      BINDING AFFINITY PREDICTED BY RF-SCORE:    0.00 PKD
ROOT
HETATM    1 NA   UNL     1     -10.843   7.749  73.977  1.00  0.00    -0.313 Na 
HETATM    2 NA   UNL     2     -13.000  12.203  72.761  1.00  0.00    -0.423 Na 
HETATM    3  O   UNL     3     -13.972   8.879  73.082  1.00  0.00    -1.118 OA 
HETATM    4  C   UNL     3     -13.057   8.500  72.050  1.00  0.00    -0.371 C  
HETATM    5  H   UNL     3     -14.569   8.156  73.237  1.00  0.00     0.000 HD 
ENDROOT
BRANCH   4   6
HETATM    6  C   UNL     3     -12.095   9.665  71.798  1.00  0.00    -0.369 C  
HETATM    7  O   UNL     3     -10.705   9.212  71.821  1.00  0.00    -0.355 OA 
HETATM    8  H   UNL     3     -10.107   9.934  71.665  1.00  0.00     0.000 HD 
BRANCH   6   9
HETATM    9  C   UNL     3     -12.350  10.344  70.489  1.00  0.00    -0.322 C  
BRANCH   9  10
HETATM   10  O   UNL     3     -11.189  11.052  70.087  1.00  0.00    -0.270 OA 
HETATM   11  P   UNL     3     -11.650  12.390  69.091  1.00  0.00    -0.309 P  
HETATM   12  O   UNL     3     -12.064  13.586  68.199  1.00  0.00    -0.346 OA 
HETATM   13  O   UNL     3     -12.263  11.307  68.174  1.00  0.00    -0.622 OA 
HETATM   14  O   UNL     3     -12.383  12.877  70.373  1.00  0.00    -0.323 OA 
ENDBRANCH   9  10
ENDBRANCH   6   9
ENDBRANCH   4   6
TORSDOF 3
ENDMDL
MODEL       42
REMARK 921   NORMALIZED FREE ENERGY PREDICTED BY IDOCK:   -4.23 KCAL/MOL
REMARK 922        TOTAL FREE ENERGY PREDICTED BY IDOCK:   -5.74 KCAL/MOL
REMARK 923 INTER-LIGAND FREE ENERGY PREDICTED BY IDOCK:   -4.61 KCAL/MOL
REMARK 924 INTRA-LIGAND FREE ENERGY PREDICTED BY IDOCK:   -1.13 KCAL/MOL
REMARK 927      BINDING AFFINITY PREDICTED BY RF-SCORE:    0.00 PKD
ROOT
HETATM    1 NA   UNL     1     -13.264  14.722  66.495  1.00  0.00    -0.486 Na 
HETATM    2 NA   UNL     2      -8.951  17.341  65.783  1.00  0.00    -0.236 Na 
HETATM    3  O   UNL     3     -11.770  16.481  63.937  1.00  0.00    -1.527 OA 
HETATM    4  C   UNL     3     -11.460  15.093  64.089  1.00  0.00     0.006 C  
HETATM    5  H   UNL     3     -12.429  16.571  63.258  1.00  0.00     0.000 HD 
ENDROOT
BRANCH   4   6
HETATM    6  C   UNL     3     -10.398  14.947  65.183  1.00  0.00    -0.401 C  
HETATM    7  O   UNL     3     -10.690  15.823  66.317  1.00  0.00    -0.312 OA 
HETATM    8  H   UNL     3     -10.031  15.733  66.997  1.00  0.00     0.000 HD 
BRANCH   6   9
HETATM    9  C   UNL     3     -10.285  13.542  65.685  1.00  0.00    -0.296 C  
BRANCH   9  10
HETATM   10  O   UNL     3     -11.564  12.928  65.671  1.00  0.00    -0.328 OA 
HETATM   11  P   UNL     3     -11.740  11.940  67.081  1.00  0.00     0.005 P  
HETATM   12  O   UNL     3     -11.896  11.057  68.343  1.00  0.00    -0.503 OA 
HETATM   13  O   UNL     3     -10.505  11.190  66.531  1.00  0.00    -0.238 OA 
HETATM   14  O   UNL     3     -11.597  13.290  67.840  1.00  0.00    -0.292 OA 
ENDBRANCH   9  10
ENDBRANCH   6   9
ENDBRANCH   4   6
TORSDOF 3
ENDMDL
MODEL       43
REMARK 921   NORMALIZED FREE ENERGY PREDICTED BY IDOCK:   -4.22 KCAL/MOL
REMARK 922        TOTAL FREE ENERGY PREDICTED BY IDOCK:   -5.73 KCAL/MOL
REMARK 923 INTER-LIGAND FREE ENERGY PREDICTED BY IDOCK:   -5.06 KCAL/MOL
REMARK 924 INTRA-LIGAND FREE ENERGY PREDICTED BY IDOCK:   -0.67 KCAL/MOL
REMARK 927      BINDING AFFINITY PREDICTED BY RF-SCORE:    0.00 PKD
ROOT
HETATM    1 NA   UNL     1      -9.381  14.918  70.635  1.00  0.00    -0.440 Na 
HETATM    2 NA   UNL     2     -12.500  11.600  68.349  1.00  0.00    -0.311 Na 
HETATM    3  O   UNL     3     -10.821  14.533  67.529  1.00  0.00    -0.278 OA 
HETATM    4  C   UNL     3     -11.544  15.242  68.538  1.00  0.00    -0.352 C  
HETATM    5  H   UNL     3     -10.396  15.165  66.961  1.00  0.00     0.000 HD 
ENDROOT
BRANCH   4   6
HETATM    6  C   UNL     3     -12.229  14.224  69.455  1.00  0.00    -0.297 C  
HETATM    7  O   UNL     3     -11.272  13.234  69.947  1.00  0.00    -0.487 OA 
HETATM    8  H   UNL     3     -11.697  12.602  70.516  1.00  0.00     0.000 HD 
BRANCH   6   9
HETATM    9  C   UNL     3     -12.891  14.869  70.632  1.00  0.00    -0.353 C  
BRANCH   9  10
HETATM   10  O   UNL     3     -12.451  14.243  71.827  1.00  0.00    -0.340 OA 
HETATM   11  P   UNL     3     -12.601  15.355  73.144  1.00  0.00    -0.597 P  
HETATM   12  O   UNL     3     -12.736  16.351  74.322  1.00  0.00    -0.718 OA 
HETATM   13  O   UNL     3     -11.634  16.235  72.320  1.00  0.00    -0.448 OA 
HETATM   14  O   UNL     3     -14.119  15.287  72.811  1.00  0.00    -0.442 OA 
ENDBRANCH   9  10
ENDBRANCH   6   9
ENDBRANCH   4   6
TORSDOF 3
ENDMDL
MODEL       44
REMARK 921   NORMALIZED FREE ENERGY PREDICTED BY IDOCK:   -4.22 KCAL/MOL
REMARK 922        TOTAL FREE ENERGY PREDICTED BY IDOCK:   -5.73 KCAL/MOL
REMARK 923 INTER-LIGAND FREE ENERGY PREDICTED BY IDOCK:   -4.82 KCAL/MOL
REMARK 924 INTRA-LIGAND FREE ENERGY PREDICTED BY IDOCK:   -0.91 KCAL/MOL
REMARK 927      BINDING AFFINITY PREDICTED BY RF-SCORE:    0.00 PKD
ROOT
HETATM    1 NA   UNL     1     -11.123  18.496  65.666  1.00  0.00    -0.396 Na 
HETATM    2 NA   UNL     2     -10.801  20.498  70.341  1.00  0.00    -0.848 Na 
HETATM    3  O   UNL     3      -9.469  21.108  67.187  1.00  0.00    -0.681 OA 
HETATM    4  C   UNL     3      -8.856  19.816  67.183  1.00  0.00    -0.323 C  
HETATM    5  H   UNL     3      -9.090  21.625  66.485  1.00  0.00     0.000 HD 
ENDROOT
BRANCH   4   6
HETATM    6  C   UNL     3      -9.467  18.982  68.314  1.00  0.00    -0.348 C  
HETATM    7  O   UNL     3     -10.903  19.236  68.435  1.00  0.00    -0.324 OA 
HETATM    8  H   UNL     3     -11.282  18.719  69.137  1.00  0.00     0.000 HD 
BRANCH   6   9
HETATM    9  C   UNL     3      -9.261  17.513  68.116  1.00  0.00    -0.277 C  
BRANCH   9  10
HETATM   10  O   UNL     3     -10.473  16.917  67.684  1.00  0.00    -0.315 OA 
HETATM   11  P   UNL     3     -10.114  15.590  66.633  1.00  0.00    -0.293 P  
HETATM   12  O   UNL     3      -9.792  14.403  65.693  1.00  0.00    -0.324 OA 
HETATM   13  O   UNL     3      -9.414  16.658  65.762  1.00  0.00    -0.495 OA 
HETATM   14  O   UNL     3      -9.427  14.993  67.894  1.00  0.00    -0.193 OA 
ENDBRANCH   9  10
ENDBRANCH   6   9
ENDBRANCH   4   6
TORSDOF 3
ENDMDL
MODEL       45
REMARK 921   NORMALIZED FREE ENERGY PREDICTED BY IDOCK:   -4.19 KCAL/MOL
REMARK 922        TOTAL FREE ENERGY PREDICTED BY IDOCK:   -5.69 KCAL/MOL
REMARK 923 INTER-LIGAND FREE ENERGY PREDICTED BY IDOCK:   -5.05 KCAL/MOL
REMARK 924 INTRA-LIGAND FREE ENERGY PREDICTED BY IDOCK:   -0.64 KCAL/MOL
REMARK 927      BINDING AFFINITY PREDICTED BY RF-SCORE:    0.00 PKD
ROOT
HETATM    1 NA   UNL     1     -14.398   9.720  69.731  1.00  0.00    -0.638 Na 
HETATM    2 NA   UNL     2     -14.092   5.617  72.736  1.00  0.00    -0.545 Na 
HETATM    3  O   UNL     3     -14.401   9.060  73.112  1.00  0.00    -1.136 OA 
HETATM    4  C   UNL     3     -13.148   9.256  72.452  1.00  0.00    -0.406 C  
HETATM    5  H   UNL     3     -14.648   9.872  73.540  1.00  0.00     0.000 HD 
ENDROOT
BRANCH   4   6
HETATM    6  C   UNL     3     -12.749   7.948  71.763  1.00  0.00    -0.329 C  
HETATM    7  O   UNL     3     -13.849   7.425  70.952  1.00  0.00    -0.623 OA 
HETATM    8  H   UNL     3     -13.602   6.614  70.524  1.00  0.00     0.000 HD 
BRANCH   6   9
HETATM    9  C   UNL     3     -11.548   8.108  70.885  1.00  0.00    -0.267 C  
BRANCH   9  10
HETATM   10  O   UNL     3     -11.437   9.461  70.473  1.00  0.00    -0.263 OA 
HETATM   11  P   UNL     3      -9.909   9.699  69.697  1.00  0.00    -0.244 P  
HETATM   12  O   UNL     3      -8.541   9.911  69.004  1.00  0.00    -0.131 OA 
HETATM   13  O   UNL     3      -9.316   9.242  71.049  1.00  0.00    -0.259 OA 
HETATM   14  O   UNL     3     -10.460   8.675  68.665  1.00  0.00    -0.211 OA 
ENDBRANCH   9  10
ENDBRANCH   6   9
ENDBRANCH   4   6
TORSDOF 3
ENDMDL
MODEL       46
REMARK 921   NORMALIZED FREE ENERGY PREDICTED BY IDOCK:   -4.16 KCAL/MOL
REMARK 922        TOTAL FREE ENERGY PREDICTED BY IDOCK:   -5.66 KCAL/MOL
REMARK 923 INTER-LIGAND FREE ENERGY PREDICTED BY IDOCK:   -5.23 KCAL/MOL
REMARK 924 INTRA-LIGAND FREE ENERGY PREDICTED BY IDOCK:   -0.44 KCAL/MOL
REMARK 927      BINDING AFFINITY PREDICTED BY RF-SCORE:    0.00 PKD
ROOT
HETATM    1 NA   UNL     1      -9.209  11.252  69.683  1.00  0.00    -0.360 Na 
HETATM    2 NA   UNL     2     -13.380  14.066  70.491  1.00  0.00    -0.334 Na 
HETATM    3  O   UNL     3     -12.605  10.931  69.199  1.00  0.00    -0.664 OA 
HETATM    4  C   UNL     3     -11.819  11.537  68.170  1.00  0.00    -0.236 C  
HETATM    5  H   UNL     3     -12.755  10.021  68.970  1.00  0.00     0.000 HD 
ENDROOT
BRANCH   4   6
HETATM    6  C   UNL     3     -11.578  13.004  68.539  1.00  0.00    -0.328 C  
HETATM    7  O   UNL     3     -10.220  13.200  69.047  1.00  0.00    -0.427 OA 
HETATM    8  H   UNL     3     -10.070  14.110  69.277  1.00  0.00     0.000 HD 
BRANCH   6   9
HETATM    9  C   UNL     3     -11.788  13.927  67.380  1.00  0.00    -0.402 C  
BRANCH   9  10
HETATM   10  O   UNL     3     -11.313  13.314  66.192  1.00  0.00    -0.297 OA 
HETATM   11  P   UNL     3     -11.912  14.182  64.821  1.00  0.00    -0.468 P  
HETATM   12  O   UNL     3     -12.449  14.961  63.595  1.00  0.00    -0.699 OA 
HETATM   13  O   UNL     3     -13.305  13.821  65.384  1.00  0.00    -0.669 OA 
HETATM   14  O   UNL     3     -11.079  15.356  65.409  1.00  0.00    -0.343 OA 
ENDBRANCH   9  10
ENDBRANCH   6   9
ENDBRANCH   4   6
TORSDOF 3
ENDMDL
MODEL       47
REMARK 921   NORMALIZED FREE ENERGY PREDICTED BY IDOCK:   -4.16 KCAL/MOL
REMARK 922        TOTAL FREE ENERGY PREDICTED BY IDOCK:   -5.66 KCAL/MOL
REMARK 923 INTER-LIGAND FREE ENERGY PREDICTED BY IDOCK:   -4.65 KCAL/MOL
REMARK 924 INTRA-LIGAND FREE ENERGY PREDICTED BY IDOCK:   -1.01 KCAL/MOL
REMARK 927      BINDING AFFINITY PREDICTED BY RF-SCORE:    0.00 PKD
ROOT
HETATM    1 NA   UNL     1     -11.529  10.916  62.745  1.00  0.00    -0.721 Na 
HETATM    2 NA   UNL     2      -6.493  11.272  63.435  1.00  0.00    -0.354 Na 
HETATM    3  O   UNL     3      -9.000   8.921  63.966  1.00  0.00    -0.430 OA 
HETATM    4  C   UNL     3      -9.664   9.814  64.864  1.00  0.00    -0.192 C  
HETATM    5  H   UNL     3      -9.374   8.053  64.071  1.00  0.00     0.000 HD 
ENDROOT
BRANCH   4   6
HETATM    6  C   UNL     3      -9.061  11.212  64.696  1.00  0.00    -0.067 C  
HETATM    7  O   UNL     3      -9.034  11.607  63.288  1.00  0.00    -0.505 OA 
HETATM    8  H   UNL     3      -8.660  12.474  63.183  1.00  0.00     0.000 HD 
BRANCH   6   9
HETATM    9  C   UNL     3      -9.810  12.254  65.466  1.00  0.00    -0.206 C  
BRANCH   9  10
HETATM   10  O   UNL     3     -11.132  11.803  65.713  1.00  0.00    -0.311 OA 
HETATM   11  P   UNL     3     -12.235  13.117  65.488  1.00  0.00    -0.458 P  
HETATM   12  O   UNL     3     -13.222  14.293  65.287  1.00  0.00    -0.704 OA 
HETATM   13  O   UNL     3     -11.421  13.801  66.609  1.00  0.00    -0.320 OA 
HETATM   14  O   UNL     3     -11.723  13.078  64.021  1.00  0.00    -0.380 OA 
ENDBRANCH   9  10
ENDBRANCH   6   9
ENDBRANCH   4   6
TORSDOF 3
ENDMDL
MODEL       48
REMARK 921   NORMALIZED FREE ENERGY PREDICTED BY IDOCK:   -4.16 KCAL/MOL
REMARK 922        TOTAL FREE ENERGY PREDICTED BY IDOCK:   -5.65 KCAL/MOL
REMARK 923 INTER-LIGAND FREE ENERGY PREDICTED BY IDOCK:   -4.81 KCAL/MOL
REMARK 924 INTRA-LIGAND FREE ENERGY PREDICTED BY IDOCK:   -0.85 KCAL/MOL
REMARK 927      BINDING AFFINITY PREDICTED BY RF-SCORE:    0.00 PKD
ROOT
HETATM    1 NA   UNL     1     -10.199  13.202  66.860  1.00  0.00    -0.223 Na 
HETATM    2 NA   UNL     2     -11.978  16.023  63.008  1.00  0.00    -0.791 Na 
HETATM    3  O   UNL     3     -13.265  13.931  65.469  1.00  0.00    -0.698 OA 
HETATM    4  C   UNL     3     -12.517  12.833  64.943  1.00  0.00    -0.497 C  
HETATM    5  H   UNL     3     -13.917  13.592  66.072  1.00  0.00     0.000 HD 
ENDROOT
BRANCH   4   6
HETATM    6  C   UNL     3     -11.467  13.378  63.971  1.00  0.00    -0.352 C  
HETATM    7  O   UNL     3     -10.707  14.471  64.578  1.00  0.00    -0.599 OA 
HETATM    8  H   UNL     3     -10.055  14.810  63.975  1.00  0.00     0.000 HD 
BRANCH   6   9
HETATM    9  C   UNL     3     -10.504  12.325  63.519  1.00  0.00    -0.424 C  
BRANCH   9  10
HETATM   10  O   UNL     3     -10.832  11.088  64.131  1.00  0.00    -0.361 OA 
HETATM   11  P   UNL     3      -9.376  10.268  64.579  1.00  0.00    -0.319 P  
HETATM   12  O   UNL     3      -8.072   9.534  64.979  1.00  0.00    -0.115 OA 
HETATM   13  O   UNL     3      -9.048  10.331  63.070  1.00  0.00    -0.215 OA 
HETATM   14  O   UNL     3      -9.166  11.497  65.508  1.00  0.00    -0.211 OA 
ENDBRANCH   9  10
ENDBRANCH   6   9
ENDBRANCH   4   6
TORSDOF 3
ENDMDL
MODEL       49
REMARK 921   NORMALIZED FREE ENERGY PREDICTED BY IDOCK:   -4.15 KCAL/MOL
REMARK 922        TOTAL FREE ENERGY PREDICTED BY IDOCK:   -5.65 KCAL/MOL
REMARK 923 INTER-LIGAND FREE ENERGY PREDICTED BY IDOCK:   -4.75 KCAL/MOL
REMARK 924 INTRA-LIGAND FREE ENERGY PREDICTED BY IDOCK:   -0.90 KCAL/MOL
REMARK 927      BINDING AFFINITY PREDICTED BY RF-SCORE:    0.00 PKD
ROOT
HETATM    1 NA   UNL     1     -10.570  10.454  66.489  1.00  0.00    -0.205 Na 
HETATM    2 NA   UNL     2     -13.474  14.372  65.008  1.00  0.00    -0.656 Na 
HETATM    3  O   UNL     3     -10.099  13.532  65.013  1.00  0.00    -0.489 OA 
HETATM    4  C   UNL     3     -10.110  13.449  66.440  1.00  0.00    -0.292 C  
HETATM    5  H   UNL     3      -9.196  13.548  64.718  1.00  0.00     0.000 HD 
ENDROOT
BRANCH   4   6
HETATM    6  C   UNL     3     -11.566  13.423  66.917  1.00  0.00    -0.365 C  
HETATM    7  O   UNL     3     -12.385  12.572  66.055  1.00  0.00    -0.615 OA 
HETATM    8  H   UNL     3     -13.288  12.555  66.350  1.00  0.00     0.000 HD 
BRANCH   6   9
HETATM    9  C   UNL     3     -11.697  12.937  68.326  1.00  0.00    -0.350 C  
BRANCH   9  10
HETATM   10  O   UNL     3     -12.106  11.579  68.324  1.00  0.00    -0.580 OA 
HETATM   11  P   UNL     3     -11.382  10.762  69.666  1.00  0.00    -0.337 P  
HETATM   12  O   UNL     3     -10.733  10.031  70.867  1.00  0.00    -0.300 OA 
HETATM   13  O   UNL     3     -10.045  11.177  69.010  1.00  0.00    -0.204 OA 
HETATM   14  O   UNL     3     -12.216  11.764  70.513  1.00  0.00    -0.358 OA 
ENDBRANCH   9  10
ENDBRANCH   6   9
ENDBRANCH   4   6
TORSDOF 3
ENDMDL
MODEL       50
REMARK 921   NORMALIZED FREE ENERGY PREDICTED BY IDOCK:   -4.14 KCAL/MOL
REMARK 922        TOTAL FREE ENERGY PREDICTED BY IDOCK:   -5.63 KCAL/MOL
REMARK 923 INTER-LIGAND FREE ENERGY PREDICTED BY IDOCK:   -5.15 KCAL/MOL
REMARK 924 INTRA-LIGAND FREE ENERGY PREDICTED BY IDOCK:   -0.48 KCAL/MOL
REMARK 927      BINDING AFFINITY PREDICTED BY RF-SCORE:    0.00 PKD
ROOT
HETATM    1 NA   UNL     1      -9.277  10.266  67.600  1.00  0.00    -0.134 Na 
HETATM    2 NA   UNL     2     -10.217  14.450  70.353  1.00  0.00    -0.418 Na 
HETATM    3  O   UNL     3     -11.176  11.107  70.349  1.00  0.00    -0.471 OA 
HETATM    4  C   UNL     3     -11.747  11.261  69.047  1.00  0.00    -0.342 C  
HETATM    5  H   UNL     3     -11.483  10.287  70.719  1.00  0.00     0.000 HD 
ENDROOT
BRANCH   4   6
HETATM    6  C   UNL     3     -11.253  12.582  68.450  1.00  0.00    -0.272 C  
HETATM    7  O   UNL     3      -9.842  12.805  68.765  1.00  0.00    -0.403 OA 
HETATM    8  H   UNL     3      -9.535  13.624  68.394  1.00  0.00     0.000 HD 
BRANCH   6   9
HETATM    9  C   UNL     3     -11.421  12.636  66.964  1.00  0.00    -0.346 C  
BRANCH   9  10
HETATM   10  O   UNL     3     -12.215  13.760  66.617  1.00  0.00    -0.426 OA 
HETATM   11  P   UNL     3     -12.343  13.859  64.894  1.00  0.00    -0.379 P  
HETATM   12  O   UNL     3     -12.457  13.946  63.352  1.00  0.00    -0.833 OA 
HETATM   13  O   UNL     3     -10.802  13.971  64.932  1.00  0.00    -0.364 OA 
HETATM   14  O   UNL     3     -13.060  12.486  65.035  1.00  0.00    -0.765 OA 
ENDBRANCH   9  10
ENDBRANCH   6   9
ENDBRANCH   4   6
TORSDOF 3
ENDMDL
MODEL       51
REMARK 921   NORMALIZED FREE ENERGY PREDICTED BY IDOCK:   -4.12 KCAL/MOL
REMARK 922        TOTAL FREE ENERGY PREDICTED BY IDOCK:   -5.61 KCAL/MOL
REMARK 923 INTER-LIGAND FREE ENERGY PREDICTED BY IDOCK:   -5.11 KCAL/MOL
REMARK 924 INTRA-LIGAND FREE ENERGY PREDICTED BY IDOCK:   -0.50 KCAL/MOL
REMARK 927      BINDING AFFINITY PREDICTED BY RF-SCORE:    0.00 PKD
ROOT
HETATM    1 NA   UNL     1     -12.587  10.893  62.840  1.00  0.00    -0.707 Na 
HETATM    2 NA   UNL     2      -8.897  13.463  65.239  1.00  0.00    -0.356 Na 
HETATM    3  O   UNL     3     -11.790  11.728  66.086  1.00  0.00    -0.477 OA 
HETATM    4  C   UNL     3     -12.576  12.641  65.316  1.00  0.00    -0.316 C  
HETATM    5  H   UNL     3     -12.372  11.221  66.641  1.00  0.00     0.000 HD 
ENDROOT
BRANCH   4   6
HETATM    6  C   UNL     3     -11.639  13.460  64.423  1.00  0.00    -0.384 C  
HETATM    7  O   UNL     3     -12.306  13.849  63.180  1.00  0.00    -1.122 OA 
HETATM    8  H   UNL     3     -11.725  14.357  62.626  1.00  0.00     0.000 HD 
BRANCH   6   9
HETATM    9  C   UNL     3     -11.140  14.697  65.101  1.00  0.00    -0.377 C  
BRANCH   9  10
HETATM   10  O   UNL     3     -11.773  14.835  66.363  1.00  0.00    -0.346 OA 
HETATM   11  P   UNL     3     -10.634  15.451  67.510  1.00  0.00    -0.292 P  
HETATM   12  O   UNL     3      -9.613  16.003  68.535  1.00  0.00    -0.204 OA 
HETATM   13  O   UNL     3      -9.828  14.176  67.175  1.00  0.00    -0.243 OA 
HETATM   14  O   UNL     3     -10.614  16.693  66.574  1.00  0.00    -0.286 OA 
ENDBRANCH   9  10
ENDBRANCH   6   9
ENDBRANCH   4   6
TORSDOF 3
ENDMDL
MODEL       52
REMARK 921   NORMALIZED FREE ENERGY PREDICTED BY IDOCK:   -4.10 KCAL/MOL
REMARK 922        TOTAL FREE ENERGY PREDICTED BY IDOCK:   -5.59 KCAL/MOL
REMARK 923 INTER-LIGAND FREE ENERGY PREDICTED BY IDOCK:   -4.90 KCAL/MOL
REMARK 924 INTRA-LIGAND FREE ENERGY PREDICTED BY IDOCK:   -0.69 KCAL/MOL
REMARK 927      BINDING AFFINITY PREDICTED BY RF-SCORE:    0.00 PKD
ROOT
HETATM    1 NA   UNL     1     -10.892   9.140  69.823  1.00  0.00    -0.199 Na 
HETATM    2 NA   UNL     2     -10.412  10.416  64.913  1.00  0.00    -0.271 Na 
HETATM    3  O   UNL     3      -8.725  11.001  67.897  1.00  0.00    -0.128 OA 
HETATM    4  C   UNL     3      -9.883  11.640  68.440  1.00  0.00    -0.202 C  
HETATM    5  H   UNL     3      -7.981  11.200  68.454  1.00  0.00     0.000 HD 
ENDROOT
BRANCH   4   6
HETATM    6  C   UNL     3     -11.083  11.320  67.543  1.00  0.00    -0.286 C  
HETATM    7  O   UNL     3     -12.188  10.765  68.324  1.00  0.00    -0.815 OA 
HETATM    8  H   UNL     3     -12.933  10.566  67.768  1.00  0.00     0.000 HD 
BRANCH   6   9
HETATM    9  C   UNL     3     -11.581  12.523  66.805  1.00  0.00    -0.382 C  
BRANCH   9  10
HETATM   10  O   UNL     3     -10.905  12.632  65.562  1.00  0.00    -0.270 OA 
HETATM   11  P   UNL     3     -11.889  13.521  64.451  1.00  0.00    -0.438 P  
HETATM   12  O   UNL     3     -12.771  14.316  63.458  1.00  0.00    -0.767 OA 
HETATM   13  O   UNL     3     -12.918  12.391  64.685  1.00  0.00    -0.793 OA 
HETATM   14  O   UNL     3     -11.708  14.678  65.474  1.00  0.00    -0.350 OA 
ENDBRANCH   9  10
ENDBRANCH   6   9
ENDBRANCH   4   6
TORSDOF 3
ENDMDL
MODEL       53
REMARK 921   NORMALIZED FREE ENERGY PREDICTED BY IDOCK:   -4.08 KCAL/MOL
REMARK 922        TOTAL FREE ENERGY PREDICTED BY IDOCK:   -5.57 KCAL/MOL
REMARK 923 INTER-LIGAND FREE ENERGY PREDICTED BY IDOCK:   -5.13 KCAL/MOL
REMARK 924 INTRA-LIGAND FREE ENERGY PREDICTED BY IDOCK:   -0.44 KCAL/MOL
REMARK 927      BINDING AFFINITY PREDICTED BY RF-SCORE:    0.00 PKD
ROOT
HETATM    1 NA   UNL     1      -9.534  13.267  63.711  1.00  0.00    -0.564 Na 
HETATM    2 NA   UNL     2     -12.873  14.441  67.377  1.00  0.00    -0.587 Na 
HETATM    3  O   UNL     3     -12.358  15.215  64.026  1.00  0.00    -0.883 OA 
HETATM    4  C   UNL     3     -11.088  15.791  64.342  1.00  0.00    -0.157 C  
HETATM    5  H   UNL     3     -12.598  15.477  63.144  1.00  0.00     0.000 HD 
ENDROOT
BRANCH   4   6
HETATM    6  C   UNL     3     -10.701  15.369  65.763  1.00  0.00    -0.351 C  
HETATM    7  O   UNL     3      -9.622  14.382  65.741  1.00  0.00    -0.464 OA 
HETATM    8  H   UNL     3      -9.381  14.120  66.622  1.00  0.00     0.000 HD 
BRANCH   6   9
HETATM    9  C   UNL     3     -10.266  16.528  66.604  1.00  0.00    -0.300 C  
BRANCH   9  10
HETATM   10  O   UNL     3      -9.427  17.381  65.841  1.00  0.00    -0.512 OA 
HETATM   11  P   UNL     3      -9.189  18.864  66.699  1.00  0.00    -0.338 P  
HETATM   12  O   UNL     3      -8.977  20.192  67.467  1.00  0.00    -0.332 OA 
HETATM   13  O   UNL     3     -10.726  18.994  66.608  1.00  0.00    -0.405 OA 
HETATM   14  O   UNL     3      -8.513  17.950  67.759  1.00  0.00    -0.235 OA 
ENDBRANCH   9  10
ENDBRANCH   6   9
ENDBRANCH   4   6
TORSDOF 3
ENDMDL
MODEL       54
REMARK 921   NORMALIZED FREE ENERGY PREDICTED BY IDOCK:   -4.06 KCAL/MOL
REMARK 922        TOTAL FREE ENERGY PREDICTED BY IDOCK:   -5.54 KCAL/MOL
REMARK 923 INTER-LIGAND FREE ENERGY PREDICTED BY IDOCK:   -5.40 KCAL/MOL
REMARK 924 INTRA-LIGAND FREE ENERGY PREDICTED BY IDOCK:   -0.14 KCAL/MOL
REMARK 927      BINDING AFFINITY PREDICTED BY RF-SCORE:    0.00 PKD
ROOT
HETATM    1 NA   UNL     1     -11.320  13.814  67.542  1.00  0.00    -0.250 Na 
HETATM    2 NA   UNL     2     -11.606  12.233  62.706  1.00  0.00    -0.564 Na 
HETATM    3  O   UNL     3      -9.790  14.559  64.547  1.00  0.00    -0.548 OA 
HETATM    4  C   UNL     3     -10.996  15.245  64.891  1.00  0.00    -0.430 C  
HETATM    5  H   UNL     3      -9.052  15.119  64.759  1.00  0.00     0.000 HD 
ENDROOT
BRANCH   4   6
HETATM    6  C   UNL     3     -12.186  14.343  64.549  1.00  0.00    -0.463 C  
HETATM    7  O   UNL     3     -12.348  14.215  63.101  1.00  0.00    -1.125 OA 
HETATM    8  H   UNL     3     -13.086  13.655  62.888  1.00  0.00     0.000 HD 
BRANCH   6   9
HETATM    9  C   UNL     3     -12.050  12.972  65.134  1.00  0.00    -0.433 C  
BRANCH   9  10
HETATM   10  O   UNL     3     -10.761  12.826  65.709  1.00  0.00    -0.265 OA 
HETATM   11  P   UNL     3     -10.505  11.166  66.123  1.00  0.00    -0.214 P  
HETATM   12  O   UNL     3     -10.276   9.680  66.494  1.00  0.00    -0.239 OA 
HETATM   13  O   UNL     3     -11.747  11.350  67.024  1.00  0.00    -0.535 OA 
HETATM   14  O   UNL     3     -10.640  10.935  64.591  1.00  0.00    -0.334 OA 
ENDBRANCH   9  10
ENDBRANCH   6   9
ENDBRANCH   4   6
TORSDOF 3
ENDMDL
MODEL       55
REMARK 921   NORMALIZED FREE ENERGY PREDICTED BY IDOCK:   -4.05 KCAL/MOL
REMARK 922        TOTAL FREE ENERGY PREDICTED BY IDOCK:   -5.53 KCAL/MOL
REMARK 923 INTER-LIGAND FREE ENERGY PREDICTED BY IDOCK:   -4.78 KCAL/MOL
REMARK 924 INTRA-LIGAND FREE ENERGY PREDICTED BY IDOCK:   -0.74 KCAL/MOL
REMARK 927      BINDING AFFINITY PREDICTED BY RF-SCORE:    0.00 PKD
ROOT
HETATM    1 NA   UNL     1     -10.582  14.699  63.732  1.00  0.00    -0.535 Na 
HETATM    2 NA   UNL     2     -11.070  10.602  66.723  1.00  0.00    -0.233 Na 
HETATM    3  O   UNL     3     -13.131  12.648  64.809  1.00  0.00    -0.852 OA 
HETATM    4  C   UNL     3     -12.774  13.777  65.610  1.00  0.00    -0.478 C  
HETATM    5  H   UNL     3     -13.893  12.875  64.288  1.00  0.00     0.000 HD 
ENDROOT
BRANCH   4   6
HETATM    6  C   UNL     3     -11.547  13.410  66.451  1.00  0.00    -0.346 C  
HETATM    7  O   UNL     3     -10.460  14.364  66.237  1.00  0.00    -0.279 OA 
HETATM    8  H   UNL     3      -9.699  14.137  66.758  1.00  0.00     0.000 HD 
BRANCH   6   9
HETATM    9  C   UNL     3     -11.853  13.361  67.916  1.00  0.00    -0.357 C  
BRANCH   9  10
HETATM   10  O   UNL     3     -10.933  12.497  68.564  1.00  0.00    -0.227 OA 
HETATM   11  P   UNL     3     -11.780  11.518  69.712  1.00  0.00    -0.348 P  
HETATM   12  O   UNL     3     -12.539  10.643  70.740  1.00  0.00    -0.334 OA 
HETATM   13  O   UNL     3     -12.172  12.868  70.355  1.00  0.00    -0.354 OA 
HETATM   14  O   UNL     3     -12.516  10.974  68.456  1.00  0.00    -0.440 OA 
ENDBRANCH   9  10
ENDBRANCH   6   9
ENDBRANCH   4   6
TORSDOF 3
ENDMDL
MODEL       56
REMARK 921   NORMALIZED FREE ENERGY PREDICTED BY IDOCK:   -4.01 KCAL/MOL
REMARK 922        TOTAL FREE ENERGY PREDICTED BY IDOCK:   -5.48 KCAL/MOL
REMARK 923 INTER-LIGAND FREE ENERGY PREDICTED BY IDOCK:   -4.69 KCAL/MOL
REMARK 924 INTRA-LIGAND FREE ENERGY PREDICTED BY IDOCK:   -0.80 KCAL/MOL
REMARK 927      BINDING AFFINITY PREDICTED BY RF-SCORE:    0.00 PKD
ROOT
HETATM    1 NA   UNL     1     -11.309  17.383  64.576  1.00  0.00    -0.508 Na 
HETATM    2 NA   UNL     2      -9.214  12.828  63.666  1.00  0.00    -0.534 Na 
HETATM    3  O   UNL     3     -12.357  14.300  63.451  1.00  0.00    -1.113 OA 
HETATM    4  C   UNL     3     -12.349  14.551  64.858  1.00  0.00    -0.370 C  
HETATM    5  H   UNL     3     -13.242  14.423  63.127  1.00  0.00     0.000 HD 
ENDROOT
BRANCH   4   6
HETATM    6  C   UNL     3     -10.923  14.351  65.381  1.00  0.00    -0.339 C  
HETATM    7  O   UNL     3     -10.437  15.557  66.051  1.00  0.00    -0.292 OA 
HETATM    8  H   UNL     3      -9.552  15.434  66.376  1.00  0.00     0.000 HD 
BRANCH   6   9
HETATM    9  C   UNL     3     -10.819  13.204  66.336  1.00  0.00    -0.287 C  
BRANCH   9  10
HETATM   10  O   UNL     3      -9.567  12.559  66.170  1.00  0.00    -0.249 OA 
HETATM   11  P   UNL     3      -9.797  10.844  66.214  1.00  0.00    -0.235 P  
HETATM   12  O   UNL     3     -10.003   9.310  66.253  1.00  0.00    -0.269 OA 
HETATM   13  O   UNL     3     -10.361  11.103  67.629  1.00  0.00    -0.182 OA 
HETATM   14  O   UNL     3     -10.653  11.093  64.940  1.00  0.00    -0.309 OA 
ENDBRANCH   9  10
ENDBRANCH   6   9
ENDBRANCH   4   6
TORSDOF 3
ENDMDL
MODEL       57
REMARK 921   NORMALIZED FREE ENERGY PREDICTED BY IDOCK:   -4.00 KCAL/MOL
REMARK 922        TOTAL FREE ENERGY PREDICTED BY IDOCK:   -5.47 KCAL/MOL
REMARK 923 INTER-LIGAND FREE ENERGY PREDICTED BY IDOCK:   -4.69 KCAL/MOL
REMARK 924 INTRA-LIGAND FREE ENERGY PREDICTED BY IDOCK:   -0.79 KCAL/MOL
REMARK 927      BINDING AFFINITY PREDICTED BY RF-SCORE:    0.00 PKD
ROOT
HETATM    1 NA   UNL     1     -10.917   8.948  72.832  1.00  0.00    -0.300 Na 
HETATM    2 NA   UNL     2     -11.097  13.585  70.728  1.00  0.00    -0.496 Na 
HETATM    3  O   UNL     3     -13.320  11.319  72.148  1.00  0.00    -0.589 OA 
HETATM    4  C   UNL     3     -12.999  10.356  71.141  1.00  0.00    -0.412 C  
HETATM    5  H   UNL     3     -14.108  11.035  72.598  1.00  0.00     0.000 HD 
ENDROOT
BRANCH   4   6
HETATM    6  C   UNL     3     -11.730  10.813  70.414  1.00  0.00    -0.351 C  
HETATM    7  O   UNL     3     -10.747   9.733  70.347  1.00  0.00    -0.264 OA 
HETATM    8  H   UNL     3      -9.959  10.016  69.896  1.00  0.00     0.000 HD 
BRANCH   6   9
HETATM    9  C   UNL     3     -12.008  11.289  69.023  1.00  0.00    -0.325 C  
BRANCH   9  10
HETATM   10  O   UNL     3     -10.903  12.042  68.549  1.00  0.00    -0.213 OA 
HETATM   11  P   UNL     3     -11.460  13.219  67.409  1.00  0.00    -0.374 P  
HETATM   12  O   UNL     3     -11.959  14.271  66.389  1.00  0.00    -0.402 OA 
HETATM   13  O   UNL     3     -11.970  11.995  66.615  1.00  0.00    -0.614 OA 
HETATM   14  O   UNL     3     -12.246  13.782  68.626  1.00  0.00    -0.347 OA 
ENDBRANCH   9  10
ENDBRANCH   6   9
ENDBRANCH   4   6
TORSDOF 3
ENDMDL
MODEL       58
REMARK 921   NORMALIZED FREE ENERGY PREDICTED BY IDOCK:   -3.99 KCAL/MOL
REMARK 922        TOTAL FREE ENERGY PREDICTED BY IDOCK:   -5.46 KCAL/MOL
REMARK 923 INTER-LIGAND FREE ENERGY PREDICTED BY IDOCK:   -4.84 KCAL/MOL
REMARK 924 INTRA-LIGAND FREE ENERGY PREDICTED BY IDOCK:   -0.62 KCAL/MOL
REMARK 927      BINDING AFFINITY PREDICTED BY RF-SCORE:    0.00 PKD
ROOT
HETATM    1 NA   UNL     1      -8.121  17.890  65.531  1.00  0.00    -0.180 Na 
HETATM    2 NA   UNL     2      -9.862  13.392  63.887  1.00  0.00    -0.474 Na 
HETATM    3  O   UNL     3     -11.074  16.628  64.285  1.00  0.00    -1.270 OA 
HETATM    4  C   UNL     3     -10.837  16.556  65.693  1.00  0.00    -0.160 C  
HETATM    5  H   UNL     3     -11.630  17.378  64.110  1.00  0.00     0.000 HD 
ENDROOT
BRANCH   4   6
HETATM    6  C   UNL     3      -9.941  15.345  65.976  1.00  0.00    -0.324 C  
HETATM    7  O   UNL     3      -8.734  15.744  66.699  1.00  0.00    -0.235 OA 
HETATM    8  H   UNL     3      -8.178  14.993  66.875  1.00  0.00     0.000 HD 
BRANCH   6   9
HETATM    9  C   UNL     3     -10.642  14.288  66.770  1.00  0.00    -0.278 C  
BRANCH   9  10
HETATM   10  O   UNL     3     -10.114  13.015  66.437  1.00  0.00    -0.265 OA 
HETATM   11  P   UNL     3     -11.060  11.785  67.204  1.00  0.00    -0.318 P  
HETATM   12  O   UNL     3     -11.906  10.686  67.891  1.00  0.00    -0.485 OA 
HETATM   13  O   UNL     3     -10.640  12.486  68.516  1.00  0.00    -0.234 OA 
HETATM   14  O   UNL     3     -12.206  12.345  66.315  1.00  0.00    -0.620 OA 
ENDBRANCH   9  10
ENDBRANCH   6   9
ENDBRANCH   4   6
TORSDOF 3
ENDMDL
MODEL       59
REMARK 921   NORMALIZED FREE ENERGY PREDICTED BY IDOCK:   -3.98 KCAL/MOL
REMARK 922        TOTAL FREE ENERGY PREDICTED BY IDOCK:   -5.45 KCAL/MOL
REMARK 923 INTER-LIGAND FREE ENERGY PREDICTED BY IDOCK:   -4.94 KCAL/MOL
REMARK 924 INTRA-LIGAND FREE ENERGY PREDICTED BY IDOCK:   -0.52 KCAL/MOL
REMARK 927      BINDING AFFINITY PREDICTED BY RF-SCORE:    0.00 PKD
ROOT
HETATM    1 NA   UNL     1     -14.410  15.998  70.458  1.00  0.00    -0.818 Na 
HETATM    2 NA   UNL     2     -10.846  12.360  70.292  1.00  0.00    -0.461 Na 
HETATM    3  O   UNL     3     -11.362  15.379  71.940  1.00  0.00    -0.419 OA 
HETATM    4  C   UNL     3     -11.390  16.071  70.689  1.00  0.00    -0.399 C  
HETATM    5  H   UNL     3     -11.272  16.019  72.637  1.00  0.00     0.000 HD 
ENDROOT
BRANCH   4   6
HETATM    6  C   UNL     3     -11.534  15.040  69.564  1.00  0.00    -0.294 C  
HETATM    7  O   UNL     3     -12.846  14.395  69.609  1.00  0.00    -0.505 OA 
HETATM    8  H   UNL     3     -12.937  13.756  68.912  1.00  0.00     0.000 HD 
BRANCH   6   9
HETATM    9  C   UNL     3     -11.349  15.645  68.208  1.00  0.00    -0.356 C  
BRANCH   9  10
HETATM   10  O   UNL     3     -10.464  14.839  67.445  1.00  0.00    -0.252 OA 
HETATM   11  P   UNL     3     -11.119  14.614  65.860  1.00  0.00    -0.348 P  
HETATM   12  O   UNL     3     -11.706  14.413  64.441  1.00  0.00    -0.402 OA 
HETATM   13  O   UNL     3     -12.315  13.976  66.602  1.00  0.00    -0.451 OA 
HETATM   14  O   UNL     3     -10.959  16.157  65.755  1.00  0.00    -0.230 OA 
ENDBRANCH   9  10
ENDBRANCH   6   9
ENDBRANCH   4   6
TORSDOF 3
ENDMDL
MODEL       60
REMARK 921   NORMALIZED FREE ENERGY PREDICTED BY IDOCK:   -3.95 KCAL/MOL
REMARK 922        TOTAL FREE ENERGY PREDICTED BY IDOCK:   -5.41 KCAL/MOL
REMARK 923 INTER-LIGAND FREE ENERGY PREDICTED BY IDOCK:   -4.95 KCAL/MOL
REMARK 924 INTRA-LIGAND FREE ENERGY PREDICTED BY IDOCK:   -0.46 KCAL/MOL
REMARK 927      BINDING AFFINITY PREDICTED BY RF-SCORE:    0.00 PKD
ROOT
HETATM    1 NA   UNL     1     -14.400   7.271  70.286  1.00  0.00    -0.579 Na 
HETATM    2 NA   UNL     2     -11.123   7.273  74.188  1.00  0.00    -0.454 Na 
HETATM    3  O   UNL     3     -14.102   8.851  73.332  1.00  0.00    -1.256 OA 
HETATM    4  C   UNL     3     -13.475   9.439  72.189  1.00  0.00    -0.471 C  
HETATM    5  H   UNL     3     -14.930   9.292  73.484  1.00  0.00     0.000 HD 
ENDROOT
BRANCH   4   6
HETATM    6  C   UNL     3     -12.140   8.729  71.945  1.00  0.00    -0.363 C  
HETATM    7  O   UNL     3     -12.347   7.425  71.316  1.00  0.00    -0.327 OA 
HETATM    8  H   UNL     3     -11.519   6.984  71.164  1.00  0.00     0.000 HD 
BRANCH   6   9
HETATM    9  C   UNL     3     -11.217   9.530  71.082  1.00  0.00    -0.376 C  
BRANCH   9  10
HETATM   10  O   UNL     3     -10.991   8.843  69.861  1.00  0.00    -0.235 OA 
HETATM   11  P   UNL     3     -10.691   9.993  68.604  1.00  0.00    -0.211 P  
HETATM   12  O   UNL     3     -10.422  11.024  67.480  1.00  0.00    -0.190 OA 
HETATM   13  O   UNL     3     -12.099  10.525  68.954  1.00  0.00    -0.286 OA 
HETATM   14  O   UNL     3      -9.448  10.359  69.464  1.00  0.00    -0.205 OA 
ENDBRANCH   9  10
ENDBRANCH   6   9
ENDBRANCH   4   6
TORSDOF 3
ENDMDL
MODEL       61
REMARK 921   NORMALIZED FREE ENERGY PREDICTED BY IDOCK:   -3.94 KCAL/MOL
REMARK 922        TOTAL FREE ENERGY PREDICTED BY IDOCK:   -5.40 KCAL/MOL
REMARK 923 INTER-LIGAND FREE ENERGY PREDICTED BY IDOCK:   -5.06 KCAL/MOL
REMARK 924 INTRA-LIGAND FREE ENERGY PREDICTED BY IDOCK:   -0.34 KCAL/MOL
REMARK 927      BINDING AFFINITY PREDICTED BY RF-SCORE:    0.00 PKD
ROOT
HETATM    1 NA   UNL     1     -10.220   9.909  68.634  1.00  0.00    -0.149 Na 
HETATM    2 NA   UNL     2     -10.667  10.126  63.563  1.00  0.00    -0.445 Na 
HETATM    3  O   UNL     3      -8.439  11.227  65.996  1.00  0.00    -0.236 OA 
HETATM    4  C   UNL     3      -9.467  12.020  66.594  1.00  0.00    -0.217 C  
HETATM    5  H   UNL     3      -7.601  11.499  66.351  1.00  0.00     0.000 HD 
ENDROOT
BRANCH   4   6
HETATM    6  C   UNL     3     -10.818  11.582  66.021  1.00  0.00    -0.276 C  
HETATM    7  O   UNL     3     -11.804  11.396  67.085  1.00  0.00    -0.566 OA 
HETATM    8  H   UNL     3     -12.643  11.125  66.730  1.00  0.00     0.000 HD 
BRANCH   6   9
HETATM    9  C   UNL     3     -11.365  12.565  65.034  1.00  0.00    -0.313 C  
BRANCH   9  10
HETATM   10  O   UNL     3     -11.936  13.665  65.725  1.00  0.00    -0.353 OA 
HETATM   11  P   UNL     3     -11.777  15.092  64.759  1.00  0.00    -0.235 P  
HETATM   12  O   UNL     3     -11.635  16.368  63.894  1.00  0.00    -1.100 OA 
HETATM   13  O   UNL     3     -10.261  14.811  64.854  1.00  0.00    -0.388 OA 
HETATM   14  O   UNL     3     -12.685  14.317  63.762  1.00  0.00    -0.779 OA 
ENDBRANCH   9  10
ENDBRANCH   6   9
ENDBRANCH   4   6
TORSDOF 3
ENDMDL
MODEL       62
REMARK 921   NORMALIZED FREE ENERGY PREDICTED BY IDOCK:   -3.94 KCAL/MOL
REMARK 922        TOTAL FREE ENERGY PREDICTED BY IDOCK:   -5.40 KCAL/MOL
REMARK 923 INTER-LIGAND FREE ENERGY PREDICTED BY IDOCK:   -4.73 KCAL/MOL
REMARK 924 INTRA-LIGAND FREE ENERGY PREDICTED BY IDOCK:   -0.67 KCAL/MOL
REMARK 927      BINDING AFFINITY PREDICTED BY RF-SCORE:    0.00 PKD
ROOT
HETATM    1 NA   UNL     1      -8.557  16.128  65.416  1.00  0.00    -0.255 Na 
HETATM    2 NA   UNL     2     -11.459  13.066  62.557  1.00  0.00    -0.715 Na 
HETATM    3  O   UNL     3     -11.496  16.373  63.635  1.00  0.00    -1.446 OA 
HETATM    4  C   UNL     3     -11.552  15.940  64.996  1.00  0.00     0.039 C  
HETATM    5  H   UNL     3     -11.709  17.298  63.602  1.00  0.00     0.000 HD 
ENDROOT
BRANCH   4   6
HETATM    6  C   UNL     3     -11.209  14.448  65.049  1.00  0.00    -0.375 C  
HETATM    7  O   UNL     3     -10.011  14.157  64.262  1.00  0.00    -0.616 OA 
HETATM    8  H   UNL     3      -9.797  13.232  64.295  1.00  0.00     0.000 HD 
BRANCH   6   9
HETATM    9  C   UNL     3     -10.988  13.962  66.447  1.00  0.00    -0.303 C  
BRANCH   9  10
HETATM   10  O   UNL     3      -9.610  13.685  66.642  1.00  0.00    -0.268 OA 
HETATM   11  P   UNL     3      -9.091  14.385  68.137  1.00  0.00    -0.205 P  
HETATM   12  O   UNL     3      -8.628  15.012  69.475  1.00  0.00    -0.172 OA 
HETATM   13  O   UNL     3      -9.538  15.720  67.499  1.00  0.00    -0.221 OA 
HETATM   14  O   UNL     3     -10.119  13.400  68.762  1.00  0.00    -0.192 OA 
ENDBRANCH   9  10
ENDBRANCH   6   9
ENDBRANCH   4   6
TORSDOF 3
ENDMDL
MODEL       63
REMARK 921   NORMALIZED FREE ENERGY PREDICTED BY IDOCK:   -3.93 KCAL/MOL
REMARK 922        TOTAL FREE ENERGY PREDICTED BY IDOCK:   -5.39 KCAL/MOL
REMARK 923 INTER-LIGAND FREE ENERGY PREDICTED BY IDOCK:   -5.24 KCAL/MOL
REMARK 924 INTRA-LIGAND FREE ENERGY PREDICTED BY IDOCK:   -0.15 KCAL/MOL
REMARK 927      BINDING AFFINITY PREDICTED BY RF-SCORE:    0.00 PKD
ROOT
HETATM    1 NA   UNL     1     -10.739  13.837  68.874  1.00  0.00    -0.208 Na 
HETATM    2 NA   UNL     2     -10.627  15.218  63.970  1.00  0.00    -0.588 Na 
HETATM    3  O   UNL     3      -8.406  15.037  66.640  1.00  0.00    -0.368 OA 
HETATM    4  C   UNL     3      -9.197  15.973  67.376  1.00  0.00    -0.208 C  
HETATM    5  H   UNL     3      -7.562  14.951  67.067  1.00  0.00     0.000 HD 
ENDROOT
BRANCH   4   6
HETATM    6  C   UNL     3     -10.558  16.111  66.686  1.00  0.00    -0.274 C  
HETATM    7  O   UNL     3     -10.401  16.539  65.296  1.00  0.00    -0.596 OA 
HETATM    8  H   UNL     3     -11.245  16.625  64.868  1.00  0.00     0.000 HD 
BRANCH   6   9
HETATM    9  C   UNL     3     -11.340  14.836  66.705  1.00  0.00    -0.347 C  
BRANCH   9  10
HETATM   10  O   UNL     3     -10.829  13.951  65.720  1.00  0.00    -0.283 OA 
HETATM   11  P   UNL     3     -12.125  13.005  65.073  1.00  0.00    -0.480 P  
HETATM   12  O   UNL     3     -13.286  12.160  64.494  1.00  0.00    -0.724 OA 
HETATM   13  O   UNL     3     -12.312  12.529  66.531  1.00  0.00    -0.507 OA 
HETATM   14  O   UNL     3     -12.668  14.381  64.593  1.00  0.00    -0.655 OA 
ENDBRANCH   9  10
ENDBRANCH   6   9
ENDBRANCH   4   6
TORSDOF 3
ENDMDL
MODEL       64
REMARK 921   NORMALIZED FREE ENERGY PREDICTED BY IDOCK:   -3.93 KCAL/MOL
REMARK 922        TOTAL FREE ENERGY PREDICTED BY IDOCK:   -5.39 KCAL/MOL
REMARK 923 INTER-LIGAND FREE ENERGY PREDICTED BY IDOCK:   -4.92 KCAL/MOL
REMARK 924 INTRA-LIGAND FREE ENERGY PREDICTED BY IDOCK:   -0.46 KCAL/MOL
REMARK 927      BINDING AFFINITY PREDICTED BY RF-SCORE:    0.00 PKD
ROOT
HETATM    1 NA   UNL     1      -9.687  11.703  62.372  1.00  0.00    -0.366 Na 
HETATM    2 NA   UNL     2     -12.148  11.328  66.818  1.00  0.00    -0.236 Na 
HETATM    3  O   UNL     3     -12.919  12.069  63.509  1.00  0.00    -0.774 OA 
HETATM    4  C   UNL     3     -12.045  13.201  63.547  1.00  0.00    -0.514 C  
HETATM    5  H   UNL     3     -13.466  12.135  62.735  1.00  0.00     0.000 HD 
ENDROOT
BRANCH   4   6
HETATM    6  C   UNL     3     -11.163  13.095  64.795  1.00  0.00    -0.324 C  
HETATM    7  O   UNL     3      -9.760  12.900  64.431  1.00  0.00    -0.576 OA 
HETATM    8  H   UNL     3      -9.212  12.835  65.205  1.00  0.00     0.000 HD 
BRANCH   6   9
HETATM    9  C   UNL     3     -11.262  14.306  65.669  1.00  0.00    -0.314 C  
BRANCH   9  10
HETATM   10  O   UNL     3      -9.969  14.669  66.126  1.00  0.00    -0.275 OA 
HETATM   11  P   UNL     3      -9.970  16.341  66.572  1.00  0.00    -0.311 P  
HETATM   12  O   UNL     3      -9.971  17.837  66.972  1.00  0.00    -0.297 OA 
HETATM   13  O   UNL     3     -10.376  16.584  65.101  1.00  0.00    -0.618 OA 
HETATM   14  O   UNL     3     -11.008  15.885  67.637  1.00  0.00    -0.322 OA 
ENDBRANCH   9  10
ENDBRANCH   6   9
ENDBRANCH   4   6
TORSDOF 3
ENDMDL
MODEL       65
REMARK 921   NORMALIZED FREE ENERGY PREDICTED BY IDOCK:   -3.93 KCAL/MOL
REMARK 922        TOTAL FREE ENERGY PREDICTED BY IDOCK:   -5.38 KCAL/MOL
REMARK 923 INTER-LIGAND FREE ENERGY PREDICTED BY IDOCK:   -5.20 KCAL/MOL
REMARK 924 INTRA-LIGAND FREE ENERGY PREDICTED BY IDOCK:   -0.18 KCAL/MOL
REMARK 927      BINDING AFFINITY PREDICTED BY RF-SCORE:    0.00 PKD
ROOT
HETATM    1 NA   UNL     1      -9.297  14.023  65.525  1.00  0.00    -0.358 Na 
HETATM    2 NA   UNL     2     -12.501  11.665  62.340  1.00  0.00    -0.665 Na 
HETATM    3  O   UNL     3     -12.173  14.805  63.797  1.00  0.00    -0.953 OA 
HETATM    4  C   UNL     3     -12.291  14.226  65.099  1.00  0.00    -0.424 C  
HETATM    5  H   UNL     3     -12.281  15.747  63.874  1.00  0.00     0.000 HD 
ENDROOT
BRANCH   4   6
HETATM    6  C   UNL     3     -12.119  12.709  64.976  1.00  0.00    -0.444 C  
HETATM    7  O   UNL     3     -13.265  12.105  64.298  1.00  0.00    -0.768 OA 
HETATM    8  H   UNL     3     -13.159  11.163  64.221  1.00  0.00     0.000 HD 
BRANCH   6   9
HETATM    9  C   UNL     3     -10.876  12.333  64.232  1.00  0.00    -0.348 C  
BRANCH   9  10
HETATM   10  O   UNL     3     -10.821  10.924  64.079  1.00  0.00    -0.297 OA 
HETATM   11  P   UNL     3      -9.193  10.448  63.741  1.00  0.00    -0.307 P  
HETATM   12  O   UNL     3      -7.735  10.023  63.438  1.00  0.00    -0.140 OA 
HETATM   13  O   UNL     3      -9.336  11.364  62.504  1.00  0.00    -0.317 OA 
HETATM   14  O   UNL     3      -8.905  11.031  65.153  1.00  0.00    -0.183 OA 
ENDBRANCH   9  10
ENDBRANCH   6   9
ENDBRANCH   4   6
TORSDOF 3
ENDMDL
MODEL       66
REMARK 921   NORMALIZED FREE ENERGY PREDICTED BY IDOCK:   -3.92 KCAL/MOL
REMARK 922        TOTAL FREE ENERGY PREDICTED BY IDOCK:   -5.38 KCAL/MOL
REMARK 923 INTER-LIGAND FREE ENERGY PREDICTED BY IDOCK:   -4.50 KCAL/MOL
REMARK 924 INTRA-LIGAND FREE ENERGY PREDICTED BY IDOCK:   -0.88 KCAL/MOL
REMARK 927      BINDING AFFINITY PREDICTED BY RF-SCORE:    0.00 PKD
ROOT
HETATM    1 NA   UNL     1      -7.433   8.073  65.091  1.00  0.00    -0.066 Na 
HETATM    2 NA   UNL     2      -8.859  12.954  65.421  1.00  0.00    -0.414 Na 
HETATM    3  O   UNL     3      -9.382   9.999  67.179  1.00  0.00    -0.146 OA 
HETATM    4  C   UNL     3      -9.988   9.408  66.027  1.00  0.00    -0.281 C  
HETATM    5  H   UNL     3      -9.577   9.457  67.935  1.00  0.00     0.000 HD 
ENDROOT
BRANCH   4   6
HETATM    6  C   UNL     3      -9.675  10.282  64.808  1.00  0.00    -0.332 C  
HETATM    7  O   UNL     3      -9.330   9.460  63.648  1.00  0.00    -0.405 OA 
HETATM    8  H   UNL     3      -9.136  10.002  62.892  1.00  0.00     0.000 HD 
BRANCH   6   9
HETATM    9  C   UNL     3     -10.819  11.172  64.435  1.00  0.00    -0.270 C  
BRANCH   9  10
HETATM   10  O   UNL     3     -11.251  11.895  65.577  1.00  0.00    -0.317 OA 
HETATM   11  P   UNL     3     -12.120  13.302  65.068  1.00  0.00    -0.464 P  
HETATM   12  O   UNL     3     -12.898  14.560  64.612  1.00  0.00    -0.614 OA 
HETATM   13  O   UNL     3     -10.802  13.680  64.355  1.00  0.00    -0.396 OA 
HETATM   14  O   UNL     3     -13.106  12.267  64.455  1.00  0.00    -0.791 OA 
ENDBRANCH   9  10
ENDBRANCH   6   9
ENDBRANCH   4   6
TORSDOF 3
ENDMDL
MODEL       67
REMARK 921   NORMALIZED FREE ENERGY PREDICTED BY IDOCK:   -3.91 KCAL/MOL
REMARK 922        TOTAL FREE ENERGY PREDICTED BY IDOCK:   -5.37 KCAL/MOL
REMARK 923 INTER-LIGAND FREE ENERGY PREDICTED BY IDOCK:   -4.62 KCAL/MOL
REMARK 924 INTRA-LIGAND FREE ENERGY PREDICTED BY IDOCK:   -0.75 KCAL/MOL
REMARK 927      BINDING AFFINITY PREDICTED BY RF-SCORE:    0.00 PKD
ROOT
HETATM    1 NA   UNL     1     -12.115  14.242  62.820  1.00  0.00    -0.858 Na 
HETATM    2 NA   UNL     2      -8.384  13.148  66.114  1.00  0.00    -0.387 Na 
HETATM    3  O   UNL     3      -9.472  12.039  63.003  1.00  0.00    -0.610 OA 
HETATM    4  C   UNL     3     -10.728  11.653  63.567  1.00  0.00    -0.428 C  
HETATM    5  H   UNL     3      -9.394  11.647  62.141  1.00  0.00     0.000 HD 
ENDROOT
BRANCH   4   6
HETATM    6  C   UNL     3     -10.854  12.284  64.957  1.00  0.00    -0.298 C  
HETATM    7  O   UNL     3     -12.072  13.087  65.060  1.00  0.00    -0.374 OA 
HETATM    8  H   UNL     3     -12.151  13.478  65.923  1.00  0.00     0.000 HD 
BRANCH   6   9
HETATM    9  C   UNL     3     -10.865  11.262  66.050  1.00  0.00    -0.213 C  
BRANCH   9  10
HETATM   10  O   UNL     3     -10.177  11.770  67.182  1.00  0.00    -0.208 OA 
HETATM   11  P   UNL     3     -11.095  11.428  68.609  1.00  0.00    -0.291 P  
HETATM   12  O   UNL     3     -11.917  11.122  69.885  1.00  0.00    -0.302 OA 
HETATM   13  O   UNL     3     -12.198  12.266  67.923  1.00  0.00    -0.409 OA 
HETATM   14  O   UNL     3     -10.841   9.945  68.217  1.00  0.00    -0.239 OA 
ENDBRANCH   9  10
ENDBRANCH   6   9
ENDBRANCH   4   6
TORSDOF 3
ENDMDL
MODEL       68
REMARK 921   NORMALIZED FREE ENERGY PREDICTED BY IDOCK:   -3.91 KCAL/MOL
REMARK 922        TOTAL FREE ENERGY PREDICTED BY IDOCK:   -5.36 KCAL/MOL
REMARK 923 INTER-LIGAND FREE ENERGY PREDICTED BY IDOCK:   -4.54 KCAL/MOL
REMARK 924 INTRA-LIGAND FREE ENERGY PREDICTED BY IDOCK:   -0.82 KCAL/MOL
REMARK 927      BINDING AFFINITY PREDICTED BY RF-SCORE:    0.00 PKD
ROOT
HETATM    1 NA   UNL     1      -8.870  13.967  69.701  1.00  0.00    -0.350 Na 
HETATM    2 NA   UNL     2     -12.957  14.877  72.605  1.00  0.00    -0.297 Na 
HETATM    3  O   UNL     3     -11.802  12.351  70.512  1.00  0.00    -0.520 OA 
HETATM    4  C   UNL     3     -11.800  13.254  69.404  1.00  0.00    -0.329 C  
HETATM    5  H   UNL     3     -11.716  11.464  70.181  1.00  0.00     0.000 HD 
ENDROOT
BRANCH   4   6
HETATM    6  C   UNL     3     -11.939  14.683  69.938  1.00  0.00    -0.329 C  
HETATM    7  O   UNL     3     -11.025  14.916  71.056  1.00  0.00    -0.537 OA 
HETATM    8  H   UNL     3     -11.111  15.803  71.387  1.00  0.00     0.000 HD 
BRANCH   6   9
HETATM    9  C   UNL     3     -11.676  15.714  68.886  1.00  0.00    -0.384 C  
BRANCH   9  10
HETATM   10  O   UNL     3     -10.352  15.567  68.398  1.00  0.00    -0.224 OA 
HETATM   11  P   UNL     3     -10.262  16.204  66.791  1.00  0.00    -0.290 P  
HETATM   12  O   UNL     3     -10.182  16.773  65.354  1.00  0.00    -0.599 OA 
HETATM   13  O   UNL     3     -11.337  15.142  66.467  1.00  0.00    -0.324 OA 
HETATM   14  O   UNL     3     -10.631  17.548  67.481  1.00  0.00    -0.358 OA 
ENDBRANCH   9  10
ENDBRANCH   6   9
ENDBRANCH   4   6
TORSDOF 3
ENDMDL
MODEL       69
REMARK 921   NORMALIZED FREE ENERGY PREDICTED BY IDOCK:   -3.88 KCAL/MOL
REMARK 922        TOTAL FREE ENERGY PREDICTED BY IDOCK:   -5.33 KCAL/MOL
REMARK 923 INTER-LIGAND FREE ENERGY PREDICTED BY IDOCK:   -4.43 KCAL/MOL
REMARK 924 INTRA-LIGAND FREE ENERGY PREDICTED BY IDOCK:   -0.90 KCAL/MOL
REMARK 927      BINDING AFFINITY PREDICTED BY RF-SCORE:    0.00 PKD
ROOT
HETATM    1 NA   UNL     1     -13.044   7.098  70.022  1.00  0.00    -0.586 Na 
HETATM    2 NA   UNL     2     -13.995  11.319  72.714  1.00  0.00    -0.628 Na 
HETATM    3  O   UNL     3     -12.730  10.500  69.580  1.00  0.00    -0.659 OA 
HETATM    4  C   UNL     3     -11.653   9.784  70.189  1.00  0.00    -0.182 C  
HETATM    5  H   UNL     3     -12.526  10.629  68.661  1.00  0.00     0.000 HD 
ENDROOT
BRANCH   4   6
HETATM    6  C   UNL     3     -11.981   9.576  71.670  1.00  0.00    -0.401 C  
HETATM    7  O   UNL     3     -13.415   9.367  71.866  1.00  0.00    -0.382 OA 
HETATM    8  H   UNL     3     -13.619   9.237  72.785  1.00  0.00     0.000 HD 
BRANCH   6   9
HETATM    9  C   UNL     3     -11.247   8.412  72.260  1.00  0.00    -0.376 C  
BRANCH   9  10
HETATM   10  O   UNL     3     -12.145   7.329  72.444  1.00  0.00    -0.226 OA 
HETATM   11  P   UNL     3     -11.258   5.843  72.434  1.00  0.00    -0.285 P  
HETATM   12  O   UNL     3     -10.463   4.514  72.424  1.00  0.00    -0.194 OA 
HETATM   13  O   UNL     3     -10.835   6.274  71.011  1.00  0.00    -0.246 OA 
HETATM   14  O   UNL     3     -10.574   6.435  73.699  1.00  0.00    -0.266 OA 
ENDBRANCH   9  10
ENDBRANCH   6   9
ENDBRANCH   4   6
TORSDOF 3
ENDMDL
MODEL       70
REMARK 921   NORMALIZED FREE ENERGY PREDICTED BY IDOCK:   -3.87 KCAL/MOL
REMARK 922        TOTAL FREE ENERGY PREDICTED BY IDOCK:   -5.32 KCAL/MOL
REMARK 923 INTER-LIGAND FREE ENERGY PREDICTED BY IDOCK:   -4.96 KCAL/MOL
REMARK 924 INTRA-LIGAND FREE ENERGY PREDICTED BY IDOCK:   -0.36 KCAL/MOL
REMARK 927      BINDING AFFINITY PREDICTED BY RF-SCORE:    0.00 PKD
ROOT
HETATM    1 NA   UNL     1     -10.742  16.148  63.564  1.00  0.00    -0.483 Na 
HETATM    2 NA   UNL     2     -11.352  13.723  68.004  1.00  0.00    -0.228 Na 
HETATM    3  O   UNL     3     -10.529  16.922  66.914  1.00  0.00    -0.312 OA 
HETATM    4  C   UNL     3      -9.370  16.410  66.253  1.00  0.00    -0.315 C  
HETATM    5  H   UNL     3     -10.457  17.868  66.963  1.00  0.00     0.000 HD 
ENDROOT
BRANCH   4   6
HETATM    6  C   UNL     3      -9.485  14.885  66.174  1.00  0.00    -0.295 C  
HETATM    7  O   UNL     3      -9.360  14.280  67.500  1.00  0.00    -0.190 OA 
HETATM    8  H   UNL     3      -9.432  13.334  67.452  1.00  0.00     0.000 HD 
BRANCH   6   9
HETATM    9  C   UNL     3     -10.780  14.440  65.570  1.00  0.00    -0.336 C  
BRANCH   9  10
HETATM   10  O   UNL     3     -10.524  13.732  64.367  1.00  0.00    -0.422 OA 
HETATM   11  P   UNL     3     -11.976  12.947  63.847  1.00  0.00    -0.527 P  
HETATM   12  O   UNL     3     -13.275  12.245  63.382  1.00  0.00    -0.660 OA 
HETATM   13  O   UNL     3     -11.901  12.224  65.211  1.00  0.00    -0.376 OA 
HETATM   14  O   UNL     3     -12.520  14.399  63.726  1.00  0.00    -0.814 OA 
ENDBRANCH   9  10
ENDBRANCH   6   9
ENDBRANCH   4   6
TORSDOF 3
ENDMDL
MODEL       71
REMARK 921   NORMALIZED FREE ENERGY PREDICTED BY IDOCK:   -3.84 KCAL/MOL
REMARK 922        TOTAL FREE ENERGY PREDICTED BY IDOCK:   -5.28 KCAL/MOL
REMARK 923 INTER-LIGAND FREE ENERGY PREDICTED BY IDOCK:   -4.86 KCAL/MOL
REMARK 924 INTRA-LIGAND FREE ENERGY PREDICTED BY IDOCK:   -0.42 KCAL/MOL
REMARK 927      BINDING AFFINITY PREDICTED BY RF-SCORE:    0.00 PKD
ROOT
HETATM    1 NA   UNL     1     -14.138  15.901  70.105  1.00  0.00    -0.814 Na 
HETATM    2 NA   UNL     2     -10.883  11.981  70.084  1.00  0.00    -0.433 Na 
HETATM    3  O   UNL     3     -11.441  14.847  71.972  1.00  0.00    -0.458 OA 
HETATM    4  C   UNL     3     -11.204  15.664  70.823  1.00  0.00    -0.367 C  
HETATM    5  H   UNL     3     -11.422  15.400  72.745  1.00  0.00     0.000 HD 
ENDROOT
BRANCH   4   6
HETATM    6  C   UNL     3     -11.233  14.774  69.577  1.00  0.00    -0.278 C  
HETATM    7  O   UNL     3     -12.584  14.697  69.019  1.00  0.00    -0.569 OA 
HETATM    8  H   UNL     3     -12.603  14.145  68.246  1.00  0.00     0.000 HD 
BRANCH   6   9
HETATM    9  C   UNL     3     -10.306  15.258  68.507  1.00  0.00    -0.231 C  
BRANCH   9  10
HETATM   10  O   UNL     3     -11.060  15.717  67.396  1.00  0.00    -0.311 OA 
HETATM   11  P   UNL     3     -10.226  17.033  66.643  1.00  0.00    -0.277 P  
HETATM   12  O   UNL     3      -9.479  18.210  65.970  1.00  0.00    -0.503 OA 
HETATM   13  O   UNL     3     -10.366  17.719  68.020  1.00  0.00    -0.355 OA 
HETATM   14  O   UNL     3      -9.127  15.966  66.376  1.00  0.00    -0.260 OA 
ENDBRANCH   9  10
ENDBRANCH   6   9
ENDBRANCH   4   6
TORSDOF 3
ENDMDL
MODEL       72
REMARK 921   NORMALIZED FREE ENERGY PREDICTED BY IDOCK:   -3.82 KCAL/MOL
REMARK 922        TOTAL FREE ENERGY PREDICTED BY IDOCK:   -5.26 KCAL/MOL
REMARK 923 INTER-LIGAND FREE ENERGY PREDICTED BY IDOCK:   -4.50 KCAL/MOL
REMARK 924 INTRA-LIGAND FREE ENERGY PREDICTED BY IDOCK:   -0.76 KCAL/MOL
REMARK 927      BINDING AFFINITY PREDICTED BY RF-SCORE:    0.00 PKD
ROOT
HETATM    1 NA   UNL     1      -8.956  12.580  66.274  1.00  0.00    -0.197 Na 
HETATM    2 NA   UNL     2     -11.143  11.875  70.823  1.00  0.00    -0.471 Na 
HETATM    3  O   UNL     3     -11.977  11.438  67.475  1.00  0.00    -0.626 OA 
HETATM    4  C   UNL     3     -11.817  12.839  67.240  1.00  0.00    -0.350 C  
HETATM    5  H   UNL     3     -12.430  11.057  66.731  1.00  0.00     0.000 HD 
ENDROOT
BRANCH   4   6
HETATM    6  C   UNL     3     -11.087  13.455  68.438  1.00  0.00    -0.273 C  
HETATM    7  O   UNL     3      -9.940  14.250  68.001  1.00  0.00    -0.211 OA 
HETATM    8  H   UNL     3      -9.487  14.632  68.744  1.00  0.00     0.000 HD 
BRANCH   6   9
HETATM    9  C   UNL     3     -11.980  14.325  69.266  1.00  0.00    -0.335 C  
BRANCH   9  10
HETATM   10  O   UNL     3     -11.433  14.465  70.567  1.00  0.00    -0.242 OA 
HETATM   11  P   UNL     3     -12.717  14.515  71.725  1.00  0.00    -0.370 P  
HETATM   12  O   UNL     3     -13.868  14.560  72.760  1.00  0.00    -0.540 OA 
HETATM   13  O   UNL     3     -13.185  15.758  70.935  1.00  0.00    -0.560 OA 
HETATM   14  O   UNL     3     -13.008  13.074  71.218  1.00  0.00    -0.324 OA 
ENDBRANCH   9  10
ENDBRANCH   6   9
ENDBRANCH   4   6
TORSDOF 3
ENDMDL
MODEL       73
REMARK 921   NORMALIZED FREE ENERGY PREDICTED BY IDOCK:   -3.78 KCAL/MOL
REMARK 922        TOTAL FREE ENERGY PREDICTED BY IDOCK:   -5.21 KCAL/MOL
REMARK 923 INTER-LIGAND FREE ENERGY PREDICTED BY IDOCK:   -4.36 KCAL/MOL
REMARK 924 INTRA-LIGAND FREE ENERGY PREDICTED BY IDOCK:   -0.85 KCAL/MOL
REMARK 927      BINDING AFFINITY PREDICTED BY RF-SCORE:    0.00 PKD
ROOT
HETATM    1 NA   UNL     1     -11.615  16.508  67.832  1.00  0.00    -0.316 Na 
HETATM    2 NA   UNL     2      -9.525  13.659  64.161  1.00  0.00    -0.588 Na 
HETATM    3  O   UNL     3      -9.639  13.693  67.637  1.00  0.00    -0.210 OA 
HETATM    4  C   UNL     3      -9.007  14.975  67.656  1.00  0.00    -0.178 C  
HETATM    5  H   UNL     3      -9.611  13.328  68.514  1.00  0.00     0.000 HD 
ENDROOT
BRANCH   4   6
HETATM    6  C   UNL     3      -9.052  15.564  66.243  1.00  0.00    -0.334 C  
HETATM    7  O   UNL     3     -10.371  15.376  65.638  1.00  0.00    -0.316 OA 
HETATM    8  H   UNL     3     -10.400  15.740  64.761  1.00  0.00     0.000 HD 
BRANCH   6   9
HETATM    9  C   UNL     3      -8.724  17.023  66.220  1.00  0.00    -0.250 C  
BRANCH   9  10
HETATM   10  O   UNL     3      -9.842  17.754  65.741  1.00  0.00    -0.541 OA 
HETATM   11  P   UNL     3      -9.874  19.311  66.496  1.00  0.00    -0.430 P  
HETATM   12  O   UNL     3      -9.902  20.703  67.172  1.00  0.00    -0.469 OA 
HETATM   13  O   UNL     3      -9.971  18.508  67.813  1.00  0.00    -0.314 OA 
HETATM   14  O   UNL     3      -8.516  19.509  65.765  1.00  0.00    -0.418 OA 
ENDBRANCH   9  10
ENDBRANCH   6   9
ENDBRANCH   4   6
TORSDOF 3
ENDMDL
MODEL       74
REMARK 921   NORMALIZED FREE ENERGY PREDICTED BY IDOCK:   -3.76 KCAL/MOL
REMARK 922        TOTAL FREE ENERGY PREDICTED BY IDOCK:   -5.19 KCAL/MOL
REMARK 923 INTER-LIGAND FREE ENERGY PREDICTED BY IDOCK:   -4.60 KCAL/MOL
REMARK 924 INTRA-LIGAND FREE ENERGY PREDICTED BY IDOCK:   -0.59 KCAL/MOL
REMARK 927      BINDING AFFINITY PREDICTED BY RF-SCORE:    0.00 PKD
ROOT
HETATM    1 NA   UNL     1     -12.647   6.659  69.510  1.00  0.00    -0.634 Na 
HETATM    2 NA   UNL     2     -14.282   8.756  73.857  1.00  0.00    -0.800 Na 
HETATM    3  O   UNL     3     -13.172   9.834  70.742  1.00  0.00    -0.576 OA 
HETATM    4  C   UNL     3     -11.904   9.211  70.966  1.00  0.00    -0.292 C  
HETATM    5  H   UNL     3     -13.093  10.422  70.000  1.00  0.00     0.000 HD 
ENDROOT
BRANCH   4   6
HETATM    6  C   UNL     3     -12.030   8.263  72.163  1.00  0.00    -0.369 C  
HETATM    7  O   UNL     3     -13.164   7.354  71.994  1.00  0.00    -0.489 OA 
HETATM    8  H   UNL     3     -13.243   6.766  72.737  1.00  0.00     0.000 HD 
BRANCH   6   9
HETATM    9  C   UNL     3     -10.795   7.446  72.377  1.00  0.00    -0.263 C  
BRANCH   9  10
HETATM   10  O   UNL     3     -10.285   7.688  73.679  1.00  0.00    -0.320 OA 
HETATM   11  P   UNL     3      -8.563   7.520  73.659  1.00  0.00    -0.247 P  
HETATM   12  O   UNL     3      -7.023   7.369  73.640  1.00  0.00    -0.074 OA 
HETATM   13  O   UNL     3      -8.855   6.077  73.189  1.00  0.00    -0.129 OA 
HETATM   14  O   UNL     3      -8.624   8.722  72.674  1.00  0.00    -0.411 OA 
ENDBRANCH   9  10
ENDBRANCH   6   9
ENDBRANCH   4   6
TORSDOF 3
ENDMDL
MODEL       75
REMARK 921   NORMALIZED FREE ENERGY PREDICTED BY IDOCK:   -3.74 KCAL/MOL
REMARK 922        TOTAL FREE ENERGY PREDICTED BY IDOCK:   -5.17 KCAL/MOL
REMARK 923 INTER-LIGAND FREE ENERGY PREDICTED BY IDOCK:   -4.75 KCAL/MOL
REMARK 924 INTRA-LIGAND FREE ENERGY PREDICTED BY IDOCK:   -0.42 KCAL/MOL
REMARK 927      BINDING AFFINITY PREDICTED BY RF-SCORE:    0.00 PKD
ROOT
HETATM    1 NA   UNL     1     -14.357   7.170  70.322  1.00  0.00    -0.562 Na 
HETATM    2 NA   UNL     2     -11.226   6.716  74.317  1.00  0.00    -0.423 Na 
HETATM    3  O   UNL     3     -13.759   8.855  73.267  1.00  0.00    -1.085 OA 
HETATM    4  C   UNL     3     -12.998   9.206  72.108  1.00  0.00    -0.425 C  
HETATM    5  H   UNL     3     -14.468   9.480  73.363  1.00  0.00     0.000 HD 
ENDROOT
BRANCH   4   6
HETATM    6  C   UNL     3     -11.853   8.200  71.953  1.00  0.00    -0.317 C  
HETATM    7  O   UNL     3     -12.064   7.343  70.787  1.00  0.00    -0.443 OA 
HETATM    8  H   UNL     3     -11.354   6.718  70.689  1.00  0.00     0.000 HD 
BRANCH   6   9
HETATM    9  C   UNL     3     -10.521   8.867  71.816  1.00  0.00    -0.360 C  
BRANCH   9  10
HETATM   10  O   UNL     3      -9.522   7.889  71.576  1.00  0.00    -0.142 OA 
HETATM   11  P   UNL     3      -7.967   8.560  71.931  1.00  0.00    -0.039 P  
HETATM   12  O   UNL     3      -6.576   9.161  72.250  1.00  0.00    -0.298 OA 
HETATM   13  O   UNL     3      -8.326   9.595  70.841  1.00  0.00    -0.272 OA 
HETATM   14  O   UNL     3      -8.531   8.674  73.376  1.00  0.00    -0.385 OA 
ENDBRANCH   9  10
ENDBRANCH   6   9
ENDBRANCH   4   6
TORSDOF 3
ENDMDL
MODEL       76
REMARK 921   NORMALIZED FREE ENERGY PREDICTED BY IDOCK:   -3.73 KCAL/MOL
REMARK 922        TOTAL FREE ENERGY PREDICTED BY IDOCK:   -5.16 KCAL/MOL
REMARK 923 INTER-LIGAND FREE ENERGY PREDICTED BY IDOCK:   -4.69 KCAL/MOL
REMARK 924 INTRA-LIGAND FREE ENERGY PREDICTED BY IDOCK:   -0.47 KCAL/MOL
REMARK 927      BINDING AFFINITY PREDICTED BY RF-SCORE:    0.00 PKD
ROOT
HETATM    1 NA   UNL     1     -10.967  20.187  69.751  1.00  0.00    -0.596 Na 
HETATM    2 NA   UNL     2      -6.773  18.841  67.190  1.00  0.00    -0.182 Na 
HETATM    3  O   UNL     3      -9.481  20.976  66.745  1.00  0.00    -0.634 OA 
HETATM    4  C   UNL     3     -10.380  19.865  66.796  1.00  0.00    -0.474 C  
HETATM    5  H   UNL     3      -9.951  21.730  66.407  1.00  0.00     0.000 HD 
ENDROOT
BRANCH   4   6
HETATM    6  C   UNL     3      -9.623  18.649  67.340  1.00  0.00    -0.296 C  
HETATM    7  O   UNL     3      -9.084  18.920  68.672  1.00  0.00    -0.340 OA 
HETATM    8  H   UNL     3      -8.615  18.166  69.010  1.00  0.00     0.000 HD 
BRANCH   6   9
HETATM    9  C   UNL     3     -10.484  17.428  67.415  1.00  0.00    -0.336 C  
BRANCH   9  10
HETATM   10  O   UNL     3      -9.697  16.276  67.157  1.00  0.00    -0.232 OA 
HETATM   11  P   UNL     3     -10.584  15.194  66.138  1.00  0.00    -0.338 P  
HETATM   12  O   UNL     3     -11.378  14.227  65.226  1.00  0.00    -0.314 OA 
HETATM   13  O   UNL     3     -11.618  15.193  67.286  1.00  0.00    -0.323 OA 
HETATM   14  O   UNL     3     -10.508  16.362  65.114  1.00  0.00    -0.622 OA 
ENDBRANCH   9  10
ENDBRANCH   6   9
ENDBRANCH   4   6
TORSDOF 3
ENDMDL
MODEL       77
REMARK 921   NORMALIZED FREE ENERGY PREDICTED BY IDOCK:   -3.73 KCAL/MOL
REMARK 922        TOTAL FREE ENERGY PREDICTED BY IDOCK:   -5.15 KCAL/MOL
REMARK 923 INTER-LIGAND FREE ENERGY PREDICTED BY IDOCK:   -4.20 KCAL/MOL
REMARK 924 INTRA-LIGAND FREE ENERGY PREDICTED BY IDOCK:   -0.96 KCAL/MOL
REMARK 927      BINDING AFFINITY PREDICTED BY RF-SCORE:    0.00 PKD
ROOT
HETATM    1 NA   UNL     1     -11.001  12.028  70.512  1.00  0.00    -0.477 Na 
HETATM    2 NA   UNL     2      -9.506  16.794  69.504  1.00  0.00    -0.235 Na 
HETATM    3  O   UNL     3     -11.983  15.217  71.368  1.00  0.00    -0.306 OA 
HETATM    4  C   UNL     3     -12.519  14.630  70.181  1.00  0.00    -0.317 C  
HETATM    5  H   UNL     3     -12.619  15.119  72.068  1.00  0.00     0.000 HD 
ENDROOT
BRANCH   4   6
HETATM    6  C   UNL     3     -11.495  14.787  69.052  1.00  0.00    -0.293 C  
HETATM    7  O   UNL     3     -10.169  14.341  69.481  1.00  0.00    -0.430 OA 
HETATM    8  H   UNL     3      -9.533  14.439  68.782  1.00  0.00     0.000 HD 
BRANCH   6   9
HETATM    9  C   UNL     3     -11.877  14.025  67.823  1.00  0.00    -0.384 C  
BRANCH   9  10
HETATM   10  O   UNL     3     -11.770  12.632  68.075  1.00  0.00    -0.321 OA 
HETATM   11  P   UNL     3     -11.113  11.847  66.680  1.00  0.00    -0.322 P  
HETATM   12  O   UNL     3     -10.525  11.146  65.432  1.00  0.00    -0.264 OA 
HETATM   13  O   UNL     3     -12.353  12.418  65.955  1.00  0.00    -0.627 OA 
HETATM   14  O   UNL     3      -9.868  12.730  66.975  1.00  0.00    -0.222 OA 
ENDBRANCH   9  10
ENDBRANCH   6   9
ENDBRANCH   4   6
TORSDOF 3
ENDMDL
MODEL       78
REMARK 921   NORMALIZED FREE ENERGY PREDICTED BY IDOCK:   -3.72 KCAL/MOL
REMARK 922        TOTAL FREE ENERGY PREDICTED BY IDOCK:   -5.14 KCAL/MOL
REMARK 923 INTER-LIGAND FREE ENERGY PREDICTED BY IDOCK:   -4.67 KCAL/MOL
REMARK 924 INTRA-LIGAND FREE ENERGY PREDICTED BY IDOCK:   -0.47 KCAL/MOL
REMARK 927      BINDING AFFINITY PREDICTED BY RF-SCORE:    0.00 PKD
ROOT
HETATM    1 NA   UNL     1     -11.740  11.527  63.344  1.00  0.00    -0.356 Na 
HETATM    2 NA   UNL     2      -8.670  12.252  67.346  1.00  0.00    -0.138 Na 
HETATM    3  O   UNL     3     -12.081  12.338  66.675  1.00  0.00    -0.612 OA 
HETATM    4  C   UNL     3     -11.880  13.391  65.729  1.00  0.00    -0.377 C  
HETATM    5  H   UNL     3     -13.010  12.278  66.868  1.00  0.00     0.000 HD 
ENDROOT
BRANCH   4   6
HETATM    6  C   UNL     3     -10.383  13.489  65.418  1.00  0.00    -0.319 C  
HETATM    7  O   UNL     3     -10.132  13.312  63.988  1.00  0.00    -0.742 OA 
HETATM    8  H   UNL     3      -9.204  13.372  63.794  1.00  0.00     0.000 HD 
BRANCH   6   9
HETATM    9  C   UNL     3      -9.795  14.797  65.844  1.00  0.00    -0.334 C  
BRANCH   9  10
HETATM   10  O   UNL     3     -10.577  15.861  65.324  1.00  0.00    -0.394 OA 
HETATM   11  P   UNL     3     -10.281  17.293  66.250  1.00  0.00    -0.253 P  
HETATM   12  O   UNL     3     -10.016  18.573  67.079  1.00  0.00    -0.313 OA 
HETATM   13  O   UNL     3     -10.796  16.453  67.441  1.00  0.00    -0.302 OA 
HETATM   14  O   UNL     3      -8.829  17.139  65.715  1.00  0.00    -0.526 OA 
ENDBRANCH   9  10
ENDBRANCH   6   9
ENDBRANCH   4   6
TORSDOF 3
ENDMDL
MODEL       79
REMARK 921   NORMALIZED FREE ENERGY PREDICTED BY IDOCK:   -3.69 KCAL/MOL
REMARK 922        TOTAL FREE ENERGY PREDICTED BY IDOCK:   -5.10 KCAL/MOL
REMARK 923 INTER-LIGAND FREE ENERGY PREDICTED BY IDOCK:   -4.66 KCAL/MOL
REMARK 924 INTRA-LIGAND FREE ENERGY PREDICTED BY IDOCK:   -0.44 KCAL/MOL
REMARK 927      BINDING AFFINITY PREDICTED BY RF-SCORE:    0.00 PKD
ROOT
HETATM    1 NA   UNL     1     -11.949   6.352  73.157  1.00  0.00    -0.440 Na 
HETATM    2 NA   UNL     2     -12.308  11.197  71.620  1.00  0.00    -0.300 Na 
HETATM    3  O   UNL     3     -14.265   8.896  73.343  1.00  0.00    -1.241 OA 
HETATM    4  C   UNL     3     -14.280   8.036  72.201  1.00  0.00    -0.296 C  
HETATM    5  H   UNL     3     -14.933   8.602  73.951  1.00  0.00     0.000 HD 
ENDROOT
BRANCH   4   6
HETATM    6  C   UNL     3     -13.204   8.510  71.219  1.00  0.00    -0.132 C  
HETATM    7  O   UNL     3     -13.613   9.743  70.547  1.00  0.00    -0.591 OA 
HETATM    8  H   UNL     3     -12.946  10.038  69.938  1.00  0.00     0.000 HD 
BRANCH   6   9
HETATM    9  C   UNL     3     -11.886   8.749  71.887  1.00  0.00    -0.367 C  
BRANCH   9  10
HETATM   10  O   UNL     3     -10.947   7.781  71.445  1.00  0.00    -0.232 OA 
HETATM   11  P   UNL     3      -9.391   8.151  72.105  1.00  0.00    -0.256 P  
HETATM   12  O   UNL     3      -7.999   8.483  72.695  1.00  0.00    -0.298 OA 
HETATM   13  O   UNL     3      -9.550   9.489  71.347  1.00  0.00    -0.217 OA 
HETATM   14  O   UNL     3     -10.094   7.903  73.469  1.00  0.00    -0.293 OA 
ENDBRANCH   9  10
ENDBRANCH   6   9
ENDBRANCH   4   6
TORSDOF 3
ENDMDL
MODEL       80
REMARK 921   NORMALIZED FREE ENERGY PREDICTED BY IDOCK:   -3.67 KCAL/MOL
REMARK 922        TOTAL FREE ENERGY PREDICTED BY IDOCK:   -5.09 KCAL/MOL
REMARK 923 INTER-LIGAND FREE ENERGY PREDICTED BY IDOCK:   -4.83 KCAL/MOL
REMARK 924 INTRA-LIGAND FREE ENERGY PREDICTED BY IDOCK:   -0.26 KCAL/MOL
REMARK 927      BINDING AFFINITY PREDICTED BY RF-SCORE:    0.00 PKD
ROOT
HETATM    1 NA   UNL     1      -8.922  13.546  65.369  1.00  0.00    -0.434 Na 
HETATM    2 NA   UNL     2     -12.740  13.812  68.734  1.00  0.00    -0.341 Na 
HETATM    3  O   UNL     3      -9.325  13.153  68.768  1.00  0.00    -0.395 OA 
HETATM    4  C   UNL     3      -9.524  12.021  67.918  1.00  0.00    -0.196 C  
HETATM    5  H   UNL     3      -8.450  13.107  69.135  1.00  0.00     0.000 HD 
ENDROOT
BRANCH   4   6
HETATM    6  C   UNL     3     -10.935  12.095  67.327  1.00  0.00    -0.260 C  
HETATM    7  O   UNL     3     -11.944  11.780  68.338  1.00  0.00    -0.443 OA 
HETATM    8  H   UNL     3     -12.820  11.825  67.972  1.00  0.00     0.000 HD 
BRANCH   6   9
HETATM    9  C   UNL     3     -11.244  13.443  66.753  1.00  0.00    -0.310 C  
BRANCH   9  10
HETATM   10  O   UNL     3     -11.064  13.413  65.346  1.00  0.00    -0.285 OA 
HETATM   11  P   UNL     3     -11.755  14.838  64.651  1.00  0.00    -0.326 P  
HETATM   12  O   UNL     3     -12.374  16.114  64.029  1.00  0.00    -0.796 OA 
HETATM   13  O   UNL     3     -13.072  14.331  65.281  1.00  0.00    -0.707 OA 
HETATM   14  O   UNL     3     -10.680  15.573  65.499  1.00  0.00    -0.337 OA 
ENDBRANCH   9  10
ENDBRANCH   6   9
ENDBRANCH   4   6
TORSDOF 3
ENDMDL
MODEL       81
REMARK 921   NORMALIZED FREE ENERGY PREDICTED BY IDOCK:   -3.67 KCAL/MOL
REMARK 922        TOTAL FREE ENERGY PREDICTED BY IDOCK:   -5.09 KCAL/MOL
REMARK 923 INTER-LIGAND FREE ENERGY PREDICTED BY IDOCK:   -4.50 KCAL/MOL
REMARK 924 INTRA-LIGAND FREE ENERGY PREDICTED BY IDOCK:   -0.59 KCAL/MOL
REMARK 927      BINDING AFFINITY PREDICTED BY RF-SCORE:    0.00 PKD
ROOT
HETATM    1 NA   UNL     1     -11.029  13.657  69.236  1.00  0.00    -0.219 Na 
HETATM    2 NA   UNL     2     -14.272  14.132  65.334  1.00  0.00    -0.726 Na 
HETATM    3  O   UNL     3     -11.804  11.911  66.369  1.00  0.00    -0.561 OA 
HETATM    4  C   UNL     3     -10.823  12.949  66.297  1.00  0.00    -0.275 C  
HETATM    5  H   UNL     3     -11.356  11.076  66.438  1.00  0.00     0.000 HD 
ENDROOT
BRANCH   4   6
HETATM    6  C   UNL     3     -11.545  14.296  66.184  1.00  0.00    -0.369 C  
HETATM    7  O   UNL     3     -12.387  14.539  67.356  1.00  0.00    -0.614 OA 
HETATM    8  H   UNL     3     -12.835  15.374  67.286  1.00  0.00     0.000 HD 
BRANCH   6   9
HETATM    9  C   UNL     3     -10.595  15.443  66.037  1.00  0.00    -0.322 C  
BRANCH   9  10
HETATM   10  O   UNL     3      -9.263  14.955  66.003  1.00  0.00    -0.277 OA 
HETATM   11  P   UNL     3      -8.227  16.065  66.834  1.00  0.00    -0.288 P  
HETATM   12  O   UNL     3      -7.301  17.058  67.577  1.00  0.00    -0.148 OA 
HETATM   13  O   UNL     3      -8.714  17.083  65.778  1.00  0.00    -0.522 OA 
HETATM   14  O   UNL     3      -9.098  15.696  68.068  1.00  0.00    -0.181 OA 
ENDBRANCH   9  10
ENDBRANCH   6   9
ENDBRANCH   4   6
TORSDOF 3
ENDMDL
MODEL       82
REMARK 921   NORMALIZED FREE ENERGY PREDICTED BY IDOCK:   -3.67 KCAL/MOL
REMARK 922        TOTAL FREE ENERGY PREDICTED BY IDOCK:   -5.08 KCAL/MOL
REMARK 923 INTER-LIGAND FREE ENERGY PREDICTED BY IDOCK:   -4.37 KCAL/MOL
REMARK 924 INTRA-LIGAND FREE ENERGY PREDICTED BY IDOCK:   -0.71 KCAL/MOL
REMARK 927      BINDING AFFINITY PREDICTED BY RF-SCORE:    0.00 PKD
ROOT
HETATM    1 NA   UNL     1     -11.912   5.608  73.639  1.00  0.00    -0.475 Na 
HETATM    2 NA   UNL     2     -13.840  10.226  72.679  1.00  0.00    -0.534 Na 
HETATM    3  O   UNL     3     -13.638   7.143  71.083  1.00  0.00    -0.515 OA 
HETATM    4  C   UNL     3     -12.210   7.220  71.091  1.00  0.00    -0.340 C  
HETATM    5  H   UNL     3     -13.900   6.450  70.487  1.00  0.00     0.000 HD 
ENDROOT
BRANCH   4   6
HETATM    6  C   UNL     3     -11.786   8.337  72.050  1.00  0.00    -0.347 C  
HETATM    7  O   UNL     3     -10.757   7.868  72.978  1.00  0.00    -0.365 OA 
HETATM    8  H   UNL     3     -10.494   8.561  73.573  1.00  0.00     0.000 HD 
BRANCH   6   9
HETATM    9  C   UNL     3     -11.263   9.540  71.330  1.00  0.00    -0.382 C  
BRANCH   9  10
HETATM   10  O   UNL     3     -12.006   9.741  70.138  1.00  0.00    -0.160 OA 
HETATM   11  P   UNL     3     -11.772  11.364  69.585  1.00  0.00    -0.383 P  
HETATM   12  O   UNL     3     -11.562  12.816  69.092  1.00  0.00    -0.282 OA 
HETATM   13  O   UNL     3     -12.368  11.762  70.955  1.00  0.00    -0.375 OA 
HETATM   14  O   UNL     3     -10.287  10.925  69.443  1.00  0.00    -0.212 OA 
ENDBRANCH   9  10
ENDBRANCH   6   9
ENDBRANCH   4   6
TORSDOF 3
ENDMDL
MODEL       83
REMARK 921   NORMALIZED FREE ENERGY PREDICTED BY IDOCK:   -3.67 KCAL/MOL
REMARK 922        TOTAL FREE ENERGY PREDICTED BY IDOCK:   -5.08 KCAL/MOL
REMARK 923 INTER-LIGAND FREE ENERGY PREDICTED BY IDOCK:   -4.72 KCAL/MOL
REMARK 924 INTRA-LIGAND FREE ENERGY PREDICTED BY IDOCK:   -0.36 KCAL/MOL
REMARK 927      BINDING AFFINITY PREDICTED BY RF-SCORE:    0.00 PKD
ROOT
HETATM    1 NA   UNL     1      -7.812  12.092  65.685  1.00  0.00    -0.354 Na 
HETATM    2 NA   UNL     2     -12.820  11.880  64.769  1.00  0.00    -0.394 Na 
HETATM    3  O   UNL     3     -10.157   9.658  65.020  1.00  0.00    -0.379 OA 
HETATM    4  C   UNL     3      -9.503  10.299  63.922  1.00  0.00    -0.302 C  
HETATM    5  H   UNL     3      -9.728   8.825  65.183  1.00  0.00     0.000 HD 
ENDROOT
BRANCH   4   6
HETATM    6  C   UNL     3     -10.195  11.641  63.659  1.00  0.00    -0.412 C  
HETATM    7  O   UNL     3     -11.468  11.447  62.966  1.00  0.00    -0.853 OA 
HETATM    8  H   UNL     3     -11.897  12.279  62.802  1.00  0.00     0.000 HD 
BRANCH   6   9
HETATM    9  C   UNL     3     -10.452  12.408  64.917  1.00  0.00    -0.298 C  
BRANCH   9  10
HETATM   10  O   UNL     3     -10.729  13.763  64.600  1.00  0.00    -0.387 OA 
HETATM   11  P   UNL     3     -10.962  14.657  66.063  1.00  0.00    -0.338 P  
HETATM   12  O   UNL     3     -11.170  15.456  67.372  1.00  0.00    -0.328 OA 
HETATM   13  O   UNL     3     -12.116  13.662  66.315  1.00  0.00    -0.395 OA 
HETATM   14  O   UNL     3      -9.481  14.270  66.339  1.00  0.00    -0.280 OA 
ENDBRANCH   9  10
ENDBRANCH   6   9
ENDBRANCH   4   6
TORSDOF 3
ENDMDL
MODEL       84
REMARK 921   NORMALIZED FREE ENERGY PREDICTED BY IDOCK:   -3.66 KCAL/MOL
REMARK 922        TOTAL FREE ENERGY PREDICTED BY IDOCK:   -5.07 KCAL/MOL
REMARK 923 INTER-LIGAND FREE ENERGY PREDICTED BY IDOCK:   -4.39 KCAL/MOL
REMARK 924 INTRA-LIGAND FREE ENERGY PREDICTED BY IDOCK:   -0.68 KCAL/MOL
REMARK 927      BINDING AFFINITY PREDICTED BY RF-SCORE:    0.00 PKD
ROOT
HETATM    1 NA   UNL     1     -10.932  10.527  65.332  1.00  0.00    -0.234 Na 
HETATM    2 NA   UNL     2     -14.263  14.376  65.574  1.00  0.00    -0.722 Na 
HETATM    3  O   UNL     3     -12.634  12.537  63.112  1.00  0.00    -0.724 OA 
HETATM    4  C   UNL     3     -11.366  12.978  63.605  1.00  0.00    -0.339 C  
HETATM    5  H   UNL     3     -12.506  12.151  62.253  1.00  0.00     0.000 HD 
ENDROOT
BRANCH   4   6
HETATM    6  C   UNL     3     -11.571  13.603  64.989  1.00  0.00    -0.332 C  
HETATM    7  O   UNL     3     -12.237  12.666  65.894  1.00  0.00    -0.548 OA 
HETATM    8  H   UNL     3     -12.364  13.052  66.753  1.00  0.00     0.000 HD 
BRANCH   6   9
HETATM    9  C   UNL     3     -10.283  14.035  65.617  1.00  0.00    -0.334 C  
BRANCH   9  10
HETATM   10  O   UNL     3     -10.468  15.280  66.271  1.00  0.00    -0.287 OA 
HETATM   11  P   UNL     3      -9.586  15.281  67.760  1.00  0.00    -0.206 P  
HETATM   12  O   UNL     3      -8.797  15.280  69.092  1.00  0.00    -0.209 OA 
HETATM   13  O   UNL     3     -10.477  14.070  68.119  1.00  0.00    -0.232 OA 
HETATM   14  O   UNL     3      -8.347  15.130  66.833  1.00  0.00    -0.222 OA 
ENDBRANCH   9  10
ENDBRANCH   6   9
ENDBRANCH   4   6
TORSDOF 3
ENDMDL
MODEL       85
REMARK 921   NORMALIZED FREE ENERGY PREDICTED BY IDOCK:   -3.65 KCAL/MOL
REMARK 922        TOTAL FREE ENERGY PREDICTED BY IDOCK:   -5.06 KCAL/MOL
REMARK 923 INTER-LIGAND FREE ENERGY PREDICTED BY IDOCK:   -4.67 KCAL/MOL
REMARK 924 INTRA-LIGAND FREE ENERGY PREDICTED BY IDOCK:   -0.39 KCAL/MOL
REMARK 927      BINDING AFFINITY PREDICTED BY RF-SCORE:    0.00 PKD
ROOT
HETATM    1 NA   UNL     1     -10.940  16.030  63.635  1.00  0.00    -0.665 Na 
HETATM    2 NA   UNL     2     -10.868  12.515  67.325  1.00  0.00    -0.217 Na 
HETATM    3  O   UNL     3     -10.190  12.679  63.918  1.00  0.00    -0.483 OA 
HETATM    4  C   UNL     3     -11.542  13.060  63.655  1.00  0.00    -0.449 C  
HETATM    5  H   UNL     3      -9.781  12.429  63.097  1.00  0.00     0.000 HD 
ENDROOT
BRANCH   4   6
HETATM    6  C   UNL     3     -12.202  13.462  64.978  1.00  0.00    -0.424 C  
HETATM    7  O   UNL     3     -12.252  12.331  65.904  1.00  0.00    -0.634 OA 
HETATM    8  H   UNL     3     -12.662  12.580  66.725  1.00  0.00     0.000 HD 
BRANCH   6   9
HETATM    9  C   UNL     3     -11.492  14.595  65.650  1.00  0.00    -0.340 C  
BRANCH   9  10
HETATM   10  O   UNL     3     -10.196  14.174  66.047  1.00  0.00    -0.287 OA 
HETATM   11  P   UNL     3      -9.431  15.444  66.939  1.00  0.00    -0.259 P  
HETATM   12  O   UNL     3      -8.747  16.581  67.737  1.00  0.00    -0.192 OA 
HETATM   13  O   UNL     3      -9.623  16.269  65.647  1.00  0.00    -0.466 OA 
HETATM   14  O   UNL     3     -10.600  15.219  67.940  1.00  0.00    -0.250 OA 
ENDBRANCH   9  10
ENDBRANCH   6   9
ENDBRANCH   4   6
TORSDOF 3
ENDMDL
MODEL       86
REMARK 921   NORMALIZED FREE ENERGY PREDICTED BY IDOCK:   -3.64 KCAL/MOL
REMARK 922        TOTAL FREE ENERGY PREDICTED BY IDOCK:   -5.05 KCAL/MOL
REMARK 923 INTER-LIGAND FREE ENERGY PREDICTED BY IDOCK:   -3.92 KCAL/MOL
REMARK 924 INTRA-LIGAND FREE ENERGY PREDICTED BY IDOCK:   -1.13 KCAL/MOL
REMARK 927      BINDING AFFINITY PREDICTED BY RF-SCORE:    0.00 PKD
ROOT
HETATM    1 NA   UNL     1      -9.534   8.749  68.957  1.00  0.00    -0.146 Na 
HETATM    2 NA   UNL     2     -14.263   7.850  70.628  1.00  0.00    -0.579 Na 
HETATM    3  O   UNL     3     -12.499  10.487  69.202  1.00  0.00    -0.750 OA 
HETATM    4  C   UNL     3     -11.600  10.501  70.314  1.00  0.00    -0.332 C  
HETATM    5  H   UNL     3     -12.378  11.288  68.705  1.00  0.00     0.000 HD 
ENDROOT
BRANCH   4   6
HETATM    6  C   UNL     3     -11.795   9.211  71.116  1.00  0.00    -0.307 C  
HETATM    7  O   UNL     3     -11.927   8.056  70.228  1.00  0.00    -0.470 OA 
HETATM    8  H   UNL     3     -12.047   7.255  70.726  1.00  0.00     0.000 HD 
BRANCH   6   9
HETATM    9  C   UNL     3     -10.667   8.953  72.065  1.00  0.00    -0.319 C  
BRANCH   9  10
HETATM   10  O   UNL     3      -9.451   9.413  71.496  1.00  0.00    -0.259 OA 
HETATM   11  P   UNL     3      -8.185   8.296  71.872  1.00  0.00    -0.156 P  
HETATM   12  O   UNL     3      -7.052   7.296  72.209  1.00  0.00    -0.066 OA 
HETATM   13  O   UNL     3      -8.532   8.622  73.342  1.00  0.00    -0.385 OA 
HETATM   14  O   UNL     3      -9.040   7.301  71.037  1.00  0.00    -0.152 OA 
ENDBRANCH   9  10
ENDBRANCH   6   9
ENDBRANCH   4   6
TORSDOF 3
ENDMDL
MODEL       87
REMARK 921   NORMALIZED FREE ENERGY PREDICTED BY IDOCK:   -3.62 KCAL/MOL
REMARK 922        TOTAL FREE ENERGY PREDICTED BY IDOCK:   -5.03 KCAL/MOL
REMARK 923 INTER-LIGAND FREE ENERGY PREDICTED BY IDOCK:   -4.49 KCAL/MOL
REMARK 924 INTRA-LIGAND FREE ENERGY PREDICTED BY IDOCK:   -0.54 KCAL/MOL
REMARK 927      BINDING AFFINITY PREDICTED BY RF-SCORE:    0.00 PKD
ROOT
HETATM    1 NA   UNL     1     -13.481   9.821  69.716  1.00  0.00    -0.535 Na 
HETATM    2 NA   UNL     2     -14.404   5.738  72.621  1.00  0.00    -0.516 Na 
HETATM    3  O   UNL     3     -14.175   9.184  73.030  1.00  0.00    -1.082 OA 
HETATM    4  C   UNL     3     -12.813   9.156  72.596  1.00  0.00    -0.223 C  
HETATM    5  H   UNL     3     -14.347  10.028  73.431  1.00  0.00     0.000 HD 
ENDROOT
BRANCH   4   6
HETATM    6  C   UNL     3     -12.534   7.795  71.949  1.00  0.00    -0.314 C  
HETATM    7  O   UNL     3     -13.609   7.420  71.031  1.00  0.00    -0.613 OA 
HETATM    8  H   UNL     3     -13.437   6.576  70.630  1.00  0.00     0.000 HD 
BRANCH   6   9
HETATM    9  C   UNL     3     -11.240   7.774  71.198  1.00  0.00    -0.264 C  
BRANCH   9  10
HETATM   10  O   UNL     3     -10.675   9.076  71.189  1.00  0.00    -0.239 OA 
HETATM   11  P   UNL     3      -8.972   8.962  71.476  1.00  0.00    -0.036 P  
HETATM   12  O   UNL     3      -7.449   8.858  71.734  1.00  0.00    -0.271 OA 
HETATM   13  O   UNL     3      -9.390   8.300  72.809  1.00  0.00    -0.249 OA 
HETATM   14  O   UNL     3      -8.968   8.165  70.141  1.00  0.00    -0.144 OA 
ENDBRANCH   9  10
ENDBRANCH   6   9
ENDBRANCH   4   6
TORSDOF 3
ENDMDL
MODEL       88
REMARK 921   NORMALIZED FREE ENERGY PREDICTED BY IDOCK:   -3.62 KCAL/MOL
REMARK 922        TOTAL FREE ENERGY PREDICTED BY IDOCK:   -5.03 KCAL/MOL
REMARK 923 INTER-LIGAND FREE ENERGY PREDICTED BY IDOCK:   -4.39 KCAL/MOL
REMARK 924 INTRA-LIGAND FREE ENERGY PREDICTED BY IDOCK:   -0.64 KCAL/MOL
REMARK 927      BINDING AFFINITY PREDICTED BY RF-SCORE:    0.00 PKD
ROOT
HETATM    1 NA   UNL     1      -8.373  18.271  67.645  1.00  0.00    -0.224 Na 
HETATM    2 NA   UNL     2     -12.532  15.359  68.084  1.00  0.00    -0.499 Na 
HETATM    3  O   UNL     3      -9.081  14.932  68.112  1.00  0.00    -0.170 OA 
HETATM    4  C   UNL     3      -8.996  15.435  66.777  1.00  0.00    -0.259 C  
HETATM    5  H   UNL     3      -8.255  14.515  68.331  1.00  0.00     0.000 HD 
ENDROOT
BRANCH   4   6
HETATM    6  C   UNL     3     -10.326  16.108  66.423  1.00  0.00    -0.315 C  
HETATM    7  O   UNL     3     -10.110  17.463  65.917  1.00  0.00    -0.500 OA 
HETATM    8  H   UNL     3     -10.935  17.881  65.698  1.00  0.00     0.000 HD 
BRANCH   6   9
HETATM    9  C   UNL     3     -11.102  15.338  65.401  1.00  0.00    -0.347 C  
BRANCH   9  10
HETATM   10  O   UNL     3     -12.191  14.679  66.028  1.00  0.00    -0.286 OA 
HETATM   11  P   UNL     3     -12.623  13.282  65.103  1.00  0.00    -0.303 P  
HETATM   12  O   UNL     3     -13.009  12.032  64.275  1.00  0.00    -0.600 OA 
HETATM   13  O   UNL     3     -12.873  14.294  63.962  1.00  0.00    -0.605 OA 
HETATM   14  O   UNL     3     -11.188  12.804  65.464  1.00  0.00    -0.283 OA 
ENDBRANCH   9  10
ENDBRANCH   6   9
ENDBRANCH   4   6
TORSDOF 3
ENDMDL
MODEL       89
REMARK 921   NORMALIZED FREE ENERGY PREDICTED BY IDOCK:   -3.61 KCAL/MOL
REMARK 922        TOTAL FREE ENERGY PREDICTED BY IDOCK:   -5.02 KCAL/MOL
REMARK 923 INTER-LIGAND FREE ENERGY PREDICTED BY IDOCK:   -4.71 KCAL/MOL
REMARK 924 INTRA-LIGAND FREE ENERGY PREDICTED BY IDOCK:   -0.31 KCAL/MOL
REMARK 927      BINDING AFFINITY PREDICTED BY RF-SCORE:    0.00 PKD
ROOT
HETATM    1 NA   UNL     1      -9.618  14.792  67.588  1.00  0.00    -0.191 Na 
HETATM    2 NA   UNL     2     -12.475  11.484  64.969  1.00  0.00    -0.191 Na 
HETATM    3  O   UNL     3     -10.271  14.085  64.280  1.00  0.00    -0.674 OA 
HETATM    4  C   UNL     3     -11.124  15.005  64.967  1.00  0.00    -0.413 C  
HETATM    5  H   UNL     3      -9.638  14.580  63.774  1.00  0.00     0.000 HD 
ENDROOT
BRANCH   4   6
HETATM    6  C   UNL     3     -12.145  14.207  65.783  1.00  0.00    -0.420 C  
HETATM    7  O   UNL     3     -13.129  13.566  64.910  1.00  0.00    -0.718 OA 
HETATM    8  H   UNL     3     -13.763  13.071  65.416  1.00  0.00     0.000 HD 
BRANCH   6   9
HETATM    9  C   UNL     3     -11.503  13.152  66.629  1.00  0.00    -0.348 C  
BRANCH   9  10
HETATM   10  O   UNL     3     -11.961  13.272  67.966  1.00  0.00    -0.350 OA 
HETATM   11  P   UNL     3     -11.354  11.946  68.899  1.00  0.00    -0.328 P  
HETATM   12  O   UNL     3     -10.811  10.760  69.732  1.00  0.00    -0.256 OA 
HETATM   13  O   UNL     3     -12.123  11.070  67.884  1.00  0.00    -0.600 OA 
HETATM   14  O   UNL     3      -9.966  12.557  68.556  1.00  0.00    -0.219 OA 
ENDBRANCH   9  10
ENDBRANCH   6   9
ENDBRANCH   4   6
TORSDOF 3
ENDMDL
MODEL       90
REMARK 921   NORMALIZED FREE ENERGY PREDICTED BY IDOCK:   -3.61 KCAL/MOL
REMARK 922        TOTAL FREE ENERGY PREDICTED BY IDOCK:   -5.01 KCAL/MOL
REMARK 923 INTER-LIGAND FREE ENERGY PREDICTED BY IDOCK:   -4.37 KCAL/MOL
REMARK 924 INTRA-LIGAND FREE ENERGY PREDICTED BY IDOCK:   -0.65 KCAL/MOL
REMARK 927      BINDING AFFINITY PREDICTED BY RF-SCORE:    0.00 PKD
ROOT
HETATM    1 NA   UNL     1      -7.689   7.739  66.358  1.00  0.00    -0.078 Na 
HETATM    2 NA   UNL     2     -10.158   9.770  62.390  1.00  0.00    -0.476 Na 
HETATM    3  O   UNL     3      -7.232  10.364  64.174  1.00  0.00    -0.287 OA 
HETATM    4  C   UNL     3      -7.990  10.586  65.365  1.00  0.00    -0.129 C  
HETATM    5  H   UNL     3      -6.346  10.676  64.316  1.00  0.00     0.000 HD 
ENDROOT
BRANCH   4   6
HETATM    6  C   UNL     3      -9.419  10.085  65.136  1.00  0.00    -0.270 C  
HETATM    7  O   UNL     3      -9.802   9.108  66.156  1.00  0.00    -0.269 OA 
HETATM    8  H   UNL     3     -10.689   8.796  66.014  1.00  0.00     0.000 HD 
BRANCH   6   9
HETATM    9  C   UNL     3     -10.423  11.195  65.143  1.00  0.00    -0.277 C  
BRANCH   9  10
HETATM   10  O   UNL     3     -11.111  11.220  63.902  1.00  0.00    -0.380 OA 
HETATM   11  P   UNL     3     -11.913  12.743  63.725  1.00  0.00    -0.561 P  
HETATM   12  O   UNL     3     -12.630  14.106  63.567  1.00  0.00    -0.834 OA 
HETATM   13  O   UNL     3     -12.652  12.341  65.021  1.00  0.00    -0.575 OA 
HETATM   14  O   UNL     3     -10.469  13.319  63.759  1.00  0.00    -0.232 OA 
ENDBRANCH   9  10
ENDBRANCH   6   9
ENDBRANCH   4   6
TORSDOF 3
ENDMDL
MODEL       91
REMARK 921   NORMALIZED FREE ENERGY PREDICTED BY IDOCK:   -3.60 KCAL/MOL
REMARK 922        TOTAL FREE ENERGY PREDICTED BY IDOCK:   -5.00 KCAL/MOL
REMARK 923 INTER-LIGAND FREE ENERGY PREDICTED BY IDOCK:   -4.01 KCAL/MOL
REMARK 924 INTRA-LIGAND FREE ENERGY PREDICTED BY IDOCK:   -0.99 KCAL/MOL
REMARK 927      BINDING AFFINITY PREDICTED BY RF-SCORE:    0.00 PKD
ROOT
HETATM    1 NA   UNL     1      -7.435  18.583  67.555  1.00  0.00    -0.201 Na 
HETATM    2 NA   UNL     2     -11.288  20.089  64.580  1.00  0.00    -0.511 Na 
HETATM    3  O   UNL     3      -9.647  21.221  67.430  1.00  0.00    -0.581 OA 
HETATM    4  C   UNL     3     -10.029  20.038  68.134  1.00  0.00    -0.403 C  
HETATM    5  H   UNL     3      -9.333  21.860  68.059  1.00  0.00     0.000 HD 
ENDROOT
BRANCH   4   6
HETATM    6  C   UNL     3     -10.536  19.008  67.120  1.00  0.00    -0.462 C  
HETATM    7  O   UNL     3      -9.601  18.867  66.004  1.00  0.00    -0.468 OA 
HETATM    8  H   UNL     3      -9.915  18.228  65.374  1.00  0.00     0.000 HD 
BRANCH   6   9
HETATM    9  C   UNL     3     -10.750  17.659  67.733  1.00  0.00    -0.332 C  
BRANCH   9  10
HETATM   10  O   UNL     3     -10.008  17.562  68.938  1.00  0.00    -0.317 OA 
HETATM   11  P   UNL     3      -9.320  15.979  69.060  1.00  0.00    -0.241 P  
HETATM   12  O   UNL     3      -8.705  14.563  69.168  1.00  0.00    -0.095 OA 
HETATM   13  O   UNL     3     -10.787  15.496  69.004  1.00  0.00    -0.227 OA 
HETATM   14  O   UNL     3      -8.552  16.395  67.773  1.00  0.00    -0.167 OA 
ENDBRANCH   9  10
ENDBRANCH   6   9
ENDBRANCH   4   6
TORSDOF 3
ENDMDL
MODEL       92
REMARK 921   NORMALIZED FREE ENERGY PREDICTED BY IDOCK:   -3.60 KCAL/MOL
REMARK 922        TOTAL FREE ENERGY PREDICTED BY IDOCK:   -5.00 KCAL/MOL
REMARK 923 INTER-LIGAND FREE ENERGY PREDICTED BY IDOCK:   -4.03 KCAL/MOL
REMARK 924 INTRA-LIGAND FREE ENERGY PREDICTED BY IDOCK:   -0.96 KCAL/MOL
REMARK 927      BINDING AFFINITY PREDICTED BY RF-SCORE:    0.00 PKD
ROOT
HETATM    1 NA   UNL     1      -9.272  16.972  68.955  1.00  0.00    -0.225 Na 
HETATM    2 NA   UNL     2     -13.614  14.471  69.883  1.00  0.00    -0.559 Na 
HETATM    3  O   UNL     3     -10.250  13.705  69.444  1.00  0.00    -0.413 OA 
HETATM    4  C   UNL     3     -10.289  14.242  68.120  1.00  0.00    -0.233 C  
HETATM    5  H   UNL     3      -9.450  13.201  69.543  1.00  0.00     0.000 HD 
ENDROOT
BRANCH   4   6
HETATM    6  C   UNL     3     -11.578  15.054  67.960  1.00  0.00    -0.338 C  
HETATM    7  O   UNL     3     -11.919  15.747  69.202  1.00  0.00    -0.454 OA 
HETATM    8  H   UNL     3     -12.719  16.251  69.103  1.00  0.00     0.000 HD 
BRANCH   6   9
HETATM    9  C   UNL     3     -11.483  16.067  66.862  1.00  0.00     0.333 C  
BRANCH   9  10
HETATM   10  O   UNL     3     -10.174  16.613  66.832  1.00  0.00    -0.280 OA 
HETATM   11  P   UNL     3     -10.260  18.277  66.363  1.00  0.00    -0.361 P  
HETATM   12  O   UNL     3     -10.338  19.765  65.944  1.00  0.00    -0.486 OA 
HETATM   13  O   UNL     3     -10.909  17.729  65.072  1.00  0.00    -0.774 OA 
HETATM   14  O   UNL     3     -11.076  18.433  67.678  1.00  0.00    -0.243 OA 
ENDBRANCH   9  10
ENDBRANCH   6   9
ENDBRANCH   4   6
TORSDOF 3
ENDMDL
MODEL       93
REMARK 921   NORMALIZED FREE ENERGY PREDICTED BY IDOCK:   -3.57 KCAL/MOL
REMARK 922        TOTAL FREE ENERGY PREDICTED BY IDOCK:   -4.96 KCAL/MOL
REMARK 923 INTER-LIGAND FREE ENERGY PREDICTED BY IDOCK:   -4.54 KCAL/MOL
REMARK 924 INTRA-LIGAND FREE ENERGY PREDICTED BY IDOCK:   -0.42 KCAL/MOL
REMARK 927      BINDING AFFINITY PREDICTED BY RF-SCORE:    0.00 PKD
ROOT
HETATM    1 NA   UNL     1     -14.235   8.926  73.531  1.00  0.00    -0.723 Na 
HETATM    2 NA   UNL     2     -12.549   6.574  69.337  1.00  0.00    -0.612 Na 
HETATM    3  O   UNL     3     -11.667   6.788  72.694  1.00  0.00    -0.452 OA 
HETATM    4  C   UNL     3     -11.459   8.196  72.562  1.00  0.00    -0.404 C  
HETATM    5  H   UNL     3     -11.283   6.501  73.515  1.00  0.00     0.000 HD 
ENDROOT
BRANCH   4   6
HETATM    6  C   UNL     3     -12.077   8.659  71.239  1.00  0.00    -0.290 C  
HETATM    7  O   UNL     3     -13.448   9.126  71.436  1.00  0.00    -0.418 OA 
HETATM    8  H   UNL     3     -13.832   9.414  70.615  1.00  0.00     0.000 HD 
BRANCH   6   9
HETATM    9  C   UNL     3     -11.290   9.756  70.593  1.00  0.00    -0.330 C  
BRANCH   9  10
HETATM   10  O   UNL     3     -11.007   9.409  69.247  1.00  0.00    -0.208 OA 
HETATM   11  P   UNL     3     -10.853  10.852  68.305  1.00  0.00    -0.273 P  
HETATM   12  O   UNL     3     -10.716  12.144  67.463  1.00  0.00    -0.221 OA 
HETATM   13  O   UNL     3     -12.307  11.125  68.753  1.00  0.00    -0.539 OA 
HETATM   14  O   UNL     3      -9.647  11.138  69.244  1.00  0.00    -0.074 OA 
ENDBRANCH   9  10
ENDBRANCH   6   9
ENDBRANCH   4   6
TORSDOF 3
ENDMDL
MODEL       94
REMARK 921   NORMALIZED FREE ENERGY PREDICTED BY IDOCK:   -3.54 KCAL/MOL
REMARK 922        TOTAL FREE ENERGY PREDICTED BY IDOCK:   -4.93 KCAL/MOL
REMARK 923 INTER-LIGAND FREE ENERGY PREDICTED BY IDOCK:   -4.52 KCAL/MOL
REMARK 924 INTRA-LIGAND FREE ENERGY PREDICTED BY IDOCK:   -0.40 KCAL/MOL
REMARK 927      BINDING AFFINITY PREDICTED BY RF-SCORE:    0.00 PKD
ROOT
HETATM    1 NA   UNL     1      -9.282  13.578  65.518  1.00  0.00    -0.412 Na 
HETATM    2 NA   UNL     2     -12.263  10.668  68.452  1.00  0.00    -0.330 Na 
HETATM    3  O   UNL     3     -12.562  12.524  65.526  1.00  0.00    -0.642 OA 
HETATM    4  C   UNL     3     -12.222  13.718  66.235  1.00  0.00    -0.447 C  
HETATM    5  H   UNL     3     -12.920  12.766  64.680  1.00  0.00     0.000 HD 
ENDROOT
BRANCH   4   6
HETATM    6  C   UNL     3     -11.646  13.329  67.600  1.00  0.00    -0.346 C  
HETATM    7  O   UNL     3     -10.245  12.926  67.482  1.00  0.00    -0.211 OA 
HETATM    8  H   UNL     3      -9.886  12.684  68.328  1.00  0.00     0.000 HD 
BRANCH   6   9
HETATM    9  C   UNL     3     -11.737  14.441  68.598  1.00  0.00    -0.332 C  
BRANCH   9  10
HETATM   10  O   UNL     3     -11.719  13.904  69.911  1.00  0.00    -0.280 OA 
HETATM   11  P   UNL     3     -11.839  15.194  71.058  1.00  0.00    -0.407 P  
HETATM   12  O   UNL     3     -11.947  16.349  72.083  1.00  0.00    -0.509 OA 
HETATM   13  O   UNL     3     -10.535  15.703  70.403  1.00  0.00    -0.315 OA 
HETATM   14  O   UNL     3     -13.226  15.431  70.395  1.00  0.00    -0.292 OA 
ENDBRANCH   9  10
ENDBRANCH   6   9
ENDBRANCH   4   6
TORSDOF 3
ENDMDL
MODEL       95
REMARK 921   NORMALIZED FREE ENERGY PREDICTED BY IDOCK:   -3.53 KCAL/MOL
REMARK 922        TOTAL FREE ENERGY PREDICTED BY IDOCK:   -4.91 KCAL/MOL
REMARK 923 INTER-LIGAND FREE ENERGY PREDICTED BY IDOCK:   -4.37 KCAL/MOL
REMARK 924 INTRA-LIGAND FREE ENERGY PREDICTED BY IDOCK:   -0.54 KCAL/MOL
REMARK 927      BINDING AFFINITY PREDICTED BY RF-SCORE:    0.00 PKD
ROOT
HETATM    1 NA   UNL     1     -10.919  15.639  65.721  1.00  0.00    -0.296 Na 
HETATM    2 NA   UNL     2     -10.718  18.284  70.072  1.00  0.00    -0.518 Na 
HETATM    3  O   UNL     3      -8.617  16.226  68.215  1.00  0.00    -0.185 OA 
HETATM    4  C   UNL     3      -9.530  15.137  68.367  1.00  0.00    -0.208 C  
HETATM    5  H   UNL     3      -7.789  15.884  67.897  1.00  0.00     0.000 HD 
ENDROOT
BRANCH   4   6
HETATM    6  C   UNL     3     -10.865  15.687  68.880  1.00  0.00    -0.252 C  
HETATM    7  O   UNL     3     -11.986  15.141  68.115  1.00  0.00    -0.505 OA 
HETATM    8  H   UNL     3     -12.814  15.482  68.433  1.00  0.00     0.000 HD 
BRANCH   6   9
HETATM    9  C   UNL     3     -11.088  15.385  70.329  1.00  0.00    -0.311 C  
BRANCH   9  10
HETATM   10  O   UNL     3     -12.427  15.696  70.678  1.00  0.00    -0.416 OA 
HETATM   11  P   UNL     3     -13.022  14.502  71.781  1.00  0.00    -0.393 P  
HETATM   12  O   UNL     3     -13.553  13.434  72.768  1.00  0.00    -0.656 OA 
HETATM   13  O   UNL     3     -12.723  13.507  70.638  1.00  0.00    -0.282 OA 
HETATM   14  O   UNL     3     -11.894  15.037  72.708  1.00  0.00    -0.352 OA 
ENDBRANCH   9  10
ENDBRANCH   6   9
ENDBRANCH   4   6
TORSDOF 3
ENDMDL
MODEL       96
REMARK 921   NORMALIZED FREE ENERGY PREDICTED BY IDOCK:   -3.51 KCAL/MOL
REMARK 922        TOTAL FREE ENERGY PREDICTED BY IDOCK:   -4.90 KCAL/MOL
REMARK 923 INTER-LIGAND FREE ENERGY PREDICTED BY IDOCK:   -4.25 KCAL/MOL
REMARK 924 INTRA-LIGAND FREE ENERGY PREDICTED BY IDOCK:   -0.65 KCAL/MOL
REMARK 927      BINDING AFFINITY PREDICTED BY RF-SCORE:    0.00 PKD
ROOT
HETATM    1 NA   UNL     1     -12.570  11.262  68.480  1.00  0.00    -0.300 Na 
HETATM    2 NA   UNL     2      -9.320  14.783  70.215  1.00  0.00    -0.409 Na 
HETATM    3  O   UNL     3     -12.469  14.696  68.741  1.00  0.00    -0.579 OA 
HETATM    4  C   UNL     3     -11.918  14.080  67.574  1.00  0.00    -0.395 C  
HETATM    5  H   UNL     3     -13.345  15.003  68.537  1.00  0.00     0.000 HD 
ENDROOT
BRANCH   4   6
HETATM    6  C   UNL     3     -10.506  13.586  67.903  1.00  0.00    -0.250 C  
HETATM    7  O   UNL     3     -10.515  12.721  69.083  1.00  0.00    -0.430 OA 
HETATM    8  H   UNL     3      -9.639  12.414  69.287  1.00  0.00     0.000 HD 
BRANCH   6   9
HETATM    9  C   UNL     3      -9.885  12.833  66.768  1.00  0.00    -0.242 C  
BRANCH   9  10
HETATM   10  O   UNL     3     -10.881  12.073  66.101  1.00  0.00    -0.264 OA 
HETATM   11  P   UNL     3     -10.407  11.831  64.454  1.00  0.00    -0.361 P  
HETATM   12  O   UNL     3      -9.982  11.615  62.981  1.00  0.00    -0.383 OA 
HETATM   13  O   UNL     3     -10.418  13.375  64.377  1.00  0.00    -0.426 OA 
HETATM   14  O   UNL     3      -9.214  11.059  65.085  1.00  0.00    -0.208 OA 
ENDBRANCH   9  10
ENDBRANCH   6   9
ENDBRANCH   4   6
TORSDOF 3
ENDMDL
MODEL       97
REMARK 921   NORMALIZED FREE ENERGY PREDICTED BY IDOCK:   -3.51 KCAL/MOL
REMARK 922        TOTAL FREE ENERGY PREDICTED BY IDOCK:   -4.90 KCAL/MOL
REMARK 923 INTER-LIGAND FREE ENERGY PREDICTED BY IDOCK:   -4.47 KCAL/MOL
REMARK 924 INTRA-LIGAND FREE ENERGY PREDICTED BY IDOCK:   -0.43 KCAL/MOL
REMARK 927      BINDING AFFINITY PREDICTED BY RF-SCORE:    0.00 PKD
ROOT
HETATM    1 NA   UNL     1     -11.205  16.723  65.495  1.00  0.00    -0.290 Na 
HETATM    2 NA   UNL     2     -10.718  11.986  67.310  1.00  0.00    -0.201 Na 
HETATM    3  O   UNL     3     -10.102  13.673  64.332  1.00  0.00    -0.652 OA 
HETATM    4  C   UNL     3     -11.490  13.992  64.212  1.00  0.00    -0.297 C  
HETATM    5  H   UNL     3      -9.679  13.845  63.499  1.00  0.00     0.000 HD 
ENDROOT
BRANCH   4   6
HETATM    6  C   UNL     3     -12.173  13.715  65.555  1.00  0.00    -0.443 C  
HETATM    7  O   UNL     3     -12.293  12.277  65.795  1.00  0.00    -0.622 OA 
HETATM    8  H   UNL     3     -12.716  12.104  66.628  1.00  0.00     0.000 HD 
BRANCH   6   9
HETATM    9  C   UNL     3     -11.439  14.328  66.706  1.00  0.00    -0.367 C  
BRANCH   9  10
HETATM   10  O   UNL     3     -12.132  14.051  67.913  1.00  0.00    -0.363 OA 
HETATM   11  P   UNL     3     -11.298  14.792  69.235  1.00  0.00    -0.330 P  
HETATM   12  O   UNL     3     -10.550  15.456  70.417  1.00  0.00    -0.306 OA 
HETATM   13  O   UNL     3     -10.111  13.906  68.793  1.00  0.00    -0.221 OA 
HETATM   14  O   UNL     3     -11.642  16.115  68.494  1.00  0.00    -0.377 OA 
ENDBRANCH   9  10
ENDBRANCH   6   9
ENDBRANCH   4   6
TORSDOF 3
ENDMDL
MODEL       98
REMARK 921   NORMALIZED FREE ENERGY PREDICTED BY IDOCK:   -3.51 KCAL/MOL
REMARK 922        TOTAL FREE ENERGY PREDICTED BY IDOCK:   -4.90 KCAL/MOL
REMARK 923 INTER-LIGAND FREE ENERGY PREDICTED BY IDOCK:   -4.33 KCAL/MOL
REMARK 924 INTRA-LIGAND FREE ENERGY PREDICTED BY IDOCK:   -0.57 KCAL/MOL
REMARK 927      BINDING AFFINITY PREDICTED BY RF-SCORE:    0.00 PKD
ROOT
HETATM    1 NA   UNL     1     -11.378  13.782  68.361  1.00  0.00    -0.223 Na 
HETATM    2 NA   UNL     2     -12.110  14.499  63.369  1.00  0.00    -0.603 Na 
HETATM    3  O   UNL     3      -9.649  13.181  65.442  1.00  0.00    -0.487 OA 
HETATM    4  C   UNL     3      -9.494  14.449  66.083  1.00  0.00    -0.242 C  
HETATM    5  H   UNL     3      -8.912  12.630  65.680  1.00  0.00     0.000 HD 
ENDROOT
BRANCH   4   6
HETATM    6  C   UNL     3     -10.681  15.339  65.700  1.00  0.00    -0.365 C  
HETATM    7  O   UNL     3     -11.946  14.623  65.862  1.00  0.00    -0.332 OA 
HETATM    8  H   UNL     3     -12.683  15.174  65.625  1.00  0.00     0.000 HD 
BRANCH   6   9
HETATM    9  C   UNL     3     -10.739  16.595  66.512  1.00  0.00    -0.127 C  
BRANCH   9  10
HETATM   10  O   UNL     3      -9.462  17.213  66.524  1.00  0.00    -0.252 OA 
HETATM   11  P   UNL     3      -9.653  18.914  66.774  1.00  0.00    -0.356 P  
HETATM   12  O   UNL     3      -9.824  20.437  66.998  1.00  0.00    -0.439 OA 
HETATM   13  O   UNL     3     -10.486  18.865  65.473  1.00  0.00    -0.550 OA 
HETATM   14  O   UNL     3     -10.254  18.478  68.140  1.00  0.00    -0.351 OA 
ENDBRANCH   9  10
ENDBRANCH   6   9
ENDBRANCH   4   6
TORSDOF 3
ENDMDL
MODEL       99
REMARK 921   NORMALIZED FREE ENERGY PREDICTED BY IDOCK:   -3.51 KCAL/MOL
REMARK 922        TOTAL FREE ENERGY PREDICTED BY IDOCK:   -4.90 KCAL/MOL
REMARK 923 INTER-LIGAND FREE ENERGY PREDICTED BY IDOCK:   -4.14 KCAL/MOL
REMARK 924 INTRA-LIGAND FREE ENERGY PREDICTED BY IDOCK:   -0.75 KCAL/MOL
REMARK 927      BINDING AFFINITY PREDICTED BY RF-SCORE:    0.00 PKD
ROOT
HETATM    1 NA   UNL     1      -9.947   8.123  72.668  1.00  0.00    -0.165 Na 
HETATM    2 NA   UNL     2     -13.910   9.878  69.989  1.00  0.00    -0.632 Na 
HETATM    3  O   UNL     3     -11.924   7.025  70.070  1.00  0.00    -0.595 OA 
HETATM    4  C   UNL     3     -10.767   7.808  69.768  1.00  0.00    -0.236 C  
HETATM    5  H   UNL     3     -11.710   6.107  69.944  1.00  0.00     0.000 HD 
ENDROOT
BRANCH   4   6
HETATM    6  C   UNL     3     -11.111   9.287  69.970  1.00  0.00    -0.205 C  
HETATM    7  O   UNL     3     -10.104   9.952  70.796  1.00  0.00    -0.351 OA 
HETATM    8  H   UNL     3     -10.317  10.869  70.922  1.00  0.00     0.000 HD 
BRANCH   6   9
HETATM    9  C   UNL     3     -11.228  10.028  68.676  1.00  0.00    -0.121 C  
BRANCH   9  10
HETATM   10  O   UNL     3     -12.145  11.101  68.824  1.00  0.00    -0.522 OA 
HETATM   11  P   UNL     3     -11.585  12.462  67.913  1.00  0.00    -0.337 P  
HETATM   12  O   UNL     3     -11.083  13.678  67.098  1.00  0.00    -0.287 OA 
HETATM   13  O   UNL     3     -10.336  12.369  68.819  1.00  0.00    -0.204 OA 
HETATM   14  O   UNL     3     -11.775  11.514  66.695  1.00  0.00    -0.486 OA 
ENDBRANCH   9  10
ENDBRANCH   6   9
ENDBRANCH   4   6
TORSDOF 3
ENDMDL
MODEL      100
REMARK 921   NORMALIZED FREE ENERGY PREDICTED BY IDOCK:   -3.51 KCAL/MOL
REMARK 922        TOTAL FREE ENERGY PREDICTED BY IDOCK:   -4.89 KCAL/MOL
REMARK 923 INTER-LIGAND FREE ENERGY PREDICTED BY IDOCK:   -4.14 KCAL/MOL
REMARK 924 INTRA-LIGAND FREE ENERGY PREDICTED BY IDOCK:   -0.75 KCAL/MOL
REMARK 927      BINDING AFFINITY PREDICTED BY RF-SCORE:    0.00 PKD
ROOT
HETATM    1 NA   UNL     1     -12.923  14.831  62.572  1.00  0.00    -0.312 Na 
HETATM    2 NA   UNL     2      -9.092  11.471  62.549  1.00  0.00    -0.255 Na 
HETATM    3  O   UNL     3     -12.550  11.423  62.914  1.00  0.00    -0.970 OA 
HETATM    4  C   UNL     3     -12.450  12.245  64.079  1.00  0.00    -0.458 C  
HETATM    5  H   UNL     3     -13.426  11.056  62.877  1.00  0.00     0.000 HD 
ENDROOT
BRANCH   4   6
HETATM    6  C   UNL     3     -11.038  12.837  64.140  1.00  0.00    -0.389 C  
HETATM    7  O   UNL     3     -11.084  14.286  64.330  1.00  0.00    -0.599 OA 
HETATM    8  H   UNL     3     -10.209  14.654  64.367  1.00  0.00     0.000 HD 
BRANCH   6   9
HETATM    9  C   UNL     3     -10.215  12.241  65.239  1.00  0.00    -0.278 C  
BRANCH   9  10
HETATM   10  O   UNL     3     -10.726  10.960  65.574  1.00  0.00    -0.211 OA 
HETATM   11  P   UNL     3      -9.425   9.944  66.092  1.00  0.00    -0.236 P  
HETATM   12  O   UNL     3      -8.261   9.035  66.556  1.00  0.00    -0.112 OA 
HETATM   13  O   UNL     3      -8.848  10.211  64.684  1.00  0.00    -0.166 OA 
HETATM   14  O   UNL     3      -9.287  10.986  67.238  1.00  0.00    -0.155 OA 
ENDBRANCH   9  10
ENDBRANCH   6   9
ENDBRANCH   4   6
TORSDOF 3
ENDMDL
MODEL      101
REMARK 921   NORMALIZED FREE ENERGY PREDICTED BY IDOCK:   -3.50 KCAL/MOL
REMARK 922        TOTAL FREE ENERGY PREDICTED BY IDOCK:   -4.88 KCAL/MOL
REMARK 923 INTER-LIGAND FREE ENERGY PREDICTED BY IDOCK:   -4.43 KCAL/MOL
REMARK 924 INTRA-LIGAND FREE ENERGY PREDICTED BY IDOCK:   -0.45 KCAL/MOL
REMARK 927      BINDING AFFINITY PREDICTED BY RF-SCORE:    0.00 PKD
ROOT
HETATM    1 NA   UNL     1     -11.452   9.403  67.461  1.00  0.00    -0.445 Na 
HETATM    2 NA   UNL     2     -13.844  13.067  64.850  1.00  0.00    -0.706 Na 
HETATM    3  O   UNL     3     -10.717  11.546  64.866  1.00  0.00    -0.287 OA 
HETATM    4  C   UNL     3     -10.495  11.990  66.207  1.00  0.00    -0.238 C  
HETATM    5  H   UNL     3      -9.889  11.250  64.505  1.00  0.00     0.000 HD 
ENDROOT
BRANCH   4   6
HETATM    6  C   UNL     3     -11.829  12.468  66.790  1.00  0.00    -0.346 C  
HETATM    7  O   UNL     3     -12.243  11.625  67.912  1.00  0.00    -0.560 OA 
HETATM    8  H   UNL     3     -13.070  11.921  68.274  1.00  0.00     0.000 HD 
BRANCH   6   9
HETATM    9  C   UNL     3     -11.771  13.888  67.260  1.00  0.00    -0.386 C  
BRANCH   9  10
HETATM   10  O   UNL     3     -10.637  14.066  68.095  1.00  0.00    -0.238 OA 
HETATM   11  P   UNL     3     -10.616  15.691  68.690  1.00  0.00    -0.270 P  
HETATM   12  O   UNL     3     -10.599  17.144  69.223  1.00  0.00    -0.326 OA 
HETATM   13  O   UNL     3     -10.557  16.083  67.197  1.00  0.00    -0.306 OA 
HETATM   14  O   UNL     3     -11.954  15.282  69.370  1.00  0.00    -0.321 OA 
ENDBRANCH   9  10
ENDBRANCH   6   9
ENDBRANCH   4   6
TORSDOF 3
ENDMDL
MODEL      102
REMARK 921   NORMALIZED FREE ENERGY PREDICTED BY IDOCK:   -3.49 KCAL/MOL
REMARK 922        TOTAL FREE ENERGY PREDICTED BY IDOCK:   -4.87 KCAL/MOL
REMARK 923 INTER-LIGAND FREE ENERGY PREDICTED BY IDOCK:   -4.04 KCAL/MOL
REMARK 924 INTRA-LIGAND FREE ENERGY PREDICTED BY IDOCK:   -0.82 KCAL/MOL
REMARK 927      BINDING AFFINITY PREDICTED BY RF-SCORE:    0.00 PKD
ROOT
HETATM    1 NA   UNL     1     -11.395  18.400  67.743  1.00  0.00    -0.386 Na 
HETATM    2 NA   UNL     2     -10.681  15.485  63.625  1.00  0.00    -0.497 Na 
HETATM    3  O   UNL     3     -11.354  15.035  67.007  1.00  0.00    -0.346 OA 
HETATM    4  C   UNL     3     -10.124  15.678  67.349  1.00  0.00    -0.251 C  
HETATM    5  H   UNL     3     -11.688  14.591  67.778  1.00  0.00     0.000 HD 
ENDROOT
BRANCH   4   6
HETATM    6  C   UNL     3      -9.584  16.393  66.106  1.00  0.00    -0.325 C  
HETATM    7  O   UNL     3     -10.652  17.109  65.409  1.00  0.00    -0.618 OA 
HETATM    8  H   UNL     3     -10.318  17.553  64.637  1.00  0.00     0.000 HD 
BRANCH   6   9
HETATM    9  C   UNL     3      -8.496  17.366  66.434  1.00  0.00    -0.257 C  
BRANCH   9  10
HETATM   10  O   UNL     3      -9.044  18.475  67.129  1.00  0.00    -0.269 OA 
HETATM   11  P   UNL     3      -7.782  19.296  67.981  1.00  0.00    -0.308 P  
HETATM   12  O   UNL     3      -6.651  20.030  68.743  1.00  0.00    -0.303 OA 
HETATM   13  O   UNL     3      -7.585  17.942  68.700  1.00  0.00    -0.272 OA 
HETATM   14  O   UNL     3      -7.211  19.549  66.557  1.00  0.00    -0.213 OA 
ENDBRANCH   9  10
ENDBRANCH   6   9
ENDBRANCH   4   6
TORSDOF 3
ENDMDL
MODEL      103
REMARK 921   NORMALIZED FREE ENERGY PREDICTED BY IDOCK:   -3.49 KCAL/MOL
REMARK 922        TOTAL FREE ENERGY PREDICTED BY IDOCK:   -4.87 KCAL/MOL
REMARK 923 INTER-LIGAND FREE ENERGY PREDICTED BY IDOCK:   -4.52 KCAL/MOL
REMARK 924 INTRA-LIGAND FREE ENERGY PREDICTED BY IDOCK:   -0.34 KCAL/MOL
REMARK 927      BINDING AFFINITY PREDICTED BY RF-SCORE:    0.00 PKD
ROOT
HETATM    1 NA   UNL     1      -8.919  13.267  65.466  1.00  0.00    -0.428 Na 
HETATM    2 NA   UNL     2     -13.148  14.723  67.907  1.00  0.00    -0.450 Na 
HETATM    3  O   UNL     3     -11.833  11.796  66.566  1.00  0.00    -0.550 OA 
HETATM    4  C   UNL     3     -11.812  12.388  65.265  1.00  0.00    -0.399 C  
HETATM    5  H   UNL     3     -11.708  10.859  66.474  1.00  0.00     0.000 HD 
ENDROOT
BRANCH   4   6
HETATM    6  C   UNL     3     -12.015  13.899  65.412  1.00  0.00    -0.381 C  
HETATM    7  O   UNL     3     -13.415  14.216  65.692  1.00  0.00    -0.725 OA 
HETATM    8  H   UNL     3     -13.542  15.153  65.783  1.00  0.00     0.000 HD 
BRANCH   6   9
HETATM    9  C   UNL     3     -11.171  14.486  66.500  1.00  0.00    -0.344 C  
BRANCH   9  10
HETATM   10  O   UNL     3     -10.347  15.509  65.963  1.00  0.00    -0.289 OA 
HETATM   11  P   UNL     3      -9.525  16.318  67.253  1.00  0.00    -0.233 P  
HETATM   12  O   UNL     3      -8.791  17.041  68.408  1.00  0.00    -0.230 OA 
HETATM   13  O   UNL     3     -10.948  16.645  67.759  1.00  0.00    -0.320 OA 
HETATM   14  O   UNL     3      -8.879  14.924  67.493  1.00  0.00    -0.173 OA 
ENDBRANCH   9  10
ENDBRANCH   6   9
ENDBRANCH   4   6
TORSDOF 3
ENDMDL
MODEL      104
REMARK 921   NORMALIZED FREE ENERGY PREDICTED BY IDOCK:   -3.49 KCAL/MOL
REMARK 922        TOTAL FREE ENERGY PREDICTED BY IDOCK:   -4.87 KCAL/MOL
REMARK 923 INTER-LIGAND FREE ENERGY PREDICTED BY IDOCK:   -4.51 KCAL/MOL
REMARK 924 INTRA-LIGAND FREE ENERGY PREDICTED BY IDOCK:   -0.35 KCAL/MOL
REMARK 927      BINDING AFFINITY PREDICTED BY RF-SCORE:    0.00 PKD
ROOT
HETATM    1 NA   UNL     1      -9.372  10.250  70.843  1.00  0.00    -0.297 Na 
HETATM    2 NA   UNL     2     -13.864   7.875  70.456  1.00  0.00    -0.551 Na 
HETATM    3  O   UNL     3     -12.196  10.491  68.884  1.00  0.00    -0.753 OA 
HETATM    4  C   UNL     3     -12.150  11.217  70.115  1.00  0.00    -0.362 C  
HETATM    5  H   UNL     3     -11.976  11.085  68.175  1.00  0.00     0.000 HD 
ENDROOT
BRANCH   4   6
HETATM    6  C   UNL     3     -12.505  10.261  71.259  1.00  0.00    -0.408 C  
HETATM    7  O   UNL     3     -13.780   9.591  71.006  1.00  0.00    -0.538 OA 
HETATM    8  H   UNL     3     -14.000   8.998  71.715  1.00  0.00     0.000 HD 
BRANCH   6   9
HETATM    9  C   UNL     3     -11.455   9.218  71.478  1.00  0.00    -0.384 C  
BRANCH   9  10
HETATM   10  O   UNL     3     -11.394   8.361  70.348  1.00  0.00    -0.250 OA 
HETATM   11  P   UNL     3     -10.840   6.799  70.845  1.00  0.00    -0.276 P  
HETATM   12  O   UNL     3     -10.345   5.401  71.291  1.00  0.00    -0.213 OA 
HETATM   13  O   UNL     3      -9.580   7.557  71.320  1.00  0.00    -0.157 OA 
HETATM   14  O   UNL     3     -12.147   6.787  71.688  1.00  0.00    -0.326 OA 
ENDBRANCH   9  10
ENDBRANCH   6   9
ENDBRANCH   4   6
TORSDOF 3
ENDMDL
MODEL      105
REMARK 921   NORMALIZED FREE ENERGY PREDICTED BY IDOCK:   -3.48 KCAL/MOL
REMARK 922        TOTAL FREE ENERGY PREDICTED BY IDOCK:   -4.86 KCAL/MOL
REMARK 923 INTER-LIGAND FREE ENERGY PREDICTED BY IDOCK:   -4.39 KCAL/MOL
REMARK 924 INTRA-LIGAND FREE ENERGY PREDICTED BY IDOCK:   -0.47 KCAL/MOL
REMARK 927      BINDING AFFINITY PREDICTED BY RF-SCORE:    0.00 PKD
ROOT
HETATM    1 NA   UNL     1     -14.220   8.924  73.581  1.00  0.00    -0.776 Na 
HETATM    2 NA   UNL     2     -12.640   6.627  69.315  1.00  0.00    -0.606 Na 
HETATM    3  O   UNL     3     -11.711   6.748  72.664  1.00  0.00    -0.452 OA 
HETATM    4  C   UNL     3     -11.473   8.153  72.559  1.00  0.00    -0.404 C  
HETATM    5  H   UNL     3     -11.323   6.434  73.473  1.00  0.00     0.000 HD 
ENDROOT
BRANCH   4   6
HETATM    6  C   UNL     3     -12.097   8.658  71.254  1.00  0.00    -0.290 C  
HETATM    7  O   UNL     3     -13.556   8.558  71.297  1.00  0.00    -0.529 OA 
HETATM    8  H   UNL     3     -13.943   8.872  70.488  1.00  0.00     0.000 HD 
BRANCH   6   9
HETATM    9  C   UNL     3     -11.728  10.078  70.956  1.00  0.00    -0.392 C  
BRANCH   9  10
HETATM   10  O   UNL     3     -12.802  10.717  70.285  1.00  0.00    -0.299 OA 
HETATM   11  P   UNL     3     -12.661  12.430  70.483  1.00  0.00     0.098 P  
HETATM   12  O   UNL     3     -12.534  13.963  70.660  1.00  0.00    -0.335 OA 
HETATM   13  O   UNL     3     -12.758  12.117  71.993  1.00  0.00    -0.185 OA 
HETATM   14  O   UNL     3     -11.331  12.244  69.699  1.00  0.00    -0.225 OA 
ENDBRANCH   9  10
ENDBRANCH   6   9
ENDBRANCH   4   6
TORSDOF 3
ENDMDL
MODEL      106
REMARK 921   NORMALIZED FREE ENERGY PREDICTED BY IDOCK:   -3.48 KCAL/MOL
REMARK 922        TOTAL FREE ENERGY PREDICTED BY IDOCK:   -4.86 KCAL/MOL
REMARK 923 INTER-LIGAND FREE ENERGY PREDICTED BY IDOCK:   -4.16 KCAL/MOL
REMARK 924 INTRA-LIGAND FREE ENERGY PREDICTED BY IDOCK:   -0.70 KCAL/MOL
REMARK 927      BINDING AFFINITY PREDICTED BY RF-SCORE:    0.00 PKD
ROOT
HETATM    1 NA   UNL     1      -9.611  12.430  63.710  1.00  0.00    -0.344 Na 
HETATM    2 NA   UNL     2      -7.420  10.865  68.036  1.00  0.00    -0.078 Na 
HETATM    3  O   UNL     3     -10.474  10.483  66.418  1.00  0.00    -0.235 OA 
HETATM    4  C   UNL     3     -10.700  11.893  66.486  1.00  0.00    -0.258 C  
HETATM    5  H   UNL     3     -11.292  10.057  66.187  1.00  0.00     0.000 HD 
ENDROOT
BRANCH   4   6
HETATM    6  C   UNL     3      -9.383  12.581  66.859  1.00  0.00    -0.219 C  
HETATM    7  O   UNL     3      -8.272  12.051  66.067  1.00  0.00    -0.368 OA 
HETATM    8  H   UNL     3      -7.455  12.478  66.298  1.00  0.00     0.000 HD 
BRANCH   6   9
HETATM    9  C   UNL     3      -9.438  14.064  66.664  1.00  0.00    -0.287 C  
BRANCH   9  10
HETATM   10  O   UNL     3     -10.790  14.492  66.656  1.00  0.00    -0.300 OA 
HETATM   11  P   UNL     3     -11.006  15.680  65.417  1.00  0.00    -0.254 P  
HETATM   12  O   UNL     3     -11.198  16.743  64.307  1.00  0.00    -1.163 OA 
HETATM   13  O   UNL     3      -9.938  16.478  66.198  1.00  0.00    -0.306 OA 
HETATM   14  O   UNL     3     -10.613  14.516  64.463  1.00  0.00    -0.350 OA 
ENDBRANCH   9  10
ENDBRANCH   6   9
ENDBRANCH   4   6
TORSDOF 3
ENDMDL
MODEL      107
REMARK 921   NORMALIZED FREE ENERGY PREDICTED BY IDOCK:   -3.47 KCAL/MOL
REMARK 922        TOTAL FREE ENERGY PREDICTED BY IDOCK:   -4.85 KCAL/MOL
REMARK 923 INTER-LIGAND FREE ENERGY PREDICTED BY IDOCK:   -4.38 KCAL/MOL
REMARK 924 INTRA-LIGAND FREE ENERGY PREDICTED BY IDOCK:   -0.47 KCAL/MOL
REMARK 927      BINDING AFFINITY PREDICTED BY RF-SCORE:    0.00 PKD
ROOT
HETATM    1 NA   UNL     1      -9.860  13.201  64.218  1.00  0.00    -0.366 Na 
HETATM    2 NA   UNL     2      -9.824  13.089  69.312  1.00  0.00    -0.367 Na 
HETATM    3  O   UNL     3     -12.150  13.548  66.768  1.00  0.00    -0.389 OA 
HETATM    4  C   UNL     3     -11.445  14.707  66.316  1.00  0.00    -0.351 C  
HETATM    5  H   UNL     3     -13.007  13.537  66.357  1.00  0.00     0.000 HD 
ENDROOT
BRANCH   4   6
HETATM    6  C   UNL     3     -10.063  14.726  66.978  1.00  0.00    -0.245 C  
HETATM    7  O   UNL     3      -9.023  14.318  66.034  1.00  0.00    -0.476 OA 
HETATM    8  H   UNL     3      -8.166  14.330  66.444  1.00  0.00     0.000 HD 
BRANCH   6   9
HETATM    9  C   UNL     3      -9.708  16.075  67.520  1.00  0.00    -0.228 C  
BRANCH   9  10
HETATM   10  O   UNL     3     -10.856  16.910  67.507  1.00  0.00    -0.304 OA 
HETATM   11  P   UNL     3     -10.374  18.538  67.176  1.00  0.00    -0.413 P  
HETATM   12  O   UNL     3      -9.942  19.995  66.881  1.00  0.00    -0.393 OA 
HETATM   13  O   UNL     3      -9.527  18.394  68.461  1.00  0.00    -0.311 OA 
HETATM   14  O   UNL     3      -9.898  17.947  65.820  1.00  0.00    -0.540 OA 
ENDBRANCH   9  10
ENDBRANCH   6   9
ENDBRANCH   4   6
TORSDOF 3
ENDMDL
MODEL      108
REMARK 921   NORMALIZED FREE ENERGY PREDICTED BY IDOCK:   -3.47 KCAL/MOL
REMARK 922        TOTAL FREE ENERGY PREDICTED BY IDOCK:   -4.84 KCAL/MOL
REMARK 923 INTER-LIGAND FREE ENERGY PREDICTED BY IDOCK:   -4.40 KCAL/MOL
REMARK 924 INTRA-LIGAND FREE ENERGY PREDICTED BY IDOCK:   -0.45 KCAL/MOL
REMARK 927      BINDING AFFINITY PREDICTED BY RF-SCORE:    0.00 PKD
ROOT
HETATM    1 NA   UNL     1      -6.661  19.463  68.048  1.00  0.00    -0.204 Na 
HETATM    2 NA   UNL     2     -11.192  17.778  69.659  1.00  0.00    -0.331 Na 
HETATM    3  O   UNL     3      -8.013  16.479  69.115  1.00  0.00    -0.240 OA 
HETATM    4  C   UNL     3      -8.100  16.815  67.728  1.00  0.00    -0.179 C  
HETATM    5  H   UNL     3      -7.281  15.885  69.237  1.00  0.00     0.000 HD 
ENDROOT
BRANCH   4   6
HETATM    6  C   UNL     3      -9.280  17.772  67.531  1.00  0.00    -0.244 C  
HETATM    7  O   UNL     3      -8.859  18.988  66.837  1.00  0.00    -0.283 OA 
HETATM    8  H   UNL     3      -9.591  19.582  66.714  1.00  0.00     0.000 HD 
BRANCH   6   9
HETATM    9  C   UNL     3     -10.399  17.147  66.757  1.00  0.00    -0.302 C  
BRANCH   9  10
HETATM   10  O   UNL     3      -9.872  16.196  65.845  1.00  0.00    -0.320 OA 
HETATM   11  P   UNL     3     -11.169  15.492  64.942  1.00  0.00    -0.246 P  
HETATM   12  O   UNL     3     -12.330  14.862  64.134  1.00  0.00    -0.668 OA 
HETATM   13  O   UNL     3     -11.695  15.043  66.324  1.00  0.00    -0.246 OA 
HETATM   14  O   UNL     3     -11.378  16.944  64.426  1.00  0.00    -1.133 OA 
ENDBRANCH   9  10
ENDBRANCH   6   9
ENDBRANCH   4   6
TORSDOF 3
ENDMDL
MODEL      109
REMARK 921   NORMALIZED FREE ENERGY PREDICTED BY IDOCK:   -3.47 KCAL/MOL
REMARK 922        TOTAL FREE ENERGY PREDICTED BY IDOCK:   -4.84 KCAL/MOL
REMARK 923 INTER-LIGAND FREE ENERGY PREDICTED BY IDOCK:   -4.04 KCAL/MOL
REMARK 924 INTRA-LIGAND FREE ENERGY PREDICTED BY IDOCK:   -0.80 KCAL/MOL
REMARK 927      BINDING AFFINITY PREDICTED BY RF-SCORE:    0.00 PKD
ROOT
HETATM    1 NA   UNL     1     -11.467   8.351  67.809  1.00  0.00    -0.478 Na 
HETATM    2 NA   UNL     2     -12.583  13.199  68.912  1.00  0.00    -0.290 Na 
HETATM    3  O   UNL     3      -9.764  11.331  68.104  1.00  0.00    -0.172 OA 
HETATM    4  C   UNL     3      -9.948  10.527  69.272  1.00  0.00    -0.213 C  
HETATM    5  H   UNL     3      -8.891  11.172  67.762  1.00  0.00     0.000 HD 
ENDROOT
BRANCH   4   6
HETATM    6  C   UNL     3     -11.353  10.782  69.825  1.00  0.00    -0.300 C  
HETATM    7  O   UNL     3     -12.352  10.739  68.757  1.00  0.00    -0.812 OA 
HETATM    8  H   UNL     3     -13.225  10.898  69.099  1.00  0.00     0.000 HD 
BRANCH   6   9
HETATM    9  C   UNL     3     -11.742   9.793  70.878  1.00  0.00    -0.347 C  
BRANCH   9  10
HETATM   10  O   UNL     3     -10.591   9.090  71.318  1.00  0.00    -0.254 OA 
HETATM   11  P   UNL     3     -11.040   7.481  71.768  1.00  0.00    -0.259 P  
HETATM   12  O   UNL     3     -11.443   6.042  72.170  1.00  0.00    -0.289 OA 
HETATM   13  O   UNL     3     -11.966   8.181  72.788  1.00  0.00    -0.365 OA 
HETATM   14  O   UNL     3     -11.435   7.351  70.269  1.00  0.00    -0.261 OA 
ENDBRANCH   9  10
ENDBRANCH   6   9
ENDBRANCH   4   6
TORSDOF 3
ENDMDL
MODEL      110
REMARK 921   NORMALIZED FREE ENERGY PREDICTED BY IDOCK:   -3.46 KCAL/MOL
REMARK 922        TOTAL FREE ENERGY PREDICTED BY IDOCK:   -4.83 KCAL/MOL
REMARK 923 INTER-LIGAND FREE ENERGY PREDICTED BY IDOCK:   -3.86 KCAL/MOL
REMARK 924 INTRA-LIGAND FREE ENERGY PREDICTED BY IDOCK:   -0.97 KCAL/MOL
REMARK 927      BINDING AFFINITY PREDICTED BY RF-SCORE:    0.00 PKD
ROOT
HETATM    1 NA   UNL     1      -9.347  10.497  70.366  1.00  0.00    -0.349 Na 
HETATM    2 NA   UNL     2     -12.344   6.525  69.263  1.00  0.00    -0.607 Na 
HETATM    3  O   UNL     3      -8.951   7.135  69.723  1.00  0.00    -0.142 OA 
HETATM    4  C   UNL     3      -8.954   8.049  68.623  1.00  0.00    -0.134 C  
HETATM    5  H   UNL     3      -8.050   6.928  69.942  1.00  0.00     0.000 HD 
ENDROOT
BRANCH   4   6
HETATM    6  C   UNL     3     -10.407   8.382  68.270  1.00  0.00    -0.199 C  
HETATM    7  O   UNL     3     -11.179   8.704  69.470  1.00  0.00    -0.442 OA 
HETATM    8  H   UNL     3     -12.080   8.911  69.251  1.00  0.00     0.000 HD 
BRANCH   6   9
HETATM    9  C   UNL     3     -10.514   9.530  67.316  1.00  0.00    -0.262 C  
BRANCH   9  10
HETATM   10  O   UNL     3     -10.091  10.723  67.958  1.00  0.00    -0.169 OA 
HETATM   11  P   UNL     3     -11.140  12.021  67.502  1.00  0.00    -0.318 P  
HETATM   12  O   UNL     3     -12.080  13.181  67.093  1.00  0.00    -0.362 OA 
HETATM   13  O   UNL     3     -10.674  11.699  66.064  1.00  0.00    -0.264 OA 
HETATM   14  O   UNL     3     -12.230  11.168  68.211  1.00  0.00    -0.613 OA 
ENDBRANCH   9  10
ENDBRANCH   6   9
ENDBRANCH   4   6
TORSDOF 3
ENDMDL
MODEL      111
REMARK 921   NORMALIZED FREE ENERGY PREDICTED BY IDOCK:   -3.46 KCAL/MOL
REMARK 922        TOTAL FREE ENERGY PREDICTED BY IDOCK:   -4.83 KCAL/MOL
REMARK 923 INTER-LIGAND FREE ENERGY PREDICTED BY IDOCK:   -4.58 KCAL/MOL
REMARK 924 INTRA-LIGAND FREE ENERGY PREDICTED BY IDOCK:   -0.25 KCAL/MOL
REMARK 927      BINDING AFFINITY PREDICTED BY RF-SCORE:    0.00 PKD
ROOT
HETATM    1 NA   UNL     1     -13.192  14.625  66.888  1.00  0.00    -0.595 Na 
HETATM    2 NA   UNL     2      -9.136  11.814  65.615  1.00  0.00    -0.198 Na 
HETATM    3  O   UNL     3      -9.964  15.186  65.822  1.00  0.00    -0.297 OA 
HETATM    4  C   UNL     3     -10.989  15.006  64.842  1.00  0.00    -0.413 C  
HETATM    5  H   UNL     3      -9.808  16.117  65.930  1.00  0.00     0.000 HD 
ENDROOT
BRANCH   4   6
HETATM    6  C   UNL     3     -11.241  13.505  64.668  1.00  0.00    -0.363 C  
HETATM    7  O   UNL     3     -10.031  12.819  64.215  1.00  0.00    -0.579 OA 
HETATM    8  H   UNL     3     -10.186  11.888  64.107  1.00  0.00     0.000 HD 
BRANCH   6   9
HETATM    9  C   UNL     3     -11.710  12.854  65.932  1.00  0.00    -0.399 C  
BRANCH   9  10
HETATM   10  O   UNL     3     -10.629  12.756  66.845  1.00  0.00    -0.242 OA 
HETATM   11  P   UNL     3     -11.210  12.145  68.356  1.00  0.00    -0.319 P  
HETATM   12  O   UNL     3     -11.732  11.599  69.707  1.00  0.00    -0.306 OA 
HETATM   13  O   UNL     3     -12.116  13.398  68.347  1.00  0.00    -0.343 OA 
HETATM   14  O   UNL     3     -11.564  10.882  67.520  1.00  0.00    -0.526 OA 
ENDBRANCH   9  10
ENDBRANCH   6   9
ENDBRANCH   4   6
TORSDOF 3
ENDMDL
MODEL      112
REMARK 921   NORMALIZED FREE ENERGY PREDICTED BY IDOCK:   -3.45 KCAL/MOL
REMARK 922        TOTAL FREE ENERGY PREDICTED BY IDOCK:   -4.82 KCAL/MOL
REMARK 923 INTER-LIGAND FREE ENERGY PREDICTED BY IDOCK:   -4.26 KCAL/MOL
REMARK 924 INTRA-LIGAND FREE ENERGY PREDICTED BY IDOCK:   -0.57 KCAL/MOL
REMARK 927      BINDING AFFINITY PREDICTED BY RF-SCORE:    0.00 PKD
ROOT
HETATM    1 NA   UNL     1     -11.413  12.720  62.351  1.00  0.00    -0.608 Na 
HETATM    2 NA   UNL     2      -7.148  11.447  64.832  1.00  0.00    -0.341 Na 
HETATM    3  O   UNL     3     -10.319  10.114  64.321  1.00  0.00    -0.417 OA 
HETATM    4  C   UNL     3     -10.912  11.251  64.954  1.00  0.00    -0.173 C  
HETATM    5  H   UNL     3     -10.977   9.432  64.248  1.00  0.00     0.000 HD 
ENDROOT
BRANCH   4   6
HETATM    6  C   UNL     3      -9.852  12.351  65.074  1.00  0.00    -0.114 C  
HETATM    7  O   UNL     3     -10.011  13.350  64.018  1.00  0.00    -0.764 OA 
HETATM    8  H   UNL     3      -9.354  14.033  64.092  1.00  0.00     0.000 HD 
BRANCH   6   9
HETATM    9  C   UNL     3      -9.898  13.047  66.397  1.00  0.00    -0.270 C  
BRANCH   9  10
HETATM   10  O   UNL     3     -11.245  13.157  66.829  1.00  0.00    -0.282 OA 
HETATM   11  P   UNL     3     -11.462  14.666  67.647  1.00  0.00    -0.356 P  
HETATM   12  O   UNL     3     -11.655  16.017  68.379  1.00  0.00    -0.364 OA 
HETATM   13  O   UNL     3     -10.373  14.136  68.608  1.00  0.00    -0.236 OA 
HETATM   14  O   UNL     3     -11.097  15.278  66.265  1.00  0.00    -0.330 OA 
ENDBRANCH   9  10
ENDBRANCH   6   9
ENDBRANCH   4   6
TORSDOF 3
ENDMDL
MODEL      113
REMARK 921   NORMALIZED FREE ENERGY PREDICTED BY IDOCK:   -3.43 KCAL/MOL
REMARK 922        TOTAL FREE ENERGY PREDICTED BY IDOCK:   -4.80 KCAL/MOL
REMARK 923 INTER-LIGAND FREE ENERGY PREDICTED BY IDOCK:   -4.23 KCAL/MOL
REMARK 924 INTRA-LIGAND FREE ENERGY PREDICTED BY IDOCK:   -0.57 KCAL/MOL
REMARK 927      BINDING AFFINITY PREDICTED BY RF-SCORE:    0.00 PKD
ROOT
HETATM    1 NA   UNL     1     -13.864  16.126  69.867  1.00  0.00    -0.739 Na 
HETATM    2 NA   UNL     2     -12.831  11.158  69.399  1.00  0.00    -0.285 Na 
HETATM    3  O   UNL     3     -11.879  13.799  71.451  1.00  0.00    -0.360 OA 
HETATM    4  C   UNL     3     -11.349  14.499  70.323  1.00  0.00    -0.171 C  
HETATM    5  H   UNL     3     -11.562  14.217  72.244  1.00  0.00     0.000 HD 
ENDROOT
BRANCH   4   6
HETATM    6  C   UNL     3     -11.859  13.825  69.046  1.00  0.00    -0.357 C  
HETATM    7  O   UNL     3     -12.450  14.806  68.136  1.00  0.00    -0.574 OA 
HETATM    8  H   UNL     3     -12.767  14.388  67.343  1.00  0.00     0.000 HD 
BRANCH   6   9
HETATM    9  C   UNL     3     -10.778  13.092  68.316  1.00  0.00    -0.245 C  
BRANCH   9  10
HETATM   10  O   UNL     3     -11.061  13.089  66.926  1.00  0.00    -0.264 OA 
HETATM   11  P   UNL     3     -10.651  11.544  66.262  1.00  0.00    -0.268 P  
HETATM   12  O   UNL     3     -10.283  10.162  65.669  1.00  0.00    -0.275 OA 
HETATM   13  O   UNL     3      -9.227  11.868  66.769  1.00  0.00    -0.183 OA 
HETATM   14  O   UNL     3     -11.756  11.023  67.224  1.00  0.00    -0.504 OA 
ENDBRANCH   9  10
ENDBRANCH   6   9
ENDBRANCH   4   6
TORSDOF 3
ENDMDL
MODEL      114
REMARK 921   NORMALIZED FREE ENERGY PREDICTED BY IDOCK:   -3.42 KCAL/MOL
REMARK 922        TOTAL FREE ENERGY PREDICTED BY IDOCK:   -4.79 KCAL/MOL
REMARK 923 INTER-LIGAND FREE ENERGY PREDICTED BY IDOCK:   -4.62 KCAL/MOL
REMARK 924 INTRA-LIGAND FREE ENERGY PREDICTED BY IDOCK:   -0.17 KCAL/MOL
REMARK 927      BINDING AFFINITY PREDICTED BY RF-SCORE:    0.00 PKD
ROOT
HETATM    1 NA   UNL     1     -12.766  14.552  67.052  1.00  0.00    -0.503 Na 
HETATM    2 NA   UNL     2      -9.313  12.923  63.677  1.00  0.00    -0.553 Na 
HETATM    3  O   UNL     3     -11.082  15.843  64.338  1.00  0.00    -0.824 OA 
HETATM    4  C   UNL     3     -12.317  15.159  64.117  1.00  0.00    -0.094 C  
HETATM    5  H   UNL     3     -11.251  16.778  64.342  1.00  0.00     0.000 HD 
ENDROOT
BRANCH   4   6
HETATM    6  C   UNL     3     -12.045  13.651  64.110  1.00  0.00    -0.435 C  
HETATM    7  O   UNL     3     -11.866  13.157  62.744  1.00  0.00    -0.696 OA 
HETATM    8  H   UNL     3     -11.698  12.222  62.739  1.00  0.00     0.000 HD 
BRANCH   6   9
HETATM    9  C   UNL     3     -10.835  13.284  64.909  1.00  0.00    -0.345 C  
BRANCH   9  10
HETATM   10  O   UNL     3     -11.236  12.753  66.162  1.00  0.00    -0.279 OA 
HETATM   11  P   UNL     3      -9.979  13.013  67.322  1.00  0.00    -0.241 P  
HETATM   12  O   UNL     3      -8.853  13.246  68.360  1.00  0.00    -0.177 OA 
HETATM   13  O   UNL     3      -9.114  12.172  66.357  1.00  0.00    -0.212 OA 
HETATM   14  O   UNL     3     -10.268  14.517  67.052  1.00  0.00    -0.258 OA 
ENDBRANCH   9  10
ENDBRANCH   6   9
ENDBRANCH   4   6
TORSDOF 3
ENDMDL
MODEL      115
REMARK 921   NORMALIZED FREE ENERGY PREDICTED BY IDOCK:   -3.40 KCAL/MOL
REMARK 922        TOTAL FREE ENERGY PREDICTED BY IDOCK:   -4.77 KCAL/MOL
REMARK 923 INTER-LIGAND FREE ENERGY PREDICTED BY IDOCK:   -4.15 KCAL/MOL
REMARK 924 INTRA-LIGAND FREE ENERGY PREDICTED BY IDOCK:   -0.62 KCAL/MOL
REMARK 927      BINDING AFFINITY PREDICTED BY RF-SCORE:    0.00 PKD
ROOT
HETATM    1 NA   UNL     1     -13.080   5.458  73.412  1.00  0.00    -0.501 Na 
HETATM    2 NA   UNL     2     -14.050  10.411  72.708  1.00  0.00    -0.615 Na 
HETATM    3  O   UNL     3     -14.199   7.473  70.852  1.00  0.00    -0.644 OA 
HETATM    4  C   UNL     3     -12.790   7.286  71.013  1.00  0.00    -0.208 C  
HETATM    5  H   UNL     3     -14.505   6.888  70.169  1.00  0.00     0.000 HD 
ENDROOT
BRANCH   4   6
HETATM    6  C   UNL     3     -12.295   8.230  72.114  1.00  0.00    -0.360 C  
HETATM    7  O   UNL     3     -13.330   8.445  73.125  1.00  0.00    -0.555 OA 
HETATM    8  H   UNL     3     -13.023   9.030  73.808  1.00  0.00     0.000 HD 
BRANCH   6   9
HETATM    9  C   UNL     3     -11.065   7.718  72.795  1.00  0.00    -0.398 C  
BRANCH   9  10
HETATM   10  O   UNL     3     -10.517   6.647  72.043  1.00  0.00    -0.202 OA 
HETATM   11  P   UNL     3      -9.562   5.648  73.085  1.00  0.00    -0.151 P  
HETATM   12  O   UNL     3      -8.707   4.756  74.018  1.00  0.00    -0.108 OA 
HETATM   13  O   UNL     3      -8.741   6.935  73.325  1.00  0.00    -0.123 OA 
HETATM   14  O   UNL     3     -10.914   5.401  73.812  1.00  0.00    -0.283 OA 
ENDBRANCH   9  10
ENDBRANCH   6   9
ENDBRANCH   4   6
TORSDOF 3
ENDMDL
MODEL      116
REMARK 921   NORMALIZED FREE ENERGY PREDICTED BY IDOCK:   -3.38 KCAL/MOL
REMARK 922        TOTAL FREE ENERGY PREDICTED BY IDOCK:   -4.75 KCAL/MOL
REMARK 923 INTER-LIGAND FREE ENERGY PREDICTED BY IDOCK:   -4.04 KCAL/MOL
REMARK 924 INTRA-LIGAND FREE ENERGY PREDICTED BY IDOCK:   -0.71 KCAL/MOL
REMARK 927      BINDING AFFINITY PREDICTED BY RF-SCORE:    0.00 PKD
ROOT
HETATM    1 NA   UNL     1     -11.742   5.674  65.282  1.00  0.00    -0.552 Na 
HETATM    2 NA   UNL     2     -12.140   9.939  68.043  1.00  0.00    -0.540 Na 
HETATM    3  O   UNL     3      -9.906   8.548  65.769  1.00  0.00    -0.457 OA 
HETATM    4  C   UNL     3      -9.689   7.438  66.644  1.00  0.00    -0.194 C  
HETATM    5  H   UNL     3      -9.228   8.545  65.103  1.00  0.00     0.000 HD 
ENDROOT
BRANCH   4   6
HETATM    6  C   UNL     3     -10.781   7.443  67.719  1.00  0.00    -0.179 C  
HETATM    7  O   UNL     3     -11.579   6.218  67.661  1.00  0.00    -0.558 OA 
HETATM    8  H   UNL     3     -12.256   6.220  68.327  1.00  0.00     0.000 HD 
BRANCH   6   9
HETATM    9  C   UNL     3     -10.222   7.579  69.100  1.00  0.00    -0.202 C  
BRANCH   9  10
HETATM   10  O   UNL     3     -10.990   8.522  69.832  1.00  0.00    -0.236 OA 
HETATM   11  P   UNL     3     -11.095   8.015  71.483  1.00  0.00    -0.272 P  
HETATM   12  O   UNL     3     -11.187   7.561  72.960  1.00  0.00    -0.361 OA 
HETATM   13  O   UNL     3     -11.760   6.748  70.900  1.00  0.00    -0.332 OA 
HETATM   14  O   UNL     3      -9.551   8.203  71.465  1.00  0.00    -0.156 OA 
ENDBRANCH   9  10
ENDBRANCH   6   9
ENDBRANCH   4   6
TORSDOF 3
ENDMDL
MODEL      117
REMARK 921   NORMALIZED FREE ENERGY PREDICTED BY IDOCK:   -3.38 KCAL/MOL
REMARK 922        TOTAL FREE ENERGY PREDICTED BY IDOCK:   -4.75 KCAL/MOL
REMARK 923 INTER-LIGAND FREE ENERGY PREDICTED BY IDOCK:   -4.17 KCAL/MOL
REMARK 924 INTRA-LIGAND FREE ENERGY PREDICTED BY IDOCK:   -0.57 KCAL/MOL
REMARK 927      BINDING AFFINITY PREDICTED BY RF-SCORE:    0.00 PKD
ROOT
HETATM    1 NA   UNL     1     -10.814  18.957  67.627  1.00  0.00    -0.347 Na 
HETATM    2 NA   UNL     2      -7.721  15.676  70.000  1.00  0.00    -0.198 Na 
HETATM    3  O   UNL     3      -9.377  15.900  66.950  1.00  0.00    -0.211 OA 
HETATM    4  C   UNL     3     -10.637  15.932  67.624  1.00  0.00    -0.307 C  
HETATM    5  H   UNL     3      -9.531  15.734  66.028  1.00  0.00     0.000 HD 
ENDROOT
BRANCH   4   6
HETATM    6  C   UNL     3     -10.389  16.200  69.112  1.00  0.00    -0.259 C  
HETATM    7  O   UNL     3     -10.773  17.565  69.470  1.00  0.00    -0.371 OA 
HETATM    8  H   UNL     3     -10.619  17.732  70.393  1.00  0.00     0.000 HD 
BRANCH   6   9
HETATM    9  C   UNL     3     -11.136  15.250  69.996  1.00  0.00    -0.287 C  
BRANCH   9  10
HETATM   10  O   UNL     3     -12.497  15.643  70.073  1.00  0.00    -0.360 OA 
HETATM   11  P   UNL     3     -13.087  15.351  71.673  1.00  0.00    -0.507 P  
HETATM   12  O   UNL     3     -13.613  15.089  73.105  1.00  0.00    -0.480 OA 
HETATM   13  O   UNL     3     -12.713  13.879  71.385  1.00  0.00    -0.335 OA 
HETATM   14  O   UNL     3     -12.011  16.396  72.082  1.00  0.00    -0.509 OA 
ENDBRANCH   9  10
ENDBRANCH   6   9
ENDBRANCH   4   6
TORSDOF 3
ENDMDL
MODEL      118
REMARK 921   NORMALIZED FREE ENERGY PREDICTED BY IDOCK:   -3.37 KCAL/MOL
REMARK 922        TOTAL FREE ENERGY PREDICTED BY IDOCK:   -4.74 KCAL/MOL
REMARK 923 INTER-LIGAND FREE ENERGY PREDICTED BY IDOCK:   -3.73 KCAL/MOL
REMARK 924 INTRA-LIGAND FREE ENERGY PREDICTED BY IDOCK:   -1.01 KCAL/MOL
REMARK 927      BINDING AFFINITY PREDICTED BY RF-SCORE:    0.00 PKD
ROOT
HETATM    1 NA   UNL     1     -12.501  11.618  68.282  1.00  0.00    -0.300 Na 
HETATM    2 NA   UNL     2      -9.325  14.947  70.472  1.00  0.00    -0.429 Na 
HETATM    3  O   UNL     3     -12.179  15.042  68.487  1.00  0.00    -0.585 OA 
HETATM    4  C   UNL     3     -11.490  14.348  67.443  1.00  0.00    -0.358 C  
HETATM    5  H   UNL     3     -12.982  15.405  68.130  1.00  0.00     0.000 HD 
ENDROOT
BRANCH   4   6
HETATM    6  C   UNL     3     -10.196  13.763  68.017  1.00  0.00    -0.248 C  
HETATM    7  O   UNL     3     -10.463  12.989  69.229  1.00  0.00    -0.432 OA 
HETATM    8  H   UNL     3      -9.660  12.626  69.586  1.00  0.00     0.000 HD 
BRANCH   6   9
HETATM    9  C   UNL     3      -9.484  12.883  67.039  1.00  0.00    -0.235 C  
BRANCH   9  10
HETATM   10  O   UNL     3     -10.419  12.336  66.123  1.00  0.00    -0.232 OA 
HETATM   11  P   UNL     3     -10.136  10.637  65.964  1.00  0.00    -0.236 P  
HETATM   12  O   UNL     3      -9.882   9.116  65.822  1.00  0.00    -0.286 OA 
HETATM   13  O   UNL     3      -8.730  11.063  65.484  1.00  0.00    -0.187 OA 
HETATM   14  O   UNL     3     -10.503  10.602  67.474  1.00  0.00    -0.201 OA 
ENDBRANCH   9  10
ENDBRANCH   6   9
ENDBRANCH   4   6
TORSDOF 3
ENDMDL
MODEL      119
REMARK 921   NORMALIZED FREE ENERGY PREDICTED BY IDOCK:   -3.34 KCAL/MOL
REMARK 922        TOTAL FREE ENERGY PREDICTED BY IDOCK:   -4.70 KCAL/MOL
REMARK 923 INTER-LIGAND FREE ENERGY PREDICTED BY IDOCK:   -4.27 KCAL/MOL
REMARK 924 INTRA-LIGAND FREE ENERGY PREDICTED BY IDOCK:   -0.42 KCAL/MOL
REMARK 927      BINDING AFFINITY PREDICTED BY RF-SCORE:    0.00 PKD
ROOT
HETATM    1 NA   UNL     1      -8.535  15.482  66.180  1.00  0.00    -0.219 Na 
HETATM    2 NA   UNL     2     -11.408  17.478  69.885  1.00  0.00    -0.346 Na 
HETATM    3  O   UNL     3      -9.521  14.604  69.362  1.00  0.00    -0.401 OA 
HETATM    4  C   UNL     3     -10.357  14.242  68.260  1.00  0.00    -0.242 C  
HETATM    5  H   UNL     3      -8.995  13.850  69.604  1.00  0.00     0.000 HD 
ENDROOT
BRANCH   4   6
HETATM    6  C   UNL     3     -11.205  15.457  67.871  1.00  0.00    -0.329 C  
HETATM    7  O   UNL     3     -12.257  15.700  68.858  1.00  0.00    -0.587 OA 
HETATM    8  H   UNL     3     -12.784  16.453  68.617  1.00  0.00     0.000 HD 
BRANCH   6   9
HETATM    9  C   UNL     3     -10.388  16.703  67.732  1.00  0.00    -0.306 C  
BRANCH   9  10
HETATM   10  O   UNL     3     -11.249  17.822  67.589  1.00  0.00    -0.068 OA 
HETATM   11  P   UNL     3     -10.299  19.247  67.343  1.00  0.00    -0.494 P  
HETATM   12  O   UNL     3      -9.448  20.522  67.123  1.00  0.00    -0.412 OA 
HETATM   13  O   UNL     3      -9.688  18.901  68.720  1.00  0.00    -0.375 OA 
HETATM   14  O   UNL     3      -9.845  18.519  66.047  1.00  0.00    -0.494 OA 
ENDBRANCH   9  10
ENDBRANCH   6   9
ENDBRANCH   4   6
TORSDOF 3
ENDMDL
MODEL      120
REMARK 921   NORMALIZED FREE ENERGY PREDICTED BY IDOCK:   -3.33 KCAL/MOL
REMARK 922        TOTAL FREE ENERGY PREDICTED BY IDOCK:   -4.69 KCAL/MOL
REMARK 923 INTER-LIGAND FREE ENERGY PREDICTED BY IDOCK:   -4.22 KCAL/MOL
REMARK 924 INTRA-LIGAND FREE ENERGY PREDICTED BY IDOCK:   -0.47 KCAL/MOL
REMARK 927      BINDING AFFINITY PREDICTED BY RF-SCORE:    0.00 PKD
ROOT
HETATM    1 NA   UNL     1     -11.659   7.949  67.388  1.00  0.00    -0.506 Na 
HETATM    2 NA   UNL     2     -12.613  11.970  64.406  1.00  0.00    -0.372 Na 
HETATM    3  O   UNL     3     -10.029   9.696  64.906  1.00  0.00    -0.418 OA 
HETATM    4  C   UNL     3      -9.889  10.135  66.259  1.00  0.00    -0.229 C  
HETATM    5  H   UNL     3      -9.266   9.178  64.676  1.00  0.00     0.000 HD 
ENDROOT
BRANCH   4   6
HETATM    6  C   UNL     3     -11.119  10.970  66.632  1.00  0.00    -0.133 C  
HETATM    7  O   UNL     3     -11.746  10.464  67.853  1.00  0.00    -0.714 OA 
HETATM    8  H   UNL     3     -12.509  10.982  68.084  1.00  0.00     0.000 HD 
BRANCH   6   9
HETATM    9  C   UNL     3     -10.788  12.415  66.832  1.00  0.00    -0.251 C  
BRANCH   9  10
HETATM   10  O   UNL     3     -11.969  13.133  67.152  1.00  0.00    -0.371 OA 
HETATM   11  P   UNL     3     -11.541  14.675  67.809  1.00  0.00    -0.334 P  
HETATM   12  O   UNL     3     -11.157  16.055  68.396  1.00  0.00    -0.318 OA 
HETATM   13  O   UNL     3     -10.810  13.849  68.891  1.00  0.00    -0.251 OA 
HETATM   14  O   UNL     3     -10.912  14.912  66.407  1.00  0.00    -0.326 OA 
ENDBRANCH   9  10
ENDBRANCH   6   9
ENDBRANCH   4   6
TORSDOF 3
ENDMDL
MODEL      121
REMARK 921   NORMALIZED FREE ENERGY PREDICTED BY IDOCK:   -3.32 KCAL/MOL
REMARK 922        TOTAL FREE ENERGY PREDICTED BY IDOCK:   -4.67 KCAL/MOL
REMARK 923 INTER-LIGAND FREE ENERGY PREDICTED BY IDOCK:   -3.75 KCAL/MOL
REMARK 924 INTRA-LIGAND FREE ENERGY PREDICTED BY IDOCK:   -0.92 KCAL/MOL
REMARK 927      BINDING AFFINITY PREDICTED BY RF-SCORE:    0.00 PKD
ROOT
HETATM    1 NA   UNL     1     -11.655   5.732  73.738  1.00  0.00    -0.431 Na 
HETATM    2 NA   UNL     2     -13.537  10.386  72.862  1.00  0.00    -0.615 Na 
HETATM    3  O   UNL     3     -14.405   7.090  72.169  1.00  0.00    -0.613 OA 
HETATM    4  C   UNL     3     -13.201   6.919  71.418  1.00  0.00    -0.212 C  
HETATM    5  H   UNL     3     -14.987   6.363  71.978  1.00  0.00     0.000 HD 
ENDROOT
BRANCH   4   6
HETATM    6  C   UNL     3     -12.263   8.090  71.724  1.00  0.00    -0.316 C  
HETATM    7  O   UNL     3     -12.011   8.199  73.161  1.00  0.00    -0.600 OA 
HETATM    8  H   UNL     3     -11.430   8.925  73.352  1.00  0.00     0.000 HD 
BRANCH   6   9
HETATM    9  C   UNL     3     -10.948   7.969  71.020  1.00  0.00    -0.241 C  
BRANCH   9  10
HETATM   10  O   UNL     3     -10.593   6.600  70.911  1.00  0.00    -0.215 OA 
HETATM   11  P   UNL     3      -8.936   6.401  71.370  1.00  0.00    -0.136 P  
HETATM   12  O   UNL     3      -7.454   6.223  71.781  1.00  0.00    -0.091 OA 
HETATM   13  O   UNL     3      -8.648   7.379  70.209  1.00  0.00    -0.141 OA 
HETATM   14  O   UNL     3      -9.432   6.907  72.754  1.00  0.00    -0.141 OA 
ENDBRANCH   9  10
ENDBRANCH   6   9
ENDBRANCH   4   6
TORSDOF 3
ENDMDL
MODEL      122
REMARK 921   NORMALIZED FREE ENERGY PREDICTED BY IDOCK:   -3.31 KCAL/MOL
REMARK 922        TOTAL FREE ENERGY PREDICTED BY IDOCK:   -4.66 KCAL/MOL
REMARK 923 INTER-LIGAND FREE ENERGY PREDICTED BY IDOCK:   -3.59 KCAL/MOL
REMARK 924 INTRA-LIGAND FREE ENERGY PREDICTED BY IDOCK:   -1.07 KCAL/MOL
REMARK 927      BINDING AFFINITY PREDICTED BY RF-SCORE:    0.00 PKD
ROOT
HETATM    1 NA   UNL     1     -12.520  12.076  68.013  1.00  0.00    -0.329 Na 
HETATM    2 NA   UNL     2     -10.832  16.265  65.653  1.00  0.00    -0.298 Na 
HETATM    3  O   UNL     3     -13.264  13.832  65.144  1.00  0.00    -0.757 OA 
HETATM    4  C   UNL     3     -12.256  12.820  65.087  1.00  0.00    -0.477 C  
HETATM    5  H   UNL     3     -14.078  13.468  64.814  1.00  0.00     0.000 HD 
ENDROOT
BRANCH   4   6
HETATM    6  C   UNL     3     -10.945  13.407  65.618  1.00  0.00    -0.281 C  
HETATM    7  O   UNL     3     -11.173  14.186  66.835  1.00  0.00    -0.300 OA 
HETATM    8  H   UNL     3     -10.360  14.550  67.165  1.00  0.00     0.000 HD 
BRANCH   6   9
HETATM    9  C   UNL     3      -9.926  12.352  65.915  1.00  0.00    -0.255 C  
BRANCH   9  10
HETATM   10  O   UNL     3     -10.581  11.150  66.288  1.00  0.00    -0.253 OA 
HETATM   11  P   UNL     3      -9.792  10.475  67.673  1.00  0.00    -0.176 P  
HETATM   12  O   UNL     3      -9.086   9.873  68.912  1.00  0.00    -0.142 OA 
HETATM   13  O   UNL     3      -8.545  10.435  66.762  1.00  0.00    -0.123 OA 
HETATM   14  O   UNL     3     -10.249  11.790  68.367  1.00  0.00    -0.195 OA 
ENDBRANCH   9  10
ENDBRANCH   6   9
ENDBRANCH   4   6
TORSDOF 3
ENDMDL
MODEL      123
REMARK 921   NORMALIZED FREE ENERGY PREDICTED BY IDOCK:   -3.31 KCAL/MOL
REMARK 922        TOTAL FREE ENERGY PREDICTED BY IDOCK:   -4.66 KCAL/MOL
REMARK 923 INTER-LIGAND FREE ENERGY PREDICTED BY IDOCK:   -4.04 KCAL/MOL
REMARK 924 INTRA-LIGAND FREE ENERGY PREDICTED BY IDOCK:   -0.62 KCAL/MOL
REMARK 927      BINDING AFFINITY PREDICTED BY RF-SCORE:    0.00 PKD
ROOT
HETATM    1 NA   UNL     1     -12.652   9.458  69.638  1.00  0.00    -0.432 Na 
HETATM    2 NA   UNL     2     -14.071   5.585  72.631  1.00  0.00    -0.489 Na 
HETATM    3  O   UNL     3     -12.537   8.685  72.994  1.00  0.00    -0.589 OA 
HETATM    4  C   UNL     3     -11.459   8.263  72.155  1.00  0.00    -0.361 C  
HETATM    5  H   UNL     3     -12.277   9.483  73.440  1.00  0.00     0.000 HD 
ENDROOT
BRANCH   4   6
HETATM    6  C   UNL     3     -11.876   6.976  71.435  1.00  0.00    -0.320 C  
HETATM    7  O   UNL     3     -13.177   7.136  70.785  1.00  0.00    -0.576 OA 
HETATM    8  H   UNL     3     -13.436   6.338  70.339  1.00  0.00     0.000 HD 
BRANCH   6   9
HETATM    9  C   UNL     3     -10.880   6.550  70.403  1.00  0.00    -0.273 C  
BRANCH   9  10
HETATM   10  O   UNL     3     -11.556   6.204  69.204  1.00  0.00    -0.287 OA 
HETATM   11  P   UNL     3     -10.406   6.070  67.918  1.00  0.00    -0.256 P  
HETATM   12  O   UNL     3      -9.377   5.950  66.767  1.00  0.00    -0.128 OA 
HETATM   13  O   UNL     3     -10.092   7.549  68.239  1.00  0.00    -0.171 OA 
HETATM   14  O   UNL     3      -9.828   4.911  68.778  1.00  0.00    -0.159 OA 
ENDBRANCH   9  10
ENDBRANCH   6   9
ENDBRANCH   4   6
TORSDOF 3
ENDMDL
MODEL      124
REMARK 921   NORMALIZED FREE ENERGY PREDICTED BY IDOCK:   -3.29 KCAL/MOL
REMARK 922        TOTAL FREE ENERGY PREDICTED BY IDOCK:   -4.64 KCAL/MOL
REMARK 923 INTER-LIGAND FREE ENERGY PREDICTED BY IDOCK:   -3.90 KCAL/MOL
REMARK 924 INTRA-LIGAND FREE ENERGY PREDICTED BY IDOCK:   -0.74 KCAL/MOL
REMARK 927      BINDING AFFINITY PREDICTED BY RF-SCORE:    0.00 PKD
ROOT
HETATM    1 NA   UNL     1     -10.812  11.075  68.476  1.00  0.00    -0.161 Na 
HETATM    2 NA   UNL     2      -8.614  15.625  67.819  1.00  0.00    -0.148 Na 
HETATM    3  O   UNL     3     -11.454  14.341  69.362  1.00  0.00    -0.262 OA 
HETATM    4  C   UNL     3     -11.936  13.864  68.104  1.00  0.00    -0.350 C  
HETATM    5  H   UNL     3     -12.167  14.310  69.990  1.00  0.00     0.000 HD 
ENDROOT
BRANCH   4   6
HETATM    6  C   UNL     3     -10.789  13.915  67.090  1.00  0.00    -0.284 C  
HETATM    7  O   UNL     3     -10.636  12.631  66.405  1.00  0.00    -0.247 OA 
HETATM    8  H   UNL     3      -9.925  12.662  65.776  1.00  0.00     0.000 HD 
BRANCH   6   9
HETATM    9  C   UNL     3     -10.984  14.981  66.059  1.00  0.00    -0.334 C  
BRANCH   9  10
HETATM   10  O   UNL     3      -9.759  15.666  65.846  1.00  0.00    -0.307 OA 
HETATM   11  P   UNL     3     -10.065  17.366  65.745  1.00  0.00     0.092 P  
HETATM   12  O   UNL     3     -10.340  18.887  65.655  1.00  0.00    -0.545 OA 
HETATM   13  O   UNL     3     -10.966  16.985  64.549  1.00  0.00    -1.031 OA 
HETATM   14  O   UNL     3     -10.551  17.198  67.213  1.00  0.00    -0.325 OA 
ENDBRANCH   9  10
ENDBRANCH   6   9
ENDBRANCH   4   6
TORSDOF 3
ENDMDL
MODEL      125
REMARK 921   NORMALIZED FREE ENERGY PREDICTED BY IDOCK:   -3.29 KCAL/MOL
REMARK 922        TOTAL FREE ENERGY PREDICTED BY IDOCK:   -4.63 KCAL/MOL
REMARK 923 INTER-LIGAND FREE ENERGY PREDICTED BY IDOCK:   -3.67 KCAL/MOL
REMARK 924 INTRA-LIGAND FREE ENERGY PREDICTED BY IDOCK:   -0.97 KCAL/MOL
REMARK 927      BINDING AFFINITY PREDICTED BY RF-SCORE:    0.00 PKD
ROOT
HETATM    1 NA   UNL     1      -8.617  15.005  69.438  1.00  0.00    -0.155 Na 
HETATM    2 NA   UNL     2     -10.886  11.945  66.054  1.00  0.00    -0.238 Na 
HETATM    3  O   UNL     3      -9.108  14.934  66.029  1.00  0.00    -0.475 OA 
HETATM    4  C   UNL     3     -10.103  15.546  66.853  1.00  0.00    -0.262 C  
HETATM    5  H   UNL     3      -8.553  15.616  65.667  1.00  0.00     0.000 HD 
ENDROOT
BRANCH   4   6
HETATM    6  C   UNL     3     -10.998  14.447  67.436  1.00  0.00    -0.299 C  
HETATM    7  O   UNL     3     -10.196  13.344  67.965  1.00  0.00    -0.230 OA 
HETATM    8  H   UNL     3     -10.751  12.662  68.326  1.00  0.00     0.000 HD 
BRANCH   6   9
HETATM    9  C   UNL     3     -11.886  14.954  68.528  1.00  0.00    -0.294 C  
BRANCH   9  10
HETATM   10  O   UNL     3     -11.112  15.214  69.688  1.00  0.00    -0.243 OA 
HETATM   11  P   UNL     3     -12.038  14.815  71.095  1.00  0.00    -0.368 P  
HETATM   12  O   UNL     3     -12.867  14.458  72.353  1.00  0.00    -0.339 OA 
HETATM   13  O   UNL     3     -13.030  15.874  70.563  1.00  0.00    -0.438 OA 
HETATM   14  O   UNL     3     -11.997  13.375  70.510  1.00  0.00    -0.326 OA 
ENDBRANCH   9  10
ENDBRANCH   6   9
ENDBRANCH   4   6
TORSDOF 3
ENDMDL
MODEL      126
REMARK 921   NORMALIZED FREE ENERGY PREDICTED BY IDOCK:   -3.28 KCAL/MOL
REMARK 922        TOTAL FREE ENERGY PREDICTED BY IDOCK:   -4.62 KCAL/MOL
REMARK 923 INTER-LIGAND FREE ENERGY PREDICTED BY IDOCK:   -3.89 KCAL/MOL
REMARK 924 INTRA-LIGAND FREE ENERGY PREDICTED BY IDOCK:   -0.73 KCAL/MOL
REMARK 927      BINDING AFFINITY PREDICTED BY RF-SCORE:    0.00 PKD
ROOT
HETATM    1 NA   UNL     1      -7.079  18.141  68.008  1.00  0.00    -0.186 Na 
HETATM    2 NA   UNL     2      -9.514  13.837  69.241  1.00  0.00    -0.334 Na 
HETATM    3  O   UNL     3      -7.388  14.958  66.727  1.00  0.00    -0.292 OA 
HETATM    4  C   UNL     3      -8.345  15.948  66.343  1.00  0.00    -0.275 C  
HETATM    5  H   UNL     3      -6.736  14.885  66.039  1.00  0.00     0.000 HD 
ENDROOT
BRANCH   4   6
HETATM    6  C   UNL     3      -9.397  16.066  67.450  1.00  0.00    -0.217 C  
HETATM    7  O   UNL     3      -9.697  17.467  67.741  1.00  0.00    -0.262 OA 
HETATM    8  H   UNL     3     -10.350  17.541  68.428  1.00  0.00     0.000 HD 
BRANCH   6   9
HETATM    9  C   UNL     3     -10.675  15.369  67.101  1.00  0.00    -0.314 C  
BRANCH   9  10
HETATM   10  O   UNL     3     -10.424  13.986  66.906  1.00  0.00    -0.273 OA 
HETATM   11  P   UNL     3     -11.686  13.308  65.935  1.00  0.00    -0.409 P  
HETATM   12  O   UNL     3     -12.815  12.703  65.066  1.00  0.00    -0.765 OA 
HETATM   13  O   UNL     3     -12.617  13.782  67.074  1.00  0.00    -0.210 OA 
HETATM   14  O   UNL     3     -11.158  14.295  64.856  1.00  0.00    -0.352 OA 
ENDBRANCH   9  10
ENDBRANCH   6   9
ENDBRANCH   4   6
TORSDOF 3
ENDMDL
MODEL      127
REMARK 921   NORMALIZED FREE ENERGY PREDICTED BY IDOCK:   -3.26 KCAL/MOL
REMARK 922        TOTAL FREE ENERGY PREDICTED BY IDOCK:   -4.60 KCAL/MOL
REMARK 923 INTER-LIGAND FREE ENERGY PREDICTED BY IDOCK:   -4.05 KCAL/MOL
REMARK 924 INTRA-LIGAND FREE ENERGY PREDICTED BY IDOCK:   -0.55 KCAL/MOL
REMARK 927      BINDING AFFINITY PREDICTED BY RF-SCORE:    0.00 PKD
ROOT
HETATM    1 NA   UNL     1     -10.672  11.461  64.416  1.00  0.00    -0.247 Na 
HETATM    2 NA   UNL     2      -9.232  12.928  69.079  1.00  0.00    -0.300 Na 
HETATM    3  O   UNL     3     -12.204  12.462  67.335  1.00  0.00    -0.459 OA 
HETATM    4  C   UNL     3     -11.817  13.459  66.386  1.00  0.00    -0.396 C  
HETATM    5  H   UNL     3     -13.130  12.281  67.223  1.00  0.00     0.000 HD 
ENDROOT
BRANCH   4   6
HETATM    6  C   UNL     3     -10.324  13.751  66.566  1.00  0.00    -0.286 C  
HETATM    7  O   UNL     3      -9.671  13.958  65.274  1.00  0.00    -0.556 OA 
HETATM    8  H   UNL     3      -8.744  14.140  65.385  1.00  0.00     0.000 HD 
BRANCH   6   9
HETATM    9  C   UNL     3     -10.077  14.954  67.421  1.00  0.00    -0.228 C  
BRANCH   9  10
HETATM   10  O   UNL     3     -11.309  15.599  67.701  1.00  0.00    -0.313 OA 
HETATM   11  P   UNL     3     -11.418  15.911  69.400  1.00  0.00    -0.321 P  
HETATM   12  O   UNL     3     -11.514  16.189  70.920  1.00  0.00    -0.403 OA 
HETATM   13  O   UNL     3     -11.288  14.377  69.541  1.00  0.00    -0.257 OA 
HETATM   14  O   UNL     3     -10.175  16.810  69.146  1.00  0.00    -0.284 OA 
ENDBRANCH   9  10
ENDBRANCH   6   9
ENDBRANCH   4   6
TORSDOF 3
ENDMDL
MODEL      128
REMARK 921   NORMALIZED FREE ENERGY PREDICTED BY IDOCK:   -3.25 KCAL/MOL
REMARK 922        TOTAL FREE ENERGY PREDICTED BY IDOCK:   -4.59 KCAL/MOL
REMARK 923 INTER-LIGAND FREE ENERGY PREDICTED BY IDOCK:   -4.08 KCAL/MOL
REMARK 924 INTRA-LIGAND FREE ENERGY PREDICTED BY IDOCK:   -0.51 KCAL/MOL
REMARK 927      BINDING AFFINITY PREDICTED BY RF-SCORE:    0.00 PKD
ROOT
HETATM    1 NA   UNL     1     -11.862  19.510  67.313  1.00  0.00    -0.385 Na 
HETATM    2 NA   UNL     2      -7.575  17.371  69.051  1.00  0.00    -0.209 Na 
HETATM    3  O   UNL     3      -8.765  18.676  66.055  1.00  0.00    -0.491 OA 
HETATM    4  C   UNL     3      -9.804  17.695  66.027  1.00  0.00    -0.170 C  
HETATM    5  H   UNL     3      -8.709  19.082  65.198  1.00  0.00     0.000 HD 
ENDROOT
BRANCH   4   6
HETATM    6  C   UNL     3      -9.894  17.039  67.408  1.00  0.00    -0.262 C  
HETATM    7  O   UNL     3     -10.273  18.015  68.429  1.00  0.00    -0.362 OA 
HETATM    8  H   UNL     3     -10.329  17.609  69.286  1.00  0.00     0.000 HD 
BRANCH   6   9
HETATM    9  C   UNL     3     -10.877  15.911  67.443  1.00  0.00    -0.291 C  
BRANCH   9  10
HETATM   10  O   UNL     3     -10.229  14.704  67.072  1.00  0.00    -0.257 OA 
HETATM   11  P   UNL     3     -11.391  13.616  66.393  1.00  0.00    -0.340 P  
HETATM   12  O   UNL     3     -12.431  12.644  65.786  1.00  0.00    -0.607 OA 
HETATM   13  O   UNL     3     -12.091  13.738  67.766  1.00  0.00    -0.362 OA 
HETATM   14  O   UNL     3     -11.540  14.718  65.305  1.00  0.00    -0.349 OA 
ENDBRANCH   9  10
ENDBRANCH   6   9
ENDBRANCH   4   6
TORSDOF 3
ENDMDL
MODEL      129
REMARK 921   NORMALIZED FREE ENERGY PREDICTED BY IDOCK:   -3.25 KCAL/MOL
REMARK 922        TOTAL FREE ENERGY PREDICTED BY IDOCK:   -4.58 KCAL/MOL
REMARK 923 INTER-LIGAND FREE ENERGY PREDICTED BY IDOCK:   -4.06 KCAL/MOL
REMARK 924 INTRA-LIGAND FREE ENERGY PREDICTED BY IDOCK:   -0.53 KCAL/MOL
REMARK 927      BINDING AFFINITY PREDICTED BY RF-SCORE:    0.00 PKD
ROOT
HETATM    1 NA   UNL     1      -8.712  10.230  70.659  1.00  0.00    -0.275 Na 
HETATM    2 NA   UNL     2     -13.765   9.845  70.123  1.00  0.00    -0.593 Na 
HETATM    3  O   UNL     3     -10.940   8.030  69.220  1.00  0.00    -0.413 OA 
HETATM    4  C   UNL     3     -10.465   9.132  68.444  1.00  0.00    -0.199 C  
HETATM    5  H   UNL     3     -10.437   7.258  68.989  1.00  0.00     0.000 HD 
ENDROOT
BRANCH   4   6
HETATM    6  C   UNL     3     -11.276  10.377  68.817  1.00  0.00    -0.241 C  
HETATM    7  O   UNL     3     -11.093  10.720  70.227  1.00  0.00    -0.405 OA 
HETATM    8  H   UNL     3     -11.596  11.492  70.459  1.00  0.00     0.000 HD 
BRANCH   6   9
HETATM    9  C   UNL     3     -10.909  11.568  67.988  1.00  0.00    -0.213 C  
BRANCH   9  10
HETATM   10  O   UNL     3     -12.066  12.352  67.742  1.00  0.00    -0.447 OA 
HETATM   11  P   UNL     3     -11.595  13.991  67.454  1.00  0.00    -0.409 P  
HETATM   12  O   UNL     3     -11.173  15.458  67.196  1.00  0.00    -0.326 OA 
HETATM   13  O   UNL     3     -10.990  13.915  68.874  1.00  0.00    -0.252 OA 
HETATM   14  O   UNL     3     -10.858  13.389  66.224  1.00  0.00    -0.286 OA 
ENDBRANCH   9  10
ENDBRANCH   6   9
ENDBRANCH   4   6
TORSDOF 3
ENDMDL
MODEL      130
REMARK 921   NORMALIZED FREE ENERGY PREDICTED BY IDOCK:   -3.24 KCAL/MOL
REMARK 922        TOTAL FREE ENERGY PREDICTED BY IDOCK:   -4.58 KCAL/MOL
REMARK 923 INTER-LIGAND FREE ENERGY PREDICTED BY IDOCK:   -3.98 KCAL/MOL
REMARK 924 INTRA-LIGAND FREE ENERGY PREDICTED BY IDOCK:   -0.59 KCAL/MOL
REMARK 927      BINDING AFFINITY PREDICTED BY RF-SCORE:    0.00 PKD
ROOT
HETATM    1 NA   UNL     1      -9.252  11.259  69.773  1.00  0.00    -0.379 Na 
HETATM    2 NA   UNL     2     -13.517  13.927  70.582  1.00  0.00    -0.316 Na 
HETATM    3  O   UNL     3     -12.606  10.938  69.056  1.00  0.00    -0.683 OA 
HETATM    4  C   UNL     3     -11.773  11.648  68.137  1.00  0.00    -0.295 C  
HETATM    5  H   UNL     3     -12.724  10.051  68.735  1.00  0.00     0.000 HD 
ENDROOT
BRANCH   4   6
HETATM    6  C   UNL     3     -11.582  13.077  68.654  1.00  0.00    -0.318 C  
HETATM    7  O   UNL     3     -11.138  13.076  70.048  1.00  0.00    -0.453 OA 
HETATM    8  H   UNL     3     -11.020  13.962  70.369  1.00  0.00     0.000 HD 
BRANCH   6   9
HETATM    9  C   UNL     3     -10.592  13.851  67.842  1.00  0.00    -0.245 C  
BRANCH   9  10
HETATM   10  O   UNL     3     -11.217  15.007  67.307  1.00  0.00    -0.327 OA 
HETATM   11  P   UNL     3     -10.151  16.361  67.470  1.00  0.00    -0.272 P  
HETATM   12  O   UNL     3      -9.196  17.571  67.616  1.00  0.00    -0.240 OA 
HETATM   13  O   UNL     3     -10.233  16.057  68.983  1.00  0.00    -0.211 OA 
HETATM   14  O   UNL     3      -9.229  15.537  66.526  1.00  0.00    -0.245 OA 
ENDBRANCH   9  10
ENDBRANCH   6   9
ENDBRANCH   4   6
TORSDOF 3
ENDMDL
MODEL      131
REMARK 921   NORMALIZED FREE ENERGY PREDICTED BY IDOCK:   -3.23 KCAL/MOL
REMARK 922        TOTAL FREE ENERGY PREDICTED BY IDOCK:   -4.56 KCAL/MOL
REMARK 923 INTER-LIGAND FREE ENERGY PREDICTED BY IDOCK:   -4.31 KCAL/MOL
REMARK 924 INTRA-LIGAND FREE ENERGY PREDICTED BY IDOCK:   -0.25 KCAL/MOL
REMARK 927      BINDING AFFINITY PREDICTED BY RF-SCORE:    0.00 PKD
ROOT
HETATM    1 NA   UNL     1     -10.653  14.086  68.965  1.00  0.00    -0.206 Na 
HETATM    2 NA   UNL     2     -10.730  14.612  63.897  1.00  0.00    -0.573 Na 
HETATM    3  O   UNL     3      -8.421  14.924  66.478  1.00  0.00    -0.422 OA 
HETATM    4  C   UNL     3      -9.207  15.960  67.072  1.00  0.00    -0.214 C  
HETATM    5  H   UNL     3      -7.561  14.927  66.883  1.00  0.00     0.000 HD 
ENDROOT
BRANCH   4   6
HETATM    6  C   UNL     3     -10.593  15.957  66.418  1.00  0.00    -0.297 C  
HETATM    7  O   UNL     3     -10.503  16.291  64.997  1.00  0.00    -0.621 OA 
HETATM    8  H   UNL     3     -11.362  16.290  64.591  1.00  0.00     0.000 HD 
BRANCH   6   9
HETATM    9  C   UNL     3     -11.285  14.636  66.551  1.00  0.00    -0.346 C  
BRANCH   9  10
HETATM   10  O   UNL     3     -10.735  13.716  65.622  1.00  0.00    -0.274 OA 
HETATM   11  P   UNL     3     -10.851  12.114  66.267  1.00  0.00    -0.309 P  
HETATM   12  O   UNL     3     -10.956  10.682  66.845  1.00  0.00    -0.243 OA 
HETATM   13  O   UNL     3      -9.987  12.673  67.420  1.00  0.00    -0.202 OA 
HETATM   14  O   UNL     3     -12.382  12.378  66.200  1.00  0.00    -0.606 OA 
ENDBRANCH   9  10
ENDBRANCH   6   9
ENDBRANCH   4   6
TORSDOF 3
ENDMDL
MODEL      132
REMARK 921   NORMALIZED FREE ENERGY PREDICTED BY IDOCK:   -3.20 KCAL/MOL
REMARK 922        TOTAL FREE ENERGY PREDICTED BY IDOCK:   -4.53 KCAL/MOL
REMARK 923 INTER-LIGAND FREE ENERGY PREDICTED BY IDOCK:   -3.79 KCAL/MOL
REMARK 924 INTRA-LIGAND FREE ENERGY PREDICTED BY IDOCK:   -0.74 KCAL/MOL
REMARK 927      BINDING AFFINITY PREDICTED BY RF-SCORE:    0.00 PKD
ROOT
HETATM    1 NA   UNL     1      -9.552  13.318  63.583  1.00  0.00    -0.502 Na 
HETATM    2 NA   UNL     2      -7.283  15.943  67.315  1.00  0.00    -0.110 Na 
HETATM    3  O   UNL     3      -9.216  13.069  67.002  1.00  0.00    -0.217 OA 
HETATM    4  C   UNL     3     -10.297  13.840  66.473  1.00  0.00    -0.286 C  
HETATM    5  H   UNL     3      -9.545  12.209  67.239  1.00  0.00     0.000 HD 
ENDROOT
BRANCH   4   6
HETATM    6  C   UNL     3      -9.768  15.227  66.093  1.00  0.00    -0.314 C  
HETATM    7  O   UNL     3     -10.197  15.600  64.745  1.00  0.00    -0.497 OA 
HETATM    8  H   UNL     3      -9.869  16.460  64.509  1.00  0.00     0.000 HD 
BRANCH   6   9
HETATM    9  C   UNL     3     -10.216  16.290  67.045  1.00  0.00    -0.280 C  
BRANCH   9  10
HETATM   10  O   UNL     3      -9.238  17.317  67.105  1.00  0.00    -0.227 OA 
HETATM   11  P   UNL     3     -10.027  18.854  67.192  1.00  0.00    -0.382 P  
HETATM   12  O   UNL     3     -10.734  20.229  67.270  1.00  0.00    -0.203 OA 
HETATM   13  O   UNL     3     -10.651  18.447  65.838  1.00  0.00    -0.494 OA 
HETATM   14  O   UNL     3     -10.582  18.307  68.538  1.00  0.00    -0.276 OA 
ENDBRANCH   9  10
ENDBRANCH   6   9
ENDBRANCH   4   6
TORSDOF 3
ENDMDL
MODEL      133
REMARK 921   NORMALIZED FREE ENERGY PREDICTED BY IDOCK:   -3.18 KCAL/MOL
REMARK 922        TOTAL FREE ENERGY PREDICTED BY IDOCK:   -4.51 KCAL/MOL
REMARK 923 INTER-LIGAND FREE ENERGY PREDICTED BY IDOCK:   -3.94 KCAL/MOL
REMARK 924 INTRA-LIGAND FREE ENERGY PREDICTED BY IDOCK:   -0.56 KCAL/MOL
REMARK 927      BINDING AFFINITY PREDICTED BY RF-SCORE:    0.00 PKD
ROOT
HETATM    1 NA   UNL     1      -8.646  14.096  69.877  1.00  0.00    -0.340 Na 
HETATM    2 NA   UNL     2      -9.248  13.823  64.824  1.00  0.00    -0.503 Na 
HETATM    3  O   UNL     3      -6.663  13.484  67.127  1.00  0.00    -0.439 OA 
HETATM    4  C   UNL     3      -6.849  14.836  67.552  1.00  0.00    -0.155 C  
HETATM    5  H   UNL     3      -5.831  13.173  67.464  1.00  0.00     0.000 HD 
ENDROOT
BRANCH   4   6
HETATM    6  C   UNL     3      -8.190  15.339  67.008  1.00  0.00    -0.233 C  
HETATM    7  O   UNL     3      -9.286  14.464  67.423  1.00  0.00    -0.189 OA 
HETATM    8  H   UNL     3     -10.118  14.776  67.085  1.00  0.00     0.000 HD 
BRANCH   6   9
HETATM    9  C   UNL     3      -8.501  16.733  67.454  1.00  0.00    -0.189 C  
BRANCH   9  10
HETATM   10  O   UNL     3      -9.903  16.947  67.403  1.00  0.00    -0.250 OA 
HETATM   11  P   UNL     3     -10.221  18.646  67.331  1.00  0.00    -0.427 P  
HETATM   12  O   UNL     3     -10.503  20.167  67.266  1.00  0.00    -0.387 OA 
HETATM   13  O   UNL     3      -9.470  18.696  68.681  1.00  0.00    -0.342 OA 
HETATM   14  O   UNL     3      -9.455  18.563  65.979  1.00  0.00    -0.492 OA 
ENDBRANCH   9  10
ENDBRANCH   6   9
ENDBRANCH   4   6
TORSDOF 3
ENDMDL
MODEL      134
REMARK 921   NORMALIZED FREE ENERGY PREDICTED BY IDOCK:   -3.18 KCAL/MOL
REMARK 922        TOTAL FREE ENERGY PREDICTED BY IDOCK:   -4.50 KCAL/MOL
REMARK 923 INTER-LIGAND FREE ENERGY PREDICTED BY IDOCK:   -3.92 KCAL/MOL
REMARK 924 INTRA-LIGAND FREE ENERGY PREDICTED BY IDOCK:   -0.58 KCAL/MOL
REMARK 927      BINDING AFFINITY PREDICTED BY RF-SCORE:    0.00 PKD
ROOT
HETATM    1 NA   UNL     1     -11.448   5.943  73.616  1.00  0.00    -0.364 Na 
HETATM    2 NA   UNL     2     -13.887  10.367  72.948  1.00  0.00    -0.629 Na 
HETATM    3  O   UNL     3     -14.369   7.019  72.140  1.00  0.00    -0.613 OA 
HETATM    4  C   UNL     3     -13.167   7.021  71.366  1.00  0.00    -0.283 C  
HETATM    5  H   UNL     3     -14.864   6.235  71.929  1.00  0.00     0.000 HD 
ENDROOT
BRANCH   4   6
HETATM    6  C   UNL     3     -12.370   8.284  71.704  1.00  0.00    -0.315 C  
HETATM    7  O   UNL     3     -12.193   8.421  73.150  1.00  0.00    -0.526 OA 
HETATM    8  H   UNL     3     -11.699   9.205  73.360  1.00  0.00     0.000 HD 
BRANCH   6   9
HETATM    9  C   UNL     3     -11.020   8.298  71.058  1.00  0.00    -0.245 C  
BRANCH   9  10
HETATM   10  O   UNL     3     -10.708   9.617  70.639  1.00  0.00    -0.276 OA 
HETATM   11  P   UNL     3      -9.515   9.552  69.387  1.00  0.00    -0.201 P  
HETATM   12  O   UNL     3      -8.447   9.492  68.267  1.00  0.00    -0.118 OA 
HETATM   13  O   UNL     3      -8.647   8.844  70.452  1.00  0.00    -0.146 OA 
HETATM   14  O   UNL     3     -10.620   8.789  68.603  1.00  0.00    -0.208 OA 
ENDBRANCH   9  10
ENDBRANCH   6   9
ENDBRANCH   4   6
TORSDOF 3
ENDMDL
MODEL      135
REMARK 921   NORMALIZED FREE ENERGY PREDICTED BY IDOCK:   -3.16 KCAL/MOL
REMARK 922        TOTAL FREE ENERGY PREDICTED BY IDOCK:   -4.48 KCAL/MOL
REMARK 923 INTER-LIGAND FREE ENERGY PREDICTED BY IDOCK:   -3.36 KCAL/MOL
REMARK 924 INTRA-LIGAND FREE ENERGY PREDICTED BY IDOCK:   -1.13 KCAL/MOL
REMARK 927      BINDING AFFINITY PREDICTED BY RF-SCORE:    0.00 PKD
ROOT
HETATM    1 NA   UNL     1      -9.616   9.272  69.005  1.00  0.00    -0.144 Na 
HETATM    2 NA   UNL     2      -9.645  14.313  69.745  1.00  0.00    -0.378 Na 
HETATM    3  O   UNL     3     -11.674  11.593  70.503  1.00  0.00    -0.477 OA 
HETATM    4  C   UNL     3     -11.847  11.319  69.111  1.00  0.00    -0.355 C  
HETATM    5  H   UNL     3     -12.320  11.097  70.992  1.00  0.00     0.000 HD 
ENDROOT
BRANCH   4   6
HETATM    6  C   UNL     3     -10.805  12.119  68.323  1.00  0.00    -0.223 C  
HETATM    7  O   UNL     3      -9.504  12.086  68.990  1.00  0.00    -0.406 OA 
HETATM    8  H   UNL     3      -8.857  12.582  68.501  1.00  0.00     0.000 HD 
BRANCH   6   9
HETATM    9  C   UNL     3     -10.634  11.614  66.925  1.00  0.00    -0.241 C  
BRANCH   9  10
HETATM   10  O   UNL     3     -10.743  10.199  66.914  1.00  0.00    -0.226 OA 
HETATM   11  P   UNL     3      -9.556   9.542  65.840  1.00  0.00    -0.275 P  
HETATM   12  O   UNL     3      -8.494   8.955  64.880  1.00  0.00    -0.163 OA 
HETATM   13  O   UNL     3     -10.272  10.389  64.764  1.00  0.00    -0.345 OA 
HETATM   14  O   UNL     3      -8.545  10.179  66.835  1.00  0.00    -0.125 OA 
ENDBRANCH   9  10
ENDBRANCH   6   9
ENDBRANCH   4   6
TORSDOF 3
ENDMDL
MODEL      136
REMARK 921   NORMALIZED FREE ENERGY PREDICTED BY IDOCK:   -3.14 KCAL/MOL
REMARK 922        TOTAL FREE ENERGY PREDICTED BY IDOCK:   -4.46 KCAL/MOL
REMARK 923 INTER-LIGAND FREE ENERGY PREDICTED BY IDOCK:   -4.20 KCAL/MOL
REMARK 924 INTRA-LIGAND FREE ENERGY PREDICTED BY IDOCK:   -0.25 KCAL/MOL
REMARK 927      BINDING AFFINITY PREDICTED BY RF-SCORE:    0.00 PKD
ROOT
HETATM    1 NA   UNL     1     -12.130  12.452  69.149  1.00  0.00    -0.241 Na 
HETATM    2 NA   UNL     2      -9.662  15.617  66.010  1.00  0.00    -0.216 Na 
HETATM    3  O   UNL     3      -9.357  14.491  69.286  1.00  0.00    -0.392 OA 
HETATM    4  C   UNL     3     -10.634  15.047  69.608  1.00  0.00    -0.238 C  
HETATM    5  H   UNL     3      -8.908  14.274  70.095  1.00  0.00     0.000 HD 
ENDROOT
BRANCH   4   6
HETATM    6  C   UNL     3     -11.357  15.397  68.304  1.00  0.00    -0.348 C  
HETATM    7  O   UNL     3     -10.974  16.728  67.833  1.00  0.00    -0.337 OA 
HETATM    8  H   UNL     3     -11.422  16.946  67.024  1.00  0.00     0.000 HD 
BRANCH   6   9
HETATM    9  C   UNL     3     -11.080  14.411  67.214  1.00  0.00    -0.311 C  
BRANCH   9  10
HETATM   10  O   UNL     3     -12.033  14.570  66.175  1.00  0.00    -0.372 OA 
HETATM   11  P   UNL     3     -11.913  13.237  65.079  1.00  0.00    -0.428 P  
HETATM   12  O   UNL     3     -11.805  12.043  64.099  1.00  0.00    -0.376 OA 
HETATM   13  O   UNL     3     -10.457  13.716  64.884  1.00  0.00    -0.368 OA 
HETATM   14  O   UNL     3     -12.332  12.396  66.318  1.00  0.00    -0.577 OA 
ENDBRANCH   9  10
ENDBRANCH   6   9
ENDBRANCH   4   6
TORSDOF 3
ENDMDL
MODEL      137
REMARK 921   NORMALIZED FREE ENERGY PREDICTED BY IDOCK:   -3.12 KCAL/MOL
REMARK 922        TOTAL FREE ENERGY PREDICTED BY IDOCK:   -4.43 KCAL/MOL
REMARK 923 INTER-LIGAND FREE ENERGY PREDICTED BY IDOCK:   -4.07 KCAL/MOL
REMARK 924 INTRA-LIGAND FREE ENERGY PREDICTED BY IDOCK:   -0.36 KCAL/MOL
REMARK 927      BINDING AFFINITY PREDICTED BY RF-SCORE:    0.00 PKD
ROOT
HETATM    1 NA   UNL     1      -9.121  16.527  65.797  1.00  0.00    -0.244 Na 
HETATM    2 NA   UNL     2     -10.714  18.895  70.019  1.00  0.00    -0.541 Na 
HETATM    3  O   UNL     3     -10.702  19.484  66.591  1.00  0.00    -0.457 OA 
HETATM    4  C   UNL     3      -9.273  19.451  66.579  1.00  0.00    -0.356 C  
HETATM    5  H   UNL     3     -11.004  19.852  65.769  1.00  0.00     0.000 HD 
ENDROOT
BRANCH   4   6
HETATM    6  C   UNL     3      -8.787  18.858  67.905  1.00  0.00    -0.298 C  
HETATM    7  O   UNL     3      -9.249  19.659  69.039  1.00  0.00    -0.332 OA 
HETATM    8  H   UNL     3      -8.947  19.291  69.862  1.00  0.00     0.000 HD 
BRANCH   6   9
HETATM    9  C   UNL     3      -9.245  17.447  68.103  1.00  0.00    -0.270 C  
BRANCH   9  10
HETATM   10  O   UNL     3     -10.653  17.378  67.940  1.00  0.00    -0.367 OA 
HETATM   11  P   UNL     3     -11.222  15.851  68.520  1.00  0.00    -0.360 P  
HETATM   12  O   UNL     3     -11.729  14.484  69.040  1.00  0.00    -0.278 OA 
HETATM   13  O   UNL     3     -10.280  15.257  67.448  1.00  0.00    -0.239 OA 
HETATM   14  O   UNL     3     -10.679  16.356  69.887  1.00  0.00    -0.330 OA 
ENDBRANCH   9  10
ENDBRANCH   6   9
ENDBRANCH   4   6
TORSDOF 3
ENDMDL
MODEL      138
REMARK 921   NORMALIZED FREE ENERGY PREDICTED BY IDOCK:   -3.12 KCAL/MOL
REMARK 922        TOTAL FREE ENERGY PREDICTED BY IDOCK:   -4.43 KCAL/MOL
REMARK 923 INTER-LIGAND FREE ENERGY PREDICTED BY IDOCK:   -3.87 KCAL/MOL
REMARK 924 INTRA-LIGAND FREE ENERGY PREDICTED BY IDOCK:   -0.57 KCAL/MOL
REMARK 927      BINDING AFFINITY PREDICTED BY RF-SCORE:    0.00 PKD
ROOT
HETATM    1 NA   UNL     1     -12.980  10.730  72.561  1.00  0.00    -0.418 Na 
HETATM    2 NA   UNL     2     -12.707   6.697  69.458  1.00  0.00    -0.638 Na 
HETATM    3  O   UNL     3     -12.160   7.394  72.821  1.00  0.00    -0.543 OA 
HETATM    4  C   UNL     3     -11.135   8.327  72.473  1.00  0.00    -0.368 C  
HETATM    5  H   UNL     3     -12.097   7.208  73.751  1.00  0.00     0.000 HD 
ENDROOT
BRANCH   4   6
HETATM    6  C   UNL     3     -11.236   8.626  70.974  1.00  0.00    -0.271 C  
HETATM    7  O   UNL     3     -12.553   9.162  70.633  1.00  0.00    -0.497 OA 
HETATM    8  H   UNL     3     -12.616   9.348  69.703  1.00  0.00     0.000 HD 
BRANCH   6   9
HETATM    9  C   UNL     3     -10.195   9.598  70.514  1.00  0.00    -0.287 C  
BRANCH   9  10
HETATM   10  O   UNL     3      -9.173   8.904  69.815  1.00  0.00    -0.156 OA 
HETATM   11  P   UNL     3      -7.680   9.763  69.984  1.00  0.00    -0.170 P  
HETATM   12  O   UNL     3      -6.346  10.533  70.136  1.00  0.00    -0.100 OA 
HETATM   13  O   UNL     3      -8.441  10.925  69.306  1.00  0.00    -0.108 OA 
HETATM   14  O   UNL     3      -7.862   9.447  71.496  1.00  0.00    -0.308 OA 
ENDBRANCH   9  10
ENDBRANCH   6   9
ENDBRANCH   4   6
TORSDOF 3
ENDMDL
MODEL      139
REMARK 921   NORMALIZED FREE ENERGY PREDICTED BY IDOCK:   -3.11 KCAL/MOL
REMARK 922        TOTAL FREE ENERGY PREDICTED BY IDOCK:   -4.43 KCAL/MOL
REMARK 923 INTER-LIGAND FREE ENERGY PREDICTED BY IDOCK:   -3.46 KCAL/MOL
REMARK 924 INTRA-LIGAND FREE ENERGY PREDICTED BY IDOCK:   -0.97 KCAL/MOL
REMARK 927      BINDING AFFINITY PREDICTED BY RF-SCORE:    0.00 PKD
ROOT
HETATM    1 NA   UNL     1      -8.538   8.526  67.541  1.00  0.00    -0.115 Na 
HETATM    2 NA   UNL     2     -10.428  10.093  63.076  1.00  0.00    -0.486 Na 
HETATM    3  O   UNL     3      -7.732  10.856  65.135  1.00  0.00    -0.357 OA 
HETATM    4  C   UNL     3      -8.626  11.234  66.185  1.00  0.00    -0.156 C  
HETATM    5  H   UNL     3      -6.861  11.170  65.352  1.00  0.00     0.000 HD 
ENDROOT
BRANCH   4   6
HETATM    6  C   UNL     3     -10.030  10.729  65.836  1.00  0.00    -0.250 C  
HETATM    7  O   UNL     3     -10.018   9.292  65.565  1.00  0.00    -0.440 OA 
HETATM    8  H   UNL     3     -10.889   8.978  65.349  1.00  0.00     0.000 HD 
BRANCH   6   9
HETATM    9  C   UNL     3     -11.021  10.999  66.925  1.00  0.00    -0.249 C  
BRANCH   9  10
HETATM   10  O   UNL     3     -10.334  11.276  68.135  1.00  0.00    -0.175 OA 
HETATM   11  P   UNL     3     -11.078  10.400  69.428  1.00  0.00    -0.268 P  
HETATM   12  O   UNL     3     -11.744   9.616  70.585  1.00  0.00    -0.269 OA 
HETATM   13  O   UNL     3     -12.344  11.200  69.047  1.00  0.00    -0.479 OA 
HETATM   14  O   UNL     3     -10.632   9.150  68.617  1.00  0.00    -0.215 OA 
ENDBRANCH   9  10
ENDBRANCH   6   9
ENDBRANCH   4   6
TORSDOF 3
ENDMDL
MODEL      140
REMARK 921   NORMALIZED FREE ENERGY PREDICTED BY IDOCK:   -3.11 KCAL/MOL
REMARK 922        TOTAL FREE ENERGY PREDICTED BY IDOCK:   -4.43 KCAL/MOL
REMARK 923 INTER-LIGAND FREE ENERGY PREDICTED BY IDOCK:   -3.85 KCAL/MOL
REMARK 924 INTRA-LIGAND FREE ENERGY PREDICTED BY IDOCK:   -0.58 KCAL/MOL
REMARK 927      BINDING AFFINITY PREDICTED BY RF-SCORE:    0.00 PKD
ROOT
HETATM    1 NA   UNL     1      -8.651  11.925  69.505  1.00  0.00    -0.351 Na 
HETATM    2 NA   UNL     2     -13.024  14.272  68.348  1.00  0.00    -0.562 Na 
HETATM    3  O   UNL     3     -12.017  11.211  69.658  1.00  0.00    -0.308 OA 
HETATM    4  C   UNL     3     -11.307  10.916  68.453  1.00  0.00    -0.304 C  
HETATM    5  H   UNL     3     -12.096  10.412  70.167  1.00  0.00     0.000 HD 
ENDROOT
BRANCH   4   6
HETATM    6  C   UNL     3     -11.181  12.203  67.632  1.00  0.00    -0.286 C  
HETATM    7  O   UNL     3     -10.667  13.300  68.452  1.00  0.00    -0.242 OA 
HETATM    8  H   UNL     3     -10.588  14.099  67.944  1.00  0.00     0.000 HD 
BRANCH   6   9
HETATM    9  C   UNL     3     -10.285  12.038  66.445  1.00  0.00    -0.216 C  
BRANCH   9  10
HETATM   10  O   UNL     3     -10.885  11.148  65.517  1.00  0.00    -0.228 OA 
HETATM   11  P   UNL     3     -10.061  11.263  64.000  1.00  0.00    -0.398 P  
HETATM   12  O   UNL     3      -9.323  11.366  62.643  1.00  0.00    -0.361 OA 
HETATM   13  O   UNL     3     -10.488  12.747  64.046  1.00  0.00    -0.406 OA 
HETATM   14  O   UNL     3      -8.841  10.743  64.812  1.00  0.00    -0.188 OA 
ENDBRANCH   9  10
ENDBRANCH   6   9
ENDBRANCH   4   6
TORSDOF 3
ENDMDL
MODEL      141
REMARK 921   NORMALIZED FREE ENERGY PREDICTED BY IDOCK:   -3.11 KCAL/MOL
REMARK 922        TOTAL FREE ENERGY PREDICTED BY IDOCK:   -4.42 KCAL/MOL
REMARK 923 INTER-LIGAND FREE ENERGY PREDICTED BY IDOCK:   -3.76 KCAL/MOL
REMARK 924 INTRA-LIGAND FREE ENERGY PREDICTED BY IDOCK:   -0.66 KCAL/MOL
REMARK 927      BINDING AFFINITY PREDICTED BY RF-SCORE:    0.00 PKD
ROOT
HETATM    1 NA   UNL     1     -13.946   9.265  73.567  1.00  0.00    -0.684 Na 
HETATM    2 NA   UNL     2     -12.612   6.500  69.500  1.00  0.00    -0.622 Na 
HETATM    3  O   UNL     3     -11.850   6.616  72.891  1.00  0.00    -0.482 OA 
HETATM    4  C   UNL     3     -11.345   7.945  72.744  1.00  0.00    -0.393 C  
HETATM    5  H   UNL     3     -11.570   6.278  73.734  1.00  0.00     0.000 HD 
ENDROOT
BRANCH   4   6
HETATM    6  C   UNL     3     -11.795   8.491  71.385  1.00  0.00    -0.296 C  
HETATM    7  O   UNL     3     -12.488   9.770  71.536  1.00  0.00    -0.346 OA 
HETATM    8  H   UNL     3     -12.767  10.109  70.693  1.00  0.00     0.000 HD 
BRANCH   6   9
HETATM    9  C   UNL     3     -10.651   8.680  70.438  1.00  0.00    -0.220 C  
BRANCH   9  10
HETATM   10  O   UNL     3     -10.871   7.909  69.267  1.00  0.00    -0.179 OA 
HETATM   11  P   UNL     3      -9.357   7.302  68.691  1.00  0.00    -0.137 P  
HETATM   12  O   UNL     3      -8.002   6.758  68.176  1.00  0.00    -0.111 OA 
HETATM   13  O   UNL     3      -8.965   8.793  68.583  1.00  0.00    -0.137 OA 
HETATM   14  O   UNL     3      -9.329   6.551  70.052  1.00  0.00    -0.156 OA 
ENDBRANCH   9  10
ENDBRANCH   6   9
ENDBRANCH   4   6
TORSDOF 3
ENDMDL
MODEL      142
REMARK 921   NORMALIZED FREE ENERGY PREDICTED BY IDOCK:   -3.11 KCAL/MOL
REMARK 922        TOTAL FREE ENERGY PREDICTED BY IDOCK:   -4.42 KCAL/MOL
REMARK 923 INTER-LIGAND FREE ENERGY PREDICTED BY IDOCK:   -3.95 KCAL/MOL
REMARK 924 INTRA-LIGAND FREE ENERGY PREDICTED BY IDOCK:   -0.47 KCAL/MOL
REMARK 927      BINDING AFFINITY PREDICTED BY RF-SCORE:    0.00 PKD
ROOT
HETATM    1 NA   UNL     1      -6.935  20.448  69.743  1.00  0.00    -0.291 Na 
HETATM    2 NA   UNL     2      -7.252  19.754  64.705  1.00  0.00    -0.260 Na 
HETATM    3  O   UNL     3      -9.184  21.159  67.232  1.00  0.00    -0.592 OA 
HETATM    4  C   UNL     3      -9.267  19.892  67.890  1.00  0.00    -0.328 C  
HETATM    5  H   UNL     3      -9.832  21.741  67.614  1.00  0.00     0.000 HD 
ENDROOT
BRANCH   4   6
HETATM    6  C   UNL     3      -8.223  18.954  67.274  1.00  0.00    -0.270 C  
HETATM    7  O   UNL     3      -7.378  18.359  68.309  1.00  0.00    -0.255 OA 
HETATM    8  H   UNL     3      -6.731  17.777  67.928  1.00  0.00     0.000 HD 
BRANCH   6   9
HETATM    9  C   UNL     3      -8.846  17.851  66.478  1.00  0.00    -0.261 C  
BRANCH   9  10
HETATM   10  O   UNL     3     -10.099  17.503  67.047  1.00  0.00    -0.301 OA 
HETATM   11  P   UNL     3     -10.502  15.883  66.592  1.00  0.00    -0.275 P  
HETATM   12  O   UNL     3     -10.863  14.433  66.186  1.00  0.00    -0.300 OA 
HETATM   13  O   UNL     3     -10.423  16.423  65.147  1.00  0.00    -0.622 OA 
HETATM   14  O   UNL     3      -9.221  15.516  67.393  1.00  0.00    -0.198 OA 
ENDBRANCH   9  10
ENDBRANCH   6   9
ENDBRANCH   4   6
TORSDOF 3
ENDMDL
MODEL      143
REMARK 921   NORMALIZED FREE ENERGY PREDICTED BY IDOCK:   -3.11 KCAL/MOL
REMARK 922        TOTAL FREE ENERGY PREDICTED BY IDOCK:   -4.42 KCAL/MOL
REMARK 923 INTER-LIGAND FREE ENERGY PREDICTED BY IDOCK:   -4.00 KCAL/MOL
REMARK 924 INTRA-LIGAND FREE ENERGY PREDICTED BY IDOCK:   -0.42 KCAL/MOL
REMARK 927      BINDING AFFINITY PREDICTED BY RF-SCORE:    0.00 PKD
ROOT
HETATM    1 NA   UNL     1     -11.660   9.118  67.611  1.00  0.00    -0.518 Na 
HETATM    2 NA   UNL     2     -10.922  13.508  70.091  1.00  0.00    -0.417 Na 
HETATM    3  O   UNL     3      -9.876  10.202  70.352  1.00  0.00    -0.393 OA 
HETATM    4  C   UNL     3     -11.228   9.777  70.537  1.00  0.00    -0.315 C  
HETATM    5  H   UNL     3      -9.298   9.486  70.591  1.00  0.00     0.000 HD 
ENDROOT
BRANCH   4   6
HETATM    6  C   UNL     3     -12.160  10.930  70.152  1.00  0.00    -0.349 C  
HETATM    7  O   UNL     3     -11.937  12.094  71.010  1.00  0.00    -0.356 OA 
HETATM    8  H   UNL     3     -12.515  12.809  70.771  1.00  0.00     0.000 HD 
BRANCH   6   9
HETATM    9  C   UNL     3     -11.988  11.352  68.727  1.00  0.00    -0.287 C  
BRANCH   9  10
HETATM   10  O   UNL     3     -10.716  11.959  68.561  1.00  0.00    -0.208 OA 
HETATM   11  P   UNL     3     -10.662  12.765  67.031  1.00  0.00    -0.261 P  
HETATM   12  O   UNL     3     -10.614  13.486  65.662  1.00  0.00    -0.273 OA 
HETATM   13  O   UNL     3     -10.941  11.362  66.446  1.00  0.00    -0.285 OA 
HETATM   14  O   UNL     3     -11.801  13.634  67.636  1.00  0.00    -0.340 OA 
ENDBRANCH   9  10
ENDBRANCH   6   9
ENDBRANCH   4   6
TORSDOF 3
ENDMDL
MODEL      144
REMARK 921   NORMALIZED FREE ENERGY PREDICTED BY IDOCK:   -3.10 KCAL/MOL
REMARK 922        TOTAL FREE ENERGY PREDICTED BY IDOCK:   -4.42 KCAL/MOL
REMARK 923 INTER-LIGAND FREE ENERGY PREDICTED BY IDOCK:   -3.78 KCAL/MOL
REMARK 924 INTRA-LIGAND FREE ENERGY PREDICTED BY IDOCK:   -0.64 KCAL/MOL
REMARK 927      BINDING AFFINITY PREDICTED BY RF-SCORE:    0.00 PKD
ROOT
HETATM    1 NA   UNL     1     -10.607   9.854  64.953  1.00  0.00    -0.329 Na 
HETATM    2 NA   UNL     2      -9.211  12.578  69.027  1.00  0.00    -0.297 Na 
HETATM    3  O   UNL     3     -12.157  11.756  67.371  1.00  0.00    -0.595 OA 
HETATM    4  C   UNL     3     -11.685  12.403  66.187  1.00  0.00    -0.400 C  
HETATM    5  H   UNL     3     -13.089  11.596  67.278  1.00  0.00     0.000 HD 
ENDROOT
BRANCH   4   6
HETATM    6  C   UNL     3     -10.183  12.663  66.337  1.00  0.00    -0.251 C  
HETATM    7  O   UNL     3      -9.420  11.929  65.328  1.00  0.00    -0.379 OA 
HETATM    8  H   UNL     3      -8.488  12.090  65.421  1.00  0.00     0.000 HD 
BRANCH   6   9
HETATM    9  C   UNL     3      -9.840  14.116  66.227  1.00  0.00    -0.306 C  
BRANCH   9  10
HETATM   10  O   UNL     3      -8.976  14.482  67.291  1.00  0.00    -0.189 OA 
HETATM   11  P   UNL     3      -9.177  16.166  67.636  1.00  0.00    -0.206 P  
HETATM   12  O   UNL     3      -9.358  17.672  67.945  1.00  0.00    -0.258 OA 
HETATM   13  O   UNL     3      -8.740  16.370  66.168  1.00  0.00    -0.312 OA 
HETATM   14  O   UNL     3     -10.630  15.747  68.000  1.00  0.00    -0.263 OA 
ENDBRANCH   9  10
ENDBRANCH   6   9
ENDBRANCH   4   6
TORSDOF 3
ENDMDL
MODEL      145
REMARK 921   NORMALIZED FREE ENERGY PREDICTED BY IDOCK:   -3.10 KCAL/MOL
REMARK 922        TOTAL FREE ENERGY PREDICTED BY IDOCK:   -4.42 KCAL/MOL
REMARK 923 INTER-LIGAND FREE ENERGY PREDICTED BY IDOCK:   -4.10 KCAL/MOL
REMARK 924 INTRA-LIGAND FREE ENERGY PREDICTED BY IDOCK:   -0.32 KCAL/MOL
REMARK 927      BINDING AFFINITY PREDICTED BY RF-SCORE:    0.00 PKD
ROOT
HETATM    1 NA   UNL     1     -11.388  17.450  64.734  1.00  0.00    -0.467 Na 
HETATM    2 NA   UNL     2      -8.576  17.478  68.984  1.00  0.00    -0.244 Na 
HETATM    3  O   UNL     3     -11.030  19.455  67.512  1.00  0.00    -0.464 OA 
HETATM    4  C   UNL     3     -10.183  19.687  66.384  1.00  0.00    -0.488 C  
HETATM    5  H   UNL     3     -11.749  20.077  67.485  1.00  0.00     0.000 HD 
ENDROOT
BRANCH   4   6
HETATM    6  C   UNL     3      -9.025  18.686  66.429  1.00  0.00    -0.279 C  
HETATM    7  O   UNL     3      -8.024  19.086  67.418  1.00  0.00    -0.248 OA 
HETATM    8  H   UNL     3      -7.305  18.465  67.446  1.00  0.00     0.000 HD 
BRANCH   6   9
HETATM    9  C   UNL     3      -9.481  17.298  66.752  1.00  0.00    -0.265 C  
BRANCH   9  10
HETATM   10  O   UNL     3      -9.547  16.530  65.561  1.00  0.00    -0.502 OA 
HETATM   11  P   UNL     3      -9.881  14.880  65.961  1.00  0.00    -0.334 P  
HETATM   12  O   UNL     3     -10.180  13.404  66.321  1.00  0.00    -0.283 OA 
HETATM   13  O   UNL     3      -8.565  14.962  66.768  1.00  0.00    -0.243 OA 
HETATM   14  O   UNL     3     -11.212  15.459  66.519  1.00  0.00    -0.278 OA 
ENDBRANCH   9  10
ENDBRANCH   6   9
ENDBRANCH   4   6
TORSDOF 3
ENDMDL
MODEL      146
REMARK 921   NORMALIZED FREE ENERGY PREDICTED BY IDOCK:   -3.10 KCAL/MOL
REMARK 922        TOTAL FREE ENERGY PREDICTED BY IDOCK:   -4.41 KCAL/MOL
REMARK 923 INTER-LIGAND FREE ENERGY PREDICTED BY IDOCK:   -3.79 KCAL/MOL
REMARK 924 INTRA-LIGAND FREE ENERGY PREDICTED BY IDOCK:   -0.63 KCAL/MOL
REMARK 927      BINDING AFFINITY PREDICTED BY RF-SCORE:    0.00 PKD
ROOT
HETATM    1 NA   UNL     1     -11.517   6.621  69.735  1.00  0.00    -0.238 Na 
HETATM    2 NA   UNL     2      -8.488   8.783  73.216  1.00  0.00    -0.192 Na 
HETATM    3  O   UNL     3     -11.744   7.575  73.037  1.00  0.00    -0.594 OA 
HETATM    4  C   UNL     3     -12.056   8.533  72.023  1.00  0.00    -0.364 C  
HETATM    5  H   UNL     3     -12.556   7.205  73.364  1.00  0.00     0.000 HD 
ENDROOT
BRANCH   4   6
HETATM    6  C   UNL     3     -10.747   9.130  71.496  1.00  0.00    -0.367 C  
HETATM    7  O   UNL     3      -9.837   8.079  71.041  1.00  0.00    -0.172 OA 
HETATM    8  H   UNL     3      -9.025   8.449  70.714  1.00  0.00     0.000 HD 
BRANCH   6   9
HETATM    9  C   UNL     3     -10.969  10.087  70.367  1.00  0.00    -0.320 C  
BRANCH   9  10
HETATM   10  O   UNL     3     -10.865   9.396  69.132  1.00  0.00    -0.220 OA 
HETATM   11  P   UNL     3     -10.792  10.545  67.839  1.00  0.00    -0.313 P  
HETATM   12  O   UNL     3     -10.727  11.573  66.684  1.00  0.00    -0.245 OA 
HETATM   13  O   UNL     3     -12.171  11.004  68.364  1.00  0.00    -0.586 OA 
HETATM   14  O   UNL     3      -9.472  10.989  68.530  1.00  0.00    -0.174 OA 
ENDBRANCH   9  10
ENDBRANCH   6   9
ENDBRANCH   4   6
TORSDOF 3
ENDMDL
MODEL      147
REMARK 921   NORMALIZED FREE ENERGY PREDICTED BY IDOCK:   -3.10 KCAL/MOL
REMARK 922        TOTAL FREE ENERGY PREDICTED BY IDOCK:   -4.41 KCAL/MOL
REMARK 923 INTER-LIGAND FREE ENERGY PREDICTED BY IDOCK:   -3.98 KCAL/MOL
REMARK 924 INTRA-LIGAND FREE ENERGY PREDICTED BY IDOCK:   -0.43 KCAL/MOL
REMARK 927      BINDING AFFINITY PREDICTED BY RF-SCORE:    0.00 PKD
ROOT
HETATM    1 NA   UNL     1     -13.100  14.444  66.788  1.00  0.00    -0.608 Na 
HETATM    2 NA   UNL     2      -8.829  12.147  65.225  1.00  0.00    -0.378 Na 
HETATM    3  O   UNL     3     -11.678  13.528  63.787  1.00  0.00    -0.599 OA 
HETATM    4  C   UNL     3     -12.499  12.581  64.475  1.00  0.00    -0.459 C  
HETATM    5  H   UNL     3     -12.199  13.944  63.109  1.00  0.00     0.000 HD 
ENDROOT
BRANCH   4   6
HETATM    6  C   UNL     3     -11.660  11.910  65.567  1.00  0.00    -0.218 C  
HETATM    7  O   UNL     3     -10.531  11.181  64.988  1.00  0.00    -0.286 OA 
HETATM    8  H   UNL     3     -10.010  10.765  65.665  1.00  0.00     0.000 HD 
BRANCH   6   9
HETATM    9  C   UNL     3     -11.128  12.892  66.564  1.00  0.00    -0.286 C  
BRANCH   9  10
HETATM   10  O   UNL     3     -10.173  13.734  65.938  1.00  0.00    -0.296 OA 
HETATM   11  P   UNL     3      -9.351  14.662  67.146  1.00  0.00    -0.243 P  
HETATM   12  O   UNL     3      -8.616  15.491  68.227  1.00  0.00    -0.156 OA 
HETATM   13  O   UNL     3     -10.760  15.196  67.486  1.00  0.00    -0.271 OA 
HETATM   14  O   UNL     3      -8.867  13.272  67.648  1.00  0.00    -0.177 OA 
ENDBRANCH   9  10
ENDBRANCH   6   9
ENDBRANCH   4   6
TORSDOF 3
ENDMDL
MODEL      148
REMARK 921   NORMALIZED FREE ENERGY PREDICTED BY IDOCK:   -3.10 KCAL/MOL
REMARK 922        TOTAL FREE ENERGY PREDICTED BY IDOCK:   -4.41 KCAL/MOL
REMARK 923 INTER-LIGAND FREE ENERGY PREDICTED BY IDOCK:   -3.91 KCAL/MOL
REMARK 924 INTRA-LIGAND FREE ENERGY PREDICTED BY IDOCK:   -0.49 KCAL/MOL
REMARK 927      BINDING AFFINITY PREDICTED BY RF-SCORE:    0.00 PKD
ROOT
HETATM    1 NA   UNL     1      -7.764   8.786  68.661  1.00  0.00    -0.082 Na 
HETATM    2 NA   UNL     2     -12.110   6.770  66.926  1.00  0.00    -0.705 Na 
HETATM    3  O   UNL     3      -9.227   8.192  65.599  1.00  0.00    -0.387 OA 
HETATM    4  C   UNL     3      -9.512   9.422  66.269  1.00  0.00    -0.214 C  
HETATM    5  H   UNL     3      -8.553   8.350  64.948  1.00  0.00     0.000 HD 
ENDROOT
BRANCH   4   6
HETATM    6  C   UNL     3     -10.599   9.167  67.318  1.00  0.00    -0.233 C  
HETATM    7  O   UNL     3     -10.123   8.251  68.354  1.00  0.00    -0.189 OA 
HETATM    8  H   UNL     3     -10.797   8.093  69.005  1.00  0.00     0.000 HD 
BRANCH   6   9
HETATM    9  C   UNL     3     -11.065  10.428  67.976  1.00  0.00    -0.298 C  
BRANCH   9  10
HETATM   10  O   UNL     3     -10.292  11.522  67.508  1.00  0.00    -0.188 OA 
HETATM   11  P   UNL     3     -11.275  12.945  67.479  1.00  0.00    -0.327 P  
HETATM   12  O   UNL     3     -12.156  14.218  67.454  1.00  0.00    -0.400 OA 
HETATM   13  O   UNL     3     -12.160  12.138  66.502  1.00  0.00    -0.627 OA 
HETATM   14  O   UNL     3     -11.352  12.722  69.017  1.00  0.00    -0.264 OA 
ENDBRANCH   9  10
ENDBRANCH   6   9
ENDBRANCH   4   6
TORSDOF 3
ENDMDL
MODEL      149
REMARK 921   NORMALIZED FREE ENERGY PREDICTED BY IDOCK:   -3.08 KCAL/MOL
REMARK 922        TOTAL FREE ENERGY PREDICTED BY IDOCK:   -4.40 KCAL/MOL
REMARK 923 INTER-LIGAND FREE ENERGY PREDICTED BY IDOCK:   -3.94 KCAL/MOL
REMARK 924 INTRA-LIGAND FREE ENERGY PREDICTED BY IDOCK:   -0.46 KCAL/MOL
REMARK 927      BINDING AFFINITY PREDICTED BY RF-SCORE:    0.00 PKD
ROOT
HETATM    1 NA   UNL     1     -11.805  19.446  67.384  1.00  0.00    -0.374 Na 
HETATM    2 NA   UNL     2      -7.019  19.126  69.105  1.00  0.00    -0.250 Na 
HETATM    3  O   UNL     3      -8.726  18.537  66.133  1.00  0.00    -0.462 OA 
HETATM    4  C   UNL     3      -9.527  17.542  66.776  1.00  0.00    -0.275 C  
HETATM    5  H   UNL     3      -8.837  18.452  65.193  1.00  0.00     0.000 HD 
ENDROOT
BRANCH   4   6
HETATM    6  C   UNL     3      -9.348  17.678  68.292  1.00  0.00    -0.290 C  
HETATM    7  O   UNL     3     -10.039  18.864  68.798  1.00  0.00    -0.388 OA 
HETATM    8  H   UNL     3      -9.929  18.948  69.738  1.00  0.00     0.000 HD 
BRANCH   6   9
HETATM    9  C   UNL     3      -9.854  16.481  69.036  1.00  0.00    -0.266 C  
BRANCH   9  10
HETATM   10  O   UNL     3     -11.270  16.444  68.969  1.00  0.00    -0.325 OA 
HETATM   11  P   UNL     3     -11.864  15.264  70.086  1.00  0.00    -0.381 P  
HETATM   12  O   UNL     3     -12.395  14.208  71.086  1.00  0.00    -0.337 OA 
HETATM   13  O   UNL     3     -11.016  14.269  69.262  1.00  0.00    -0.252 OA 
HETATM   14  O   UNL     3     -11.218  16.192  71.154  1.00  0.00    -0.337 OA 
ENDBRANCH   9  10
ENDBRANCH   6   9
ENDBRANCH   4   6
TORSDOF 3
ENDMDL
MODEL      150
REMARK 921   NORMALIZED FREE ENERGY PREDICTED BY IDOCK:   -3.08 KCAL/MOL
REMARK 922        TOTAL FREE ENERGY PREDICTED BY IDOCK:   -4.39 KCAL/MOL
REMARK 923 INTER-LIGAND FREE ENERGY PREDICTED BY IDOCK:   -4.18 KCAL/MOL
REMARK 924 INTRA-LIGAND FREE ENERGY PREDICTED BY IDOCK:   -0.20 KCAL/MOL
REMARK 927      BINDING AFFINITY PREDICTED BY RF-SCORE:    0.00 PKD
ROOT
HETATM    1 NA   UNL     1     -11.428  11.962  71.163  1.00  0.00    -0.378 Na 
HETATM    2 NA   UNL     2     -11.900  17.020  70.763  1.00  0.00    -0.526 Na 
HETATM    3  O   UNL     3     -12.152  14.604  73.252  1.00  0.00    -0.206 OA 
HETATM    4  C   UNL     3     -13.223  13.973  72.547  1.00  0.00    -0.505 C  
HETATM    5  H   UNL     3     -12.126  14.257  74.136  1.00  0.00     0.000 HD 
ENDROOT
BRANCH   4   6
HETATM    6  C   UNL     3     -13.266  14.532  71.121  1.00  0.00    -0.361 C  
HETATM    7  O   UNL     3     -13.653  15.943  71.123  1.00  0.00    -0.508 OA 
HETATM    8  H   UNL     3     -13.680  16.290  70.238  1.00  0.00     0.000 HD 
BRANCH   6   9
HETATM    9  C   UNL     3     -11.953  14.402  70.416  1.00  0.00    -0.325 C  
BRANCH   9  10
HETATM   10  O   UNL     3     -12.151  13.794  69.150  1.00  0.00    -0.346 OA 
HETATM   11  P   UNL     3     -11.162  14.589  67.973  1.00  0.00    -0.322 P  
HETATM   12  O   UNL     3     -10.277  15.300  66.921  1.00  0.00    -0.259 OA 
HETATM   13  O   UNL     3     -11.960  15.852  68.369  1.00  0.00    -0.251 OA 
HETATM   14  O   UNL     3      -9.989  14.063  68.848  1.00  0.00    -0.196 OA 
ENDBRANCH   9  10
ENDBRANCH   6   9
ENDBRANCH   4   6
TORSDOF 3
ENDMDL
MODEL      151
REMARK 921   NORMALIZED FREE ENERGY PREDICTED BY IDOCK:   -3.08 KCAL/MOL
REMARK 922        TOTAL FREE ENERGY PREDICTED BY IDOCK:   -4.39 KCAL/MOL
REMARK 923 INTER-LIGAND FREE ENERGY PREDICTED BY IDOCK:   -4.09 KCAL/MOL
REMARK 924 INTRA-LIGAND FREE ENERGY PREDICTED BY IDOCK:   -0.29 KCAL/MOL
REMARK 927      BINDING AFFINITY PREDICTED BY RF-SCORE:    0.00 PKD
ROOT
HETATM    1 NA   UNL     1     -12.306  13.573  70.673  1.00  0.00    -0.259 Na 
HETATM    2 NA   UNL     2     -12.784  13.146  65.617  1.00  0.00    -0.388 Na 
HETATM    3  O   UNL     3     -12.197  11.050  68.330  1.00  0.00    -0.769 OA 
HETATM    4  C   UNL     3     -10.993  11.758  68.632  1.00  0.00    -0.224 C  
HETATM    5  H   UNL     3     -12.199  10.235  68.818  1.00  0.00     0.000 HD 
ENDROOT
BRANCH   4   6
HETATM    6  C   UNL     3     -10.989  13.072  67.844  1.00  0.00    -0.241 C  
HETATM    7  O   UNL     3     -12.180  13.867  68.143  1.00  0.00    -0.476 OA 
HETATM    8  H   UNL     3     -12.178  14.682  67.654  1.00  0.00     0.000 HD 
BRANCH   6   9
HETATM    9  C   UNL     3      -9.779  13.906  68.129  1.00  0.00    -0.222 C  
BRANCH   9  10
HETATM   10  O   UNL     3      -8.976  13.993  66.963  1.00  0.00    -0.221 OA 
HETATM   11  P   UNL     3      -9.025  15.613  66.356  1.00  0.00    -0.320 P  
HETATM   12  O   UNL     3      -9.069  17.062  65.813  1.00  0.00    -0.530 OA 
HETATM   13  O   UNL     3     -10.547  15.370  66.241  1.00  0.00    -0.295 OA 
HETATM   14  O   UNL     3      -8.359  15.966  67.716  1.00  0.00    -0.147 OA 
ENDBRANCH   9  10
ENDBRANCH   6   9
ENDBRANCH   4   6
TORSDOF 3
ENDMDL
MODEL      152
REMARK 921   NORMALIZED FREE ENERGY PREDICTED BY IDOCK:   -3.03 KCAL/MOL
REMARK 922        TOTAL FREE ENERGY PREDICTED BY IDOCK:   -4.33 KCAL/MOL
REMARK 923 INTER-LIGAND FREE ENERGY PREDICTED BY IDOCK:   -3.58 KCAL/MOL
REMARK 924 INTRA-LIGAND FREE ENERGY PREDICTED BY IDOCK:   -0.75 KCAL/MOL
REMARK 927      BINDING AFFINITY PREDICTED BY RF-SCORE:    0.00 PKD
ROOT
HETATM    1 NA   UNL     1      -8.016   6.570  68.321  1.00  0.00    -0.094 Na 
HETATM    2 NA   UNL     2     -11.850   5.199  65.257  1.00  0.00    -0.711 Na 
HETATM    3  O   UNL     3      -9.998   8.064  65.931  1.00  0.00    -0.422 OA 
HETATM    4  C   UNL     3     -10.450   8.051  67.287  1.00  0.00    -0.314 C  
HETATM    5  H   UNL     3      -9.604   8.910  65.752  1.00  0.00     0.000 HD 
ENDROOT
BRANCH   4   6
HETATM    6  C   UNL     3     -11.086   6.688  67.577  1.00  0.00    -0.292 C  
HETATM    7  O   UNL     3     -10.284   5.604  67.011  1.00  0.00    -0.174 OA 
HETATM    8  H   UNL     3     -10.678   4.758  67.190  1.00  0.00     0.000 HD 
BRANCH   6   9
HETATM    9  C   UNL     3     -11.255   6.436  69.043  1.00  0.00    -0.331 C  
BRANCH   9  10
HETATM   10  O   UNL     3     -10.228   7.101  69.761  1.00  0.00    -0.198 OA 
HETATM   11  P   UNL     3     -10.776   7.433  71.368  1.00  0.00    -0.221 P  
HETATM   12  O   UNL     3     -11.268   7.730  72.805  1.00  0.00    -0.354 OA 
HETATM   13  O   UNL     3     -11.888   8.244  70.664  1.00  0.00    -0.221 OA 
HETATM   14  O   UNL     3     -10.851   5.884  71.485  1.00  0.00    -0.250 OA 
ENDBRANCH   9  10
ENDBRANCH   6   9
ENDBRANCH   4   6
TORSDOF 3
ENDMDL
MODEL      153
REMARK 921   NORMALIZED FREE ENERGY PREDICTED BY IDOCK:   -3.01 KCAL/MOL
REMARK 922        TOTAL FREE ENERGY PREDICTED BY IDOCK:   -4.31 KCAL/MOL
REMARK 923 INTER-LIGAND FREE ENERGY PREDICTED BY IDOCK:   -3.44 KCAL/MOL
REMARK 924 INTRA-LIGAND FREE ENERGY PREDICTED BY IDOCK:   -0.87 KCAL/MOL
REMARK 927      BINDING AFFINITY PREDICTED BY RF-SCORE:    0.00 PKD
ROOT
HETATM    1 NA   UNL     1      -9.563   8.684  69.405  1.00  0.00    -0.152 Na 
HETATM    2 NA   UNL     2      -9.527   4.631  72.494  1.00  0.00    -0.123 Na 
HETATM    3  O   UNL     3      -9.651   5.256  69.075  1.00  0.00    -0.126 OA 
HETATM    4  C   UNL     3     -10.884   5.962  69.237  1.00  0.00    -0.344 C  
HETATM    5  H   UNL     3      -9.525   5.075  68.151  1.00  0.00     0.000 HD 
ENDROOT
BRANCH   4   6
HETATM    6  C   UNL     3     -11.088   6.252  70.727  1.00  0.00    -0.316 C  
HETATM    7  O   UNL     3      -9.925   6.936  71.293  1.00  0.00    -0.180 OA 
HETATM    8  H   UNL     3     -10.051   7.117  72.217  1.00  0.00     0.000 HD 
BRANCH   6   9
HETATM    9  C   UNL     3     -12.302   7.088  70.985  1.00  0.00    -0.356 C  
BRANCH   9  10
HETATM   10  O   UNL     3     -12.145   7.787  72.210  1.00  0.00    -0.311 OA 
HETATM   11  P   UNL     3     -12.741   9.402  72.027  1.00  0.00    -0.383 P  
HETATM   12  O   UNL     3     -13.274  10.846  71.862  1.00  0.00    -0.467 OA 
HETATM   13  O   UNL     3     -11.670   9.516  70.919  1.00  0.00    -0.281 OA 
HETATM   14  O   UNL     3     -14.101   8.693  71.770  1.00  0.00    -0.407 OA 
ENDBRANCH   9  10
ENDBRANCH   6   9
ENDBRANCH   4   6
TORSDOF 3
ENDMDL
MODEL      154
REMARK 921   NORMALIZED FREE ENERGY PREDICTED BY IDOCK:   -3.01 KCAL/MOL
REMARK 922        TOTAL FREE ENERGY PREDICTED BY IDOCK:   -4.31 KCAL/MOL
REMARK 923 INTER-LIGAND FREE ENERGY PREDICTED BY IDOCK:   -3.72 KCAL/MOL
REMARK 924 INTRA-LIGAND FREE ENERGY PREDICTED BY IDOCK:   -0.59 KCAL/MOL
REMARK 927      BINDING AFFINITY PREDICTED BY RF-SCORE:    0.00 PKD
ROOT
HETATM    1 NA   UNL     1     -11.278  12.815  70.435  1.00  0.00    -0.461 Na 
HETATM    2 NA   UNL     2      -8.760  11.013  66.387  1.00  0.00    -0.137 Na 
HETATM    3  O   UNL     3      -9.468  14.109  67.805  1.00  0.00    -0.198 OA 
HETATM    4  C   UNL     3     -10.868  13.882  67.629  1.00  0.00    -0.254 C  
HETATM    5  H   UNL     3      -9.332  15.028  68.004  1.00  0.00     0.000 HD 
ENDROOT
BRANCH   4   6
HETATM    6  C   UNL     3     -11.087  12.401  67.308  1.00  0.00    -0.281 C  
HETATM    7  O   UNL     3     -12.249  11.875  68.023  1.00  0.00    -0.491 OA 
HETATM    8  H   UNL     3     -12.385  10.955  67.824  1.00  0.00     0.000 HD 
BRANCH   6   9
HETATM    9  C   UNL     3     -11.281  12.156  65.844  1.00  0.00    -0.339 C  
BRANCH   9  10
HETATM   10  O   UNL     3     -10.147  12.622  65.130  1.00  0.00    -0.281 OA 
HETATM   11  P   UNL     3      -9.939  11.668  63.701  1.00  0.00    -0.391 P  
HETATM   12  O   UNL     3      -9.754  10.815  62.423  1.00  0.00    -0.185 OA 
HETATM   13  O   UNL     3      -9.810  10.484  64.686  1.00  0.00    -0.288 OA 
HETATM   14  O   UNL     3     -11.326  12.252  63.310  1.00  0.00    -0.419 OA 
ENDBRANCH   9  10
ENDBRANCH   6   9
ENDBRANCH   4   6
TORSDOF 3
ENDMDL
MODEL      155
REMARK 921   NORMALIZED FREE ENERGY PREDICTED BY IDOCK:   -2.99 KCAL/MOL
REMARK 922        TOTAL FREE ENERGY PREDICTED BY IDOCK:   -4.28 KCAL/MOL
REMARK 923 INTER-LIGAND FREE ENERGY PREDICTED BY IDOCK:   -3.86 KCAL/MOL
REMARK 924 INTRA-LIGAND FREE ENERGY PREDICTED BY IDOCK:   -0.42 KCAL/MOL
REMARK 927      BINDING AFFINITY PREDICTED BY RF-SCORE:    0.00 PKD
ROOT
HETATM    1 NA   UNL     1     -10.479  20.384  66.706  1.00  0.00    -0.388 Na 
HETATM    2 NA   UNL     2      -6.991  16.720  67.323  1.00  0.00    -0.116 Na 
HETATM    3  O   UNL     3      -7.584  19.932  68.518  1.00  0.00    -0.316 OA 
HETATM    4  C   UNL     3      -7.489  20.456  67.192  1.00  0.00    -0.314 C  
HETATM    5  H   UNL     3      -7.541  20.655  69.133  1.00  0.00     0.000 HD 
ENDROOT
BRANCH   4   6
HETATM    6  C   UNL     3      -7.558  19.290  66.200  1.00  0.00    -0.287 C  
HETATM    7  O   UNL     3      -6.306  18.534  66.193  1.00  0.00    -0.172 OA 
HETATM    8  H   UNL     3      -6.348  17.810  65.578  1.00  0.00     0.000 HD 
BRANCH   6   9
HETATM    9  C   UNL     3      -8.679  18.347  66.503  1.00  0.00    -0.278 C  
BRANCH   9  10
HETATM   10  O   UNL     3      -8.571  17.199  65.678  1.00  0.00    -0.470 OA 
HETATM   11  P   UNL     3      -9.927  16.161  65.960  1.00  0.00    -0.367 P  
HETATM   12  O   UNL     3     -11.140  15.234  66.213  1.00  0.00    -0.330 OA 
HETATM   13  O   UNL     3      -9.413  16.129  67.417  1.00  0.00    -0.224 OA 
HETATM   14  O   UNL     3     -10.749  17.364  65.416  1.00  0.00    -0.595 OA 
ENDBRANCH   9  10
ENDBRANCH   6   9
ENDBRANCH   4   6
TORSDOF 3
ENDMDL
MODEL      156
REMARK 921   NORMALIZED FREE ENERGY PREDICTED BY IDOCK:   -2.98 KCAL/MOL
REMARK 922        TOTAL FREE ENERGY PREDICTED BY IDOCK:   -4.27 KCAL/MOL
REMARK 923 INTER-LIGAND FREE ENERGY PREDICTED BY IDOCK:   -3.64 KCAL/MOL
REMARK 924 INTRA-LIGAND FREE ENERGY PREDICTED BY IDOCK:   -0.63 KCAL/MOL
REMARK 927      BINDING AFFINITY PREDICTED BY RF-SCORE:    0.00 PKD
ROOT
HETATM    1 NA   UNL     1     -11.119  12.344  69.405  1.00  0.00    -0.210 Na 
HETATM    2 NA   UNL     2      -8.061  15.461  66.779  1.00  0.00    -0.144 Na 
HETATM    3  O   UNL     3      -9.180  15.116  70.053  1.00  0.00    -0.439 OA 
HETATM    4  C   UNL     3     -10.530  15.308  69.624  1.00  0.00    -0.270 C  
HETATM    5  H   UNL     3      -9.148  15.202  70.999  1.00  0.00     0.000 HD 
ENDROOT
BRANCH   4   6
HETATM    6  C   UNL     3     -10.582  15.171  68.099  1.00  0.00    -0.246 C  
HETATM    7  O   UNL     3     -11.809  14.498  67.675  1.00  0.00    -0.371 OA 
HETATM    8  H   UNL     3     -11.842  14.413  66.729  1.00  0.00     0.000 HD 
BRANCH   6   9
HETATM    9  C   UNL     3     -10.501  16.494  67.404  1.00  0.00    -0.310 C  
BRANCH   9  10
HETATM   10  O   UNL     3      -9.829  17.427  68.234  1.00  0.00    -0.280 OA 
HETATM   11  P   UNL     3      -9.407  18.822  67.302  1.00  0.00    -0.302 P  
HETATM   12  O   UNL     3      -9.030  20.070  66.467  1.00  0.00    -0.348 OA 
HETATM   13  O   UNL     3      -8.604  17.823  66.439  1.00  0.00    -0.289 OA 
HETATM   14  O   UNL     3     -10.946  18.977  67.144  1.00  0.00    -0.433 OA 
ENDBRANCH   9  10
ENDBRANCH   6   9
ENDBRANCH   4   6
TORSDOF 3
ENDMDL
MODEL      157
REMARK 921   NORMALIZED FREE ENERGY PREDICTED BY IDOCK:   -2.97 KCAL/MOL
REMARK 922        TOTAL FREE ENERGY PREDICTED BY IDOCK:   -4.27 KCAL/MOL
REMARK 923 INTER-LIGAND FREE ENERGY PREDICTED BY IDOCK:   -3.19 KCAL/MOL
REMARK 924 INTRA-LIGAND FREE ENERGY PREDICTED BY IDOCK:   -1.08 KCAL/MOL
REMARK 927      BINDING AFFINITY PREDICTED BY RF-SCORE:    0.00 PKD
ROOT
HETATM    1 NA   UNL     1      -8.710   7.594  68.162  1.00  0.00    -0.117 Na 
HETATM    2 NA   UNL     2     -12.865  10.433  68.969  1.00  0.00    -0.535 Na 
HETATM    3  O   UNL     3      -9.450  10.639  69.595  1.00  0.00    -0.414 OA 
HETATM    4  C   UNL     3      -9.516   9.464  70.407  1.00  0.00    -0.268 C  
HETATM    5  H   UNL     3      -8.616  11.067  69.750  1.00  0.00     0.000 HD 
ENDROOT
BRANCH   4   6
HETATM    6  C   UNL     3     -10.860   8.772  70.157  1.00  0.00    -0.227 C  
HETATM    7  O   UNL     3     -11.179   8.746  68.729  1.00  0.00    -0.420 OA 
HETATM    8  H   UNL     3     -12.013   8.317  68.574  1.00  0.00     0.000 HD 
BRANCH   6   9
HETATM    9  C   UNL     3     -10.886   7.368  70.674  1.00  0.00    -0.242 C  
BRANCH   9  10
HETATM   10  O   UNL     3      -9.581   6.814  70.608  1.00  0.00    -0.169 OA 
HETATM   11  P   UNL     3      -9.693   5.134  70.208  1.00  0.00    -0.243 P  
HETATM   12  O   UNL     3      -9.795   3.632  69.850  1.00  0.00    -0.155 OA 
HETATM   13  O   UNL     3     -10.523   5.030  71.508  1.00  0.00    -0.208 OA 
HETATM   14  O   UNL     3     -10.320   5.661  68.886  1.00  0.00    -0.190 OA 
ENDBRANCH   9  10
ENDBRANCH   6   9
ENDBRANCH   4   6
TORSDOF 3
ENDMDL
MODEL      158
REMARK 921   NORMALIZED FREE ENERGY PREDICTED BY IDOCK:   -2.97 KCAL/MOL
REMARK 922        TOTAL FREE ENERGY PREDICTED BY IDOCK:   -4.26 KCAL/MOL
REMARK 923 INTER-LIGAND FREE ENERGY PREDICTED BY IDOCK:   -3.39 KCAL/MOL
REMARK 924 INTRA-LIGAND FREE ENERGY PREDICTED BY IDOCK:   -0.86 KCAL/MOL
REMARK 927      BINDING AFFINITY PREDICTED BY RF-SCORE:    0.00 PKD
ROOT
HETATM    1 NA   UNL     1     -11.553   5.733  69.004  1.00  0.00    -0.334 Na 
HETATM    2 NA   UNL     2     -11.175   4.737  64.021  1.00  0.00    -0.459 Na 
HETATM    3  O   UNL     3      -9.910   3.463  67.000  1.00  0.00    -0.371 OA 
HETATM    4  C   UNL     3      -9.279   4.715  67.280  1.00  0.00    -0.130 C  
HETATM    5  H   UNL     3      -9.551   2.805  67.584  1.00  0.00     0.000 HD 
ENDROOT
BRANCH   4   6
HETATM    6  C   UNL     3      -9.857   5.775  66.338  1.00  0.00    -0.138 C  
HETATM    7  O   UNL     3     -11.317   5.703  66.300  1.00  0.00    -0.734 OA 
HETATM    8  H   UNL     3     -11.676   6.361  65.716  1.00  0.00     0.000 HD 
BRANCH   6   9
HETATM    9  C   UNL     3      -9.461   7.164  66.730  1.00  0.00    -0.169 C  
BRANCH   9  10
HETATM   10  O   UNL     3     -10.622   7.967  66.872  1.00  0.00    -0.338 OA 
HETATM   11  P   UNL     3     -10.380   9.099  68.158  1.00  0.00    -0.192 P  
HETATM   12  O   UNL     3     -10.163  10.112  69.309  1.00  0.00    -0.196 OA 
HETATM   13  O   UNL     3     -10.188   7.841  69.034  1.00  0.00    -0.198 OA 
HETATM   14  O   UNL     3      -9.240   9.637  67.248  1.00  0.00    -0.133 OA 
ENDBRANCH   9  10
ENDBRANCH   6   9
ENDBRANCH   4   6
TORSDOF 3
ENDMDL
MODEL      159
REMARK 921   NORMALIZED FREE ENERGY PREDICTED BY IDOCK:   -2.96 KCAL/MOL
REMARK 922        TOTAL FREE ENERGY PREDICTED BY IDOCK:   -4.25 KCAL/MOL
REMARK 923 INTER-LIGAND FREE ENERGY PREDICTED BY IDOCK:   -3.97 KCAL/MOL
REMARK 924 INTRA-LIGAND FREE ENERGY PREDICTED BY IDOCK:   -0.28 KCAL/MOL
REMARK 927      BINDING AFFINITY PREDICTED BY RF-SCORE:    0.00 PKD
ROOT
HETATM    1 NA   UNL     1     -11.409  12.731  62.333  1.00  0.00    -0.630 Na 
HETATM    2 NA   UNL     2      -7.179  11.447  64.868  1.00  0.00    -0.340 Na 
HETATM    3  O   UNL     3     -10.317  10.082  64.246  1.00  0.00    -0.389 OA 
HETATM    4  C   UNL     3     -10.941  11.189  64.900  1.00  0.00    -0.121 C  
HETATM    5  H   UNL     3     -10.962   9.393  64.137  1.00  0.00     0.000 HD 
ENDROOT
BRANCH   4   6
HETATM    6  C   UNL     3      -9.902  12.301  65.078  1.00  0.00    -0.137 C  
HETATM    7  O   UNL     3     -10.043  13.322  64.040  1.00  0.00    -0.742 OA 
HETATM    8  H   UNL     3      -9.398  14.011  64.149  1.00  0.00     0.000 HD 
BRANCH   6   9
HETATM    9  C   UNL     3     -10.000  12.967  66.414  1.00  0.00    -0.267 C  
BRANCH   9  10
HETATM   10  O   UNL     3      -9.803  12.006  67.439  1.00  0.00    -0.183 OA 
HETATM   11  P   UNL     3     -10.811  12.397  68.790  1.00  0.00    -0.167 P  
HETATM   12  O   UNL     3     -11.714  12.748  69.998  1.00  0.00    -0.288 OA 
HETATM   13  O   UNL     3     -10.026  13.728  68.805  1.00  0.00    -0.203 OA 
HETATM   14  O   UNL     3     -11.971  12.150  67.784  1.00  0.00    -0.506 OA 
ENDBRANCH   9  10
ENDBRANCH   6   9
ENDBRANCH   4   6
TORSDOF 3
ENDMDL
MODEL      160
REMARK 921   NORMALIZED FREE ENERGY PREDICTED BY IDOCK:   -2.95 KCAL/MOL
REMARK 922        TOTAL FREE ENERGY PREDICTED BY IDOCK:   -4.24 KCAL/MOL
REMARK 923 INTER-LIGAND FREE ENERGY PREDICTED BY IDOCK:   -3.87 KCAL/MOL
REMARK 924 INTRA-LIGAND FREE ENERGY PREDICTED BY IDOCK:   -0.37 KCAL/MOL
REMARK 927      BINDING AFFINITY PREDICTED BY RF-SCORE:    0.00 PKD
ROOT
HETATM    1 NA   UNL     1     -10.017  10.702  63.648  1.00  0.00    -0.220 Na 
HETATM    2 NA   UNL     2     -10.532  13.907  67.577  1.00  0.00    -0.228 Na 
HETATM    3  O   UNL     3      -8.143  11.688  66.366  1.00  0.00    -0.317 OA 
HETATM    4  C   UNL     3      -9.058  10.601  66.521  1.00  0.00    -0.162 C  
HETATM    5  H   UNL     3      -7.272  11.333  66.229  1.00  0.00     0.000 HD 
ENDROOT
BRANCH   4   6
HETATM    6  C   UNL     3     -10.463  11.171  66.742  1.00  0.00    -0.252 C  
HETATM    7  O   UNL     3     -10.568  11.814  68.052  1.00  0.00    -0.194 OA 
HETATM    8  H   UNL     3     -11.439  12.168  68.189  1.00  0.00     0.000 HD 
BRANCH   6   9
HETATM    9  C   UNL     3     -10.846  12.168  65.693  1.00  0.00    -0.284 C  
BRANCH   9  10
HETATM   10  O   UNL     3     -12.171  12.617  65.926  1.00  0.00    -0.548 OA 
HETATM   11  P   UNL     3     -12.558  13.869  64.796  1.00  0.00    -0.146 P  
HETATM   12  O   UNL     3     -12.903  14.989  63.784  1.00  0.00    -0.651 OA 
HETATM   13  O   UNL     3     -11.359  14.610  65.429  1.00  0.00    -0.327 OA 
HETATM   14  O   UNL     3     -12.353  12.748  63.738  1.00  0.00    -0.544 OA 
ENDBRANCH   9  10
ENDBRANCH   6   9
ENDBRANCH   4   6
TORSDOF 3
ENDMDL
MODEL      161
REMARK 921   NORMALIZED FREE ENERGY PREDICTED BY IDOCK:   -2.95 KCAL/MOL
REMARK 922        TOTAL FREE ENERGY PREDICTED BY IDOCK:   -4.23 KCAL/MOL
REMARK 923 INTER-LIGAND FREE ENERGY PREDICTED BY IDOCK:   -3.87 KCAL/MOL
REMARK 924 INTRA-LIGAND FREE ENERGY PREDICTED BY IDOCK:   -0.36 KCAL/MOL
REMARK 927      BINDING AFFINITY PREDICTED BY RF-SCORE:    0.00 PKD
ROOT
HETATM    1 NA   UNL     1      -9.524   8.107  70.356  1.00  0.00    -0.150 Na 
HETATM    2 NA   UNL     2     -13.835   7.813  73.058  1.00  0.00    -0.495 Na 
HETATM    3  O   UNL     3     -10.452   7.160  73.536  1.00  0.00    -0.328 OA 
HETATM    4  C   UNL     3     -10.482   6.183  72.493  1.00  0.00    -0.201 C  
HETATM    5  H   UNL     3      -9.645   7.054  74.027  1.00  0.00     0.000 HD 
ENDROOT
BRANCH   4   6
HETATM    6  C   UNL     3     -11.782   6.352  71.701  1.00  0.00    -0.313 C  
HETATM    7  O   UNL     3     -12.949   6.164  72.563  1.00  0.00    -0.498 OA 
HETATM    8  H   UNL     3     -13.756   6.269  72.073  1.00  0.00     0.000 HD 
BRANCH   6   9
HETATM    9  C   UNL     3     -11.885   7.696  71.051  1.00  0.00    -0.285 C  
BRANCH   9  10
HETATM   10  O   UNL     3     -11.680   8.710  72.022  1.00  0.00    -0.322 OA 
HETATM   11  P   UNL     3     -12.272  10.216  71.409  1.00  0.00    -0.355 P  
HETATM   12  O   UNL     3     -12.802  11.563  70.859  1.00  0.00    -0.294 OA 
HETATM   13  O   UNL     3     -11.241   9.995  70.279  1.00  0.00    -0.267 OA 
HETATM   14  O   UNL     3     -13.645   9.486  71.408  1.00  0.00    -0.366 OA 
ENDBRANCH   9  10
ENDBRANCH   6   9
ENDBRANCH   4   6
TORSDOF 3
ENDMDL
MODEL      162
REMARK 921   NORMALIZED FREE ENERGY PREDICTED BY IDOCK:   -2.94 KCAL/MOL
REMARK 922        TOTAL FREE ENERGY PREDICTED BY IDOCK:   -4.22 KCAL/MOL
REMARK 923 INTER-LIGAND FREE ENERGY PREDICTED BY IDOCK:   -3.68 KCAL/MOL
REMARK 924 INTRA-LIGAND FREE ENERGY PREDICTED BY IDOCK:   -0.54 KCAL/MOL
REMARK 927      BINDING AFFINITY PREDICTED BY RF-SCORE:    0.00 PKD
ROOT
HETATM    1 NA   UNL     1      -9.129   8.033  64.646  1.00  0.00    -0.354 Na 
HETATM    2 NA   UNL     2      -9.513  13.012  63.631  1.00  0.00    -0.552 Na 
HETATM    3  O   UNL     3      -7.089  10.806  64.795  1.00  0.00    -0.358 OA 
HETATM    4  C   UNL     3      -7.903  10.491  65.927  1.00  0.00    -0.151 C  
HETATM    5  H   UNL     3      -6.211  10.480  64.954  1.00  0.00     0.000 HD 
ENDROOT
BRANCH   4   6
HETATM    6  C   UNL     3      -9.320  11.017  65.672  1.00  0.00    -0.214 C  
HETATM    7  O   UNL     3     -10.321   9.991  65.965  1.00  0.00    -0.231 OA 
HETATM    8  H   UNL     3     -11.199  10.316  65.807  1.00  0.00     0.000 HD 
BRANCH   6   9
HETATM    9  C   UNL     3      -9.634  12.232  66.487  1.00  0.00    -0.238 C  
BRANCH   9  10
HETATM   10  O   UNL     3      -9.926  11.847  67.821  1.00  0.00    -0.179 OA 
HETATM   11  P   UNL     3     -11.224  12.818  68.425  1.00  0.00    -0.326 P  
HETATM   12  O   UNL     3     -12.386  13.687  68.964  1.00  0.00    -0.280 OA 
HETATM   13  O   UNL     3     -10.275  14.004  68.143  1.00  0.00    -0.231 OA 
HETATM   14  O   UNL     3     -12.039  12.142  67.285  1.00  0.00    -0.565 OA 
ENDBRANCH   9  10
ENDBRANCH   6   9
ENDBRANCH   4   6
TORSDOF 3
ENDMDL
MODEL      163
REMARK 921   NORMALIZED FREE ENERGY PREDICTED BY IDOCK:   -2.93 KCAL/MOL
REMARK 922        TOTAL FREE ENERGY PREDICTED BY IDOCK:   -4.21 KCAL/MOL
REMARK 923 INTER-LIGAND FREE ENERGY PREDICTED BY IDOCK:   -3.92 KCAL/MOL
REMARK 924 INTRA-LIGAND FREE ENERGY PREDICTED BY IDOCK:   -0.30 KCAL/MOL
REMARK 927      BINDING AFFINITY PREDICTED BY RF-SCORE:    0.00 PKD
ROOT
HETATM    1 NA   UNL     1     -11.516  15.470  65.227  1.00  0.00    -0.324 Na 
HETATM    2 NA   UNL     2      -9.402  16.018  69.831  1.00  0.00    -0.233 Na 
HETATM    3  O   UNL     3      -8.973  14.002  67.029  1.00  0.00    -0.221 OA 
HETATM    4  C   UNL     3     -10.302  13.495  67.177  1.00  0.00    -0.250 C  
HETATM    5  H   UNL     3      -8.503  13.446  66.419  1.00  0.00     0.000 HD 
ENDROOT
BRANCH   4   6
HETATM    6  C   UNL     3     -11.060  14.391  68.162  1.00  0.00    -0.264 C  
HETATM    7  O   UNL     3     -10.481  14.305  69.502  1.00  0.00    -0.427 OA 
HETATM    8  H   UNL     3     -10.951  14.861  70.113  1.00  0.00     0.000 HD 
BRANCH   6   9
HETATM    9  C   UNL     3     -11.067  15.826  67.739  1.00  0.00    -0.313 C  
BRANCH   9  10
HETATM   10  O   UNL     3      -9.788  16.395  67.969  1.00  0.00    -0.232 OA 
HETATM   11  P   UNL     3      -9.535  17.699  66.860  1.00  0.00    -0.297 P  
HETATM   12  O   UNL     3      -9.310  18.866  65.867  1.00  0.00    -0.454 OA 
HETATM   13  O   UNL     3      -9.726  16.618  65.772  1.00  0.00    -0.485 OA 
HETATM   14  O   UNL     3     -10.750  18.338  67.591  1.00  0.00    -0.419 OA 
ENDBRANCH   9  10
ENDBRANCH   6   9
ENDBRANCH   4   6
TORSDOF 3
ENDMDL
MODEL      164
REMARK 921   NORMALIZED FREE ENERGY PREDICTED BY IDOCK:   -2.92 KCAL/MOL
REMARK 922        TOTAL FREE ENERGY PREDICTED BY IDOCK:   -4.20 KCAL/MOL
REMARK 923 INTER-LIGAND FREE ENERGY PREDICTED BY IDOCK:   -3.26 KCAL/MOL
REMARK 924 INTRA-LIGAND FREE ENERGY PREDICTED BY IDOCK:   -0.94 KCAL/MOL
REMARK 927      BINDING AFFINITY PREDICTED BY RF-SCORE:    0.00 PKD
ROOT
HETATM    1 NA   UNL     1      -9.613   7.935  68.645  1.00  0.00    -0.146 Na 
HETATM    2 NA   UNL     2     -14.321   7.229  70.465  1.00  0.00    -0.619 Na 
HETATM    3  O   UNL     3     -12.274   9.905  69.600  1.00  0.00    -0.446 OA 
HETATM    4  C   UNL     3     -11.321   9.511  70.590  1.00  0.00    -0.301 C  
HETATM    5  H   UNL     3     -12.066  10.787  69.314  1.00  0.00     0.000 HD 
ENDROOT
BRANCH   4   6
HETATM    6  C   UNL     3     -11.656   8.089  71.052  1.00  0.00    -0.283 C  
HETATM    7  O   UNL     3     -11.808   7.189  69.909  1.00  0.00    -0.552 OA 
HETATM    8  H   UNL     3     -12.016   6.306  70.195  1.00  0.00     0.000 HD 
BRANCH   6   9
HETATM    9  C   UNL     3     -10.613   7.525  71.965  1.00  0.00    -0.211 C  
BRANCH   9  10
HETATM   10  O   UNL     3     -10.580   6.112  71.833  1.00  0.00    -0.208 OA 
HETATM   11  P   UNL     3      -8.934   5.581  71.779  1.00  0.00    -0.135 P  
HETATM   12  O   UNL     3      -7.461   5.108  71.731  1.00  0.00    -0.084 OA 
HETATM   13  O   UNL     3      -8.836   6.486  70.530  1.00  0.00    -0.148 OA 
HETATM   14  O   UNL     3      -8.871   6.172  73.216  1.00  0.00    -0.127 OA 
ENDBRANCH   9  10
ENDBRANCH   6   9
ENDBRANCH   4   6
TORSDOF 3
ENDMDL
MODEL      165
REMARK 921   NORMALIZED FREE ENERGY PREDICTED BY IDOCK:   -2.92 KCAL/MOL
REMARK 922        TOTAL FREE ENERGY PREDICTED BY IDOCK:   -4.20 KCAL/MOL
REMARK 923 INTER-LIGAND FREE ENERGY PREDICTED BY IDOCK:   -3.40 KCAL/MOL
REMARK 924 INTRA-LIGAND FREE ENERGY PREDICTED BY IDOCK:   -0.80 KCAL/MOL
REMARK 927      BINDING AFFINITY PREDICTED BY RF-SCORE:    0.00 PKD
ROOT
HETATM    1 NA   UNL     1      -8.873  10.754  64.118  1.00  0.00    -0.160 Na 
HETATM    2 NA   UNL     2     -12.364  12.990  67.081  1.00  0.00    -0.333 Na 
HETATM    3  O   UNL     3      -8.976  13.346  66.385  1.00  0.00    -0.446 OA 
HETATM    4  C   UNL     3      -8.726  12.023  66.866  1.00  0.00    -0.193 C  
HETATM    5  H   UNL     3      -8.145  13.801  66.305  1.00  0.00     0.000 HD 
ENDROOT
BRANCH   4   6
HETATM    6  C   UNL     3     -10.065  11.290  66.995  1.00  0.00    -0.206 C  
HETATM    7  O   UNL     3     -10.059  10.047  66.224  1.00  0.00    -0.234 OA 
HETATM    8  H   UNL     3     -10.890   9.592  66.304  1.00  0.00     0.000 HD 
BRANCH   6   9
HETATM    9  C   UNL     3     -10.403  10.964  68.416  1.00  0.00    -0.178 C  
BRANCH   9  10
HETATM   10  O   UNL     3     -11.811  10.863  68.559  1.00  0.00    -0.464 OA 
HETATM   11  P   UNL     3     -12.283  11.548  70.076  1.00  0.00    -0.205 P  
HETATM   12  O   UNL     3     -12.704  12.161  71.434  1.00  0.00    -0.358 OA 
HETATM   13  O   UNL     3     -11.356  10.471  70.685  1.00  0.00    -0.322 OA 
HETATM   14  O   UNL     3     -11.712  12.862  69.472  1.00  0.00    -0.303 OA 
ENDBRANCH   9  10
ENDBRANCH   6   9
ENDBRANCH   4   6
TORSDOF 3
ENDMDL
MODEL      166
REMARK 921   NORMALIZED FREE ENERGY PREDICTED BY IDOCK:   -2.90 KCAL/MOL
REMARK 922        TOTAL FREE ENERGY PREDICTED BY IDOCK:   -4.18 KCAL/MOL
REMARK 923 INTER-LIGAND FREE ENERGY PREDICTED BY IDOCK:   -3.80 KCAL/MOL
REMARK 924 INTRA-LIGAND FREE ENERGY PREDICTED BY IDOCK:   -0.38 KCAL/MOL
REMARK 927      BINDING AFFINITY PREDICTED BY RF-SCORE:    0.00 PKD
ROOT
HETATM    1 NA   UNL     1      -8.697   8.143  71.681  1.00  0.00    -0.099 Na 
HETATM    2 NA   UNL     2     -13.574   9.251  70.704  1.00  0.00    -0.488 Na 
HETATM    3  O   UNL     3     -11.737   7.767  73.258  1.00  0.00    -0.659 OA 
HETATM    4  C   UNL     3     -11.297   6.743  72.362  1.00  0.00    -0.268 C  
HETATM    5  H   UNL     3     -11.543   7.495  74.147  1.00  0.00     0.000 HD 
ENDROOT
BRANCH   4   6
HETATM    6  C   UNL     3     -11.612   7.181  70.928  1.00  0.00    -0.311 C  
HETATM    7  O   UNL     3     -13.046   7.094  70.656  1.00  0.00    -0.582 OA 
HETATM    8  H   UNL     3     -13.242   7.366  69.766  1.00  0.00     0.000 HD 
BRANCH   6   9
HETATM    9  C   UNL     3     -11.159   8.579  70.645  1.00  0.00    -0.252 C  
BRANCH   9  10
HETATM   10  O   UNL     3     -10.855   8.709  69.265  1.00  0.00    -0.180 OA 
HETATM   11  P   UNL     3     -10.423  10.351  68.927  1.00  0.00    -0.244 P  
HETATM   12  O   UNL     3     -10.037  11.819  68.626  1.00  0.00    -0.216 OA 
HETATM   13  O   UNL     3     -11.840  10.678  69.450  1.00  0.00    -0.283 OA 
HETATM   14  O   UNL     3      -9.244  10.066  69.901  1.00  0.00    -0.215 OA 
ENDBRANCH   9  10
ENDBRANCH   6   9
ENDBRANCH   4   6
TORSDOF 3
ENDMDL
MODEL      167
REMARK 921   NORMALIZED FREE ENERGY PREDICTED BY IDOCK:   -2.90 KCAL/MOL
REMARK 922        TOTAL FREE ENERGY PREDICTED BY IDOCK:   -4.18 KCAL/MOL
REMARK 923 INTER-LIGAND FREE ENERGY PREDICTED BY IDOCK:   -3.35 KCAL/MOL
REMARK 924 INTRA-LIGAND FREE ENERGY PREDICTED BY IDOCK:   -0.82 KCAL/MOL
REMARK 927      BINDING AFFINITY PREDICTED BY RF-SCORE:    0.00 PKD
ROOT
HETATM    1 NA   UNL     1     -10.343  10.363  71.053  1.00  0.00    -0.301 Na 
HETATM    2 NA   UNL     2     -12.278   6.590  68.226  1.00  0.00    -0.496 Na 
HETATM    3  O   UNL     3     -13.309   8.622  70.853  1.00  0.00    -0.513 OA 
HETATM    4  C   UNL     3     -12.264   8.104  71.679  1.00  0.00    -0.308 C  
HETATM    5  H   UNL     3     -13.928   9.088  71.404  1.00  0.00     0.000 HD 
ENDROOT
BRANCH   4   6
HETATM    6  C   UNL     3     -11.267   7.352  70.792  1.00  0.00    -0.271 C  
HETATM    7  O   UNL     3     -10.961   8.116  69.583  1.00  0.00    -0.378 OA 
HETATM    8  H   UNL     3     -10.343   7.650  69.032  1.00  0.00     0.000 HD 
BRANCH   6   9
HETATM    9  C   UNL     3      -9.984   7.051  71.501  1.00  0.00    -0.180 C  
BRANCH   9  10
HETATM   10  O   UNL     3      -9.442   8.250  72.031  1.00  0.00    -0.187 OA 
HETATM   11  P   UNL     3      -8.379   7.867  73.341  1.00  0.00    -0.245 P  
HETATM   12  O   UNL     3      -7.428   7.523  74.513  1.00  0.00    -0.122 OA 
HETATM   13  O   UNL     3      -9.632   7.226  73.979  1.00  0.00    -0.265 OA 
HETATM   14  O   UNL     3      -7.561   7.131  72.243  1.00  0.00    -0.087 OA 
ENDBRANCH   9  10
ENDBRANCH   6   9
ENDBRANCH   4   6
TORSDOF 3
ENDMDL
MODEL      168
REMARK 921   NORMALIZED FREE ENERGY PREDICTED BY IDOCK:   -2.90 KCAL/MOL
REMARK 922        TOTAL FREE ENERGY PREDICTED BY IDOCK:   -4.18 KCAL/MOL
REMARK 923 INTER-LIGAND FREE ENERGY PREDICTED BY IDOCK:   -3.80 KCAL/MOL
REMARK 924 INTRA-LIGAND FREE ENERGY PREDICTED BY IDOCK:   -0.38 KCAL/MOL
REMARK 927      BINDING AFFINITY PREDICTED BY RF-SCORE:    0.00 PKD
ROOT
HETATM    1 NA   UNL     1     -10.167  14.415  64.024  1.00  0.00    -0.527 Na 
HETATM    2 NA   UNL     2     -10.127  12.772  68.848  1.00  0.00    -0.201 Na 
HETATM    3  O   UNL     3      -9.520  11.465  65.682  1.00  0.00    -0.222 OA 
HETATM    4  C   UNL     3     -10.865  11.753  65.293  1.00  0.00    -0.290 C  
HETATM    5  H   UNL     3      -9.138  10.878  65.040  1.00  0.00     0.000 HD 
ENDROOT
BRANCH   4   6
HETATM    6  C   UNL     3     -11.482  12.698  66.329  1.00  0.00    -0.364 C  
HETATM    7  O   UNL     3     -11.787  11.988  67.571  1.00  0.00    -0.526 OA 
HETATM    8  H   UNL     3     -12.170  12.574  68.214  1.00  0.00     0.000 HD 
BRANCH   6   9
HETATM    9  C   UNL     3     -10.587  13.854  66.652  1.00  0.00    -0.274 C  
BRANCH   9  10
HETATM   10  O   UNL     3     -11.371  15.022  66.842  1.00  0.00    -0.341 OA 
HETATM   11  P   UNL     3     -10.346  16.321  67.350  1.00  0.00    -0.285 P  
HETATM   12  O   UNL     3      -9.429  17.482  67.805  1.00  0.00    -0.261 OA 
HETATM   13  O   UNL     3     -10.015  15.398  68.545  1.00  0.00    -0.206 OA 
HETATM   14  O   UNL     3      -9.680  16.118  65.960  1.00  0.00    -0.301 OA 
ENDBRANCH   9  10
ENDBRANCH   6   9
ENDBRANCH   4   6
TORSDOF 3
ENDMDL
MODEL      169
REMARK 921   NORMALIZED FREE ENERGY PREDICTED BY IDOCK:   -2.88 KCAL/MOL
REMARK 922        TOTAL FREE ENERGY PREDICTED BY IDOCK:   -4.16 KCAL/MOL
REMARK 923 INTER-LIGAND FREE ENERGY PREDICTED BY IDOCK:   -3.55 KCAL/MOL
REMARK 924 INTRA-LIGAND FREE ENERGY PREDICTED BY IDOCK:   -0.61 KCAL/MOL
REMARK 927      BINDING AFFINITY PREDICTED BY RF-SCORE:    0.00 PKD
ROOT
HETATM    1 NA   UNL     1      -9.162  12.898  64.665  1.00  0.00    -0.451 Na 
HETATM    2 NA   UNL     2      -8.624  11.174  69.430  1.00  0.00    -0.168 Na 
HETATM    3  O   UNL     3     -10.420  10.322  66.576  1.00  0.00    -0.223 OA 
HETATM    4  C   UNL     3     -11.086  11.587  66.604  1.00  0.00    -0.295 C  
HETATM    5  H   UNL     3     -10.883   9.749  65.976  1.00  0.00     0.000 HD 
ENDROOT
BRANCH   4   6
HETATM    6  C   UNL     3     -10.340  12.511  67.572  1.00  0.00    -0.220 C  
HETATM    7  O   UNL     3     -10.234  13.864  67.028  1.00  0.00    -0.250 OA 
HETATM    8  H   UNL     3      -9.771  14.438  67.628  1.00  0.00     0.000 HD 
BRANCH   6   9
HETATM    9  C   UNL     3     -11.001  12.588  68.912  1.00  0.00    -0.227 C  
BRANCH   9  10
HETATM   10  O   UNL     3     -12.182  11.803  68.905  1.00  0.00    -0.330 OA 
HETATM   11  P   UNL     3     -12.383  11.059  70.455  1.00  0.00    -0.335 P  
HETATM   12  O   UNL     3     -12.562  10.393  71.841  1.00  0.00    -0.397 OA 
HETATM   13  O   UNL     3     -11.012  10.410  70.158  1.00  0.00    -0.284 OA 
HETATM   14  O   UNL     3     -12.495  12.525  70.960  1.00  0.00    -0.369 OA 
ENDBRANCH   9  10
ENDBRANCH   6   9
ENDBRANCH   4   6
TORSDOF 3
ENDMDL
MODEL      170
REMARK 921   NORMALIZED FREE ENERGY PREDICTED BY IDOCK:   -2.88 KCAL/MOL
REMARK 922        TOTAL FREE ENERGY PREDICTED BY IDOCK:   -4.16 KCAL/MOL
REMARK 923 INTER-LIGAND FREE ENERGY PREDICTED BY IDOCK:   -3.51 KCAL/MOL
REMARK 924 INTRA-LIGAND FREE ENERGY PREDICTED BY IDOCK:   -0.64 KCAL/MOL
REMARK 927      BINDING AFFINITY PREDICTED BY RF-SCORE:    0.00 PKD
ROOT
HETATM    1 NA   UNL     1      -9.421  12.725  63.520  1.00  0.00    -0.520 Na 
HETATM    2 NA   UNL     2      -9.669  13.183  68.589  1.00  0.00    -0.194 Na 
HETATM    3  O   UNL     3      -7.619  11.634  66.246  1.00  0.00    -0.372 OA 
HETATM    4  C   UNL     3      -8.719  10.843  65.789  1.00  0.00    -0.190 C  
HETATM    5  H   UNL     3      -6.815  11.263  65.900  1.00  0.00     0.000 HD 
ENDROOT
BRANCH   4   6
HETATM    6  C   UNL     3     -10.014  11.441  66.346  1.00  0.00    -0.214 C  
HETATM    7  O   UNL     3     -10.990  11.664  65.279  1.00  0.00    -0.298 OA 
HETATM    8  H   UNL     3     -11.794  12.035  65.625  1.00  0.00     0.000 HD 
BRANCH   6   9
HETATM    9  C   UNL     3     -10.643  10.571  67.389  1.00  0.00    -0.263 C  
BRANCH   9  10
HETATM   10  O   UNL     3     -10.265  11.026  68.679  1.00  0.00    -0.183 OA 
HETATM   11  P   UNL     3     -11.380  10.413  69.851  1.00  0.00    -0.326 P  
HETATM   12  O   UNL     3     -12.378   9.864  70.899  1.00  0.00    -0.297 OA 
HETATM   13  O   UNL     3     -12.440  11.181  69.030  1.00  0.00    -0.439 OA 
HETATM   14  O   UNL     3     -10.845   9.027  69.391  1.00  0.00    -0.217 OA 
ENDBRANCH   9  10
ENDBRANCH   6   9
ENDBRANCH   4   6
TORSDOF 3
ENDMDL
MODEL      171
REMARK 921   NORMALIZED FREE ENERGY PREDICTED BY IDOCK:   -2.88 KCAL/MOL
REMARK 922        TOTAL FREE ENERGY PREDICTED BY IDOCK:   -4.15 KCAL/MOL
REMARK 923 INTER-LIGAND FREE ENERGY PREDICTED BY IDOCK:   -3.75 KCAL/MOL
REMARK 924 INTRA-LIGAND FREE ENERGY PREDICTED BY IDOCK:   -0.40 KCAL/MOL
REMARK 927      BINDING AFFINITY PREDICTED BY RF-SCORE:    0.00 PKD
ROOT
HETATM    1 NA   UNL     1     -10.525  11.932  69.912  1.00  0.00    -0.418 Na 
HETATM    2 NA   UNL     2      -7.186  15.780  69.858  1.00  0.00    -0.171 Na 
HETATM    3  O   UNL     3     -10.460  15.233  70.894  1.00  0.00    -0.473 OA 
HETATM    4  C   UNL     3     -10.845  14.923  69.552  1.00  0.00    -0.259 C  
HETATM    5  H   UNL     3     -11.246  15.371  71.410  1.00  0.00     0.000 HD 
ENDROOT
BRANCH   4   6
HETATM    6  C   UNL     3      -9.578  14.701  68.720  1.00  0.00    -0.210 C  
HETATM    7  O   UNL     3      -9.683  13.480  67.922  1.00  0.00    -0.211 OA 
HETATM    8  H   UNL     3      -8.897  13.341  67.405  1.00  0.00     0.000 HD 
BRANCH   6   9
HETATM    9  C   UNL     3      -9.291  15.846  67.799  1.00  0.00    -0.207 C  
BRANCH   9  10
HETATM   10  O   UNL     3     -10.268  15.884  66.771  1.00  0.00    -0.267 OA 
HETATM   11  P   UNL     3     -10.322  17.476  66.093  1.00  0.00    -0.164 P  
HETATM   12  O   UNL     3     -10.369  18.900  65.488  1.00  0.00    -0.499 OA 
HETATM   13  O   UNL     3     -10.681  17.917  67.530  1.00  0.00    -0.389 OA 
HETATM   14  O   UNL     3      -8.854  17.170  65.681  1.00  0.00    -0.482 OA 
ENDBRANCH   9  10
ENDBRANCH   6   9
ENDBRANCH   4   6
TORSDOF 3
ENDMDL
MODEL      172
REMARK 921   NORMALIZED FREE ENERGY PREDICTED BY IDOCK:   -2.87 KCAL/MOL
REMARK 922        TOTAL FREE ENERGY PREDICTED BY IDOCK:   -4.14 KCAL/MOL
REMARK 923 INTER-LIGAND FREE ENERGY PREDICTED BY IDOCK:   -3.70 KCAL/MOL
REMARK 924 INTRA-LIGAND FREE ENERGY PREDICTED BY IDOCK:   -0.45 KCAL/MOL
REMARK 927      BINDING AFFINITY PREDICTED BY RF-SCORE:    0.00 PKD
ROOT
HETATM    1 NA   UNL     1     -12.650  11.981  67.972  1.00  0.00    -0.279 Na 
HETATM    2 NA   UNL     2      -9.741  15.180  65.275  1.00  0.00    -0.263 Na 
HETATM    3  O   UNL     3     -13.019  14.019  65.219  1.00  0.00    -0.743 OA 
HETATM    4  C   UNL     3     -12.554  12.682  65.025  1.00  0.00    -0.430 C  
HETATM    5  H   UNL     3     -13.951  14.046  65.033  1.00  0.00     0.000 HD 
ENDROOT
BRANCH   4   6
HETATM    6  C   UNL     3     -11.053  12.638  65.325  1.00  0.00    -0.295 C  
HETATM    7  O   UNL     3     -10.747  13.330  66.576  1.00  0.00    -0.281 OA 
HETATM    8  H   UNL     3      -9.816  13.304  66.763  1.00  0.00     0.000 HD 
BRANCH   6   9
HETATM    9  C   UNL     3     -10.529  11.239  65.417  1.00  0.00    -0.268 C  
BRANCH   9  10
HETATM   10  O   UNL     3      -9.162  11.218  65.036  1.00  0.00    -0.203 OA 
HETATM   11  P   UNL     3      -8.897   9.915  63.929  1.00  0.00    -0.246 P  
HETATM   12  O   UNL     3      -8.661   8.749  62.938  1.00  0.00    -0.188 OA 
HETATM   13  O   UNL     3      -9.401   9.022  65.086  1.00  0.00    -0.176 OA 
HETATM   14  O   UNL     3      -9.884  10.704  63.023  1.00  0.00    -0.325 OA 
ENDBRANCH   9  10
ENDBRANCH   6   9
ENDBRANCH   4   6
TORSDOF 3
ENDMDL
MODEL      173
REMARK 921   NORMALIZED FREE ENERGY PREDICTED BY IDOCK:   -2.87 KCAL/MOL
REMARK 922        TOTAL FREE ENERGY PREDICTED BY IDOCK:   -4.14 KCAL/MOL
REMARK 923 INTER-LIGAND FREE ENERGY PREDICTED BY IDOCK:   -3.58 KCAL/MOL
REMARK 924 INTRA-LIGAND FREE ENERGY PREDICTED BY IDOCK:   -0.56 KCAL/MOL
REMARK 927      BINDING AFFINITY PREDICTED BY RF-SCORE:    0.00 PKD
ROOT
HETATM    1 NA   UNL     1     -11.144  17.898  66.163  1.00  0.00    -0.308 Na 
HETATM    2 NA   UNL     2     -11.890  17.180  71.152  1.00  0.00    -0.599 Na 
HETATM    3  O   UNL     3     -10.110  19.358  69.107  1.00  0.00    -0.546 OA 
HETATM    4  C   UNL     3      -9.355  18.264  68.580  1.00  0.00    -0.303 C  
HETATM    5  H   UNL     3      -9.679  20.169  68.863  1.00  0.00     0.000 HD 
ENDROOT
BRANCH   4   6
HETATM    6  C   UNL     3     -10.049  16.957  68.974  1.00  0.00    -0.292 C  
HETATM    7  O   UNL     3     -11.258  16.745  68.178  1.00  0.00    -0.325 OA 
HETATM    8  H   UNL     3     -11.689  15.934  68.421  1.00  0.00     0.000 HD 
BRANCH   6   9
HETATM    9  C   UNL     3      -9.158  15.765  68.810  1.00  0.00    -0.213 C  
BRANCH   9  10
HETATM   10  O   UNL     3      -8.796  15.627  67.445  1.00  0.00    -0.181 OA 
HETATM   11  P   UNL     3      -8.924  13.963  66.985  1.00  0.00    -0.190 P  
HETATM   12  O   UNL     3      -9.039  12.475  66.575  1.00  0.00    -0.226 OA 
HETATM   13  O   UNL     3      -7.879  13.727  68.100  1.00  0.00    -0.125 OA 
HETATM   14  O   UNL     3     -10.431  14.161  67.314  1.00  0.00    -0.269 OA 
ENDBRANCH   9  10
ENDBRANCH   6   9
ENDBRANCH   4   6
TORSDOF 3
ENDMDL
MODEL      174
REMARK 921   NORMALIZED FREE ENERGY PREDICTED BY IDOCK:   -2.87 KCAL/MOL
REMARK 922        TOTAL FREE ENERGY PREDICTED BY IDOCK:   -4.14 KCAL/MOL
REMARK 923 INTER-LIGAND FREE ENERGY PREDICTED BY IDOCK:   -3.48 KCAL/MOL
REMARK 924 INTRA-LIGAND FREE ENERGY PREDICTED BY IDOCK:   -0.66 KCAL/MOL
REMARK 927      BINDING AFFINITY PREDICTED BY RF-SCORE:    0.00 PKD
ROOT
HETATM    1 NA   UNL     1      -7.991   6.366  67.370  1.00  0.00    -0.098 Na 
HETATM    2 NA   UNL     2     -10.976   9.197  70.377  1.00  0.00    -0.200 Na 
HETATM    3  O   UNL     3     -11.361   6.671  68.018  1.00  0.00    -0.552 OA 
HETATM    4  C   UNL     3     -10.777   7.504  67.014  1.00  0.00    -0.297 C  
HETATM    5  H   UNL     3     -11.781   5.932  67.592  1.00  0.00     0.000 HD 
ENDROOT
BRANCH   4   6
HETATM    6  C   UNL     3     -10.102   8.695  67.700  1.00  0.00    -0.213 C  
HETATM    7  O   UNL     3      -8.667   8.721  67.414  1.00  0.00    -0.128 OA 
HETATM    8  H   UNL     3      -8.248   9.460  67.839  1.00  0.00     0.000 HD 
BRANCH   6   9
HETATM    9  C   UNL     3     -10.692  10.005  67.282  1.00  0.00    -0.244 C  
BRANCH   9  10
HETATM   10  O   UNL     3     -11.525  10.503  68.318  1.00  0.00    -0.296 OA 
HETATM   11  P   UNL     3     -11.475  12.232  68.310  1.00  0.00    -0.357 P  
HETATM   12  O   UNL     3     -11.430  13.780  68.302  1.00  0.00    -0.274 OA 
HETATM   13  O   UNL     3      -9.959  12.045  68.547  1.00  0.00    -0.209 OA 
HETATM   14  O   UNL     3     -12.100  12.078  66.895  1.00  0.00    -0.608 OA 
ENDBRANCH   9  10
ENDBRANCH   6   9
ENDBRANCH   4   6
TORSDOF 3
ENDMDL
MODEL      175
REMARK 921   NORMALIZED FREE ENERGY PREDICTED BY IDOCK:   -2.86 KCAL/MOL
REMARK 922        TOTAL FREE ENERGY PREDICTED BY IDOCK:   -4.13 KCAL/MOL
REMARK 923 INTER-LIGAND FREE ENERGY PREDICTED BY IDOCK:   -3.21 KCAL/MOL
REMARK 924 INTRA-LIGAND FREE ENERGY PREDICTED BY IDOCK:   -0.93 KCAL/MOL
REMARK 927      BINDING AFFINITY PREDICTED BY RF-SCORE:    0.00 PKD
ROOT
HETATM    1 NA   UNL     1      -9.830  17.933  68.974  1.00  0.00    -0.265 Na 
HETATM    2 NA   UNL     2     -11.296  14.113  65.938  1.00  0.00    -0.297 Na 
HETATM    3  O   UNL     3     -12.385  15.624  68.875  1.00  0.00    -0.602 OA 
HETATM    4  C   UNL     3     -11.162  15.268  69.525  1.00  0.00    -0.281 C  
HETATM    5  H   UNL     3     -13.011  15.894  69.537  1.00  0.00     0.000 HD 
ENDROOT
BRANCH   4   6
HETATM    6  C   UNL     3     -10.152  14.832  68.459  1.00  0.00    -0.230 C  
HETATM    7  O   UNL     3      -8.842  15.439  68.699  1.00  0.00    -0.168 OA 
HETATM    8  H   UNL     3      -8.215  15.169  68.038  1.00  0.00     0.000 HD 
BRANCH   6   9
HETATM    9  C   UNL     3      -9.983  13.346  68.406  1.00  0.00    -0.231 C  
BRANCH   9  10
HETATM   10  O   UNL     3     -11.212  12.741  68.040  1.00  0.00    -0.240 OA 
HETATM   11  P   UNL     3     -10.902  11.178  67.366  1.00  0.00    -0.297 P  
HETATM   12  O   UNL     3     -10.623   9.779  66.763  1.00  0.00    -0.206 OA 
HETATM   13  O   UNL     3     -10.070  11.955  66.320  1.00  0.00    -0.211 OA 
HETATM   14  O   UNL     3     -10.338  10.863  68.780  1.00  0.00    -0.181 OA 
ENDBRANCH   9  10
ENDBRANCH   6   9
ENDBRANCH   4   6
TORSDOF 3
ENDMDL
MODEL      176
REMARK 921   NORMALIZED FREE ENERGY PREDICTED BY IDOCK:   -2.86 KCAL/MOL
REMARK 922        TOTAL FREE ENERGY PREDICTED BY IDOCK:   -4.13 KCAL/MOL
REMARK 923 INTER-LIGAND FREE ENERGY PREDICTED BY IDOCK:   -3.34 KCAL/MOL
REMARK 924 INTRA-LIGAND FREE ENERGY PREDICTED BY IDOCK:   -0.79 KCAL/MOL
REMARK 927      BINDING AFFINITY PREDICTED BY RF-SCORE:    0.00 PKD
ROOT
HETATM    1 NA   UNL     1      -9.993  13.284  69.456  1.00  0.00    -0.397 Na 
HETATM    2 NA   UNL     2     -11.602   8.742  71.114  1.00  0.00    -0.241 Na 
HETATM    3  O   UNL     3      -8.570  10.378  70.639  1.00  0.00    -0.072 OA 
HETATM    4  C   UNL     3      -8.838  10.491  69.239  1.00  0.00    -0.122 C  
HETATM    5  H   UNL     3      -7.653  10.574  70.789  1.00  0.00     0.000 HD 
ENDROOT
BRANCH   4   6
HETATM    6  C   UNL     3     -10.317  10.174  68.997  1.00  0.00    -0.212 C  
HETATM    7  O   UNL     3     -11.150  10.707  70.074  1.00  0.00    -0.281 OA 
HETATM    8  H   UNL     3     -12.068  10.510  69.925  1.00  0.00     0.000 HD 
BRANCH   6   9
HETATM    9  C   UNL     3     -10.814  10.723  67.697  1.00  0.00    -0.279 C  
BRANCH   9  10
HETATM   10  O   UNL     3     -10.199  11.977  67.445  1.00  0.00    -0.199 OA 
HETATM   11  P   UNL     3     -11.413  13.133  67.016  1.00  0.00    -0.375 P  
HETATM   12  O   UNL     3     -12.500  14.166  66.632  1.00  0.00    -0.426 OA 
HETATM   13  O   UNL     3     -11.718  12.163  65.852  1.00  0.00    -0.411 OA 
HETATM   14  O   UNL     3     -11.940  12.865  68.454  1.00  0.00    -0.326 OA 
ENDBRANCH   9  10
ENDBRANCH   6   9
ENDBRANCH   4   6
TORSDOF 3
ENDMDL
MODEL      177
REMARK 921   NORMALIZED FREE ENERGY PREDICTED BY IDOCK:   -2.85 KCAL/MOL
REMARK 922        TOTAL FREE ENERGY PREDICTED BY IDOCK:   -4.12 KCAL/MOL
REMARK 923 INTER-LIGAND FREE ENERGY PREDICTED BY IDOCK:   -2.99 KCAL/MOL
REMARK 924 INTRA-LIGAND FREE ENERGY PREDICTED BY IDOCK:   -1.13 KCAL/MOL
REMARK 927      BINDING AFFINITY PREDICTED BY RF-SCORE:    0.00 PKD
ROOT
HETATM    1 NA   UNL     1      -9.401   9.340  72.347  1.00  0.00    -0.262 Na 
HETATM    2 NA   UNL     2     -14.138   8.931  70.515  1.00  0.00    -0.568 Na 
HETATM    3  O   UNL     3     -12.142   7.317  72.861  1.00  0.00    -0.519 OA 
HETATM    4  C   UNL     3     -11.208   6.961  71.839  1.00  0.00    -0.254 C  
HETATM    5  H   UNL     3     -11.951   6.804  73.638  1.00  0.00     0.000 HD 
ENDROOT
BRANCH   4   6
HETATM    6  C   UNL     3     -11.517   7.787  70.586  1.00  0.00    -0.245 C  
HETATM    7  O   UNL     3     -11.793   9.181  70.932  1.00  0.00    -0.286 OA 
HETATM    8  H   UNL     3     -11.984   9.694  70.156  1.00  0.00     0.000 HD 
BRANCH   6   9
HETATM    9  C   UNL     3     -10.399   7.758  69.592  1.00  0.00    -0.212 C  
BRANCH   9  10
HETATM   10  O   UNL     3      -9.158   7.671  70.275  1.00  0.00    -0.149 OA 
HETATM   11  P   UNL     3      -8.010   8.716  69.511  1.00  0.00    -0.101 P  
HETATM   12  O   UNL     3      -6.984   9.651  68.826  1.00  0.00    -0.064 OA 
HETATM   13  O   UNL     3      -8.275   7.850  68.258  1.00  0.00    -0.121 OA 
HETATM   14  O   UNL     3      -8.994   9.840  69.944  1.00  0.00    -0.206 OA 
ENDBRANCH   9  10
ENDBRANCH   6   9
ENDBRANCH   4   6
TORSDOF 3
ENDMDL
MODEL      178
REMARK 921   NORMALIZED FREE ENERGY PREDICTED BY IDOCK:   -2.84 KCAL/MOL
REMARK 922        TOTAL FREE ENERGY PREDICTED BY IDOCK:   -4.11 KCAL/MOL
REMARK 923 INTER-LIGAND FREE ENERGY PREDICTED BY IDOCK:   -3.55 KCAL/MOL
REMARK 924 INTRA-LIGAND FREE ENERGY PREDICTED BY IDOCK:   -0.56 KCAL/MOL
REMARK 927      BINDING AFFINITY PREDICTED BY RF-SCORE:    0.00 PKD
ROOT
HETATM    1 NA   UNL     1     -14.255   6.236  72.481  1.00  0.00    -0.520 Na 
HETATM    2 NA   UNL     2      -9.326   5.560  71.375  1.00  0.00    -0.133 Na 
HETATM    3  O   UNL     3     -11.237   7.569  73.474  1.00  0.00    -0.603 OA 
HETATM    4  C   UNL     3     -11.901   8.139  72.344  1.00  0.00    -0.388 C  
HETATM    5  H   UNL     3     -11.423   8.105  74.237  1.00  0.00     0.000 HD 
ENDROOT
BRANCH   4   6
HETATM    6  C   UNL     3     -11.601   7.276  71.115  1.00  0.00    -0.293 C  
HETATM    7  O   UNL     3     -12.835   6.901  70.424  1.00  0.00    -0.520 OA 
HETATM    8  H   UNL     3     -12.650   6.365  69.661  1.00  0.00     0.000 HD 
BRANCH   6   9
HETATM    9  C   UNL     3     -10.701   7.965  70.138  1.00  0.00    -0.244 C  
BRANCH   9  10
HETATM   10  O   UNL     3      -9.835   8.849  70.831  1.00  0.00    -0.202 OA 
HETATM   11  P   UNL     3      -8.871   9.719  69.688  1.00  0.00    -0.217 P  
HETATM   12  O   UNL     3      -8.009  10.497  68.664  1.00  0.00    -0.109 OA 
HETATM   13  O   UNL     3      -8.378   8.319  69.259  1.00  0.00    -0.119 OA 
HETATM   14  O   UNL     3     -10.241  10.279  69.210  1.00  0.00    -0.201 OA 
ENDBRANCH   9  10
ENDBRANCH   6   9
ENDBRANCH   4   6
TORSDOF 3
ENDMDL
MODEL      179
REMARK 921   NORMALIZED FREE ENERGY PREDICTED BY IDOCK:   -2.83 KCAL/MOL
REMARK 922        TOTAL FREE ENERGY PREDICTED BY IDOCK:   -4.10 KCAL/MOL
REMARK 923 INTER-LIGAND FREE ENERGY PREDICTED BY IDOCK:   -3.63 KCAL/MOL
REMARK 924 INTRA-LIGAND FREE ENERGY PREDICTED BY IDOCK:   -0.47 KCAL/MOL
REMARK 927      BINDING AFFINITY PREDICTED BY RF-SCORE:    0.00 PKD
ROOT
HETATM    1 NA   UNL     1     -12.118   6.544  68.848  1.00  0.00    -0.560 Na 
HETATM    2 NA   UNL     2      -9.330   8.571  72.601  1.00  0.00    -0.162 Na 
HETATM    3  O   UNL     3     -11.800   6.147  72.255  1.00  0.00    -0.337 OA 
HETATM    4  C   UNL     3     -12.712   7.131  71.761  1.00  0.00    -0.339 C  
HETATM    5  H   UNL     3     -12.291   5.364  72.477  1.00  0.00     0.000 HD 
ENDROOT
BRANCH   4   6
HETATM    6  C   UNL     3     -11.922   8.394  71.403  1.00  0.00    -0.297 C  
HETATM    7  O   UNL     3     -11.793   8.538  69.953  1.00  0.00    -0.314 OA 
HETATM    8  H   UNL     3     -11.303   9.322  69.731  1.00  0.00     0.000 HD 
BRANCH   6   9
HETATM    9  C   UNL     3     -12.553   9.636  71.949  1.00  0.00    -0.396 C  
BRANCH   9  10
HETATM   10  O   UNL     3     -13.296  10.280  70.926  1.00  0.00    -0.370 OA 
HETATM   11  P   UNL     3     -12.872  11.958  70.882  1.00  0.00     0.109 P  
HETATM   12  O   UNL     3     -12.492  13.458  70.844  1.00  0.00    -0.361 OA 
HETATM   13  O   UNL     3     -13.376  11.973  72.343  1.00  0.00    -0.403 OA 
HETATM   14  O   UNL     3     -11.460  11.420  70.517  1.00  0.00    -0.201 OA 
ENDBRANCH   9  10
ENDBRANCH   6   9
ENDBRANCH   4   6
TORSDOF 3
ENDMDL
MODEL      180
REMARK 921   NORMALIZED FREE ENERGY PREDICTED BY IDOCK:   -2.83 KCAL/MOL
REMARK 922        TOTAL FREE ENERGY PREDICTED BY IDOCK:   -4.10 KCAL/MOL
REMARK 923 INTER-LIGAND FREE ENERGY PREDICTED BY IDOCK:   -3.34 KCAL/MOL
REMARK 924 INTRA-LIGAND FREE ENERGY PREDICTED BY IDOCK:   -0.75 KCAL/MOL
REMARK 927      BINDING AFFINITY PREDICTED BY RF-SCORE:    0.00 PKD
ROOT
HETATM    1 NA   UNL     1      -8.916   8.846  66.440  1.00  0.00    -0.119 Na 
HETATM    2 NA   UNL     2      -7.927  13.351  68.607  1.00  0.00    -0.115 Na 
HETATM    3  O   UNL     3      -9.936  10.582  69.235  1.00  0.00    -0.212 OA 
HETATM    4  C   UNL     3     -10.632  10.793  68.004  1.00  0.00    -0.207 C  
HETATM    5  H   UNL     3     -10.434   9.967  69.762  1.00  0.00     0.000 HD 
ENDROOT
BRANCH   4   6
HETATM    6  C   UNL     3      -9.831  11.785  67.154  1.00  0.00    -0.193 C  
HETATM    7  O   UNL     3      -9.628  11.271  65.800  1.00  0.00    -0.211 OA 
HETATM    8  H   UNL     3      -9.131  11.886  65.273  1.00  0.00     0.000 HD 
BRANCH   6   9
HETATM    9  C   UNL     3     -10.496  13.122  67.059  1.00  0.00    -0.248 C  
BRANCH   9  10
HETATM   10  O   UNL     3      -9.531  14.110  66.730  1.00  0.00    -0.258 OA 
HETATM   11  P   UNL     3     -10.220  15.230  65.606  1.00  0.00    -0.406 P  
HETATM   12  O   UNL     3     -10.838  16.232  64.600  1.00  0.00    -0.687 OA 
HETATM   13  O   UNL     3     -10.406  13.988  64.705  1.00  0.00    -0.423 OA 
HETATM   14  O   UNL     3     -11.201  15.541  66.772  1.00  0.00    -0.265 OA 
ENDBRANCH   9  10
ENDBRANCH   6   9
ENDBRANCH   4   6
TORSDOF 3
ENDMDL
MODEL      181
REMARK 921   NORMALIZED FREE ENERGY PREDICTED BY IDOCK:   -2.83 KCAL/MOL
REMARK 922        TOTAL FREE ENERGY PREDICTED BY IDOCK:   -4.10 KCAL/MOL
REMARK 923 INTER-LIGAND FREE ENERGY PREDICTED BY IDOCK:   -3.76 KCAL/MOL
REMARK 924 INTRA-LIGAND FREE ENERGY PREDICTED BY IDOCK:   -0.34 KCAL/MOL
REMARK 927      BINDING AFFINITY PREDICTED BY RF-SCORE:    0.00 PKD
ROOT
HETATM    1 NA   UNL     1     -10.972  13.144  70.233  1.00  0.00    -0.457 Na 
HETATM    2 NA   UNL     2     -10.552  12.496  65.196  1.00  0.00    -0.258 Na 
HETATM    3  O   UNL     3     -10.107  15.060  67.503  1.00  0.00    -0.227 OA 
HETATM    4  C   UNL     3     -11.485  14.979  67.877  1.00  0.00    -0.340 C  
HETATM    5  H   UNL     3      -9.746  15.868  67.851  1.00  0.00     0.000 HD 
ENDROOT
BRANCH   4   6
HETATM    6  C   UNL     3     -12.067  13.677  67.317  1.00  0.00    -0.345 C  
HETATM    7  O   UNL     3     -12.477  13.843  65.923  1.00  0.00    -0.463 OA 
HETATM    8  H   UNL     3     -12.838  13.036  65.575  1.00  0.00     0.000 HD 
BRANCH   6   9
HETATM    9  C   UNL     3     -11.098  12.539  67.393  1.00  0.00    -0.272 C  
BRANCH   9  10
HETATM   10  O   UNL     3     -11.808  11.310  67.391  1.00  0.00    -0.590 OA 
HETATM   11  P   UNL     3     -10.749  10.037  67.894  1.00  0.00    -0.250 P  
HETATM   12  O   UNL     3      -9.801   8.899  68.343  1.00  0.00    -0.164 OA 
HETATM   13  O   UNL     3      -9.904  10.454  66.669  1.00  0.00    -0.187 OA 
HETATM   14  O   UNL     3     -10.694  10.835  69.227  1.00  0.00    -0.205 OA 
ENDBRANCH   9  10
ENDBRANCH   6   9
ENDBRANCH   4   6
TORSDOF 3
ENDMDL
MODEL      182
REMARK 921   NORMALIZED FREE ENERGY PREDICTED BY IDOCK:   -2.82 KCAL/MOL
REMARK 922        TOTAL FREE ENERGY PREDICTED BY IDOCK:   -4.09 KCAL/MOL
REMARK 923 INTER-LIGAND FREE ENERGY PREDICTED BY IDOCK:   -3.54 KCAL/MOL
REMARK 924 INTRA-LIGAND FREE ENERGY PREDICTED BY IDOCK:   -0.55 KCAL/MOL
REMARK 927      BINDING AFFINITY PREDICTED BY RF-SCORE:    0.00 PKD
ROOT
HETATM    1 NA   UNL     1     -14.219  16.068  70.018  1.00  0.00    -0.787 Na 
HETATM    2 NA   UNL     2     -11.023  12.492  68.296  1.00  0.00    -0.191 Na 
HETATM    3  O   UNL     3     -11.732  14.068  71.315  1.00  0.00    -0.459 OA 
HETATM    4  C   UNL     3     -11.373  15.332  70.752  1.00  0.00    -0.331 C  
HETATM    5  H   UNL     3     -11.783  14.160  72.259  1.00  0.00     0.000 HD 
ENDROOT
BRANCH   4   6
HETATM    6  C   UNL     3     -11.289  15.183  69.230  1.00  0.00    -0.300 C  
HETATM    7  O   UNL     3     -12.381  15.901  68.572  1.00  0.00    -0.371 OA 
HETATM    8  H   UNL     3     -12.330  15.809  67.627  1.00  0.00     0.000 HD 
BRANCH   6   9
HETATM    9  C   UNL     3      -9.992  15.684  68.677  1.00  0.00    -0.208 C  
BRANCH   9  10
HETATM   10  O   UNL     3      -9.250  14.597  68.148  1.00  0.00    -0.181 OA 
HETATM   11  P   UNL     3      -7.640  15.123  67.791  1.00  0.00    -0.190 P  
HETATM   12  O   UNL     3      -6.201  15.595  67.473  1.00  0.00    -0.149 OA 
HETATM   13  O   UNL     3      -8.335  16.130  66.846  1.00  0.00    -0.189 OA 
HETATM   14  O   UNL     3      -7.560  15.372  69.324  1.00  0.00    -0.182 OA 
ENDBRANCH   9  10
ENDBRANCH   6   9
ENDBRANCH   4   6
TORSDOF 3
ENDMDL
MODEL      183
REMARK 921   NORMALIZED FREE ENERGY PREDICTED BY IDOCK:   -2.82 KCAL/MOL
REMARK 922        TOTAL FREE ENERGY PREDICTED BY IDOCK:   -4.08 KCAL/MOL
REMARK 923 INTER-LIGAND FREE ENERGY PREDICTED BY IDOCK:   -3.88 KCAL/MOL
REMARK 924 INTRA-LIGAND FREE ENERGY PREDICTED BY IDOCK:   -0.20 KCAL/MOL
REMARK 927      BINDING AFFINITY PREDICTED BY RF-SCORE:    0.00 PKD
ROOT
HETATM    1 NA   UNL     1      -7.122  17.828  68.769  1.00  0.00    -0.189 Na 
HETATM    2 NA   UNL     2     -10.988  19.534  65.922  1.00  0.00    -0.370 Na 
HETATM    3  O   UNL     3      -7.608  18.828  65.508  1.00  0.00    -0.476 OA 
HETATM    4  C   UNL     3      -7.271  19.815  66.486  1.00  0.00    -0.241 C  
HETATM    5  H   UNL     3      -6.819  18.587  65.037  1.00  0.00     0.000 HD 
ENDROOT
BRANCH   4   6
HETATM    6  C   UNL     3      -8.542  20.205  67.246  1.00  0.00    -0.343 C  
HETATM    7  O   UNL     3      -9.576  20.682  66.328  1.00  0.00    -0.642 OA 
HETATM    8  H   UNL     3     -10.365  20.925  66.798  1.00  0.00     0.000 HD 
BRANCH   6   9
HETATM    9  C   UNL     3      -9.103  19.069  68.042  1.00  0.00    -0.307 C  
BRANCH   9  10
HETATM   10  O   UNL     3      -9.989  18.312  67.231  1.00  0.00    -0.309 OA 
HETATM   11  P   UNL     3     -10.033  16.679  67.802  1.00  0.00    -0.279 P  
HETATM   12  O   UNL     3     -10.071  15.219  68.313  1.00  0.00    -0.221 OA 
HETATM   13  O   UNL     3      -8.516  16.689  67.505  1.00  0.00    -0.184 OA 
HETATM   14  O   UNL     3     -10.611  17.322  69.094  1.00  0.00    -0.320 OA 
ENDBRANCH   9  10
ENDBRANCH   6   9
ENDBRANCH   4   6
TORSDOF 3
ENDMDL
MODEL      184
REMARK 921   NORMALIZED FREE ENERGY PREDICTED BY IDOCK:   -2.82 KCAL/MOL
REMARK 922        TOTAL FREE ENERGY PREDICTED BY IDOCK:   -4.08 KCAL/MOL
REMARK 923 INTER-LIGAND FREE ENERGY PREDICTED BY IDOCK:   -3.19 KCAL/MOL
REMARK 924 INTRA-LIGAND FREE ENERGY PREDICTED BY IDOCK:   -0.89 KCAL/MOL
REMARK 927      BINDING AFFINITY PREDICTED BY RF-SCORE:    0.00 PKD
ROOT
HETATM    1 NA   UNL     1      -9.931   9.655  68.331  1.00  0.00    -0.141 Na 
HETATM    2 NA   UNL     2     -13.043  13.035  66.125  1.00  0.00    -0.303 Na 
HETATM    3  O   UNL     3      -9.726  12.890  67.162  1.00  0.00    -0.212 OA 
HETATM    4  C   UNL     3     -10.146  12.672  68.512  1.00  0.00    -0.178 C  
HETATM    5  H   UNL     3      -8.803  13.114  67.165  1.00  0.00     0.000 HD 
ENDROOT
BRANCH   4   6
HETATM    6  C   UNL     3     -11.635  12.311  68.508  1.00  0.00    -0.310 C  
HETATM    7  O   UNL     3     -11.910  11.232  67.560  1.00  0.00    -0.613 OA 
HETATM    8  H   UNL     3     -12.834  11.008  67.557  1.00  0.00     0.000 HD 
BRANCH   6   9
HETATM    9  C   UNL     3     -12.124  11.892  69.859  1.00  0.00    -0.272 C  
BRANCH   9  10
HETATM   10  O   UNL     3     -13.092  10.864  69.715  1.00  0.00    -0.057 OA 
HETATM   11  P   UNL     3     -12.855   9.680  70.954  1.00  0.00    -0.051 P  
HETATM   12  O   UNL     3     -12.643   8.620  72.063  1.00  0.00    -0.332 OA 
HETATM   13  O   UNL     3     -11.449   9.522  70.332  1.00  0.00    -0.254 OA 
HETATM   14  O   UNL     3     -13.191  10.857  71.913  1.00  0.00    -0.467 OA 
ENDBRANCH   9  10
ENDBRANCH   6   9
ENDBRANCH   4   6
TORSDOF 3
ENDMDL
MODEL      185
REMARK 921   NORMALIZED FREE ENERGY PREDICTED BY IDOCK:   -2.81 KCAL/MOL
REMARK 922        TOTAL FREE ENERGY PREDICTED BY IDOCK:   -4.07 KCAL/MOL
REMARK 923 INTER-LIGAND FREE ENERGY PREDICTED BY IDOCK:   -3.66 KCAL/MOL
REMARK 924 INTRA-LIGAND FREE ENERGY PREDICTED BY IDOCK:   -0.41 KCAL/MOL
REMARK 927      BINDING AFFINITY PREDICTED BY RF-SCORE:    0.00 PKD
ROOT
HETATM    1 NA   UNL     1      -9.887  16.632  65.387  1.00  0.00    -0.278 Na 
HETATM    2 NA   UNL     2      -7.929  19.803  68.862  1.00  0.00    -0.299 Na 
HETATM    3  O   UNL     3     -11.031  19.161  67.428  1.00  0.00    -0.475 OA 
HETATM    4  C   UNL     3     -10.517  19.500  66.137  1.00  0.00    -0.518 C  
HETATM    5  H   UNL     3     -11.980  19.133  67.378  1.00  0.00     0.000 HD 
ENDROOT
BRANCH   4   6
HETATM    6  C   UNL     3      -8.988  19.546  66.217  1.00  0.00    -0.364 C  
HETATM    7  O   UNL     3      -8.538  20.710  66.980  1.00  0.00    -0.527 OA 
HETATM    8  H   UNL     3      -7.589  20.739  67.030  1.00  0.00     0.000 HD 
BRANCH   6   9
HETATM    9  C   UNL     3      -8.411  18.316  66.844  1.00  0.00    -0.258 C  
BRANCH   9  10
HETATM   10  O   UNL     3      -7.035  18.523  67.118  1.00  0.00    -0.200 OA 
HETATM   11  P   UNL     3      -6.383  17.110  67.875  1.00  0.00    -0.153 P  
HETATM   12  O   UNL     3      -5.802  15.845  68.552  1.00  0.00    -0.098 OA 
HETATM   13  O   UNL     3      -7.447  17.381  68.963  1.00  0.00    -0.247 OA 
HETATM   14  O   UNL     3      -6.755  16.421  66.531  1.00  0.00    -0.238 OA 
ENDBRANCH   9  10
ENDBRANCH   6   9
ENDBRANCH   4   6
TORSDOF 3
ENDMDL
MODEL      186
REMARK 921   NORMALIZED FREE ENERGY PREDICTED BY IDOCK:   -2.80 KCAL/MOL
REMARK 922        TOTAL FREE ENERGY PREDICTED BY IDOCK:   -4.06 KCAL/MOL
REMARK 923 INTER-LIGAND FREE ENERGY PREDICTED BY IDOCK:   -3.69 KCAL/MOL
REMARK 924 INTRA-LIGAND FREE ENERGY PREDICTED BY IDOCK:   -0.37 KCAL/MOL
REMARK 927      BINDING AFFINITY PREDICTED BY RF-SCORE:    0.00 PKD
ROOT
HETATM    1 NA   UNL     1     -11.412  12.721  62.350  1.00  0.00    -0.608 Na 
HETATM    2 NA   UNL     2      -7.158  11.454  64.853  1.00  0.00    -0.341 Na 
HETATM    3  O   UNL     3     -10.325  10.117  64.326  1.00  0.00    -0.417 OA 
HETATM    4  C   UNL     3     -10.922  11.253  64.956  1.00  0.00    -0.156 C  
HETATM    5  H   UNL     3     -10.982   9.434  64.249  1.00  0.00     0.000 HD 
ENDROOT
BRANCH   4   6
HETATM    6  C   UNL     3      -9.864  12.354  65.081  1.00  0.00    -0.136 C  
HETATM    7  O   UNL     3     -10.018  13.352  64.023  1.00  0.00    -0.764 OA 
HETATM    8  H   UNL     3      -9.362  14.036  64.100  1.00  0.00     0.000 HD 
BRANCH   6   9
HETATM    9  C   UNL     3      -9.920  13.052  66.403  1.00  0.00    -0.277 C  
BRANCH   9  10
HETATM   10  O   UNL     3      -9.306  14.327  66.294  1.00  0.00    -0.272 OA 
HETATM   11  P   UNL     3      -8.463  14.683  67.762  1.00  0.00    -0.203 P  
HETATM   12  O   UNL     3      -7.708  15.000  69.077  1.00  0.00    -0.145 OA 
HETATM   13  O   UNL     3      -9.852  14.538  68.424  1.00  0.00    -0.214 OA 
HETATM   14  O   UNL     3      -7.612  13.438  67.381  1.00  0.00    -0.162 OA 
ENDBRANCH   9  10
ENDBRANCH   6   9
ENDBRANCH   4   6
TORSDOF 3
ENDMDL
MODEL      187
REMARK 921   NORMALIZED FREE ENERGY PREDICTED BY IDOCK:   -2.80 KCAL/MOL
REMARK 922        TOTAL FREE ENERGY PREDICTED BY IDOCK:   -4.06 KCAL/MOL
REMARK 923 INTER-LIGAND FREE ENERGY PREDICTED BY IDOCK:   -3.62 KCAL/MOL
REMARK 924 INTRA-LIGAND FREE ENERGY PREDICTED BY IDOCK:   -0.44 KCAL/MOL
REMARK 927      BINDING AFFINITY PREDICTED BY RF-SCORE:    0.00 PKD
ROOT
HETATM    1 NA   UNL     1      -9.168   8.440  63.253  1.00  0.00    -0.423 Na 
HETATM    2 NA   UNL     2      -8.124  12.510  66.136  1.00  0.00    -0.361 Na 
HETATM    3  O   UNL     3      -7.335   9.123  66.089  1.00  0.00    -0.092 OA 
HETATM    4  C   UNL     3      -8.718   8.788  66.230  1.00  0.00    -0.147 C  
HETATM    5  H   UNL     3      -6.816   8.346  66.263  1.00  0.00     0.000 HD 
ENDROOT
BRANCH   4   6
HETATM    6  C   UNL     3      -9.555  10.040  65.951  1.00  0.00    -0.224 C  
HETATM    7  O   UNL     3     -10.182   9.969  64.632  1.00  0.00    -0.335 OA 
HETATM    8  H   UNL     3     -10.702  10.745  64.458  1.00  0.00     0.000 HD 
BRANCH   6   9
HETATM    9  C   UNL     3     -10.626  10.251  66.975  1.00  0.00    -0.239 C  
BRANCH   9  10
HETATM   10  O   UNL     3     -11.328  11.450  66.688  1.00  0.00    -0.355 OA 
HETATM   11  P   UNL     3     -11.518  12.363  68.146  1.00  0.00    -0.358 P  
HETATM   12  O   UNL     3     -11.688  13.179  69.451  1.00  0.00    -0.294 OA 
HETATM   13  O   UNL     3     -12.277  11.116  68.655  1.00  0.00    -0.582 OA 
HETATM   14  O   UNL     3      -9.964  12.413  68.121  1.00  0.00    -0.204 OA 
ENDBRANCH   9  10
ENDBRANCH   6   9
ENDBRANCH   4   6
TORSDOF 3
ENDMDL
MODEL      188
REMARK 921   NORMALIZED FREE ENERGY PREDICTED BY IDOCK:   -2.79 KCAL/MOL
REMARK 922        TOTAL FREE ENERGY PREDICTED BY IDOCK:   -4.05 KCAL/MOL
REMARK 923 INTER-LIGAND FREE ENERGY PREDICTED BY IDOCK:   -3.40 KCAL/MOL
REMARK 924 INTRA-LIGAND FREE ENERGY PREDICTED BY IDOCK:   -0.65 KCAL/MOL
REMARK 927      BINDING AFFINITY PREDICTED BY RF-SCORE:    0.00 PKD
ROOT
HETATM    1 NA   UNL     1      -8.752   3.591  72.564  1.00  0.00    -0.077 Na 
HETATM    2 NA   UNL     2      -9.526   8.307  74.332  1.00  0.00    -0.392 Na 
HETATM    3  O   UNL     3     -11.259   5.295  74.202  1.00  0.00    -0.395 OA 
HETATM    4  C   UNL     3     -11.228   5.325  72.773  1.00  0.00    -0.284 C  
HETATM    5  H   UNL     3     -11.889   4.638  74.476  1.00  0.00     0.000 HD 
ENDROOT
BRANCH   4   6
HETATM    6  C   UNL     3     -10.213   6.383  72.329  1.00  0.00    -0.185 C  
HETATM    7  O   UNL     3      -9.129   5.778  71.556  1.00  0.00    -0.139 OA 
HETATM    8  H   UNL     3      -8.499   6.434  71.280  1.00  0.00     0.000 HD 
BRANCH   6   9
HETATM    9  C   UNL     3     -10.838   7.464  71.503  1.00  0.00    -0.224 C  
BRANCH   9  10
HETATM   10  O   UNL     3     -11.181   8.560  72.337  1.00  0.00    -0.359 OA 
HETATM   11  P   UNL     3     -12.160   9.673  71.444  1.00  0.00    -0.424 P  
HETATM   12  O   UNL     3     -13.036  10.668  70.644  1.00  0.00    -0.345 OA 
HETATM   13  O   UNL     3     -10.940   9.761  70.499  1.00  0.00    -0.271 OA 
HETATM   14  O   UNL     3     -13.157   8.481  71.373  1.00  0.00    -0.303 OA 
ENDBRANCH   9  10
ENDBRANCH   6   9
ENDBRANCH   4   6
TORSDOF 3
ENDMDL
MODEL      189
REMARK 921   NORMALIZED FREE ENERGY PREDICTED BY IDOCK:   -2.78 KCAL/MOL
REMARK 922        TOTAL FREE ENERGY PREDICTED BY IDOCK:   -4.04 KCAL/MOL
REMARK 923 INTER-LIGAND FREE ENERGY PREDICTED BY IDOCK:   -3.11 KCAL/MOL
REMARK 924 INTRA-LIGAND FREE ENERGY PREDICTED BY IDOCK:   -0.93 KCAL/MOL
REMARK 927      BINDING AFFINITY PREDICTED BY RF-SCORE:    0.00 PKD
ROOT
HETATM    1 NA   UNL     1     -12.846  11.649  69.624  1.00  0.00    -0.196 Na 
HETATM    2 NA   UNL     2      -9.330  15.297  69.076  1.00  0.00    -0.159 Na 
HETATM    3  O   UNL     3     -12.405  14.461  67.683  1.00  0.00    -0.619 OA 
HETATM    4  C   UNL     3     -11.871  13.218  67.221  1.00  0.00    -0.372 C  
HETATM    5  H   UNL     3     -13.235  14.614  67.246  1.00  0.00     0.000 HD 
ENDROOT
BRANCH   4   6
HETATM    6  C   UNL     3     -10.532  12.970  67.924  1.00  0.00    -0.229 C  
HETATM    7  O   UNL     3     -10.647  13.194  69.365  1.00  0.00    -0.433 OA 
HETATM    8  H   UNL     3      -9.816  13.041  69.801  1.00  0.00     0.000 HD 
BRANCH   6   9
HETATM    9  C   UNL     3     -10.016  11.584  67.699  1.00  0.00    -0.184 C  
BRANCH   9  10
HETATM   10  O   UNL     3      -9.258  11.171  68.824  1.00  0.00    -0.180 OA 
HETATM   11  P   UNL     3      -9.648   9.529  69.205  1.00  0.00    -0.198 P  
HETATM   12  O   UNL     3      -9.998   8.059  69.546  1.00  0.00    -0.179 OA 
HETATM   13  O   UNL     3     -11.086  10.066  69.386  1.00  0.00    -0.232 OA 
HETATM   14  O   UNL     3      -9.062   9.236  67.795  1.00  0.00    -0.127 OA 
ENDBRANCH   9  10
ENDBRANCH   6   9
ENDBRANCH   4   6
TORSDOF 3
ENDMDL
MODEL      190
REMARK 921   NORMALIZED FREE ENERGY PREDICTED BY IDOCK:   -2.78 KCAL/MOL
REMARK 922        TOTAL FREE ENERGY PREDICTED BY IDOCK:   -4.03 KCAL/MOL
REMARK 923 INTER-LIGAND FREE ENERGY PREDICTED BY IDOCK:   -3.59 KCAL/MOL
REMARK 924 INTRA-LIGAND FREE ENERGY PREDICTED BY IDOCK:   -0.44 KCAL/MOL
REMARK 927      BINDING AFFINITY PREDICTED BY RF-SCORE:    0.00 PKD
ROOT
HETATM    1 NA   UNL     1      -8.562  10.574  68.810  1.00  0.00    -0.099 Na 
HETATM    2 NA   UNL     2     -13.427   9.729  70.069  1.00  0.00    -0.559 Na 
HETATM    3  O   UNL     3     -11.530   9.978  67.165  1.00  0.00    -0.258 OA 
HETATM    4  C   UNL     3     -11.186  11.327  67.492  1.00  0.00    -0.291 C  
HETATM    5  H   UNL     3     -11.302   9.820  66.256  1.00  0.00     0.000 HD 
ENDROOT
BRANCH   4   6
HETATM    6  C   UNL     3     -11.554  11.583  68.957  1.00  0.00    -0.318 C  
HETATM    7  O   UNL     3     -10.558  11.002  69.857  1.00  0.00    -0.449 OA 
HETATM    8  H   UNL     3     -10.786  11.161  70.766  1.00  0.00     0.000 HD 
BRANCH   6   9
HETATM    9  C   UNL     3     -11.681  13.041  69.267  1.00  0.00    -0.320 C  
BRANCH   9  10
HETATM   10  O   UNL     3     -10.406  13.658  69.180  1.00  0.00    -0.097 OA 
HETATM   11  P   UNL     3     -10.587  15.370  69.356  1.00  0.00    -0.288 P  
HETATM   12  O   UNL     3     -10.749  16.902  69.514  1.00  0.00    -0.326 OA 
HETATM   13  O   UNL     3     -11.488  15.257  68.106  1.00  0.00    -0.328 OA 
HETATM   14  O   UNL     3     -11.113  15.002  70.772  1.00  0.00    -0.260 OA 
ENDBRANCH   9  10
ENDBRANCH   6   9
ENDBRANCH   4   6
TORSDOF 3
ENDMDL
MODEL      191
REMARK 921   NORMALIZED FREE ENERGY PREDICTED BY IDOCK:   -2.74 KCAL/MOL
REMARK 922        TOTAL FREE ENERGY PREDICTED BY IDOCK:   -4.00 KCAL/MOL
REMARK 923 INTER-LIGAND FREE ENERGY PREDICTED BY IDOCK:   -3.19 KCAL/MOL
REMARK 924 INTRA-LIGAND FREE ENERGY PREDICTED BY IDOCK:   -0.80 KCAL/MOL
REMARK 927      BINDING AFFINITY PREDICTED BY RF-SCORE:    0.00 PKD
ROOT
HETATM    1 NA   UNL     1     -11.127  16.423  67.750  1.00  0.00    -0.292 Na 
HETATM    2 NA   UNL     2     -10.469  13.534  63.604  1.00  0.00    -0.456 Na 
HETATM    3  O   UNL     3     -13.042  14.318  65.808  1.00  0.00    -0.540 OA 
HETATM    4  C   UNL     3     -12.297  13.762  66.894  1.00  0.00    -0.285 C  
HETATM    5  H   UNL     3     -13.941  14.443  66.090  1.00  0.00     0.000 HD 
ENDROOT
BRANCH   4   6
HETATM    6  C   UNL     3     -10.848  13.560  66.440  1.00  0.00    -0.290 C  
HETATM    7  O   UNL     3      -9.917  14.243  67.338  1.00  0.00    -0.238 OA 
HETATM    8  H   UNL     3      -9.018  14.118  67.057  1.00  0.00     0.000 HD 
BRANCH   6   9
HETATM    9  C   UNL     3     -10.467  12.115  66.372  1.00  0.00    -0.230 C  
BRANCH   9  10
HETATM   10  O   UNL     3     -11.098  11.509  65.254  1.00  0.00    -0.271 OA 
HETATM   11  P   UNL     3     -10.022  10.355  64.546  1.00  0.00    -0.162 P  
HETATM   12  O   UNL     3      -9.058   9.322  63.913  1.00  0.00    -0.146 OA 
HETATM   13  O   UNL     3      -9.083  11.567  64.351  1.00  0.00     0.006 OA 
HETATM   14  O   UNL     3     -10.150   9.640  65.921  1.00  0.00    -0.288 OA 
ENDBRANCH   9  10
ENDBRANCH   6   9
ENDBRANCH   4   6
TORSDOF 3
ENDMDL
MODEL      192
REMARK 921   NORMALIZED FREE ENERGY PREDICTED BY IDOCK:   -2.74 KCAL/MOL
REMARK 922        TOTAL FREE ENERGY PREDICTED BY IDOCK:   -3.99 KCAL/MOL
REMARK 923 INTER-LIGAND FREE ENERGY PREDICTED BY IDOCK:   -3.60 KCAL/MOL
REMARK 924 INTRA-LIGAND FREE ENERGY PREDICTED BY IDOCK:   -0.39 KCAL/MOL
REMARK 927      BINDING AFFINITY PREDICTED BY RF-SCORE:    0.00 PKD
ROOT
HETATM    1 NA   UNL     1      -8.203   8.280  70.249  1.00  0.00    -0.097 Na 
HETATM    2 NA   UNL     2     -13.294   8.118  70.399  1.00  0.00    -0.500 Na 
HETATM    3  O   UNL     3     -10.807   8.604  68.017  1.00  0.00    -0.458 OA 
HETATM    4  C   UNL     3     -10.351   9.766  68.713  1.00  0.00    -0.208 C  
HETATM    5  H   UNL     3     -10.416   8.597  67.151  1.00  0.00     0.000 HD 
ENDROOT
BRANCH   4   6
HETATM    6  C   UNL     3     -10.982   9.778  70.109  1.00  0.00    -0.291 C  
HETATM    7  O   UNL     3     -12.391  10.166  70.044  1.00  0.00    -0.495 OA 
HETATM    8  H   UNL     3     -12.783  10.173  70.910  1.00  0.00     0.000 HD 
BRANCH   6   9
HETATM    9  C   UNL     3     -10.887   8.450  70.791  1.00  0.00    -0.224 C  
BRANCH   9  10
HETATM   10  O   UNL     3     -10.790   8.642  72.193  1.00  0.00    -0.332 OA 
HETATM   11  P   UNL     3     -10.695   7.101  72.976  1.00  0.00    -0.349 P  
HETATM   12  O   UNL     3     -10.610   5.722  73.675  1.00  0.00    -0.248 OA 
HETATM   13  O   UNL     3     -12.068   6.843  72.314  1.00  0.00    -0.261 OA 
HETATM   14  O   UNL     3      -9.369   6.962  72.175  1.00  0.00    -0.141 OA 
ENDBRANCH   9  10
ENDBRANCH   6   9
ENDBRANCH   4   6
TORSDOF 3
ENDMDL
MODEL      193
REMARK 921   NORMALIZED FREE ENERGY PREDICTED BY IDOCK:   -2.72 KCAL/MOL
REMARK 922        TOTAL FREE ENERGY PREDICTED BY IDOCK:   -3.96 KCAL/MOL
REMARK 923 INTER-LIGAND FREE ENERGY PREDICTED BY IDOCK:   -3.17 KCAL/MOL
REMARK 924 INTRA-LIGAND FREE ENERGY PREDICTED BY IDOCK:   -0.79 KCAL/MOL
REMARK 927      BINDING AFFINITY PREDICTED BY RF-SCORE:    0.00 PKD
ROOT
HETATM    1 NA   UNL     1      -8.905  16.633  65.550  1.00  0.00    -0.270 Na 
HETATM    2 NA   UNL     2      -6.757  17.615  70.066  1.00  0.00    -0.230 Na 
HETATM    3  O   UNL     3      -5.994  15.804  67.196  1.00  0.00    -0.328 OA 
HETATM    4  C   UNL     3      -7.150  14.986  67.391  1.00  0.00    -0.175 C  
HETATM    5  H   UNL     3      -5.434  15.388  66.551  1.00  0.00     0.000 HD 
ENDROOT
BRANCH   4   6
HETATM    6  C   UNL     3      -8.053  15.656  68.432  1.00  0.00    -0.137 C  
HETATM    7  O   UNL     3      -8.175  17.091  68.174  1.00  0.00    -0.203 OA 
HETATM    8  H   UNL     3      -8.735  17.507  68.820  1.00  0.00     0.000 HD 
BRANCH   6   9
HETATM    9  C   UNL     3      -9.426  15.061  68.465  1.00  0.00    -0.203 C  
BRANCH   9  10
HETATM   10  O   UNL     3      -9.864  14.803  67.141  1.00  0.00    -0.228 OA 
HETATM   11  P   UNL     3     -10.998  13.497  67.158  1.00  0.00    -0.303 P  
HETATM   12  O   UNL     3     -12.012  12.327  67.175  1.00  0.00    -0.564 OA 
HETATM   13  O   UNL     3      -9.832  12.686  67.768  1.00  0.00    -0.201 OA 
HETATM   14  O   UNL     3     -11.851  14.467  68.023  1.00  0.00    -0.330 OA 
ENDBRANCH   9  10
ENDBRANCH   6   9
ENDBRANCH   4   6
TORSDOF 3
ENDMDL
MODEL      194
REMARK 921   NORMALIZED FREE ENERGY PREDICTED BY IDOCK:   -2.70 KCAL/MOL
REMARK 922        TOTAL FREE ENERGY PREDICTED BY IDOCK:   -3.95 KCAL/MOL
REMARK 923 INTER-LIGAND FREE ENERGY PREDICTED BY IDOCK:   -3.40 KCAL/MOL
REMARK 924 INTRA-LIGAND FREE ENERGY PREDICTED BY IDOCK:   -0.54 KCAL/MOL
REMARK 927      BINDING AFFINITY PREDICTED BY RF-SCORE:    0.00 PKD
ROOT
HETATM    1 NA   UNL     1      -5.722  17.141  70.265  1.00  0.00    -0.166 Na 
HETATM    2 NA   UNL     2      -8.319  13.247  68.249  1.00  0.00    -0.115 Na 
HETATM    3  O   UNL     3      -5.543  15.178  67.439  1.00  0.00    -0.339 OA 
HETATM    4  C   UNL     3      -6.355  16.354  67.408  1.00  0.00    -0.171 C  
HETATM    5  H   UNL     3      -4.707  15.377  67.032  1.00  0.00     0.000 HD 
ENDROOT
BRANCH   4   6
HETATM    6  C   UNL     3      -7.702  16.035  68.064  1.00  0.00    -0.133 C  
HETATM    7  O   UNL     3      -7.518  15.566  69.437  1.00  0.00    -0.194 OA 
HETATM    8  H   UNL     3      -8.354  15.368  69.845  1.00  0.00     0.000 HD 
BRANCH   6   9
HETATM    9  C   UNL     3      -8.622  17.215  68.085  1.00  0.00    -0.232 C  
BRANCH   9  10
HETATM   10  O   UNL     3      -9.732  16.967  67.237  1.00  0.00    -0.244 OA 
HETATM   11  P   UNL     3     -10.221  18.449  66.488  1.00  0.00    -0.404 P  
HETATM   12  O   UNL     3     -10.658  19.774  65.819  1.00  0.00    -0.523 OA 
HETATM   13  O   UNL     3     -10.438  18.940  67.937  1.00  0.00    -0.390 OA 
HETATM   14  O   UNL     3      -8.804  18.401  65.851  1.00  0.00    -0.491 OA 
ENDBRANCH   9  10
ENDBRANCH   6   9
ENDBRANCH   4   6
TORSDOF 3
ENDMDL
MODEL      195
REMARK 921   NORMALIZED FREE ENERGY PREDICTED BY IDOCK:   -2.70 KCAL/MOL
REMARK 922        TOTAL FREE ENERGY PREDICTED BY IDOCK:   -3.95 KCAL/MOL
REMARK 923 INTER-LIGAND FREE ENERGY PREDICTED BY IDOCK:   -3.22 KCAL/MOL
REMARK 924 INTRA-LIGAND FREE ENERGY PREDICTED BY IDOCK:   -0.73 KCAL/MOL
REMARK 927      BINDING AFFINITY PREDICTED BY RF-SCORE:    0.00 PKD
ROOT
HETATM    1 NA   UNL     1     -10.125  17.090  67.286  1.00  0.00    -0.245 Na 
HETATM    2 NA   UNL     2      -7.637  12.775  66.212  1.00  0.00    -0.368 Na 
HETATM    3  O   UNL     3     -10.634  14.301  65.328  1.00  0.00    -0.333 OA 
HETATM    4  C   UNL     3     -11.064  14.271  66.691  1.00  0.00    -0.321 C  
HETATM    5  H   UNL     3     -11.384  14.497  64.778  1.00  0.00     0.000 HD 
ENDROOT
BRANCH   4   6
HETATM    6  C   UNL     3      -9.856  13.955  67.578  1.00  0.00    -0.236 C  
HETATM    7  O   UNL     3      -9.821  14.831  68.749  1.00  0.00    -0.217 OA 
HETATM    8  H   UNL     3      -9.072  14.635  69.299  1.00  0.00     0.000 HD 
BRANCH   6   9
HETATM    9  C   UNL     3      -9.849  12.534  68.048  1.00  0.00    -0.214 C  
BRANCH   9  10
HETATM   10  O   UNL     3      -9.768  11.664  66.930  1.00  0.00    -0.191 OA 
HETATM   11  P   UNL     3     -10.189  10.059  67.423  1.00  0.00    -0.250 P  
HETATM   12  O   UNL     3     -10.565   8.624  67.865  1.00  0.00    -0.222 OA 
HETATM   13  O   UNL     3      -8.993  10.200  68.393  1.00  0.00    -0.119 OA 
HETATM   14  O   UNL     3     -11.571  10.698  67.740  1.00  0.00    -0.501 OA 
ENDBRANCH   9  10
ENDBRANCH   6   9
ENDBRANCH   4   6
TORSDOF 3
ENDMDL
MODEL      196
REMARK 921   NORMALIZED FREE ENERGY PREDICTED BY IDOCK:   -2.68 KCAL/MOL
REMARK 922        TOTAL FREE ENERGY PREDICTED BY IDOCK:   -3.92 KCAL/MOL
REMARK 923 INTER-LIGAND FREE ENERGY PREDICTED BY IDOCK:   -3.39 KCAL/MOL
REMARK 924 INTRA-LIGAND FREE ENERGY PREDICTED BY IDOCK:   -0.53 KCAL/MOL
REMARK 927      BINDING AFFINITY PREDICTED BY RF-SCORE:    0.00 PKD
ROOT
HETATM    1 NA   UNL     1      -8.987   8.429  71.657  1.00  0.00    -0.112 Na 
HETATM    2 NA   UNL     2     -13.891   8.904  70.353  1.00  0.00    -0.530 Na 
HETATM    3  O   UNL     3     -12.050   7.590  72.994  1.00  0.00    -0.524 OA 
HETATM    4  C   UNL     3     -11.412   6.668  72.107  1.00  0.00    -0.287 C  
HETATM    5  H   UNL     3     -11.882   7.315  73.888  1.00  0.00     0.000 HD 
ENDROOT
BRANCH   4   6
HETATM    6  C   UNL     3     -11.683   7.111  70.666  1.00  0.00    -0.307 C  
HETATM    7  O   UNL     3     -11.573   8.564  70.534  1.00  0.00    -0.397 OA 
HETATM    8  H   UNL     3     -11.741   8.839  69.640  1.00  0.00     0.000 HD 
BRANCH   6   9
HETATM    9  C   UNL     3     -10.748   6.474  69.687  1.00  0.00    -0.269 C  
BRANCH   9  10
HETATM   10  O   UNL     3     -11.385   6.365  68.423  1.00  0.00    -0.280 OA 
HETATM   11  P   UNL     3     -10.193   6.052  67.208  1.00  0.00    -0.260 P  
HETATM   12  O   UNL     3      -9.126   5.773  66.121  1.00  0.00    -0.148 OA 
HETATM   13  O   UNL     3      -9.586   7.399  67.664  1.00  0.00    -0.134 OA 
HETATM   14  O   UNL     3      -9.957   4.742  68.011  1.00  0.00    -0.146 OA 
ENDBRANCH   9  10
ENDBRANCH   6   9
ENDBRANCH   4   6
TORSDOF 3
ENDMDL
MODEL      197
REMARK 921   NORMALIZED FREE ENERGY PREDICTED BY IDOCK:   -2.67 KCAL/MOL
REMARK 922        TOTAL FREE ENERGY PREDICTED BY IDOCK:   -3.91 KCAL/MOL
REMARK 923 INTER-LIGAND FREE ENERGY PREDICTED BY IDOCK:   -3.21 KCAL/MOL
REMARK 924 INTRA-LIGAND FREE ENERGY PREDICTED BY IDOCK:   -0.70 KCAL/MOL
REMARK 927      BINDING AFFINITY PREDICTED BY RF-SCORE:    0.00 PKD
ROOT
HETATM    1 NA   UNL     1     -11.061  18.118  68.531  1.00  0.00    -0.291 Na 
HETATM    2 NA   UNL     2     -14.389  14.842  70.570  1.00  0.00    -0.578 Na 
HETATM    3  O   UNL     3     -11.752  16.834  71.652  1.00  0.00    -0.594 OA 
HETATM    4  C   UNL     3     -10.850  16.122  70.801  1.00  0.00    -0.012 C  
HETATM    5  H   UNL     3     -11.244  17.349  72.269  1.00  0.00     0.000 HD 
ENDROOT
BRANCH   4   6
HETATM    6  C   UNL     3     -11.668  15.291  69.808  1.00  0.00    -0.323 C  
HETATM    7  O   UNL     3     -12.897  15.988  69.429  1.00  0.00    -0.392 OA 
HETATM    8  H   UNL     3     -13.406  15.473  68.813  1.00  0.00     0.000 HD 
BRANCH   6   9
HETATM    9  C   UNL     3     -10.902  14.971  68.563  1.00  0.00    -0.250 C  
BRANCH   9  10
HETATM   10  O   UNL     3     -11.224  15.913  67.552  1.00  0.00    -0.279 OA 
HETATM   11  P   UNL     3     -10.190  15.662  66.187  1.00  0.00    -0.356 P  
HETATM   12  O   UNL     3      -9.264  15.437  64.967  1.00  0.00     0.368 OA 
HETATM   13  O   UNL     3      -9.045  15.948  67.186  1.00  0.00    -0.200 OA 
HETATM   14  O   UNL     3     -10.885  14.272  66.126  1.00  0.00    -0.301 OA 
ENDBRANCH   9  10
ENDBRANCH   6   9
ENDBRANCH   4   6
TORSDOF 3
ENDMDL
MODEL      198
REMARK 921   NORMALIZED FREE ENERGY PREDICTED BY IDOCK:   -2.67 KCAL/MOL
REMARK 922        TOTAL FREE ENERGY PREDICTED BY IDOCK:   -3.90 KCAL/MOL
REMARK 923 INTER-LIGAND FREE ENERGY PREDICTED BY IDOCK:   -3.05 KCAL/MOL
REMARK 924 INTRA-LIGAND FREE ENERGY PREDICTED BY IDOCK:   -0.86 KCAL/MOL
REMARK 927      BINDING AFFINITY PREDICTED BY RF-SCORE:    0.00 PKD
ROOT
HETATM    1 NA   UNL     1      -5.889   7.067  71.810  1.00  0.00    -0.033 Na 
HETATM    2 NA   UNL     2     -10.890   6.176  72.208  1.00  0.00    -0.199 Na 
HETATM    3  O   UNL     3      -8.560   6.660  69.672  1.00  0.00    -0.131 OA 
HETATM    4  C   UNL     3      -8.272   7.968  70.170  1.00  0.00    -0.120 C  
HETATM    5  H   UNL     3      -8.191   6.580  68.800  1.00  0.00     0.000 HD 
ENDROOT
BRANCH   4   6
HETATM    6  C   UNL     3      -8.867   8.098  71.576  1.00  0.00    -0.154 C  
HETATM    7  O   UNL     3      -7.873   8.605  72.521  1.00  0.00    -0.331 OA 
HETATM    8  H   UNL     3      -8.241   8.685  73.394  1.00  0.00     0.000 HD 
BRANCH   6   9
HETATM    9  C   UNL     3     -10.059   9.002  71.611  1.00  0.00    -0.335 C  
BRANCH   9  10
HETATM   10  O   UNL     3     -11.130   8.404  70.899  1.00  0.00    -0.244 OA 
HETATM   11  P   UNL     3     -12.626   8.817  71.664  1.00  0.00    -0.369 P  
HETATM   12  O   UNL     3     -13.964   9.186  72.350  1.00  0.00    -0.471 OA 
HETATM   13  O   UNL     3     -12.020   8.114  72.900  1.00  0.00    -0.313 OA 
HETATM   14  O   UNL     3     -12.230  10.270  71.281  1.00  0.00    -0.346 OA 
ENDBRANCH   9  10
ENDBRANCH   6   9
ENDBRANCH   4   6
TORSDOF 3
ENDMDL
MODEL      199
REMARK 921   NORMALIZED FREE ENERGY PREDICTED BY IDOCK:   -2.64 KCAL/MOL
REMARK 922        TOTAL FREE ENERGY PREDICTED BY IDOCK:   -3.88 KCAL/MOL
REMARK 923 INTER-LIGAND FREE ENERGY PREDICTED BY IDOCK:   -3.53 KCAL/MOL
REMARK 924 INTRA-LIGAND FREE ENERGY PREDICTED BY IDOCK:   -0.34 KCAL/MOL
REMARK 927      BINDING AFFINITY PREDICTED BY RF-SCORE:    0.00 PKD
ROOT
HETATM    1 NA   UNL     1      -7.150  17.660  69.792  1.00  0.00    -0.230 Na 
HETATM    2 NA   UNL     2      -7.619  21.103  66.065  1.00  0.00    -0.469 Na 
HETATM    3  O   UNL     3      -5.568  18.399  66.822  1.00  0.00    -0.136 OA 
HETATM    4  C   UNL     3      -5.128  19.052  68.016  1.00  0.00    -0.173 C  
HETATM    5  H   UNL     3      -4.985  17.669  66.644  1.00  0.00     0.000 HD 
ENDROOT
BRANCH   4   6
HETATM    6  C   UNL     3      -6.066  20.228  68.303  1.00  0.00    -0.279 C  
HETATM    7  O   UNL     3      -6.017  21.214  67.224  1.00  0.00    -0.252 OA 
HETATM    8  H   UNL     3      -6.599  21.944  67.401  1.00  0.00     0.000 HD 
BRANCH   6   9
HETATM    9  C   UNL     3      -7.487  19.795  68.485  1.00  0.00    -0.312 C  
BRANCH   9  10
HETATM   10  O   UNL     3      -7.964  19.215  67.281  1.00  0.00    -0.251 OA 
HETATM   11  P   UNL     3      -9.694  19.175  67.312  1.00  0.00    -0.354 P  
HETATM   12  O   UNL     3     -11.241  19.140  67.341  1.00  0.00    -0.313 OA 
HETATM   13  O   UNL     3      -9.506  18.308  68.577  1.00  0.00    -0.310 OA 
HETATM   14  O   UNL     3      -9.563  20.724  67.363  1.00  0.00    -0.452 OA 
ENDBRANCH   9  10
ENDBRANCH   6   9
ENDBRANCH   4   6
TORSDOF 3
ENDMDL
MODEL      200
REMARK 921   NORMALIZED FREE ENERGY PREDICTED BY IDOCK:   -2.64 KCAL/MOL
REMARK 922        TOTAL FREE ENERGY PREDICTED BY IDOCK:   -3.87 KCAL/MOL
REMARK 923 INTER-LIGAND FREE ENERGY PREDICTED BY IDOCK:   -3.37 KCAL/MOL
REMARK 924 INTRA-LIGAND FREE ENERGY PREDICTED BY IDOCK:   -0.50 KCAL/MOL
REMARK 927      BINDING AFFINITY PREDICTED BY RF-SCORE:    0.00 PKD
ROOT
HETATM    1 NA   UNL     1     -10.995  15.085  67.381  1.00  0.00    -0.260 Na 
HETATM    2 NA   UNL     2      -8.818  10.595  66.349  1.00  0.00    -0.135 Na 
HETATM    3  O   UNL     3     -12.034  11.899  66.583  1.00  0.00    -0.601 OA 
HETATM    4  C   UNL     3     -11.814  12.226  67.957  1.00  0.00    -0.305 C  
HETATM    5  H   UNL     3     -12.965  11.962  66.402  1.00  0.00     0.000 HD 
ENDROOT
BRANCH   4   6
HETATM    6  C   UNL     3     -10.313  12.124  68.249  1.00  0.00    -0.212 C  
HETATM    7  O   UNL     3      -9.809  13.363  68.841  1.00  0.00    -0.418 OA 
HETATM    8  H   UNL     3      -8.878  13.301  69.022  1.00  0.00     0.000 HD 
BRANCH   6   9
HETATM    9  C   UNL     3      -9.986  10.991  69.170  1.00  0.00    -0.121 C  
BRANCH   9  10
HETATM   10  O   UNL     3     -10.985   9.989  69.065  1.00  0.00    -0.223 OA 
HETATM   11  P   UNL     3     -11.263   9.293  70.625  1.00  0.00    -0.302 P  
HETATM   12  O   UNL     3     -11.511   8.672  72.021  1.00  0.00    -0.322 OA 
HETATM   13  O   UNL     3      -9.766   8.915  70.562  1.00  0.00    -0.177 OA 
HETATM   14  O   UNL     3     -11.721  10.731  71.001  1.00  0.00    -0.294 OA 
ENDBRANCH   9  10
ENDBRANCH   6   9
ENDBRANCH   4   6
TORSDOF 3
ENDMDL
MODEL      201
REMARK 921   NORMALIZED FREE ENERGY PREDICTED BY IDOCK:   -2.63 KCAL/MOL
REMARK 922        TOTAL FREE ENERGY PREDICTED BY IDOCK:   -3.86 KCAL/MOL
REMARK 923 INTER-LIGAND FREE ENERGY PREDICTED BY IDOCK:   -3.41 KCAL/MOL
REMARK 924 INTRA-LIGAND FREE ENERGY PREDICTED BY IDOCK:   -0.46 KCAL/MOL
REMARK 927      BINDING AFFINITY PREDICTED BY RF-SCORE:    0.00 PKD
ROOT
HETATM    1 NA   UNL     1      -8.125   7.646  66.981  1.00  0.00    -0.099 Na 
HETATM    2 NA   UNL     2     -10.214   3.450  68.981  1.00  0.00    -0.133 Na 
HETATM    3  O   UNL     3     -10.869   5.654  66.371  1.00  0.00    -0.571 OA 
HETATM    4  C   UNL     3     -10.997   6.733  67.300  1.00  0.00    -0.363 C  
HETATM    5  H   UNL     3     -11.218   5.933  65.533  1.00  0.00     0.000 HD 
ENDROOT
BRANCH   4   6
HETATM    6  C   UNL     3     -10.435   6.283  68.652  1.00  0.00    -0.231 C  
HETATM    7  O   UNL     3      -9.248   7.059  69.012  1.00  0.00    -0.139 OA 
HETATM    8  H   UNL     3      -8.900   6.780  69.851  1.00  0.00     0.000 HD 
BRANCH   6   9
HETATM    9  C   UNL     3     -11.437   6.409  69.757  1.00  0.00    -0.399 C  
BRANCH   9  10
HETATM   10  O   UNL     3     -10.775   6.769  70.960  1.00  0.00    -0.223 OA 
HETATM   11  P   UNL     3     -11.799   7.810  71.887  1.00  0.00    -0.331 P  
HETATM   12  O   UNL     3     -12.716   8.742  72.716  1.00  0.00    -0.331 OA 
HETATM   13  O   UNL     3     -11.732   8.735  70.651  1.00  0.00    -0.260 OA 
HETATM   14  O   UNL     3     -12.741   6.574  71.925  1.00  0.00    -0.325 OA 
ENDBRANCH   9  10
ENDBRANCH   6   9
ENDBRANCH   4   6
TORSDOF 3
ENDMDL
MODEL      202
REMARK 921   NORMALIZED FREE ENERGY PREDICTED BY IDOCK:   -2.63 KCAL/MOL
REMARK 922        TOTAL FREE ENERGY PREDICTED BY IDOCK:   -3.86 KCAL/MOL
REMARK 923 INTER-LIGAND FREE ENERGY PREDICTED BY IDOCK:   -3.04 KCAL/MOL
REMARK 924 INTRA-LIGAND FREE ENERGY PREDICTED BY IDOCK:   -0.83 KCAL/MOL
REMARK 927      BINDING AFFINITY PREDICTED BY RF-SCORE:    0.00 PKD
ROOT
HETATM    1 NA   UNL     1      -8.294   4.361  68.471  1.00  0.00    -0.080 Na 
HETATM    2 NA   UNL     2     -11.478   8.339  68.412  1.00  0.00    -0.430 Na 
HETATM    3  O   UNL     3      -8.068   7.782  68.805  1.00  0.00    -0.123 OA 
HETATM    4  C   UNL     3      -8.319   6.993  69.971  1.00  0.00    -0.138 C  
HETATM    5  H   UNL     3      -7.141   7.990  68.775  1.00  0.00     0.000 HD 
ENDROOT
BRANCH   4   6
HETATM    6  C   UNL     3      -9.813   6.658  70.021  1.00  0.00    -0.165 C  
HETATM    7  O   UNL     3     -10.022   5.218  70.168  1.00  0.00    -0.201 OA 
HETATM    8  H   UNL     3     -10.949   5.009  70.199  1.00  0.00     0.000 HD 
BRANCH   6   9
HETATM    9  C   UNL     3     -10.518   7.357  71.140  1.00  0.00    -0.209 C  
BRANCH   9  10
HETATM   10  O   UNL     3     -11.890   7.512  70.814  1.00  0.00    -0.287 OA 
HETATM   11  P   UNL     3     -12.467   9.008  71.465  1.00  0.00    -0.345 P  
HETATM   12  O   UNL     3     -12.982  10.347  72.047  1.00  0.00    -0.445 OA 
HETATM   13  O   UNL     3     -12.051   8.408  72.827  1.00  0.00    -0.354 OA 
HETATM   14  O   UNL     3     -11.421   9.639  70.502  1.00  0.00    -0.259 OA 
ENDBRANCH   9  10
ENDBRANCH   6   9
ENDBRANCH   4   6
TORSDOF 3
ENDMDL
MODEL      203
REMARK 921   NORMALIZED FREE ENERGY PREDICTED BY IDOCK:   -2.63 KCAL/MOL
REMARK 922        TOTAL FREE ENERGY PREDICTED BY IDOCK:   -3.86 KCAL/MOL
REMARK 923 INTER-LIGAND FREE ENERGY PREDICTED BY IDOCK:   -3.37 KCAL/MOL
REMARK 924 INTRA-LIGAND FREE ENERGY PREDICTED BY IDOCK:   -0.49 KCAL/MOL
REMARK 927      BINDING AFFINITY PREDICTED BY RF-SCORE:    0.00 PKD
ROOT
HETATM    1 NA   UNL     1     -11.755   7.866  67.369  1.00  0.00    -0.464 Na 
HETATM    2 NA   UNL     2      -7.552   6.766  64.707  1.00  0.00    -0.065 Na 
HETATM    3  O   UNL     3      -8.424   7.288  68.033  1.00  0.00    -0.122 OA 
HETATM    4  C   UNL     3      -8.842   8.620  67.726  1.00  0.00    -0.136 C  
HETATM    5  H   UNL     3      -8.353   7.203  68.977  1.00  0.00     0.000 HD 
ENDROOT
BRANCH   4   6
HETATM    6  C   UNL     3      -8.956   8.758  66.205  1.00  0.00    -0.185 C  
HETATM    7  O   UNL     3      -9.400   7.504  65.596  1.00  0.00    -0.389 OA 
HETATM    8  H   UNL     3      -9.471   7.589  64.652  1.00  0.00     0.000 HD 
BRANCH   6   9
HETATM    9  C   UNL     3      -9.903   9.844  65.799  1.00  0.00    -0.287 C  
BRANCH   9  10
HETATM   10  O   UNL     3      -9.643  11.012  66.561  1.00  0.00    -0.187 OA 
HETATM   11  P   UNL     3     -11.085  11.963  66.661  1.00  0.00    -0.322 P  
HETATM   12  O   UNL     3     -12.375  12.813  66.750  1.00  0.00    -0.431 OA 
HETATM   13  O   UNL     3     -10.994  11.999  65.119  1.00  0.00    -0.295 OA 
HETATM   14  O   UNL     3     -11.651  10.724  67.412  1.00  0.00    -0.485 OA 
ENDBRANCH   9  10
ENDBRANCH   6   9
ENDBRANCH   4   6
TORSDOF 3
ENDMDL
MODEL      204
REMARK 921   NORMALIZED FREE ENERGY PREDICTED BY IDOCK:   -2.63 KCAL/MOL
REMARK 922        TOTAL FREE ENERGY PREDICTED BY IDOCK:   -3.86 KCAL/MOL
REMARK 923 INTER-LIGAND FREE ENERGY PREDICTED BY IDOCK:   -3.36 KCAL/MOL
REMARK 924 INTRA-LIGAND FREE ENERGY PREDICTED BY IDOCK:   -0.50 KCAL/MOL
REMARK 927      BINDING AFFINITY PREDICTED BY RF-SCORE:    0.00 PKD
ROOT
HETATM    1 NA   UNL     1     -10.081  17.593  68.770  1.00  0.00    -0.250 Na 
HETATM    2 NA   UNL     2     -13.411  14.553  66.397  1.00  0.00    -0.575 Na 
HETATM    3  O   UNL     3     -12.597  15.417  69.666  1.00  0.00    -0.600 OA 
HETATM    4  C   UNL     3     -11.276  14.902  69.485  1.00  0.00    -0.277 C  
HETATM    5  H   UNL     3     -12.745  15.552  70.595  1.00  0.00     0.000 HD 
ENDROOT
BRANCH   4   6
HETATM    6  C   UNL     3     -11.037  14.684  67.988  1.00  0.00    -0.281 C  
HETATM    7  O   UNL     3     -11.206  15.932  67.243  1.00  0.00    -0.234 OA 
HETATM    8  H   UNL     3     -11.058  15.797  66.314  1.00  0.00     0.000 HD 
BRANCH   6   9
HETATM    9  C   UNL     3      -9.673  14.141  67.700  1.00  0.00    -0.228 C  
BRANCH   9  10
HETATM   10  O   UNL     3      -9.542  12.853  68.282  1.00  0.00    -0.218 OA 
HETATM   11  P   UNL     3      -8.581  11.853  67.247  1.00  0.00    -0.183 P  
HETATM   12  O   UNL     3      -7.721  10.959  66.321  1.00  0.00    -0.149 OA 
HETATM   13  O   UNL     3      -9.683  12.129  66.200  1.00  0.00    -0.232 OA 
HETATM   14  O   UNL     3      -7.468  12.897  67.549  1.00  0.00    -0.137 OA 
ENDBRANCH   9  10
ENDBRANCH   6   9
ENDBRANCH   4   6
TORSDOF 3
ENDMDL
MODEL      205
REMARK 921   NORMALIZED FREE ENERGY PREDICTED BY IDOCK:   -2.62 KCAL/MOL
REMARK 922        TOTAL FREE ENERGY PREDICTED BY IDOCK:   -3.85 KCAL/MOL
REMARK 923 INTER-LIGAND FREE ENERGY PREDICTED BY IDOCK:   -2.95 KCAL/MOL
REMARK 924 INTRA-LIGAND FREE ENERGY PREDICTED BY IDOCK:   -0.90 KCAL/MOL
REMARK 927      BINDING AFFINITY PREDICTED BY RF-SCORE:    0.00 PKD
ROOT
HETATM    1 NA   UNL     1      -8.400   4.925  66.316  1.00  0.00    -0.104 Na 
HETATM    2 NA   UNL     2     -12.387   6.741  68.918  1.00  0.00    -0.557 Na 
HETATM    3  O   UNL     3      -9.998   7.952  66.700  1.00  0.00    -0.253 OA 
HETATM    4  C   UNL     3      -8.956   7.605  67.615  1.00  0.00    -0.127 C  
HETATM    5  H   UNL     3      -9.638   8.528  66.035  1.00  0.00     0.000 HD 
ENDROOT
BRANCH   4   6
HETATM    6  C   UNL     3      -9.536   6.678  68.687  1.00  0.00    -0.130 C  
HETATM    7  O   UNL     3      -8.690   5.500  68.875  1.00  0.00    -0.102 OA 
HETATM    8  H   UNL     3      -9.050   4.924  69.540  1.00  0.00     0.000 HD 
BRANCH   6   9
HETATM    9  C   UNL     3      -9.697   7.362  70.008  1.00  0.00    -0.175 C  
BRANCH   9  10
HETATM   10  O   UNL     3     -10.695   8.365  69.906  1.00  0.00    -0.232 OA 
HETATM   11  P   UNL     3     -11.478   8.551  71.438  1.00  0.00    -0.327 P  
HETATM   12  O   UNL     3     -12.178   8.716  72.809  1.00  0.00    -0.312 OA 
HETATM   13  O   UNL     3     -11.847   7.060  71.266  1.00  0.00    -0.293 OA 
HETATM   14  O   UNL     3     -10.066   8.987  71.920  1.00  0.00    -0.339 OA 
ENDBRANCH   9  10
ENDBRANCH   6   9
ENDBRANCH   4   6
TORSDOF 3
ENDMDL
MODEL      206
REMARK 921   NORMALIZED FREE ENERGY PREDICTED BY IDOCK:   -2.62 KCAL/MOL
REMARK 922        TOTAL FREE ENERGY PREDICTED BY IDOCK:   -3.85 KCAL/MOL
REMARK 923 INTER-LIGAND FREE ENERGY PREDICTED BY IDOCK:   -3.37 KCAL/MOL
REMARK 924 INTRA-LIGAND FREE ENERGY PREDICTED BY IDOCK:   -0.48 KCAL/MOL
REMARK 927      BINDING AFFINITY PREDICTED BY RF-SCORE:    0.00 PKD
ROOT
HETATM    1 NA   UNL     1     -12.783  13.417  68.016  1.00  0.00    -0.273 Na 
HETATM    2 NA   UNL     2     -10.797  15.780  63.961  1.00  0.00    -0.598 Na 
HETATM    3  O   UNL     3     -13.210  13.356  64.598  1.00  0.00    -0.486 OA 
HETATM    4  C   UNL     3     -12.219  12.507  65.181  1.00  0.00    -0.448 C  
HETATM    5  H   UNL     3     -13.993  12.842  64.437  1.00  0.00     0.000 HD 
ENDROOT
BRANCH   4   6
HETATM    6  C   UNL     3     -10.956  13.335  65.439  1.00  0.00    -0.284 C  
HETATM    7  O   UNL     3     -11.296  14.676  65.914  1.00  0.00    -0.334 OA 
HETATM    8  H   UNL     3     -10.513  15.190  66.074  1.00  0.00     0.000 HD 
BRANCH   6   9
HETATM    9  C   UNL     3     -10.046  12.694  66.439  1.00  0.00    -0.253 C  
BRANCH   9  10
HETATM   10  O   UNL     3      -8.971  13.570  66.734  1.00  0.00    -0.233 OA 
HETATM   11  P   UNL     3      -8.004  12.885  67.995  1.00  0.00    -0.182 P  
HETATM   12  O   UNL     3      -7.139  12.271  69.123  1.00  0.00    -0.086 OA 
HETATM   13  O   UNL     3      -9.306  12.939  68.824  1.00  0.00    -0.036 OA 
HETATM   14  O   UNL     3      -7.748  11.755  66.957  1.00  0.00    -0.154 OA 
ENDBRANCH   9  10
ENDBRANCH   6   9
ENDBRANCH   4   6
TORSDOF 3
ENDMDL
MODEL      207
REMARK 921   NORMALIZED FREE ENERGY PREDICTED BY IDOCK:   -2.60 KCAL/MOL
REMARK 922        TOTAL FREE ENERGY PREDICTED BY IDOCK:   -3.82 KCAL/MOL
REMARK 923 INTER-LIGAND FREE ENERGY PREDICTED BY IDOCK:   -3.56 KCAL/MOL
REMARK 924 INTRA-LIGAND FREE ENERGY PREDICTED BY IDOCK:   -0.26 KCAL/MOL
REMARK 927      BINDING AFFINITY PREDICTED BY RF-SCORE:    0.00 PKD
ROOT
HETATM    1 NA   UNL     1      -9.878  11.271  69.821  1.00  0.00    -0.372 Na 
HETATM    2 NA   UNL     2      -7.984  11.524  65.097  1.00  0.00    -0.351 Na 
HETATM    3  O   UNL     3      -7.146  10.033  68.126  1.00  0.00    -0.078 OA 
HETATM    4  C   UNL     3      -7.046  11.319  68.744  1.00  0.00    -0.096 C  
HETATM    5  H   UNL     3      -6.748   9.390  68.700  1.00  0.00     0.000 HD 
ENDROOT
BRANCH   4   6
HETATM    6  C   UNL     3      -7.688  12.357  67.818  1.00  0.00    -0.139 C  
HETATM    7  O   UNL     3      -6.793  12.698  66.712  1.00  0.00    -0.398 OA 
HETATM    8  H   UNL     3      -7.191  13.342  66.138  1.00  0.00     0.000 HD 
BRANCH   6   9
HETATM    9  C   UNL     3      -8.989  11.888  67.248  1.00  0.00    -0.176 C  
BRANCH   9  10
HETATM   10  O   UNL     3     -10.023  12.784  67.623  1.00  0.00    -0.209 OA 
HETATM   11  P   UNL     3     -11.340  12.635  66.511  1.00  0.00    -0.365 P  
HETATM   12  O   UNL     3     -12.518  12.500  65.515  1.00  0.00    -0.646 OA 
HETATM   13  O   UNL     3     -10.298  13.045  65.446  1.00  0.00    -0.291 OA 
HETATM   14  O   UNL     3     -11.416  11.180  67.054  1.00  0.00    -0.442 OA 
ENDBRANCH   9  10
ENDBRANCH   6   9
ENDBRANCH   4   6
TORSDOF 3
ENDMDL
MODEL      208
REMARK 921   NORMALIZED FREE ENERGY PREDICTED BY IDOCK:   -2.59 KCAL/MOL
REMARK 922        TOTAL FREE ENERGY PREDICTED BY IDOCK:   -3.82 KCAL/MOL
REMARK 923 INTER-LIGAND FREE ENERGY PREDICTED BY IDOCK:   -3.23 KCAL/MOL
REMARK 924 INTRA-LIGAND FREE ENERGY PREDICTED BY IDOCK:   -0.59 KCAL/MOL
REMARK 927      BINDING AFFINITY PREDICTED BY RF-SCORE:    0.00 PKD
ROOT
HETATM    1 NA   UNL     1      -9.149  10.940  64.698  1.00  0.00    -0.171 Na 
HETATM    2 NA   UNL     2      -8.321  12.375  69.517  1.00  0.00    -0.332 Na 
HETATM    3  O   UNL     3     -10.015   9.839  67.846  1.00  0.00    -0.152 OA 
HETATM    4  C   UNL     3     -10.850  10.805  67.202  1.00  0.00    -0.277 C  
HETATM    5  H   UNL     3     -10.402   8.979  67.728  1.00  0.00     0.000 HD 
ENDROOT
BRANCH   4   6
HETATM    6  C   UNL     3     -10.227  12.192  67.392  1.00  0.00    -0.198 C  
HETATM    7  O   UNL     3      -9.783  12.746  66.113  1.00  0.00    -0.258 OA 
HETATM    8  H   UNL     3      -9.396  13.607  66.230  1.00  0.00     0.000 HD 
BRANCH   6   9
HETATM    9  C   UNL     3     -11.175  13.162  68.025  1.00  0.00    -0.277 C  
BRANCH   9  10
HETATM   10  O   UNL     3     -10.543  13.792  69.128  1.00  0.00    -0.185 OA 
HETATM   11  P   UNL     3     -11.732  14.627  70.067  1.00  0.00    -0.320 P  
HETATM   12  O   UNL     3     -12.797  15.375  70.907  1.00  0.00    -0.418 OA 
HETATM   13  O   UNL     3     -11.997  15.415  68.764  1.00  0.00    -0.331 OA 
HETATM   14  O   UNL     3     -12.317  13.204  70.289  1.00  0.00    -0.310 OA 
ENDBRANCH   9  10
ENDBRANCH   6   9
ENDBRANCH   4   6
TORSDOF 3
ENDMDL
MODEL      209
REMARK 921   NORMALIZED FREE ENERGY PREDICTED BY IDOCK:   -2.59 KCAL/MOL
REMARK 922        TOTAL FREE ENERGY PREDICTED BY IDOCK:   -3.81 KCAL/MOL
REMARK 923 INTER-LIGAND FREE ENERGY PREDICTED BY IDOCK:   -3.02 KCAL/MOL
REMARK 924 INTRA-LIGAND FREE ENERGY PREDICTED BY IDOCK:   -0.80 KCAL/MOL
REMARK 927      BINDING AFFINITY PREDICTED BY RF-SCORE:    0.00 PKD
ROOT
HETATM    1 NA   UNL     1      -9.740  12.529  69.529  1.00  0.00    -0.385 Na 
HETATM    2 NA   UNL     2      -8.316  15.409  65.574  1.00  0.00    -0.329 Na 
HETATM    3  O   UNL     3      -6.902  14.195  68.510  1.00  0.00    -0.088 OA 
HETATM    4  C   UNL     3      -7.873  14.903  69.284  1.00  0.00    -0.158 C  
HETATM    5  H   UNL     3      -6.204  13.908  69.088  1.00  0.00     0.000 HD 
ENDROOT
BRANCH   4   6
HETATM    6  C   UNL     3      -8.997  15.366  68.352  1.00  0.00    -0.189 C  
HETATM    7  O   UNL     3      -9.382  14.302  67.425  1.00  0.00    -0.192 OA 
HETATM    8  H   UNL     3     -10.079  14.589  66.847  1.00  0.00     0.000 HD 
BRANCH   6   9
HETATM    9  C   UNL     3     -10.216  15.806  69.101  1.00  0.00    -0.231 C  
BRANCH   9  10
HETATM   10  O   UNL     3     -10.803  14.690  69.750  1.00  0.00    -0.230 OA 
HETATM   11  P   UNL     3     -12.260  15.189  70.539  1.00  0.00    -0.402 P  
HETATM   12  O   UNL     3     -13.563  15.637  71.246  1.00  0.00    -0.546 OA 
HETATM   13  O   UNL     3     -11.335  16.150  71.320  1.00  0.00    -0.384 OA 
HETATM   14  O   UNL     3     -12.735  15.515  69.095  1.00  0.00     0.120 OA 
ENDBRANCH   9  10
ENDBRANCH   6   9
ENDBRANCH   4   6
TORSDOF 3
ENDMDL
MODEL      210
REMARK 921   NORMALIZED FREE ENERGY PREDICTED BY IDOCK:   -2.58 KCAL/MOL
REMARK 922        TOTAL FREE ENERGY PREDICTED BY IDOCK:   -3.81 KCAL/MOL
REMARK 923 INTER-LIGAND FREE ENERGY PREDICTED BY IDOCK:   -3.38 KCAL/MOL
REMARK 924 INTRA-LIGAND FREE ENERGY PREDICTED BY IDOCK:   -0.43 KCAL/MOL
REMARK 927      BINDING AFFINITY PREDICTED BY RF-SCORE:    0.00 PKD
ROOT
HETATM    1 NA   UNL     1     -10.868  12.948  70.119  1.00  0.00    -0.453 Na 
HETATM    2 NA   UNL     2     -10.818  13.276  65.034  1.00  0.00    -0.277 Na 
HETATM    3  O   UNL     3     -10.141  15.341  67.750  1.00  0.00    -0.228 OA 
HETATM    4  C   UNL     3     -11.491  15.209  68.201  1.00  0.00    -0.342 C  
HETATM    5  H   UNL     3      -9.735  16.061  68.217  1.00  0.00     0.000 HD 
ENDROOT
BRANCH   4   6
HETATM    6  C   UNL     3     -12.148  14.049  67.447  1.00  0.00    -0.349 C  
HETATM    7  O   UNL     3     -12.216  14.327  66.013  1.00  0.00    -0.421 OA 
HETATM    8  H   UNL     3     -12.623  13.607  65.544  1.00  0.00     0.000 HD 
BRANCH   6   9
HETATM    9  C   UNL     3     -11.421  12.755  67.645  1.00  0.00    -0.334 C  
BRANCH   9  10
HETATM   10  O   UNL     3     -10.113  12.858  67.104  1.00  0.00    -0.237 OA 
HETATM   11  P   UNL     3      -9.351  11.305  67.154  1.00  0.00    -0.166 P  
HETATM   12  O   UNL     3      -8.669   9.916  67.199  1.00  0.00    -0.131 OA 
HETATM   13  O   UNL     3      -9.576  11.406  68.679  1.00  0.00    -0.195 OA 
HETATM   14  O   UNL     3     -10.499  10.895  66.189  1.00  0.00    -0.247 OA 
ENDBRANCH   9  10
ENDBRANCH   6   9
ENDBRANCH   4   6
TORSDOF 3
ENDMDL
MODEL      211
REMARK 921   NORMALIZED FREE ENERGY PREDICTED BY IDOCK:   -2.56 KCAL/MOL
REMARK 922        TOTAL FREE ENERGY PREDICTED BY IDOCK:   -3.77 KCAL/MOL
REMARK 923 INTER-LIGAND FREE ENERGY PREDICTED BY IDOCK:   -3.09 KCAL/MOL
REMARK 924 INTRA-LIGAND FREE ENERGY PREDICTED BY IDOCK:   -0.69 KCAL/MOL
REMARK 927      BINDING AFFINITY PREDICTED BY RF-SCORE:    0.00 PKD
ROOT
HETATM    1 NA   UNL     1     -11.727   7.487  73.863  1.00  0.00    -0.551 Na 
HETATM    2 NA   UNL     2      -8.297   6.214  70.315  1.00  0.00    -0.104 Na 
HETATM    3  O   UNL     3      -9.447   9.112  71.854  1.00  0.00    -0.332 OA 
HETATM    4  C   UNL     3     -10.762   8.874  71.347  1.00  0.00    -0.312 C  
HETATM    5  H   UNL     3      -9.404  10.006  72.173  1.00  0.00     0.000 HD 
ENDROOT
BRANCH   4   6
HETATM    6  C   UNL     3     -10.833   7.433  70.832  1.00  0.00    -0.240 C  
HETATM    7  O   UNL     3     -12.079   6.788  71.247  1.00  0.00    -0.343 OA 
HETATM    8  H   UNL     3     -12.123   5.894  70.927  1.00  0.00     0.000 HD 
BRANCH   6   9
HETATM    9  C   UNL     3     -10.732   7.353  69.341  1.00  0.00    -0.211 C  
BRANCH   9  10
HETATM   10  O   UNL     3     -10.365   8.621  68.821  1.00  0.00    -0.208 OA 
HETATM   11  P   UNL     3      -9.544   8.405  67.313  1.00  0.00    -0.198 P  
HETATM   12  O   UNL     3      -8.809   8.211  65.964  1.00  0.00    -0.157 OA 
HETATM   13  O   UNL     3      -8.537   7.580  68.147  1.00  0.00    -0.123 OA 
HETATM   14  O   UNL     3     -10.901   7.803  66.851  1.00  0.00    -0.311 OA 
ENDBRANCH   9  10
ENDBRANCH   6   9
ENDBRANCH   4   6
TORSDOF 3
ENDMDL
MODEL      212
REMARK 921   NORMALIZED FREE ENERGY PREDICTED BY IDOCK:   -2.55 KCAL/MOL
REMARK 922        TOTAL FREE ENERGY PREDICTED BY IDOCK:   -3.76 KCAL/MOL
REMARK 923 INTER-LIGAND FREE ENERGY PREDICTED BY IDOCK:   -3.10 KCAL/MOL
REMARK 924 INTRA-LIGAND FREE ENERGY PREDICTED BY IDOCK:   -0.67 KCAL/MOL
REMARK 927      BINDING AFFINITY PREDICTED BY RF-SCORE:    0.00 PKD
ROOT
HETATM    1 NA   UNL     1     -10.586  12.209  67.544  1.00  0.00    -0.195 Na 
HETATM    2 NA   UNL     2     -11.094   9.856  72.036  1.00  0.00    -0.331 Na 
HETATM    3  O   UNL     3      -8.530  10.638  69.820  1.00  0.00    -0.385 OA 
HETATM    4  C   UNL     3      -9.155   9.852  68.802  1.00  0.00    -0.147 C  
HETATM    5  H   UNL     3      -7.640  10.831  69.549  1.00  0.00     0.000 HD 
ENDROOT
BRANCH   4   6
HETATM    6  C   UNL     3     -10.590   9.540  69.238  1.00  0.00    -0.220 C  
HETATM    7  O   UNL     3     -11.550   9.944  68.210  1.00  0.00    -0.564 OA 
HETATM    8  H   UNL     3     -12.440   9.751  68.480  1.00  0.00     0.000 HD 
BRANCH   6   9
HETATM    9  C   UNL     3     -10.795   8.087  69.533  1.00  0.00    -0.129 C  
BRANCH   9  10
HETATM   10  O   UNL     3     -11.359   7.940  70.826  1.00  0.00    -0.273 OA 
HETATM   11  P   UNL     3     -10.663   6.558  71.599  1.00  0.00    -0.246 P  
HETATM   12  O   UNL     3     -10.040   5.320  72.290  1.00  0.00    -0.178 OA 
HETATM   13  O   UNL     3     -11.244   5.776  70.399  1.00  0.00    -0.286 OA 
HETATM   14  O   UNL     3      -9.339   7.364  71.479  1.00  0.00    -0.144 OA 
ENDBRANCH   9  10
ENDBRANCH   6   9
ENDBRANCH   4   6
TORSDOF 3
ENDMDL
MODEL      213
REMARK 921   NORMALIZED FREE ENERGY PREDICTED BY IDOCK:   -2.54 KCAL/MOL
REMARK 922        TOTAL FREE ENERGY PREDICTED BY IDOCK:   -3.75 KCAL/MOL
REMARK 923 INTER-LIGAND FREE ENERGY PREDICTED BY IDOCK:   -4.20 KCAL/MOL
REMARK 924 INTRA-LIGAND FREE ENERGY PREDICTED BY IDOCK:    0.45 KCAL/MOL
REMARK 927      BINDING AFFINITY PREDICTED BY RF-SCORE:    0.00 PKD
ROOT
HETATM    1 NA   UNL     1      -8.089  15.337  65.758  1.00  0.00    -0.330 Na 
HETATM    2 NA   UNL     2     -12.571  14.990  68.158  1.00  0.00    -0.521 Na 
HETATM    3  O   UNL     3      -9.581  13.218  68.029  1.00  0.00    -0.207 OA 
HETATM    4  C   UNL     3      -9.773  12.974  66.633  1.00  0.00    -0.256 C  
HETATM    5  H   UNL     3      -8.894  12.643  68.345  1.00  0.00     0.000 HD 
ENDROOT
BRANCH   4   6
HETATM    6  C   UNL     3     -10.881  13.901  66.123  1.00  0.00    -0.290 C  
HETATM    7  O   UNL     3     -12.187  13.246  66.195  1.00  0.00    -0.420 OA 
HETATM    8  H   UNL     3     -12.875  13.821  65.879  1.00  0.00     0.000 HD 
BRANCH   6   9
HETATM    9  C   UNL     3     -10.951  15.184  66.889  1.00  0.00    -0.323 C  
BRANCH   9  10
HETATM   10  O   UNL     3      -9.693  15.838  66.837  1.00  0.00    -0.222 OA 
HETATM   11  P   UNL     3      -9.940  17.541  66.656  1.00  0.00    -0.338 P  
HETATM   12  O   UNL     3     -10.162  19.064  66.493  1.00  0.00    -0.362 OA 
HETATM   13  O   UNL     3     -10.672  17.148  65.352  1.00  0.00    -0.562 OA 
HETATM   14  O   UNL     3     -10.632  17.420  68.043  1.00  0.00    -0.371 OA 
ENDBRANCH   9  10
ENDBRANCH   6   9
ENDBRANCH   4   6
TORSDOF 3
ENDMDL
MODEL      214
REMARK 921   NORMALIZED FREE ENERGY PREDICTED BY IDOCK:   -2.54 KCAL/MOL
REMARK 922        TOTAL FREE ENERGY PREDICTED BY IDOCK:   -3.75 KCAL/MOL
REMARK 923 INTER-LIGAND FREE ENERGY PREDICTED BY IDOCK:   -2.90 KCAL/MOL
REMARK 924 INTRA-LIGAND FREE ENERGY PREDICTED BY IDOCK:   -0.85 KCAL/MOL
REMARK 927      BINDING AFFINITY PREDICTED BY RF-SCORE:    0.00 PKD
ROOT
HETATM    1 NA   UNL     1     -10.481  11.776  69.739  1.00  0.00    -0.375 Na 
HETATM    2 NA   UNL     2     -10.323  16.834  69.133  1.00  0.00    -0.210 Na 
HETATM    3  O   UNL     3     -12.341  14.187  68.127  1.00  0.00    -0.557 OA 
HETATM    4  C   UNL     3     -11.239  13.594  67.436  1.00  0.00    -0.302 C  
HETATM    5  H   UNL     3     -13.141  13.758  67.844  1.00  0.00     0.000 HD 
ENDROOT
BRANCH   4   6
HETATM    6  C   UNL     3      -9.949  14.284  67.891  1.00  0.00    -0.230 C  
HETATM    7  O   UNL     3      -9.888  14.371  69.350  1.00  0.00    -0.416 OA 
HETATM    8  H   UNL     3      -9.088  14.799  69.632  1.00  0.00     0.000 HD 
BRANCH   6   9
HETATM    9  C   UNL     3      -8.722  13.579  67.405  1.00  0.00    -0.220 C  
BRANCH   9  10
HETATM   10  O   UNL     3      -9.075  12.296  66.911  1.00  0.00    -0.197 OA 
HETATM   11  P   UNL     3      -7.960  11.122  67.520  1.00  0.00    -0.128 P  
HETATM   12  O   UNL     3      -6.961  10.072  68.065  1.00  0.00    -0.077 OA 
HETATM   13  O   UNL     3      -6.893  11.973  66.794  1.00  0.00    -0.083 OA 
HETATM   14  O   UNL     3      -8.529  11.542  68.904  1.00  0.00    -0.101 OA 
ENDBRANCH   9  10
ENDBRANCH   6   9
ENDBRANCH   4   6
TORSDOF 3
ENDMDL
MODEL      215
REMARK 921   NORMALIZED FREE ENERGY PREDICTED BY IDOCK:   -2.53 KCAL/MOL
REMARK 922        TOTAL FREE ENERGY PREDICTED BY IDOCK:   -3.74 KCAL/MOL
REMARK 923 INTER-LIGAND FREE ENERGY PREDICTED BY IDOCK:   -3.14 KCAL/MOL
REMARK 924 INTRA-LIGAND FREE ENERGY PREDICTED BY IDOCK:   -0.61 KCAL/MOL
REMARK 927      BINDING AFFINITY PREDICTED BY RF-SCORE:    0.00 PKD
ROOT
HETATM    1 NA   UNL     1      -9.202  13.871  66.799  1.00  0.00    -0.196 Na 
HETATM    2 NA   UNL     2     -11.171  10.398  63.632  1.00  0.00    -0.478 Na 
HETATM    3  O   UNL     3     -12.336  12.906  65.741  1.00  0.00    -0.483 OA 
HETATM    4  C   UNL     3     -11.757  12.243  66.868  1.00  0.00    -0.334 C  
HETATM    5  H   UNL     3     -12.938  13.570  66.057  1.00  0.00     0.000 HD 
ENDROOT
BRANCH   4   6
HETATM    6  C   UNL     3     -10.787  11.172  66.359  1.00  0.00    -0.225 C  
HETATM    7  O   UNL     3      -9.856  11.731  65.380  1.00  0.00    -0.229 OA 
HETATM    8  H   UNL     3      -9.253  11.067  65.064  1.00  0.00     0.000 HD 
BRANCH   6   9
HETATM    9  C   UNL     3      -9.995  10.547  67.465  1.00  0.00    -0.172 C  
BRANCH   9  10
HETATM   10  O   UNL     3     -10.542   9.278  67.783  1.00  0.00    -0.254 OA 
HETATM   11  P   UNL     3     -10.158   8.884  69.423  1.00  0.00    -0.213 P  
HETATM   12  O   UNL     3      -9.813   8.533  70.891  1.00  0.00    -0.174 OA 
HETATM   13  O   UNL     3      -8.690   9.008  68.956  1.00  0.00    -0.134 OA 
HETATM   14  O   UNL     3     -11.014  10.140  69.751  1.00  0.00    -0.243 OA 
ENDBRANCH   9  10
ENDBRANCH   6   9
ENDBRANCH   4   6
TORSDOF 3
ENDMDL
MODEL      216
REMARK 921   NORMALIZED FREE ENERGY PREDICTED BY IDOCK:   -2.52 KCAL/MOL
REMARK 922        TOTAL FREE ENERGY PREDICTED BY IDOCK:   -3.74 KCAL/MOL
REMARK 923 INTER-LIGAND FREE ENERGY PREDICTED BY IDOCK:   -2.94 KCAL/MOL
REMARK 924 INTRA-LIGAND FREE ENERGY PREDICTED BY IDOCK:   -0.80 KCAL/MOL
REMARK 927      BINDING AFFINITY PREDICTED BY RF-SCORE:    0.00 PKD
ROOT
HETATM    1 NA   UNL     1     -12.843   6.481  71.541  1.00  0.00    -0.309 Na 
HETATM    2 NA   UNL     2      -9.032   4.170  74.011  1.00  0.00    -0.092 Na 
HETATM    3  O   UNL     3     -10.676   7.233  74.111  1.00  0.00    -0.565 OA 
HETATM    4  C   UNL     3     -10.270   7.508  72.768  1.00  0.00    -0.255 C  
HETATM    5  H   UNL     3     -10.997   8.038  74.501  1.00  0.00     0.000 HD 
ENDROOT
BRANCH   4   6
HETATM    6  C   UNL     3      -9.752   6.211  72.139  1.00  0.00    -0.154 C  
HETATM    7  O   UNL     3     -10.664   5.099  72.404  1.00  0.00    -0.215 OA 
HETATM    8  H   UNL     3     -10.343   4.294  72.014  1.00  0.00     0.000 HD 
BRANCH   6   9
HETATM    9  C   UNL     3      -9.564   6.328  70.659  1.00  0.00    -0.172 C  
BRANCH   9  10
HETATM   10  O   UNL     3     -10.794   6.068  70.002  1.00  0.00    -0.294 OA 
HETATM   11  P   UNL     3     -10.635   6.444  68.321  1.00  0.00    -0.309 P  
HETATM   12  O   UNL     3     -10.491   6.780  66.816  1.00  0.00    -0.248 OA 
HETATM   13  O   UNL     3     -10.301   7.868  68.820  1.00  0.00    -0.203 OA 
HETATM   14  O   UNL     3      -9.573   5.308  68.338  1.00  0.00    -0.122 OA 
ENDBRANCH   9  10
ENDBRANCH   6   9
ENDBRANCH   4   6
TORSDOF 3
ENDMDL
MODEL      217
REMARK 921   NORMALIZED FREE ENERGY PREDICTED BY IDOCK:   -2.52 KCAL/MOL
REMARK 922        TOTAL FREE ENERGY PREDICTED BY IDOCK:   -3.74 KCAL/MOL
REMARK 923 INTER-LIGAND FREE ENERGY PREDICTED BY IDOCK:   -3.27 KCAL/MOL
REMARK 924 INTRA-LIGAND FREE ENERGY PREDICTED BY IDOCK:   -0.46 KCAL/MOL
REMARK 927      BINDING AFFINITY PREDICTED BY RF-SCORE:    0.00 PKD
ROOT
HETATM    1 NA   UNL     1      -9.862   6.762  65.554  1.00  0.00    -0.390 Na 
HETATM    2 NA   UNL     2     -11.904  10.857  63.312  1.00  0.00    -0.609 Na 
HETATM    3  O   UNL     3      -9.145   8.788  62.862  1.00  0.00    -0.414 OA 
HETATM    4  C   UNL     3      -8.645   9.156  64.150  1.00  0.00    -0.170 C  
HETATM    5  H   UNL     3      -8.450   8.353  62.381  1.00  0.00     0.000 HD 
ENDROOT
BRANCH   4   6
HETATM    6  C   UNL     3      -9.764   9.858  64.926  1.00  0.00    -0.262 C  
HETATM    7  O   UNL     3     -10.212   9.041  66.054  1.00  0.00    -0.363 OA 
HETATM    8  H   UNL     3     -10.906   9.476  66.536  1.00  0.00     0.000 HD 
BRANCH   6   9
HETATM    9  C   UNL     3      -9.345  11.196  65.448  1.00  0.00    -0.219 C  
BRANCH   9  10
HETATM   10  O   UNL     3      -9.437  11.205  66.864  1.00  0.00    -0.181 OA 
HETATM   11  P   UNL     3      -8.275  12.314  67.506  1.00  0.00    -0.192 P  
HETATM   12  O   UNL     3      -7.235  13.307  68.080  1.00  0.00    -0.091 OA 
HETATM   13  O   UNL     3      -7.239  11.413  66.796  1.00  0.00    -0.138 OA 
HETATM   14  O   UNL     3      -9.101  13.374  66.724  1.00  0.00    -0.242 OA 
ENDBRANCH   9  10
ENDBRANCH   6   9
ENDBRANCH   4   6
TORSDOF 3
ENDMDL
MODEL      218
REMARK 921   NORMALIZED FREE ENERGY PREDICTED BY IDOCK:   -2.52 KCAL/MOL
REMARK 922        TOTAL FREE ENERGY PREDICTED BY IDOCK:   -3.73 KCAL/MOL
REMARK 923 INTER-LIGAND FREE ENERGY PREDICTED BY IDOCK:   -3.17 KCAL/MOL
REMARK 924 INTRA-LIGAND FREE ENERGY PREDICTED BY IDOCK:   -0.57 KCAL/MOL
REMARK 927      BINDING AFFINITY PREDICTED BY RF-SCORE:    0.00 PKD
ROOT
HETATM    1 NA   UNL     1     -11.493   4.798  66.764  1.00  0.00    -0.345 Na 
HETATM    2 NA   UNL     2      -7.809   8.038  68.143  1.00  0.00    -0.101 Na 
HETATM    3  O   UNL     3      -8.912   4.865  69.045  1.00  0.00    -0.097 OA 
HETATM    4  C   UNL     3     -10.180   5.402  69.428  1.00  0.00    -0.264 C  
HETATM    5  H   UNL     3      -8.840   3.983  69.390  1.00  0.00     0.000 HD 
ENDROOT
BRANCH   4   6
HETATM    6  C   UNL     3     -10.296   6.825  68.873  1.00  0.00    -0.192 C  
HETATM    7  O   UNL     3     -11.457   6.952  67.992  1.00  0.00    -0.527 OA 
HETATM    8  H   UNL     3     -11.529   7.835  67.648  1.00  0.00     0.000 HD 
BRANCH   6   9
HETATM    9  C   UNL     3     -10.406   7.854  69.954  1.00  0.00    -0.224 C  
BRANCH   9  10
HETATM   10  O   UNL     3     -10.652   7.213  71.196  1.00  0.00    -0.221 OA 
HETATM   11  P   UNL     3     -11.931   8.036  72.021  1.00  0.00    -0.362 P  
HETATM   12  O   UNL     3     -13.076   8.773  72.758  1.00  0.00    -0.347 OA 
HETATM   13  O   UNL     3     -10.994   9.262  71.946  1.00  0.00    -0.363 OA 
HETATM   14  O   UNL     3     -12.783   7.589  70.798  1.00  0.00    -0.123 OA 
ENDBRANCH   9  10
ENDBRANCH   6   9
ENDBRANCH   4   6
TORSDOF 3
ENDMDL
MODEL      219
REMARK 921   NORMALIZED FREE ENERGY PREDICTED BY IDOCK:   -2.51 KCAL/MOL
REMARK 922        TOTAL FREE ENERGY PREDICTED BY IDOCK:   -3.72 KCAL/MOL
REMARK 923 INTER-LIGAND FREE ENERGY PREDICTED BY IDOCK:   -3.09 KCAL/MOL
REMARK 924 INTRA-LIGAND FREE ENERGY PREDICTED BY IDOCK:   -0.63 KCAL/MOL
REMARK 927      BINDING AFFINITY PREDICTED BY RF-SCORE:    0.00 PKD
ROOT
HETATM    1 NA   UNL     1     -12.554   8.162  73.483  1.00  0.00    -0.602 Na 
HETATM    2 NA   UNL     2     -12.069   6.417  68.720  1.00  0.00    -0.537 Na 
HETATM    3  O   UNL     3     -10.000   7.094  71.432  1.00  0.00    -0.187 OA 
HETATM    4  C   UNL     3     -10.381   8.471  71.393  1.00  0.00    -0.239 C  
HETATM    5  H   UNL     3      -9.233   7.007  71.987  1.00  0.00     0.000 HD 
ENDROOT
BRANCH   4   6
HETATM    6  C   UNL     3     -11.616   8.611  70.498  1.00  0.00    -0.139 C  
HETATM    7  O   UNL     3     -12.742   9.175  71.243  1.00  0.00    -0.348 OA 
HETATM    8  H   UNL     3     -13.509   9.263  70.688  1.00  0.00     0.000 HD 
BRANCH   6   9
HETATM    9  C   UNL     3     -11.360   9.473  69.301  1.00  0.00     0.095 C  
BRANCH   9  10
HETATM   10  O   UNL     3     -10.005   9.340  68.902  1.00  0.00    -0.171 OA 
HETATM   11  P   UNL     3      -9.908   9.419  67.176  1.00  0.00    -0.219 P  
HETATM   12  O   UNL     3      -9.822   9.490  65.632  1.00  0.00    -0.297 OA 
HETATM   13  O   UNL     3     -10.837   8.184  67.213  1.00  0.00    -0.248 OA 
HETATM   14  O   UNL     3     -10.462  10.858  67.376  1.00  0.00    -0.200 OA 
ENDBRANCH   9  10
ENDBRANCH   6   9
ENDBRANCH   4   6
TORSDOF 3
ENDMDL
MODEL      220
REMARK 921   NORMALIZED FREE ENERGY PREDICTED BY IDOCK:   -2.51 KCAL/MOL
REMARK 922        TOTAL FREE ENERGY PREDICTED BY IDOCK:   -3.72 KCAL/MOL
REMARK 923 INTER-LIGAND FREE ENERGY PREDICTED BY IDOCK:   -2.83 KCAL/MOL
REMARK 924 INTRA-LIGAND FREE ENERGY PREDICTED BY IDOCK:   -0.89 KCAL/MOL
REMARK 927      BINDING AFFINITY PREDICTED BY RF-SCORE:    0.00 PKD
ROOT
HETATM    1 NA   UNL     1     -11.272   7.860  66.890  1.00  0.00    -0.325 Na 
HETATM    2 NA   UNL     2      -7.045   6.321  64.496  1.00  0.00    -0.044 Na 
HETATM    3  O   UNL     3      -8.224   6.511  67.762  1.00  0.00    -0.114 OA 
HETATM    4  C   UNL     3      -8.339   7.931  67.650  1.00  0.00    -0.124 C  
HETATM    5  H   UNL     3      -8.293   6.273  68.680  1.00  0.00     0.000 HD 
ENDROOT
BRANCH   4   6
HETATM    6  C   UNL     3      -8.228   8.315  66.172  1.00  0.00    -0.119 C  
HETATM    7  O   UNL     3      -9.067   7.452  65.341  1.00  0.00    -0.380 OA 
HETATM    8  H   UNL     3      -8.998   7.690  64.423  1.00  0.00     0.000 HD 
BRANCH   6   9
HETATM    9  C   UNL     3      -8.617   9.739  65.920  1.00  0.00    -0.137 C  
BRANCH   9  10
HETATM   10  O   UNL     3     -10.001   9.806  65.616  1.00  0.00    -0.301 OA 
HETATM   11  P   UNL     3     -10.254  10.970  64.360  1.00  0.00    -0.364 P  
HETATM   12  O   UNL     3     -10.480  12.011  63.237  1.00  0.00    -0.431 OA 
HETATM   13  O   UNL     3      -9.623  11.967  65.358  1.00  0.00    -0.220 OA 
HETATM   14  O   UNL     3      -9.377  10.003  63.515  1.00  0.00    -0.275 OA 
ENDBRANCH   9  10
ENDBRANCH   6   9
ENDBRANCH   4   6
TORSDOF 3
ENDMDL
MODEL      221
REMARK 921   NORMALIZED FREE ENERGY PREDICTED BY IDOCK:   -2.49 KCAL/MOL
REMARK 922        TOTAL FREE ENERGY PREDICTED BY IDOCK:   -3.70 KCAL/MOL
REMARK 923 INTER-LIGAND FREE ENERGY PREDICTED BY IDOCK:   -3.34 KCAL/MOL
REMARK 924 INTRA-LIGAND FREE ENERGY PREDICTED BY IDOCK:   -0.36 KCAL/MOL
REMARK 927      BINDING AFFINITY PREDICTED BY RF-SCORE:    0.00 PKD
ROOT
HETATM    1 NA   UNL     1      -9.708  20.769  67.638  1.00  0.00    -0.338 Na 
HETATM    2 NA   UNL     2      -7.078  16.512  68.598  1.00  0.00    -0.130 Na 
HETATM    3  O   UNL     3      -6.978  19.860  69.532  1.00  0.00    -0.325 OA 
HETATM    4  C   UNL     3      -6.772  20.246  68.171  1.00  0.00    -0.295 C  
HETATM    5  H   UNL     3      -6.783  20.604  70.090  1.00  0.00     0.000 HD 
ENDROOT
BRANCH   4   6
HETATM    6  C   UNL     3      -7.085  19.046  67.271  1.00  0.00    -0.207 C  
HETATM    7  O   UNL     3      -6.340  17.862  67.698  1.00  0.00    -0.167 OA 
HETATM    8  H   UNL     3      -6.534  17.117  67.139  1.00  0.00     0.000 HD 
BRANCH   6   9
HETATM    9  C   UNL     3      -8.543  18.709  67.254  1.00  0.00    -0.266 C  
BRANCH   9  10
HETATM   10  O   UNL     3      -8.959  18.335  68.558  1.00  0.00    -0.310 OA 
HETATM   11  P   UNL     3     -10.286  17.231  68.439  1.00  0.00    -0.397 P  
HETATM   12  O   UNL     3     -11.473  16.243  68.332  1.00  0.00    -0.357 OA 
HETATM   13  O   UNL     3     -10.992  18.387  67.695  1.00  0.00    -0.346 OA 
HETATM   14  O   UNL     3      -9.248  16.320  67.725  1.00  0.00    -0.202 OA 
ENDBRANCH   9  10
ENDBRANCH   6   9
ENDBRANCH   4   6
TORSDOF 3
ENDMDL
MODEL      222
REMARK 921   NORMALIZED FREE ENERGY PREDICTED BY IDOCK:   -2.48 KCAL/MOL
REMARK 922        TOTAL FREE ENERGY PREDICTED BY IDOCK:   -3.69 KCAL/MOL
REMARK 923 INTER-LIGAND FREE ENERGY PREDICTED BY IDOCK:   -3.35 KCAL/MOL
REMARK 924 INTRA-LIGAND FREE ENERGY PREDICTED BY IDOCK:   -0.33 KCAL/MOL
REMARK 927      BINDING AFFINITY PREDICTED BY RF-SCORE:    0.00 PKD
ROOT
HETATM    1 NA   UNL     1      -9.906  11.005  64.370  1.00  0.00    -0.196 Na 
HETATM    2 NA   UNL     2     -12.616  11.966  68.577  1.00  0.00    -0.302 Na 
HETATM    3  O   UNL     3     -12.792  12.703  65.183  1.00  0.00    -0.721 OA 
HETATM    4  C   UNL     3     -11.543  13.396  65.257  1.00  0.00    -0.308 C  
HETATM    5  H   UNL     3     -13.211  12.922  64.359  1.00  0.00     0.000 HD 
ENDROOT
BRANCH   4   6
HETATM    6  C   UNL     3     -10.867  13.043  66.585  1.00  0.00    -0.275 C  
HETATM    7  O   UNL     3     -11.522  13.723  67.703  1.00  0.00    -0.289 OA 
HETATM    8  H   UNL     3     -11.103  13.504  68.528  1.00  0.00     0.000 HD 
BRANCH   6   9
HETATM    9  C   UNL     3     -10.872  11.572  66.856  1.00  0.00    -0.284 C  
BRANCH   9  10
HETATM   10  O   UNL     3      -9.598  11.173  67.337  1.00  0.00    -0.167 OA 
HETATM   11  P   UNL     3      -9.803  10.093  68.674  1.00  0.00    -0.180 P  
HETATM   12  O   UNL     3      -9.988   9.127  69.869  1.00  0.00    -0.180 OA 
HETATM   13  O   UNL     3     -10.551  11.277  69.328  1.00  0.00    -0.212 OA 
HETATM   14  O   UNL     3     -10.492   9.183  67.618  1.00  0.00    -0.240 OA 
ENDBRANCH   9  10
ENDBRANCH   6   9
ENDBRANCH   4   6
TORSDOF 3
ENDMDL
MODEL      223
REMARK 921   NORMALIZED FREE ENERGY PREDICTED BY IDOCK:   -2.48 KCAL/MOL
REMARK 922        TOTAL FREE ENERGY PREDICTED BY IDOCK:   -3.68 KCAL/MOL
REMARK 923 INTER-LIGAND FREE ENERGY PREDICTED BY IDOCK:   -3.37 KCAL/MOL
REMARK 924 INTRA-LIGAND FREE ENERGY PREDICTED BY IDOCK:   -0.31 KCAL/MOL
REMARK 927      BINDING AFFINITY PREDICTED BY RF-SCORE:    0.00 PKD
ROOT
HETATM    1 NA   UNL     1      -6.752  18.138  67.580  1.00  0.00    -0.167 Na 
HETATM    2 NA   UNL     2     -11.061  15.421  67.453  1.00  0.00    -0.274 Na 
HETATM    3  O   UNL     3      -7.797  15.011  68.581  1.00  0.00    -0.123 OA 
HETATM    4  C   UNL     3      -7.304  15.177  67.249  1.00  0.00    -0.181 C  
HETATM    5  H   UNL     3      -7.098  14.659  69.120  1.00  0.00     0.000 HD 
ENDROOT
BRANCH   4   6
HETATM    6  C   UNL     3      -8.429  15.744  66.378  1.00  0.00    -0.278 C  
HETATM    7  O   UNL     3      -9.314  14.679  65.905  1.00  0.00    -0.478 OA 
HETATM    8  H   UNL     3     -10.012  15.031  65.365  1.00  0.00     0.000 HD 
BRANCH   6   9
HETATM    9  C   UNL     3      -9.255  16.760  67.103  1.00  0.00    -0.224 C  
BRANCH   9  10
HETATM   10  O   UNL     3      -8.925  18.059  66.639  1.00  0.00    -0.260 OA 
HETATM   11  P   UNL     3      -9.660  19.239  67.670  1.00  0.00    -0.348 P  
HETATM   12  O   UNL     3     -10.318  20.293  68.593  1.00  0.00    -0.348 OA 
HETATM   13  O   UNL     3     -10.987  18.571  67.244  1.00  0.00    -0.365 OA 
HETATM   14  O   UNL     3      -8.749  18.610  68.761  1.00  0.00    -0.323 OA 
ENDBRANCH   9  10
ENDBRANCH   6   9
ENDBRANCH   4   6
TORSDOF 3
ENDMDL
MODEL      224
REMARK 921   NORMALIZED FREE ENERGY PREDICTED BY IDOCK:   -2.48 KCAL/MOL
REMARK 922        TOTAL FREE ENERGY PREDICTED BY IDOCK:   -3.68 KCAL/MOL
REMARK 923 INTER-LIGAND FREE ENERGY PREDICTED BY IDOCK:   -3.21 KCAL/MOL
REMARK 924 INTRA-LIGAND FREE ENERGY PREDICTED BY IDOCK:   -0.47 KCAL/MOL
REMARK 927      BINDING AFFINITY PREDICTED BY RF-SCORE:    0.00 PKD
ROOT
HETATM    1 NA   UNL     1      -8.944   8.384  70.646  1.00  0.00    -0.122 Na 
HETATM    2 NA   UNL     2      -9.668  13.282  69.442  1.00  0.00    -0.387 Na 
HETATM    3  O   UNL     3     -11.413  10.750  71.066  1.00  0.00    -0.312 OA 
HETATM    4  C   UNL     3     -11.410   9.965  69.871  1.00  0.00    -0.222 C  
HETATM    5  H   UNL     3     -12.039  10.373  71.673  1.00  0.00     0.000 HD 
ENDROOT
BRANCH   4   6
HETATM    6  C   UNL     3     -10.400  10.572  68.891  1.00  0.00    -0.208 C  
HETATM    7  O   UNL     3      -9.608   9.528  68.241  1.00  0.00    -0.137 OA 
HETATM    8  H   UNL     3      -8.981   9.904  67.633  1.00  0.00     0.000 HD 
BRANCH   6   9
HETATM    9  C   UNL     3     -11.058  11.398  67.831  1.00  0.00    -0.261 C  
BRANCH   9  10
HETATM   10  O   UNL     3     -10.399  11.192  66.591  1.00  0.00    -0.223 OA 
HETATM   11  P   UNL     3     -10.379  12.675  65.701  1.00  0.00    -0.276 P  
HETATM   12  O   UNL     3     -10.361  14.003  64.905  1.00  0.00    -0.404 OA 
HETATM   13  O   UNL     3     -11.919  12.582  65.793  1.00  0.00    -0.425 OA 
HETATM   14  O   UNL     3      -9.524  13.187  66.895  1.00  0.00    -0.229 OA 
ENDBRANCH   9  10
ENDBRANCH   6   9
ENDBRANCH   4   6
TORSDOF 3
ENDMDL
MODEL      225
REMARK 921   NORMALIZED FREE ENERGY PREDICTED BY IDOCK:   -2.47 KCAL/MOL
REMARK 922        TOTAL FREE ENERGY PREDICTED BY IDOCK:   -3.68 KCAL/MOL
REMARK 923 INTER-LIGAND FREE ENERGY PREDICTED BY IDOCK:   -3.31 KCAL/MOL
REMARK 924 INTRA-LIGAND FREE ENERGY PREDICTED BY IDOCK:   -0.37 KCAL/MOL
REMARK 927      BINDING AFFINITY PREDICTED BY RF-SCORE:    0.00 PKD
ROOT
HETATM    1 NA   UNL     1      -9.443  13.302  64.073  1.00  0.00    -0.578 Na 
HETATM    2 NA   UNL     2      -7.729   8.655  65.271  1.00  0.00    -0.076 Na 
HETATM    3  O   UNL     3      -7.197  11.029  62.786  1.00  0.00    -0.361 OA 
HETATM    4  C   UNL     3      -8.568  10.939  62.390  1.00  0.00    -0.297 C  
HETATM    5  H   UNL     3      -6.716  11.488  62.107  1.00  0.00     0.000 HD 
ENDROOT
BRANCH   4   6
HETATM    6  C   UNL     3      -9.344  10.199  63.484  1.00  0.00    -0.290 C  
HETATM    7  O   UNL     3      -8.980   8.782  63.518  1.00  0.00    -0.415 OA 
HETATM    8  H   UNL     3      -9.461   8.323  64.196  1.00  0.00     0.000 HD 
BRANCH   6   9
HETATM    9  C   UNL     3      -9.113  10.781  64.843  1.00  0.00    -0.198 C  
BRANCH   9  10
HETATM   10  O   UNL     3     -10.314  11.365  65.320  1.00  0.00    -0.259 OA 
HETATM   11  P   UNL     3     -10.169  11.664  67.018  1.00  0.00    -0.223 P  
HETATM   12  O   UNL     3     -10.038  11.931  68.538  1.00  0.00    -0.211 OA 
HETATM   13  O   UNL     3      -9.948  10.138  67.120  1.00  0.00    -0.179 OA 
HETATM   14  O   UNL     3      -9.025  12.623  66.583  1.00  0.00    -0.217 OA 
ENDBRANCH   9  10
ENDBRANCH   6   9
ENDBRANCH   4   6
TORSDOF 3
ENDMDL
MODEL      226
REMARK 921   NORMALIZED FREE ENERGY PREDICTED BY IDOCK:   -2.47 KCAL/MOL
REMARK 922        TOTAL FREE ENERGY PREDICTED BY IDOCK:   -3.67 KCAL/MOL
REMARK 923 INTER-LIGAND FREE ENERGY PREDICTED BY IDOCK:   -2.77 KCAL/MOL
REMARK 924 INTRA-LIGAND FREE ENERGY PREDICTED BY IDOCK:   -0.90 KCAL/MOL
REMARK 927      BINDING AFFINITY PREDICTED BY RF-SCORE:    0.00 PKD
ROOT
HETATM    1 NA   UNL     1      -8.566   8.829  68.468  1.00  0.00    -0.118 Na 
HETATM    2 NA   UNL     2      -8.602   7.243  73.310  1.00  0.00    -0.114 Na 
HETATM    3  O   UNL     3      -8.723   5.821  70.139  1.00  0.00    -0.135 OA 
HETATM    4  C   UNL     3      -9.941   6.516  69.861  1.00  0.00    -0.167 C  
HETATM    5  H   UNL     3      -8.603   5.146  69.481  1.00  0.00     0.000 HD 
ENDROOT
BRANCH   4   6
HETATM    6  C   UNL     3     -10.136   7.604  70.922  1.00  0.00    -0.191 C  
HETATM    7  O   UNL     3      -8.864   8.247  71.253  1.00  0.00    -0.134 OA 
HETATM    8  H   UNL     3      -8.985   8.922  71.911  1.00  0.00     0.000 HD 
BRANCH   6   9
HETATM    9  C   UNL     3     -11.102   8.660  70.487  1.00  0.00    -0.242 C  
BRANCH   9  10
HETATM   10  O   UNL     3     -10.402   9.864  70.219  1.00  0.00    -0.265 OA 
HETATM   11  P   UNL     3     -11.189  10.710  68.931  1.00  0.00    -0.280 P  
HETATM   12  O   UNL     3     -11.894  11.465  67.778  1.00  0.00    -0.595 OA 
HETATM   13  O   UNL     3     -10.894   9.434  68.109  1.00  0.00    -0.203 OA 
HETATM   14  O   UNL     3     -12.382  10.776  69.926  1.00  0.00    -0.329 OA 
ENDBRANCH   9  10
ENDBRANCH   6   9
ENDBRANCH   4   6
TORSDOF 3
ENDMDL
MODEL      227
REMARK 921   NORMALIZED FREE ENERGY PREDICTED BY IDOCK:   -2.46 KCAL/MOL
REMARK 922        TOTAL FREE ENERGY PREDICTED BY IDOCK:   -3.66 KCAL/MOL
REMARK 923 INTER-LIGAND FREE ENERGY PREDICTED BY IDOCK:   -3.24 KCAL/MOL
REMARK 924 INTRA-LIGAND FREE ENERGY PREDICTED BY IDOCK:   -0.43 KCAL/MOL
REMARK 927      BINDING AFFINITY PREDICTED BY RF-SCORE:    0.00 PKD
ROOT
HETATM    1 NA   UNL     1      -8.671  14.335  67.507  1.00  0.00    -0.146 Na 
HETATM    2 NA   UNL     2     -11.500  10.977  64.921  1.00  0.00    -0.227 Na 
HETATM    3  O   UNL     3      -9.824  13.957  64.283  1.00  0.00    -0.651 OA 
HETATM    4  C   UNL     3     -10.649  14.637  65.232  1.00  0.00    -0.391 C  
HETATM    5  H   UNL     3      -9.366  14.605  63.760  1.00  0.00     0.000 HD 
ENDROOT
BRANCH   4   6
HETATM    6  C   UNL     3     -11.388  13.593  66.074  1.00  0.00    -0.312 C  
HETATM    7  O   UNL     3     -12.232  12.743  65.234  1.00  0.00    -0.437 OA 
HETATM    8  H   UNL     3     -12.691  12.095  65.756  1.00  0.00     0.000 HD 
BRANCH   6   9
HETATM    9  C   UNL     3     -10.453  12.716  66.847  1.00  0.00    -0.233 C  
BRANCH   9  10
HETATM   10  O   UNL     3      -9.719  11.897  65.950  1.00  0.00    -0.231 OA 
HETATM   11  P   UNL     3      -8.915  10.651  66.841  1.00  0.00    -0.139 P  
HETATM   12  O   UNL     3      -8.195   9.537  67.639  1.00  0.00    -0.119 OA 
HETATM   13  O   UNL     3      -8.223  11.824  67.573  1.00  0.00    -0.137 OA 
HETATM   14  O   UNL     3     -10.360  10.207  67.204  1.00  0.00    -0.212 OA 
ENDBRANCH   9  10
ENDBRANCH   6   9
ENDBRANCH   4   6
TORSDOF 3
ENDMDL
MODEL      228
REMARK 921   NORMALIZED FREE ENERGY PREDICTED BY IDOCK:   -2.45 KCAL/MOL
REMARK 922        TOTAL FREE ENERGY PREDICTED BY IDOCK:   -3.65 KCAL/MOL
REMARK 923 INTER-LIGAND FREE ENERGY PREDICTED BY IDOCK:   -3.09 KCAL/MOL
REMARK 924 INTRA-LIGAND FREE ENERGY PREDICTED BY IDOCK:   -0.56 KCAL/MOL
REMARK 927      BINDING AFFINITY PREDICTED BY RF-SCORE:    0.00 PKD
ROOT
HETATM    1 NA   UNL     1      -7.384   8.747  66.380  1.00  0.00    -0.073 Na 
HETATM    2 NA   UNL     2      -9.704  10.475  70.576  1.00  0.00    -0.364 Na 
HETATM    3  O   UNL     3      -9.370   7.456  68.882  1.00  0.00    -0.145 OA 
HETATM    4  C   UNL     3      -9.999   8.020  67.729  1.00  0.00    -0.175 C  
HETATM    5  H   UNL     3      -9.343   6.511  68.780  1.00  0.00     0.000 HD 
ENDROOT
BRANCH   4   6
HETATM    6  C   UNL     3     -10.043   9.542  67.892  1.00  0.00    -0.191 C  
HETATM    7  O   UNL     3      -8.726  10.070  68.249  1.00  0.00    -0.117 OA 
HETATM    8  H   UNL     3      -8.753  11.015  68.351  1.00  0.00     0.000 HD 
BRANCH   6   9
HETATM    9  C   UNL     3     -10.512  10.237  66.652  1.00  0.00    -0.194 C  
BRANCH   9  10
HETATM   10  O   UNL     3     -10.050  11.578  66.656  1.00  0.00    -0.203 OA 
HETATM   11  P   UNL     3     -11.199  12.581  65.838  1.00  0.00    -0.353 P  
HETATM   12  O   UNL     3     -12.228  13.477  65.107  1.00  0.00    -0.382 OA 
HETATM   13  O   UNL     3     -10.922  11.661  64.628  1.00  0.00    -0.305 OA 
HETATM   14  O   UNL     3     -12.149  12.144  66.989  1.00  0.00    -0.591 OA 
ENDBRANCH   9  10
ENDBRANCH   6   9
ENDBRANCH   4   6
TORSDOF 3
ENDMDL
MODEL      229
REMARK 921   NORMALIZED FREE ENERGY PREDICTED BY IDOCK:   -2.43 KCAL/MOL
REMARK 922        TOTAL FREE ENERGY PREDICTED BY IDOCK:   -3.63 KCAL/MOL
REMARK 923 INTER-LIGAND FREE ENERGY PREDICTED BY IDOCK:   -3.16 KCAL/MOL
REMARK 924 INTRA-LIGAND FREE ENERGY PREDICTED BY IDOCK:   -0.47 KCAL/MOL
REMARK 927      BINDING AFFINITY PREDICTED BY RF-SCORE:    0.00 PKD
ROOT
HETATM    1 NA   UNL     1      -8.147  14.580  67.661  1.00  0.00    -0.116 Na 
HETATM    2 NA   UNL     2      -9.304  10.538  64.781  1.00  0.00    -0.161 Na 
HETATM    3  O   UNL     3      -9.943  13.957  64.788  1.00  0.00    -0.609 OA 
HETATM    4  C   UNL     3     -10.605  13.842  66.049  1.00  0.00    -0.293 C  
HETATM    5  H   UNL     3     -10.148  14.806  64.414  1.00  0.00     0.000 HD 
ENDROOT
BRANCH   4   6
HETATM    6  C   UNL     3     -10.275  12.473  66.652  1.00  0.00    -0.230 C  
HETATM    7  O   UNL     3      -9.017  12.516  67.396  1.00  0.00    -0.172 OA 
HETATM    8  H   UNL     3      -8.812  11.667  67.770  1.00  0.00     0.000 HD 
BRANCH   6   9
HETATM    9  C   UNL     3     -11.351  11.977  67.567  1.00  0.00    -0.319 C  
BRANCH   9  10
HETATM   10  O   UNL     3     -10.920  12.094  68.914  1.00  0.00    -0.220 OA 
HETATM   11  P   UNL     3     -11.268  10.623  69.755  1.00  0.00    -0.314 P  
HETATM   12  O   UNL     3     -11.579   9.306  70.507  1.00  0.00    -0.267 OA 
HETATM   13  O   UNL     3     -12.735  10.924  69.375  1.00  0.00    -0.284 OA 
HETATM   14  O   UNL     3     -10.276   9.999  68.733  1.00  0.00    -0.170 OA 
ENDBRANCH   9  10
ENDBRANCH   6   9
ENDBRANCH   4   6
TORSDOF 3
ENDMDL
MODEL      230
REMARK 921   NORMALIZED FREE ENERGY PREDICTED BY IDOCK:   -2.42 KCAL/MOL
REMARK 922        TOTAL FREE ENERGY PREDICTED BY IDOCK:   -3.62 KCAL/MOL
REMARK 923 INTER-LIGAND FREE ENERGY PREDICTED BY IDOCK:   -3.07 KCAL/MOL
REMARK 924 INTRA-LIGAND FREE ENERGY PREDICTED BY IDOCK:   -0.55 KCAL/MOL
REMARK 927      BINDING AFFINITY PREDICTED BY RF-SCORE:    0.00 PKD
ROOT
HETATM    1 NA   UNL     1      -6.839   6.737  73.383  1.00  0.00    -0.069 Na 
HETATM    2 NA   UNL     2     -11.696   5.282  73.896  1.00  0.00    -0.416 Na 
HETATM    3  O   UNL     3      -9.029   4.630  71.760  1.00  0.00    -0.125 OA 
HETATM    4  C   UNL     3      -8.987   6.006  71.375  1.00  0.00    -0.143 C  
HETATM    5  H   UNL     3      -8.507   4.128  71.146  1.00  0.00     0.000 HD 
ENDROOT
BRANCH   4   6
HETATM    6  C   UNL     3      -9.830   6.817  72.365  1.00  0.00    -0.158 C  
HETATM    7  O   UNL     3      -9.104   8.001  72.824  1.00  0.00    -0.187 OA 
HETATM    8  H   UNL     3      -9.626   8.505  73.438  1.00  0.00     0.000 HD 
BRANCH   6   9
HETATM    9  C   UNL     3     -11.134   7.258  71.778  1.00  0.00    -0.235 C  
BRANCH   9  10
HETATM   10  O   UNL     3     -11.784   8.142  72.677  1.00  0.00    -0.399 OA 
HETATM   11  P   UNL     3     -12.626   9.356  71.775  1.00  0.00    -0.413 P  
HETATM   12  O   UNL     3     -13.379  10.441  70.968  1.00  0.00    -0.342 OA 
HETATM   13  O   UNL     3     -11.228   9.701  71.213  1.00  0.00    -0.346 OA 
HETATM   14  O   UNL     3     -13.444   8.150  71.233  1.00  0.00    -0.238 OA 
ENDBRANCH   9  10
ENDBRANCH   6   9
ENDBRANCH   4   6
TORSDOF 3
ENDMDL
MODEL      231
REMARK 921   NORMALIZED FREE ENERGY PREDICTED BY IDOCK:   -2.42 KCAL/MOL
REMARK 922        TOTAL FREE ENERGY PREDICTED BY IDOCK:   -3.62 KCAL/MOL
REMARK 923 INTER-LIGAND FREE ENERGY PREDICTED BY IDOCK:   -3.00 KCAL/MOL
REMARK 924 INTRA-LIGAND FREE ENERGY PREDICTED BY IDOCK:   -0.62 KCAL/MOL
REMARK 927      BINDING AFFINITY PREDICTED BY RF-SCORE:    0.00 PKD
ROOT
HETATM    1 NA   UNL     1     -11.489  19.346  66.726  1.00  0.00    -0.383 Na 
HETATM    2 NA   UNL     2      -7.257  18.828  69.516  1.00  0.00    -0.272 Na 
HETATM    3  O   UNL     3      -8.169  18.618  66.167  1.00  0.00    -0.399 OA 
HETATM    4  C   UNL     3      -9.066  17.546  66.466  1.00  0.00    -0.263 C  
HETATM    5  H   UNL     3      -8.045  18.655  65.225  1.00  0.00     0.000 HD 
ENDROOT
BRANCH   4   6
HETATM    6  C   UNL     3      -9.266  17.486  67.984  1.00  0.00    -0.275 C  
HETATM    7  O   UNL     3     -10.680  17.322  68.320  1.00  0.00    -0.373 OA 
HETATM    8  H   UNL     3     -10.805  17.284  69.262  1.00  0.00     0.000 HD 
BRANCH   6   9
HETATM    9  C   UNL     3      -8.495  16.371  68.618  1.00  0.00    -0.229 C  
BRANCH   9  10
HETATM   10  O   UNL     3      -7.135  16.751  68.756  1.00  0.00    -0.178 OA 
HETATM   11  P   UNL     3      -6.143  15.334  68.766  1.00  0.00    -0.094 P  
HETATM   12  O   UNL     3      -5.256  14.065  68.776  1.00  0.00    -0.078 OA 
HETATM   13  O   UNL     3      -6.974  14.939  70.008  1.00  0.00    -0.187 OA 
HETATM   14  O   UNL     3      -6.694  15.139  67.326  1.00  0.00    -0.269 OA 
ENDBRANCH   9  10
ENDBRANCH   6   9
ENDBRANCH   4   6
TORSDOF 3
ENDMDL
MODEL      232
REMARK 921   NORMALIZED FREE ENERGY PREDICTED BY IDOCK:   -2.40 KCAL/MOL
REMARK 922        TOTAL FREE ENERGY PREDICTED BY IDOCK:   -3.59 KCAL/MOL
REMARK 923 INTER-LIGAND FREE ENERGY PREDICTED BY IDOCK:   -3.19 KCAL/MOL
REMARK 924 INTRA-LIGAND FREE ENERGY PREDICTED BY IDOCK:   -0.40 KCAL/MOL
REMARK 927      BINDING AFFINITY PREDICTED BY RF-SCORE:    0.00 PKD
ROOT
HETATM    1 NA   UNL     1     -10.653  14.069  68.942  1.00  0.00    -0.205 Na 
HETATM    2 NA   UNL     2      -9.940  13.916  63.898  1.00  0.00    -0.455 Na 
HETATM    3  O   UNL     3      -8.228  12.948  66.766  1.00  0.00    -0.395 OA 
HETATM    4  C   UNL     3      -8.178  14.307  67.209  1.00  0.00    -0.192 C  
HETATM    5  H   UNL     3      -7.620  12.437  67.288  1.00  0.00     0.000 HD 
ENDROOT
BRANCH   4   6
HETATM    6  C   UNL     3      -9.158  15.131  66.368  1.00  0.00    -0.296 C  
HETATM    7  O   UNL     3     -10.494  15.124  66.962  1.00  0.00    -0.271 OA 
HETATM    8  H   UNL     3     -11.103  15.635  66.441  1.00  0.00     0.000 HD 
BRANCH   6   9
HETATM    9  C   UNL     3      -8.718  16.552  66.207  1.00  0.00    -0.333 C  
BRANCH   9  10
HETATM   10  O   UNL     3      -8.324  17.073  67.466  1.00  0.00    -0.185 OA 
HETATM   11  P   UNL     3      -7.098  18.271  67.231  1.00  0.00    -0.202 P  
HETATM   12  O   UNL     3      -6.001  19.342  67.020  1.00  0.00    -0.178 OA 
HETATM   13  O   UNL     3      -6.302  17.118  66.578  1.00  0.00    -0.199 OA 
HETATM   14  O   UNL     3      -8.216  19.025  66.458  1.00  0.00    -0.280 OA 
ENDBRANCH   9  10
ENDBRANCH   6   9
ENDBRANCH   4   6
TORSDOF 3
ENDMDL
MODEL      233
REMARK 921   NORMALIZED FREE ENERGY PREDICTED BY IDOCK:   -2.40 KCAL/MOL
REMARK 922        TOTAL FREE ENERGY PREDICTED BY IDOCK:   -3.59 KCAL/MOL
REMARK 923 INTER-LIGAND FREE ENERGY PREDICTED BY IDOCK:   -3.29 KCAL/MOL
REMARK 924 INTRA-LIGAND FREE ENERGY PREDICTED BY IDOCK:   -0.30 KCAL/MOL
REMARK 927      BINDING AFFINITY PREDICTED BY RF-SCORE:    0.00 PKD
ROOT
HETATM    1 NA   UNL     1      -8.888   5.841  70.997  1.00  0.00    -0.120 Na 
HETATM    2 NA   UNL     2     -13.167   8.557  70.466  1.00  0.00    -0.509 Na 
HETATM    3  O   UNL     3     -10.690   8.106  72.866  1.00  0.00    -0.352 OA 
HETATM    4  C   UNL     3     -11.021   6.718  72.962  1.00  0.00    -0.260 C  
HETATM    5  H   UNL     3     -10.139   8.338  73.604  1.00  0.00     0.000 HD 
ENDROOT
BRANCH   4   6
HETATM    6  C   UNL     3     -11.910   6.344  71.772  1.00  0.00    -0.321 C  
HETATM    7  O   UNL     3     -13.194   7.042  71.837  1.00  0.00    -0.493 OA 
HETATM    8  H   UNL     3     -13.746   6.810  71.099  1.00  0.00     0.000 HD 
BRANCH   6   9
HETATM    9  C   UNL     3     -11.267   6.656  70.458  1.00  0.00    -0.334 C  
BRANCH   9  10
HETATM   10  O   UNL     3     -11.310   8.055  70.228  1.00  0.00    -0.243 OA 
HETATM   11  P   UNL     3      -9.991   8.507  69.203  1.00  0.00    -0.201 P  
HETATM   12  O   UNL     3      -8.811   8.910  68.285  1.00  0.00    -0.133 OA 
HETATM   13  O   UNL     3      -9.107   7.926  70.330  1.00  0.00    -0.150 OA 
HETATM   14  O   UNL     3     -10.697   7.585  68.168  1.00  0.00    -0.174 OA 
ENDBRANCH   9  10
ENDBRANCH   6   9
ENDBRANCH   4   6
TORSDOF 3
ENDMDL
MODEL      234
REMARK 921   NORMALIZED FREE ENERGY PREDICTED BY IDOCK:   -2.39 KCAL/MOL
REMARK 922        TOTAL FREE ENERGY PREDICTED BY IDOCK:   -3.58 KCAL/MOL
REMARK 923 INTER-LIGAND FREE ENERGY PREDICTED BY IDOCK:   -3.15 KCAL/MOL
REMARK 924 INTRA-LIGAND FREE ENERGY PREDICTED BY IDOCK:   -0.43 KCAL/MOL
REMARK 927      BINDING AFFINITY PREDICTED BY RF-SCORE:    0.00 PKD
ROOT
HETATM    1 NA   UNL     1      -8.586   5.817  70.932  1.00  0.00    -0.110 Na 
HETATM    2 NA   UNL     2     -13.476   6.896  69.989  1.00  0.00    -0.595 Na 
HETATM    3  O   UNL     3     -10.743   5.628  68.252  1.00  0.00    -0.214 OA 
HETATM    4  C   UNL     3     -10.025   6.845  68.471  1.00  0.00    -0.148 C  
HETATM    5  H   UNL     3     -10.291   5.126  67.584  1.00  0.00     0.000 HD 
ENDROOT
BRANCH   4   6
HETATM    6  C   UNL     3     -10.753   7.655  69.548  1.00  0.00    -0.209 C  
HETATM    7  O   UNL     3     -10.103   7.500  70.850  1.00  0.00    -0.192 OA 
HETATM    8  H   UNL     3     -10.555   8.002  71.518  1.00  0.00     0.000 HD 
BRANCH   6   9
HETATM    9  C   UNL     3     -10.817   9.113  69.221  1.00  0.00    -0.132 C  
BRANCH   9  10
HETATM   10  O   UNL     3     -10.711   9.290  67.817  1.00  0.00    -0.259 OA 
HETATM   11  P   UNL     3     -10.700  10.982  67.453  1.00  0.00    -0.290 P  
HETATM   12  O   UNL     3     -10.690  12.496  67.129  1.00  0.00    -0.232 OA 
HETATM   13  O   UNL     3     -12.084  10.990  68.141  1.00  0.00    -0.610 OA 
HETATM   14  O   UNL     3      -9.383  10.981  68.280  1.00  0.00    -0.159 OA 
ENDBRANCH   9  10
ENDBRANCH   6   9
ENDBRANCH   4   6
TORSDOF 3
ENDMDL
MODEL      235
REMARK 921   NORMALIZED FREE ENERGY PREDICTED BY IDOCK:   -2.38 KCAL/MOL
REMARK 922        TOTAL FREE ENERGY PREDICTED BY IDOCK:   -3.57 KCAL/MOL
REMARK 923 INTER-LIGAND FREE ENERGY PREDICTED BY IDOCK:   -3.35 KCAL/MOL
REMARK 924 INTRA-LIGAND FREE ENERGY PREDICTED BY IDOCK:   -0.22 KCAL/MOL
REMARK 927      BINDING AFFINITY PREDICTED BY RF-SCORE:    0.00 PKD
ROOT
HETATM    1 NA   UNL     1      -7.311  14.867  67.806  1.00  0.00    -0.093 Na 
HETATM    2 NA   UNL     2     -11.055  17.554  69.981  1.00  0.00    -0.453 Na 
HETATM    3  O   UNL     3     -10.285  14.210  69.416  1.00  0.00    -0.426 OA 
HETATM    4  C   UNL     3     -10.304  14.433  68.004  1.00  0.00    -0.227 C  
HETATM    5  H   UNL     3     -10.299  13.273  69.574  1.00  0.00     0.000 HD 
ENDROOT
BRANCH   4   6
HETATM    6  C   UNL     3     -10.282  15.943  67.747  1.00  0.00    -0.260 C  
HETATM    7  O   UNL     3     -11.550  16.559  68.137  1.00  0.00    -0.170 OA 
HETATM    8  H   UNL     3     -11.538  17.496  67.978  1.00  0.00     0.000 HD 
BRANCH   6   9
HETATM    9  C   UNL     3      -9.175  16.632  68.481  1.00  0.00    -0.234 C  
BRANCH   9  10
HETATM   10  O   UNL     3      -8.444  17.448  67.580  1.00  0.00    -0.208 OA 
HETATM   11  P   UNL     3      -7.752  18.777  68.446  1.00  0.00    -0.333 P  
HETATM   12  O   UNL     3      -7.133  19.965  69.221  1.00  0.00    -0.325 OA 
HETATM   13  O   UNL     3      -9.216  19.120  68.799  1.00  0.00    -0.360 OA 
HETATM   14  O   UNL     3      -6.974  17.663  69.203  1.00  0.00    -0.257 OA 
ENDBRANCH   9  10
ENDBRANCH   6   9
ENDBRANCH   4   6
TORSDOF 3
ENDMDL
MODEL      236
REMARK 921   NORMALIZED FREE ENERGY PREDICTED BY IDOCK:   -2.38 KCAL/MOL
REMARK 922        TOTAL FREE ENERGY PREDICTED BY IDOCK:   -3.56 KCAL/MOL
REMARK 923 INTER-LIGAND FREE ENERGY PREDICTED BY IDOCK:   -2.95 KCAL/MOL
REMARK 924 INTRA-LIGAND FREE ENERGY PREDICTED BY IDOCK:   -0.62 KCAL/MOL
REMARK 927      BINDING AFFINITY PREDICTED BY RF-SCORE:    0.00 PKD
ROOT
HETATM    1 NA   UNL     1      -8.866   3.376  64.890  1.00  0.00    -0.106 Na 
HETATM    2 NA   UNL     2     -12.075   6.581  67.213  1.00  0.00    -0.672 Na 
HETATM    3  O   UNL     3      -9.141   6.778  65.357  1.00  0.00    -0.368 OA 
HETATM    4  C   UNL     3      -8.453   6.004  66.342  1.00  0.00    -0.118 C  
HETATM    5  H   UNL     3      -8.498   7.177  64.782  1.00  0.00     0.000 HD 
ENDROOT
BRANCH   4   6
HETATM    6  C   UNL     3      -9.488   5.361  67.269  1.00  0.00    -0.123 C  
HETATM    7  O   UNL     3      -9.304   3.912  67.337  1.00  0.00    -0.162 OA 
HETATM    8  H   UNL     3      -9.947   3.513  67.912  1.00  0.00     0.000 HD 
BRANCH   6   9
HETATM    9  C   UNL     3      -9.430   5.912  68.660  1.00  0.00    -0.122 C  
BRANCH   9  10
HETATM   10  O   UNL     3     -10.121   5.044  69.544  1.00  0.00    -0.212 OA 
HETATM   11  P   UNL     3     -10.891   5.981  70.779  1.00  0.00    -0.276 P  
HETATM   12  O   UNL     3     -11.579   6.820  71.883  1.00  0.00    -0.265 OA 
HETATM   13  O   UNL     3      -9.457   6.454  71.110  1.00  0.00    -0.166 OA 
HETATM   14  O   UNL     3     -11.691   6.585  69.590  1.00  0.00    -0.357 OA 
ENDBRANCH   9  10
ENDBRANCH   6   9
ENDBRANCH   4   6
TORSDOF 3
ENDMDL
MODEL      237
REMARK 921   NORMALIZED FREE ENERGY PREDICTED BY IDOCK:   -2.38 KCAL/MOL
REMARK 922        TOTAL FREE ENERGY PREDICTED BY IDOCK:   -3.56 KCAL/MOL
REMARK 923 INTER-LIGAND FREE ENERGY PREDICTED BY IDOCK:   -3.14 KCAL/MOL
REMARK 924 INTRA-LIGAND FREE ENERGY PREDICTED BY IDOCK:   -0.42 KCAL/MOL
REMARK 927      BINDING AFFINITY PREDICTED BY RF-SCORE:    0.00 PKD
ROOT
HETATM    1 NA   UNL     1     -12.096   4.742  73.109  1.00  0.00    -0.274 Na 
HETATM    2 NA   UNL     2      -9.744   9.187  72.288  1.00  0.00    -0.256 Na 
HETATM    3  O   UNL     3     -13.008   7.999  72.456  1.00  0.00    -0.546 OA 
HETATM    4  C   UNL     3     -12.758   7.122  71.354  1.00  0.00    -0.391 C  
HETATM    5  H   UNL     3     -13.947   8.045  72.599  1.00  0.00     0.000 HD 
ENDROOT
BRANCH   4   6
HETATM    6  C   UNL     3     -11.246   7.049  71.123  1.00  0.00    -0.270 C  
HETATM    7  O   UNL     3     -10.726   5.725  71.468  1.00  0.00    -0.243 OA 
HETATM    8  H   UNL     3      -9.788   5.679  71.324  1.00  0.00     0.000 HD 
BRANCH   6   9
HETATM    9  C   UNL     3     -10.869   7.352  69.707  1.00  0.00    -0.234 C  
BRANCH   9  10
HETATM   10  O   UNL     3      -9.955   6.372  69.238  1.00  0.00    -0.147 OA 
HETATM   11  P   UNL     3      -9.578   6.690  67.579  1.00  0.00    -0.135 P  
HETATM   12  O   UNL     3      -9.241   6.974  66.095  1.00  0.00    -0.152 OA 
HETATM   13  O   UNL     3     -11.097   6.515  67.352  1.00  0.00    -0.357 OA 
HETATM   14  O   UNL     3      -8.989   8.015  68.140  1.00  0.00    -0.135 OA 
ENDBRANCH   9  10
ENDBRANCH   6   9
ENDBRANCH   4   6
TORSDOF 3
ENDMDL
MODEL      238
REMARK 921   NORMALIZED FREE ENERGY PREDICTED BY IDOCK:   -2.37 KCAL/MOL
REMARK 922        TOTAL FREE ENERGY PREDICTED BY IDOCK:   -3.56 KCAL/MOL
REMARK 923 INTER-LIGAND FREE ENERGY PREDICTED BY IDOCK:   -2.83 KCAL/MOL
REMARK 924 INTRA-LIGAND FREE ENERGY PREDICTED BY IDOCK:   -0.72 KCAL/MOL
REMARK 927      BINDING AFFINITY PREDICTED BY RF-SCORE:    0.00 PKD
ROOT
HETATM    1 NA   UNL     1      -8.917  11.909  69.387  1.00  0.00    -0.364 Na 
HETATM    2 NA   UNL     2     -12.327   8.170  69.982  1.00  0.00    -0.476 Na 
HETATM    3  O   UNL     3      -9.529   9.386  71.651  1.00  0.00    -0.262 OA 
HETATM    4  C   UNL     3      -8.712   9.103  70.513  1.00  0.00    -0.221 C  
HETATM    5  H   UNL     3      -8.963   9.555  72.395  1.00  0.00     0.000 HD 
ENDROOT
BRANCH   4   6
HETATM    6  C   UNL     3      -9.625   8.830  69.313  1.00  0.00    -0.162 C  
HETATM    7  O   UNL     3      -9.202   9.604  68.146  1.00  0.00    -0.126 OA 
HETATM    8  H   UNL     3      -9.768   9.435  67.401  1.00  0.00     0.000 HD 
BRANCH   6   9
HETATM    9  C   UNL     3      -9.655   7.382  68.936  1.00  0.00    -0.148 C  
BRANCH   9  10
HETATM   10  O   UNL     3     -10.880   7.087  68.283  1.00  0.00    -0.198 OA 
HETATM   11  P   UNL     3     -10.613   5.856  67.096  1.00  0.00    -0.292 P  
HETATM   12  O   UNL     3     -10.373   4.754  66.035  1.00  0.00    -0.262 OA 
HETATM   13  O   UNL     3      -9.622   6.869  66.480  1.00  0.00    -0.177 OA 
HETATM   14  O   UNL     3     -10.225   4.987  68.327  1.00  0.00    -0.145 OA 
ENDBRANCH   9  10
ENDBRANCH   6   9
ENDBRANCH   4   6
TORSDOF 3
ENDMDL
MODEL      239
REMARK 921   NORMALIZED FREE ENERGY PREDICTED BY IDOCK:   -2.36 KCAL/MOL
REMARK 922        TOTAL FREE ENERGY PREDICTED BY IDOCK:   -3.55 KCAL/MOL
REMARK 923 INTER-LIGAND FREE ENERGY PREDICTED BY IDOCK:   -2.56 KCAL/MOL
REMARK 924 INTRA-LIGAND FREE ENERGY PREDICTED BY IDOCK:   -0.98 KCAL/MOL
REMARK 927      BINDING AFFINITY PREDICTED BY RF-SCORE:    0.00 PKD
ROOT
HETATM    1 NA   UNL     1     -10.407  10.379  68.309  1.00  0.00    -0.146 Na 
HETATM    2 NA   UNL     2      -6.056   9.736  65.735  1.00  0.00    -0.051 Na 
HETATM    3  O   UNL     3      -9.092  11.370  65.283  1.00  0.00    -0.338 OA 
HETATM    4  C   UNL     3      -9.787  10.123  65.354  1.00  0.00    -0.307 C  
HETATM    5  H   UNL     3      -9.686  12.029  64.939  1.00  0.00     0.000 HD 
ENDROOT
BRANCH   4   6
HETATM    6  C   UNL     3      -8.831   9.062  65.907  1.00  0.00    -0.175 C  
HETATM    7  O   UNL     3      -8.158   9.541  67.114  1.00  0.00    -0.105 OA 
HETATM    8  H   UNL     3      -7.564   8.883  67.457  1.00  0.00     0.000 HD 
BRANCH   6   9
HETATM    9  C   UNL     3      -9.528   7.778  66.231  1.00  0.00    -0.133 C  
BRANCH   9  10
HETATM   10  O   UNL     3     -10.643   8.041  67.068  1.00  0.00    -0.335 OA 
HETATM   11  P   UNL     3     -10.762   6.801  68.269  1.00  0.00    -0.205 P  
HETATM   12  O   UNL     3     -10.867   5.691  69.343  1.00  0.00    -0.320 OA 
HETATM   13  O   UNL     3     -10.899   5.847  67.061  1.00  0.00    -0.301 OA 
HETATM   14  O   UNL     3      -9.376   7.340  68.724  1.00  0.00    -0.144 OA 
ENDBRANCH   9  10
ENDBRANCH   6   9
ENDBRANCH   4   6
TORSDOF 3
ENDMDL
MODEL      240
REMARK 921   NORMALIZED FREE ENERGY PREDICTED BY IDOCK:   -2.35 KCAL/MOL
REMARK 922        TOTAL FREE ENERGY PREDICTED BY IDOCK:   -3.54 KCAL/MOL
REMARK 923 INTER-LIGAND FREE ENERGY PREDICTED BY IDOCK:   -2.94 KCAL/MOL
REMARK 924 INTRA-LIGAND FREE ENERGY PREDICTED BY IDOCK:   -0.60 KCAL/MOL
REMARK 927      BINDING AFFINITY PREDICTED BY RF-SCORE:    0.00 PKD
ROOT
HETATM    1 NA   UNL     1      -9.624  13.114  69.182  1.00  0.00    -0.337 Na 
HETATM    2 NA   UNL     2      -8.783   8.815  71.787  1.00  0.00    -0.115 Na 
HETATM    3  O   UNL     3      -6.904  11.411  70.436  1.00  0.00    -0.479 OA 
HETATM    4  C   UNL     3      -7.374  11.084  69.126  1.00  0.00    -0.121 C  
HETATM    5  H   UNL     3      -6.162  11.999  70.353  1.00  0.00     0.000 HD 
ENDROOT
BRANCH   4   6
HETATM    6  C   UNL     3      -8.569  10.135  69.258  1.00  0.00    -0.174 C  
HETATM    7  O   UNL     3      -9.733  10.831  69.808  1.00  0.00    -0.422 OA 
HETATM    8  H   UNL     3     -10.474  10.242  69.890  1.00  0.00     0.000 HD 
BRANCH   6   9
HETATM    9  C   UNL     3      -8.958   9.521  67.950  1.00  0.00    -0.123 C  
BRANCH   9  10
HETATM   10  O   UNL     3      -8.368  10.252  66.887  1.00  0.00    -0.122 OA 
HETATM   11  P   UNL     3      -9.587  10.663  65.730  1.00  0.00    -0.243 P  
HETATM   12  O   UNL     3     -10.678  11.031  64.696  1.00  0.00    -0.324 OA 
HETATM   13  O   UNL     3      -9.785   9.135  65.613  1.00  0.00    -0.270 OA 
HETATM   14  O   UNL     3     -10.197  11.473  66.909  1.00  0.00    -0.208 OA 
ENDBRANCH   9  10
ENDBRANCH   6   9
ENDBRANCH   4   6
TORSDOF 3
ENDMDL
MODEL      241
REMARK 921   NORMALIZED FREE ENERGY PREDICTED BY IDOCK:   -2.35 KCAL/MOL
REMARK 922        TOTAL FREE ENERGY PREDICTED BY IDOCK:   -3.54 KCAL/MOL
REMARK 923 INTER-LIGAND FREE ENERGY PREDICTED BY IDOCK:   -2.99 KCAL/MOL
REMARK 924 INTRA-LIGAND FREE ENERGY PREDICTED BY IDOCK:   -0.54 KCAL/MOL
REMARK 927      BINDING AFFINITY PREDICTED BY RF-SCORE:    0.00 PKD
ROOT
HETATM    1 NA   UNL     1      -8.788  15.117  69.129  1.00  0.00    -0.150 Na 
HETATM    2 NA   UNL     2     -12.030  15.687  65.240  1.00  0.00    -0.248 Na 
HETATM    3  O   UNL     3     -12.192  15.427  68.704  1.00  0.00    -0.569 OA 
HETATM    4  C   UNL     3     -11.609  14.123  68.645  1.00  0.00    -0.317 C  
HETATM    5  H   UNL     3     -12.557  15.556  69.572  1.00  0.00     0.000 HD 
ENDROOT
BRANCH   4   6
HETATM    6  C   UNL     3     -11.022  13.914  67.245  1.00  0.00    -0.290 C  
HETATM    7  O   UNL     3     -10.123  15.010  66.884  1.00  0.00    -0.243 OA 
HETATM    8  H   UNL     3      -9.758  14.880  66.016  1.00  0.00     0.000 HD 
BRANCH   6   9
HETATM    9  C   UNL     3     -10.270  12.625  67.128  1.00  0.00    -0.225 C  
BRANCH   9  10
HETATM   10  O   UNL     3      -9.353  12.707  66.049  1.00  0.00    -0.186 OA 
HETATM   11  P   UNL     3      -9.246  11.165  65.271  1.00  0.00    -0.115 P  
HETATM   12  O   UNL     3      -9.151   9.784  64.577  1.00  0.00    -0.224 OA 
HETATM   13  O   UNL     3      -8.780  10.662  66.657  1.00  0.00    -0.135 OA 
HETATM   14  O   UNL     3     -10.750  11.404  64.958  1.00  0.00    -0.292 OA 
ENDBRANCH   9  10
ENDBRANCH   6   9
ENDBRANCH   4   6
TORSDOF 3
ENDMDL
MODEL      242
REMARK 921   NORMALIZED FREE ENERGY PREDICTED BY IDOCK:   -2.35 KCAL/MOL
REMARK 922        TOTAL FREE ENERGY PREDICTED BY IDOCK:   -3.53 KCAL/MOL
REMARK 923 INTER-LIGAND FREE ENERGY PREDICTED BY IDOCK:   -3.15 KCAL/MOL
REMARK 924 INTRA-LIGAND FREE ENERGY PREDICTED BY IDOCK:   -0.38 KCAL/MOL
REMARK 927      BINDING AFFINITY PREDICTED BY RF-SCORE:    0.00 PKD
ROOT
HETATM    1 NA   UNL     1     -10.959  18.769  66.753  1.00  0.00    -0.363 Na 
HETATM    2 NA   UNL     2     -10.521  14.401  64.166  1.00  0.00    -0.474 Na 
HETATM    3  O   UNL     3     -11.776  15.457  67.233  1.00  0.00    -0.179 OA 
HETATM    4  C   UNL     3     -10.477  15.906  67.623  1.00  0.00    -0.289 C  
HETATM    5  H   UNL     3     -12.331  15.430  68.004  1.00  0.00     0.000 HD 
ENDROOT
BRANCH   4   6
HETATM    6  C   UNL     3      -9.581  15.949  66.381  1.00  0.00    -0.287 C  
HETATM    7  O   UNL     3      -9.513  17.302  65.829  1.00  0.00    -0.527 OA 
HETATM    8  H   UNL     3      -8.958  17.330  65.059  1.00  0.00     0.000 HD 
BRANCH   6   9
HETATM    9  C   UNL     3      -8.188  15.482  66.664  1.00  0.00    -0.209 C  
BRANCH   9  10
HETATM   10  O   UNL     3      -8.118  14.970  67.985  1.00  0.00    -0.121 OA 
HETATM   11  P   UNL     3      -7.124  13.554  67.997  1.00  0.00    -0.169 P  
HETATM   12  O   UNL     3      -6.235  12.286  68.007  1.00  0.00    -0.060 OA 
HETATM   13  O   UNL     3      -8.160  12.995  66.996  1.00  0.00    -0.138 OA 
HETATM   14  O   UNL     3      -6.007  14.536  67.546  1.00  0.00    -0.334 OA 
ENDBRANCH   9  10
ENDBRANCH   6   9
ENDBRANCH   4   6
TORSDOF 3
ENDMDL
MODEL      243
REMARK 921   NORMALIZED FREE ENERGY PREDICTED BY IDOCK:   -2.35 KCAL/MOL
REMARK 922        TOTAL FREE ENERGY PREDICTED BY IDOCK:   -3.53 KCAL/MOL
REMARK 923 INTER-LIGAND FREE ENERGY PREDICTED BY IDOCK:   -3.05 KCAL/MOL
REMARK 924 INTRA-LIGAND FREE ENERGY PREDICTED BY IDOCK:   -0.47 KCAL/MOL
REMARK 927      BINDING AFFINITY PREDICTED BY RF-SCORE:    0.00 PKD
ROOT
HETATM    1 NA   UNL     1      -9.128   7.329  69.041  1.00  0.00    -0.130 Na 
HETATM    2 NA   UNL     2     -14.069   7.032  70.254  1.00  0.00    -0.555 Na 
HETATM    3  O   UNL     3     -11.543   9.421  70.330  1.00  0.00    -0.376 OA 
HETATM    4  C   UNL     3     -10.786   8.609  71.231  1.00  0.00    -0.254 C  
HETATM    5  H   UNL     3     -11.168  10.295  70.322  1.00  0.00     0.000 HD 
ENDROOT
BRANCH   4   6
HETATM    6  C   UNL     3     -11.390   7.201  71.244  1.00  0.00    -0.268 C  
HETATM    7  O   UNL     3     -11.816   6.801  69.904  1.00  0.00    -0.622 OA 
HETATM    8  H   UNL     3     -12.191   5.927  69.911  1.00  0.00     0.000 HD 
BRANCH   6   9
HETATM    9  C   UNL     3     -10.435   6.174  71.765  1.00  0.00    -0.216 C  
BRANCH   9  10
HETATM   10  O   UNL     3     -10.216   6.388  73.151  1.00  0.00    -0.182 OA 
HETATM   11  P   UNL     3      -9.048   5.249  73.728  1.00  0.00    -0.121 P  
HETATM   12  O   UNL     3      -8.003   4.230  74.243  1.00  0.00    -0.090 OA 
HETATM   13  O   UNL     3     -10.064   4.187  73.251  1.00  0.00    -0.131 OA 
HETATM   14  O   UNL     3      -8.098   5.969  72.730  1.00  0.00    -0.107 OA 
ENDBRANCH   9  10
ENDBRANCH   6   9
ENDBRANCH   4   6
TORSDOF 3
ENDMDL
MODEL      244
REMARK 921   NORMALIZED FREE ENERGY PREDICTED BY IDOCK:   -2.33 KCAL/MOL
REMARK 922        TOTAL FREE ENERGY PREDICTED BY IDOCK:   -3.51 KCAL/MOL
REMARK 923 INTER-LIGAND FREE ENERGY PREDICTED BY IDOCK:   -2.80 KCAL/MOL
REMARK 924 INTRA-LIGAND FREE ENERGY PREDICTED BY IDOCK:   -0.71 KCAL/MOL
REMARK 927      BINDING AFFINITY PREDICTED BY RF-SCORE:    0.00 PKD
ROOT
HETATM    1 NA   UNL     1      -8.096   3.732  67.562  1.00  0.00    -0.082 Na 
HETATM    2 NA   UNL     2     -12.083   6.842  66.935  1.00  0.00    -0.705 Na 
HETATM    3  O   UNL     3      -9.300   5.831  65.110  1.00  0.00    -0.362 OA 
HETATM    4  C   UNL     3      -8.434   6.371  66.111  1.00  0.00    -0.140 C  
HETATM    5  H   UNL     3      -8.787   5.651  64.331  1.00  0.00     0.000 HD 
ENDROOT
BRANCH   4   6
HETATM    6  C   UNL     3      -9.261   6.663  67.367  1.00  0.00    -0.122 C  
HETATM    7  O   UNL     3      -8.569   6.202  68.570  1.00  0.00    -0.113 OA 
HETATM    8  H   UNL     3      -9.081   6.383  69.350  1.00  0.00     0.000 HD 
BRANCH   6   9
HETATM    9  C   UNL     3      -9.566   8.120  67.525  1.00  0.00    -0.157 C  
BRANCH   9  10
HETATM   10  O   UNL     3     -10.201   8.602  66.351  1.00  0.00    -0.282 OA 
HETATM   11  P   UNL     3     -10.151  10.332  66.344  1.00  0.00    -0.211 P  
HETATM   12  O   UNL     3     -10.106  11.879  66.338  1.00  0.00    -0.207 OA 
HETATM   13  O   UNL     3     -10.939  10.215  67.668  1.00  0.00    -0.289 OA 
HETATM   14  O   UNL     3      -8.611  10.121  66.295  1.00  0.00    -0.128 OA 
ENDBRANCH   9  10
ENDBRANCH   6   9
ENDBRANCH   4   6
TORSDOF 3
ENDMDL
MODEL      245
REMARK 921   NORMALIZED FREE ENERGY PREDICTED BY IDOCK:   -2.32 KCAL/MOL
REMARK 922        TOTAL FREE ENERGY PREDICTED BY IDOCK:   -3.50 KCAL/MOL
REMARK 923 INTER-LIGAND FREE ENERGY PREDICTED BY IDOCK:   -3.43 KCAL/MOL
REMARK 924 INTRA-LIGAND FREE ENERGY PREDICTED BY IDOCK:   -0.07 KCAL/MOL
REMARK 927      BINDING AFFINITY PREDICTED BY RF-SCORE:    0.00 PKD
ROOT
HETATM    1 NA   UNL     1      -9.479  14.748  64.520  1.00  0.00    -0.292 Na 
HETATM    2 NA   UNL     2     -11.171  16.487  69.002  1.00  0.00    -0.252 Na 
HETATM    3  O   UNL     3     -10.724  17.705  65.775  1.00  0.00    -0.408 OA 
HETATM    4  C   UNL     3      -9.319  17.459  65.864  1.00  0.00     0.040 C  
HETATM    5  H   UNL     3     -10.886  18.264  65.024  1.00  0.00     0.000 HD 
ENDROOT
BRANCH   4   6
HETATM    6  C   UNL     3      -9.057  16.559  67.076  1.00  0.00    -0.211 C  
HETATM    7  O   UNL     3      -9.593  17.156  68.299  1.00  0.00    -0.261 OA 
HETATM    8  H   UNL     3      -9.430  16.598  69.051  1.00  0.00     0.000 HD 
BRANCH   6   9
HETATM    9  C   UNL     3      -9.651  15.195  66.914  1.00  0.00    -0.239 C  
BRANCH   9  10
HETATM   10  O   UNL     3     -11.010  15.217  67.323  1.00  0.00    -0.316 OA 
HETATM   11  P   UNL     3     -11.614  13.598  67.386  1.00  0.00    -0.397 P  
HETATM   12  O   UNL     3     -12.154  12.148  67.443  1.00  0.00    -0.553 OA 
HETATM   13  O   UNL     3     -11.250  13.558  65.885  1.00  0.00    -0.298 OA 
HETATM   14  O   UNL     3     -10.533  13.414  68.489  1.00  0.00    -0.247 OA 
ENDBRANCH   9  10
ENDBRANCH   6   9
ENDBRANCH   4   6
TORSDOF 3
ENDMDL
MODEL      246
REMARK 921   NORMALIZED FREE ENERGY PREDICTED BY IDOCK:   -2.31 KCAL/MOL
REMARK 922        TOTAL FREE ENERGY PREDICTED BY IDOCK:   -3.49 KCAL/MOL
REMARK 923 INTER-LIGAND FREE ENERGY PREDICTED BY IDOCK:   -3.08 KCAL/MOL
REMARK 924 INTRA-LIGAND FREE ENERGY PREDICTED BY IDOCK:   -0.41 KCAL/MOL
REMARK 927      BINDING AFFINITY PREDICTED BY RF-SCORE:    0.00 PKD
ROOT
HETATM    1 NA   UNL     1      -8.409   7.090  73.600  1.00  0.00    -0.109 Na 
HETATM    2 NA   UNL     2     -12.247   6.549  70.291  1.00  0.00    -0.345 Na 
HETATM    3  O   UNL     3      -8.800   6.998  70.178  1.00  0.00    -0.144 OA 
HETATM    4  C   UNL     3      -8.930   8.253  70.850  1.00  0.00    -0.151 C  
HETATM    5  H   UNL     3      -7.925   6.939  69.813  1.00  0.00     0.000 HD 
ENDROOT
BRANCH   4   6
HETATM    6  C   UNL     3     -10.341   8.348  71.438  1.00  0.00    -0.222 C  
HETATM    7  O   UNL     3     -10.337   8.034  72.867  1.00  0.00    -0.315 OA 
HETATM    8  H   UNL     3     -11.212   8.093  73.232  1.00  0.00     0.000 HD 
BRANCH   6   9
HETATM    9  C   UNL     3     -10.947   9.704  71.253  1.00  0.00    -0.329 C  
BRANCH   9  10
HETATM   10  O   UNL     3     -11.777   9.701  70.103  1.00  0.00    -0.202 OA 
HETATM   11  P   UNL     3     -11.751  11.270  69.374  1.00  0.00    -0.387 P  
HETATM   12  O   UNL     3     -11.726  12.674  68.723  1.00  0.00    -0.288 OA 
HETATM   13  O   UNL     3     -12.303  11.751  70.735  1.00  0.00    -0.374 OA 
HETATM   14  O   UNL     3     -10.239  10.968  69.172  1.00  0.00    -0.210 OA 
ENDBRANCH   9  10
ENDBRANCH   6   9
ENDBRANCH   4   6
TORSDOF 3
ENDMDL
MODEL      247
REMARK 921   NORMALIZED FREE ENERGY PREDICTED BY IDOCK:   -2.30 KCAL/MOL
REMARK 922        TOTAL FREE ENERGY PREDICTED BY IDOCK:   -3.47 KCAL/MOL
REMARK 923 INTER-LIGAND FREE ENERGY PREDICTED BY IDOCK:   -3.08 KCAL/MOL
REMARK 924 INTRA-LIGAND FREE ENERGY PREDICTED BY IDOCK:   -0.39 KCAL/MOL
REMARK 927      BINDING AFFINITY PREDICTED BY RF-SCORE:    0.00 PKD
ROOT
HETATM    1 NA   UNL     1      -6.794  18.518  69.855  1.00  0.00    -0.242 Na 
HETATM    2 NA   UNL     2      -9.910  14.757  71.307  1.00  0.00    -0.427 Na 
HETATM    3  O   UNL     3      -6.649  15.088  70.144  1.00  0.00    -0.167 OA 
HETATM    4  C   UNL     3      -7.130  15.655  68.923  1.00  0.00    -0.138 C  
HETATM    5  H   UNL     3      -5.736  14.851  70.029  1.00  0.00     0.000 HD 
ENDROOT
BRANCH   4   6
HETATM    6  C   UNL     3      -8.602  16.036  69.108  1.00  0.00    -0.247 C  
HETATM    7  O   UNL     3      -8.860  17.388  68.612  1.00  0.00    -0.271 OA 
HETATM    8  H   UNL     3      -9.773  17.625  68.726  1.00  0.00     0.000 HD 
BRANCH   6   9
HETATM    9  C   UNL     3      -9.530  15.091  68.411  1.00  0.00    -0.201 C  
BRANCH   9  10
HETATM   10  O   UNL     3      -9.880  15.618  67.142  1.00  0.00    -0.225 OA 
HETATM   11  P   UNL     3     -10.537  14.354  66.159  1.00  0.00    -0.320 P  
HETATM   12  O   UNL     3     -11.124  13.223  65.281  1.00  0.00    -0.284 OA 
HETATM   13  O   UNL     3      -9.165  13.675  66.372  1.00  0.00    -0.222 OA 
HETATM   14  O   UNL     3     -11.644  14.308  67.250  1.00  0.00    -0.338 OA 
ENDBRANCH   9  10
ENDBRANCH   6   9
ENDBRANCH   4   6
TORSDOF 3
ENDMDL
MODEL      248
REMARK 921   NORMALIZED FREE ENERGY PREDICTED BY IDOCK:   -2.29 KCAL/MOL
REMARK 922        TOTAL FREE ENERGY PREDICTED BY IDOCK:   -3.46 KCAL/MOL
REMARK 923 INTER-LIGAND FREE ENERGY PREDICTED BY IDOCK:   -3.13 KCAL/MOL
REMARK 924 INTRA-LIGAND FREE ENERGY PREDICTED BY IDOCK:   -0.33 KCAL/MOL
REMARK 927      BINDING AFFINITY PREDICTED BY RF-SCORE:    0.00 PKD
ROOT
HETATM    1 NA   UNL     1      -7.628   8.276  69.916  1.00  0.00    -0.065 Na 
HETATM    2 NA   UNL     2     -12.179   6.402  68.598  1.00  0.00    -0.521 Na 
HETATM    3  O   UNL     3      -8.843   5.866  67.776  1.00  0.00    -0.111 OA 
HETATM    4  C   UNL     3      -8.731   7.210  67.303  1.00  0.00    -0.120 C  
HETATM    5  H   UNL     3      -8.087   5.375  67.473  1.00  0.00     0.000 HD 
ENDROOT
BRANCH   4   6
HETATM    6  C   UNL     3      -9.950   8.002  67.790  1.00  0.00    -0.175 C  
HETATM    7  O   UNL     3     -11.134   7.682  66.994  1.00  0.00    -0.478 OA 
HETATM    8  H   UNL     3     -11.890   8.173  67.295  1.00  0.00     0.000 HD 
BRANCH   6   9
HETATM    9  C   UNL     3     -10.262   7.742  69.230  1.00  0.00    -0.211 C  
BRANCH   9  10
HETATM   10  O   UNL     3     -11.114   8.763  69.723  1.00  0.00    -0.192 OA 
HETATM   11  P   UNL     3     -11.452   8.468  71.394  1.00  0.00    -0.327 P  
HETATM   12  O   UNL     3     -11.754   8.203  72.889  1.00  0.00    -0.373 OA 
HETATM   13  O   UNL     3     -12.043   7.133  70.889  1.00  0.00    -0.338 OA 
HETATM   14  O   UNL     3      -9.920   8.664  71.567  1.00  0.00    -0.220 OA 
ENDBRANCH   9  10
ENDBRANCH   6   9
ENDBRANCH   4   6
TORSDOF 3
ENDMDL
MODEL      249
REMARK 921   NORMALIZED FREE ENERGY PREDICTED BY IDOCK:   -2.28 KCAL/MOL
REMARK 922        TOTAL FREE ENERGY PREDICTED BY IDOCK:   -3.45 KCAL/MOL
REMARK 923 INTER-LIGAND FREE ENERGY PREDICTED BY IDOCK:   -2.88 KCAL/MOL
REMARK 924 INTRA-LIGAND FREE ENERGY PREDICTED BY IDOCK:   -0.57 KCAL/MOL
REMARK 927      BINDING AFFINITY PREDICTED BY RF-SCORE:    0.00 PKD
ROOT
HETATM    1 NA   UNL     1     -11.912   5.714  73.633  1.00  0.00    -0.475 Na 
HETATM    2 NA   UNL     2     -11.538  10.388  71.638  1.00  0.00    -0.321 Na 
HETATM    3  O   UNL     3     -13.260   7.441  70.974  1.00  0.00    -0.582 OA 
HETATM    4  C   UNL     3     -12.025   6.747  70.786  1.00  0.00    -0.378 C  
HETATM    5  H   UNL     3     -13.965   6.900  70.637  1.00  0.00     0.000 HD 
ENDROOT
BRANCH   4   6
HETATM    6  C   UNL     3     -10.888   7.619  71.329  1.00  0.00    -0.231 C  
HETATM    7  O   UNL     3     -11.182   8.081  72.685  1.00  0.00    -0.358 OA 
HETATM    8  H   UNL     3     -10.478   8.622  73.022  1.00  0.00     0.000 HD 
BRANCH   6   9
HETATM    9  C   UNL     3      -9.575   6.901  71.347  1.00  0.00    -0.166 C  
BRANCH   9  10
HETATM   10  O   UNL     3      -8.745   7.454  72.356  1.00  0.00    -0.117 OA 
HETATM   11  P   UNL     3      -7.087   7.260  71.901  1.00  0.00    -0.065 P  
HETATM   12  O   UNL     3      -5.603   7.087  71.494  1.00  0.00    -0.035 OA 
HETATM   13  O   UNL     3      -7.415   5.750  71.899  1.00  0.00    -0.091 OA 
HETATM   14  O   UNL     3      -7.479   8.178  70.709  1.00  0.00    -0.061 OA 
ENDBRANCH   9  10
ENDBRANCH   6   9
ENDBRANCH   4   6
TORSDOF 3
ENDMDL
MODEL      250
REMARK 921   NORMALIZED FREE ENERGY PREDICTED BY IDOCK:   -2.27 KCAL/MOL
REMARK 922        TOTAL FREE ENERGY PREDICTED BY IDOCK:   -3.44 KCAL/MOL
REMARK 923 INTER-LIGAND FREE ENERGY PREDICTED BY IDOCK:   -2.63 KCAL/MOL
REMARK 924 INTRA-LIGAND FREE ENERGY PREDICTED BY IDOCK:   -0.81 KCAL/MOL
REMARK 927      BINDING AFFINITY PREDICTED BY RF-SCORE:    0.00 PKD
ROOT
HETATM    1 NA   UNL     1      -7.964   7.122  66.895  1.00  0.00    -0.096 Na 
HETATM    2 NA   UNL     2     -10.873   4.386  70.061  1.00  0.00    -0.180 Na 
HETATM    3  O   UNL     3     -10.855   5.258  66.694  1.00  0.00    -0.444 OA 
HETATM    4  C   UNL     3     -10.953   6.642  67.040  1.00  0.00    -0.393 C  
HETATM    5  H   UNL     3     -11.045   5.164  65.768  1.00  0.00     0.000 HD 
ENDROOT
BRANCH   4   6
HETATM    6  C   UNL     3     -10.647   6.795  68.533  1.00  0.00    -0.225 C  
HETATM    7  O   UNL     3      -9.497   5.977  68.919  1.00  0.00    -0.125 OA 
HETATM    8  H   UNL     3      -9.307   6.071  69.846  1.00  0.00     0.000 HD 
BRANCH   6   9
HETATM    9  C   UNL     3     -10.369   8.214  68.918  1.00  0.00    -0.211 C  
BRANCH   9  10
HETATM   10  O   UNL     3      -9.366   8.749  68.068  1.00  0.00    -0.141 OA 
HETATM   11  P   UNL     3      -9.379  10.475  68.184  1.00  0.00    -0.157 P  
HETATM   12  O   UNL     3      -9.392  12.020  68.289  1.00  0.00    -0.194 OA 
HETATM   13  O   UNL     3     -10.839  10.352  67.691  1.00  0.00    -0.264 OA 
HETATM   14  O   UNL     3      -9.000  10.212  69.669  1.00  0.00    -0.202 OA 
ENDBRANCH   9  10
ENDBRANCH   6   9
ENDBRANCH   4   6
TORSDOF 3
ENDMDL
MODEL      251
REMARK 921   NORMALIZED FREE ENERGY PREDICTED BY IDOCK:   -2.27 KCAL/MOL
REMARK 922        TOTAL FREE ENERGY PREDICTED BY IDOCK:   -3.44 KCAL/MOL
REMARK 923 INTER-LIGAND FREE ENERGY PREDICTED BY IDOCK:   -2.67 KCAL/MOL
REMARK 924 INTRA-LIGAND FREE ENERGY PREDICTED BY IDOCK:   -0.76 KCAL/MOL
REMARK 927      BINDING AFFINITY PREDICTED BY RF-SCORE:    0.00 PKD
ROOT
HETATM    1 NA   UNL     1      -9.654  10.294  68.865  1.00  0.00    -0.140 Na 
HETATM    2 NA   UNL     2      -7.616   5.768  67.715  1.00  0.00    -0.073 Na 
HETATM    3  O   UNL     3      -9.665   8.126  66.188  1.00  0.00    -0.403 OA 
HETATM    4  C   UNL     3     -10.646   7.955  67.214  1.00  0.00    -0.295 C  
HETATM    5  H   UNL     3     -10.062   8.600  65.466  1.00  0.00     0.000 HD 
ENDROOT
BRANCH   4   6
HETATM    6  C   UNL     3     -10.007   7.192  68.378  1.00  0.00    -0.158 C  
HETATM    7  O   UNL     3      -8.763   7.833  68.806  1.00  0.00    -0.128 OA 
HETATM    8  H   UNL     3      -8.366   7.359  69.528  1.00  0.00     0.000 HD 
BRANCH   6   9
HETATM    9  C   UNL     3     -10.917   7.087  69.561  1.00  0.00    -0.220 C  
BRANCH   9  10
HETATM   10  O   UNL     3     -10.264   6.379  70.602  1.00  0.00    -0.184 OA 
HETATM   11  P   UNL     3     -10.685   7.084  72.125  1.00  0.00    -0.234 P  
HETATM   12  O   UNL     3     -11.063   7.716  73.487  1.00  0.00    -0.315 OA 
HETATM   13  O   UNL     3     -10.057   8.369  71.539  1.00  0.00    -0.193 OA 
HETATM   14  O   UNL     3     -12.126   6.638  71.745  1.00  0.00    -0.331 OA 
ENDBRANCH   9  10
ENDBRANCH   6   9
ENDBRANCH   4   6
TORSDOF 3
ENDMDL
MODEL      252
REMARK 921   NORMALIZED FREE ENERGY PREDICTED BY IDOCK:   -2.26 KCAL/MOL
REMARK 922        TOTAL FREE ENERGY PREDICTED BY IDOCK:   -3.42 KCAL/MOL
REMARK 923 INTER-LIGAND FREE ENERGY PREDICTED BY IDOCK:   -2.75 KCAL/MOL
REMARK 924 INTRA-LIGAND FREE ENERGY PREDICTED BY IDOCK:   -0.68 KCAL/MOL
REMARK 927      BINDING AFFINITY PREDICTED BY RF-SCORE:    0.00 PKD
ROOT
HETATM    1 NA   UNL     1     -11.320   7.385  74.290  1.00  0.00    -0.436 Na 
HETATM    2 NA   UNL     2      -7.436   4.256  73.248  1.00  0.00    -0.060 Na 
HETATM    3  O   UNL     3      -7.879   7.505  74.406  1.00  0.00    -0.141 OA 
HETATM    4  C   UNL     3      -8.538   7.862  73.188  1.00  0.00    -0.201 C  
HETATM    5  H   UNL     3      -7.657   8.302  74.874  1.00  0.00     0.000 HD 
ENDROOT
BRANCH   4   6
HETATM    6  C   UNL     3      -8.894   6.578  72.432  1.00  0.00    -0.133 C  
HETATM    7  O   UNL     3      -9.219   5.495  73.361  1.00  0.00    -0.132 OA 
HETATM    8  H   UNL     3      -9.440   4.699  72.892  1.00  0.00     0.000 HD 
BRANCH   6   9
HETATM    9  C   UNL     3     -10.050   6.766  71.500  1.00  0.00    -0.181 C  
BRANCH   9  10
HETATM   10  O   UNL     3     -11.166   6.028  71.973  1.00  0.00    -0.263 OA 
HETATM   11  P   UNL     3     -12.623   6.855  71.539  1.00  0.00    -0.251 P  
HETATM   12  O   UNL     3     -13.926   7.596  71.151  1.00  0.00    -0.285 OA 
HETATM   13  O   UNL     3     -12.041   8.016  72.378  1.00  0.00    -0.340 OA 
HETATM   14  O   UNL     3     -12.146   6.587  70.084  1.00  0.00    -0.323 OA 
ENDBRANCH   9  10
ENDBRANCH   6   9
ENDBRANCH   4   6
TORSDOF 3
ENDMDL
MODEL      253
REMARK 921   NORMALIZED FREE ENERGY PREDICTED BY IDOCK:   -2.25 KCAL/MOL
REMARK 922        TOTAL FREE ENERGY PREDICTED BY IDOCK:   -3.42 KCAL/MOL
REMARK 923 INTER-LIGAND FREE ENERGY PREDICTED BY IDOCK:   -3.03 KCAL/MOL
REMARK 924 INTRA-LIGAND FREE ENERGY PREDICTED BY IDOCK:   -0.39 KCAL/MOL
REMARK 927      BINDING AFFINITY PREDICTED BY RF-SCORE:    0.00 PKD
ROOT
HETATM    1 NA   UNL     1     -10.978  16.589  67.864  1.00  0.00    -0.285 Na 
HETATM    2 NA   UNL     2     -10.407  13.702  63.703  1.00  0.00    -0.484 Na 
HETATM    3  O   UNL     3     -12.924  14.460  65.980  1.00  0.00    -0.426 OA 
HETATM    4  C   UNL     3     -12.142  13.913  67.045  1.00  0.00    -0.415 C  
HETATM    5  H   UNL     3     -13.816  14.574  66.288  1.00  0.00     0.000 HD 
ENDROOT
BRANCH   4   6
HETATM    6  C   UNL     3     -10.704  13.728  66.549  1.00  0.00    -0.284 C  
HETATM    7  O   UNL     3      -9.949  14.977  66.650  1.00  0.00    -0.243 OA 
HETATM    8  H   UNL     3      -9.057  14.862  66.342  1.00  0.00     0.000 HD 
BRANCH   6   9
HETATM    9  C   UNL     3      -9.970  12.667  67.308  1.00  0.00    -0.212 C  
BRANCH   9  10
HETATM   10  O   UNL     3      -8.695  12.459  66.721  1.00  0.00    -0.200 OA 
HETATM   11  P   UNL     3      -7.957  11.067  67.435  1.00  0.00    -0.128 P  
HETATM   12  O   UNL     3      -7.298   9.821  68.075  1.00  0.00    -0.080 OA 
HETATM   13  O   UNL     3      -8.090  11.855  68.757  1.00  0.00    -0.117 OA 
HETATM   14  O   UNL     3      -9.168  10.313  66.815  1.00  0.00    -0.154 OA 
ENDBRANCH   9  10
ENDBRANCH   6   9
ENDBRANCH   4   6
TORSDOF 3
ENDMDL
MODEL      254
REMARK 921   NORMALIZED FREE ENERGY PREDICTED BY IDOCK:   -2.25 KCAL/MOL
REMARK 922        TOTAL FREE ENERGY PREDICTED BY IDOCK:   -3.41 KCAL/MOL
REMARK 923 INTER-LIGAND FREE ENERGY PREDICTED BY IDOCK:   -3.29 KCAL/MOL
REMARK 924 INTRA-LIGAND FREE ENERGY PREDICTED BY IDOCK:   -0.12 KCAL/MOL
REMARK 927      BINDING AFFINITY PREDICTED BY RF-SCORE:    0.00 PKD
ROOT
HETATM    1 NA   UNL     1      -9.172  12.045  69.150  1.00  0.00    -0.307 Na 
HETATM    2 NA   UNL     2     -10.018  11.888  64.127  1.00  0.00    -0.229 Na 
HETATM    3  O   UNL     3     -10.160   9.700  66.827  1.00  0.00    -0.208 OA 
HETATM    4  C   UNL     3      -8.762   9.885  67.064  1.00  0.00    -0.131 C  
HETATM    5  H   UNL     3     -10.453   8.944  67.322  1.00  0.00     0.000 HD 
ENDROOT
BRANCH   4   6
HETATM    6  C   UNL     3      -8.288  11.103  66.266  1.00  0.00    -0.163 C  
HETATM    7  O   UNL     3      -7.707  10.697  64.986  1.00  0.00    -0.311 OA 
HETATM    8  H   UNL     3      -7.413  11.453  64.490  1.00  0.00     0.000 HD 
BRANCH   6   9
HETATM    9  C   UNL     3      -9.392  12.077  65.998  1.00  0.00    -0.190 C  
BRANCH   9  10
HETATM   10  O   UNL     3     -10.067  12.374  67.210  1.00  0.00    -0.207 OA 
HETATM   11  P   UNL     3     -11.500  13.279  66.859  1.00  0.00    -0.376 P  
HETATM   12  O   UNL     3     -12.781  14.089  66.545  1.00  0.00    -0.310 OA 
HETATM   13  O   UNL     3     -10.525  14.303  66.235  1.00  0.00    -0.281 OA 
HETATM   14  O   UNL     3     -11.925  11.993  66.095  1.00  0.00    -0.581 OA 
ENDBRANCH   9  10
ENDBRANCH   6   9
ENDBRANCH   4   6
TORSDOF 3
ENDMDL
MODEL      255
REMARK 921   NORMALIZED FREE ENERGY PREDICTED BY IDOCK:   -2.25 KCAL/MOL
REMARK 922        TOTAL FREE ENERGY PREDICTED BY IDOCK:   -3.41 KCAL/MOL
REMARK 923 INTER-LIGAND FREE ENERGY PREDICTED BY IDOCK:   -2.60 KCAL/MOL
REMARK 924 INTRA-LIGAND FREE ENERGY PREDICTED BY IDOCK:   -0.81 KCAL/MOL
REMARK 927      BINDING AFFINITY PREDICTED BY RF-SCORE:    0.00 PKD
ROOT
HETATM    1 NA   UNL     1      -7.931   6.934  66.997  1.00  0.00    -0.097 Na 
HETATM    2 NA   UNL     2     -10.087   2.346  67.514  1.00  0.00    -0.384 Na 
HETATM    3  O   UNL     3     -10.460   5.147  65.487  1.00  0.00    -0.440 OA 
HETATM    4  C   UNL     3     -10.772   5.947  66.630  1.00  0.00    -0.252 C  
HETATM    5  H   UNL     3     -10.696   5.632  64.705  1.00  0.00     0.000 HD 
ENDROOT
BRANCH   4   6
HETATM    6  C   UNL     3     -10.392   5.165  67.892  1.00  0.00    -0.085 C  
HETATM    7  O   UNL     3      -9.049   4.598  67.773  1.00  0.00    -0.110 OA 
HETATM    8  H   UNL     3      -8.813   4.113  68.556  1.00  0.00     0.000 HD 
BRANCH   6   9
HETATM    9  C   UNL     3     -10.443   6.011  69.125  1.00  0.00    -0.257 C  
BRANCH   9  10
HETATM   10  O   UNL     3      -9.194   6.658  69.309  1.00  0.00    -0.140 OA 
HETATM   11  P   UNL     3      -9.436   8.129  70.188  1.00  0.00    -0.167 P  
HETATM   12  O   UNL     3      -9.653   9.444  70.975  1.00  0.00    -0.268 OA 
HETATM   13  O   UNL     3     -10.350   8.516  69.004  1.00  0.00    -0.212 OA 
HETATM   14  O   UNL     3      -9.927   7.178  71.316  1.00  0.00    -0.189 OA 
ENDBRANCH   9  10
ENDBRANCH   6   9
ENDBRANCH   4   6
TORSDOF 3
ENDMDL
MODEL      256
REMARK 921   NORMALIZED FREE ENERGY PREDICTED BY IDOCK:   -2.25 KCAL/MOL
REMARK 922        TOTAL FREE ENERGY PREDICTED BY IDOCK:   -3.41 KCAL/MOL
REMARK 923 INTER-LIGAND FREE ENERGY PREDICTED BY IDOCK:   -2.33 KCAL/MOL
REMARK 924 INTRA-LIGAND FREE ENERGY PREDICTED BY IDOCK:   -1.08 KCAL/MOL
REMARK 927      BINDING AFFINITY PREDICTED BY RF-SCORE:    0.00 PKD
ROOT
HETATM    1 NA   UNL     1      -8.125   7.674  65.431  1.00  0.00    -0.083 Na 
HETATM    2 NA   UNL     2      -8.681   9.964  69.949  1.00  0.00    -0.122 Na 
HETATM    3  O   UNL     3     -10.088   7.284  68.236  1.00  0.00    -0.159 OA 
HETATM    4  C   UNL     3     -10.534   8.165  67.202  1.00  0.00    -0.326 C  
HETATM    5  H   UNL     3     -10.531   6.450  68.135  1.00  0.00     0.000 HD 
ENDROOT
BRANCH   4   6
HETATM    6  C   UNL     3      -9.821   9.511  67.365  1.00  0.00    -0.170 C  
HETATM    7  O   UNL     3      -8.388   9.321  67.590  1.00  0.00    -0.115 OA 
HETATM    8  H   UNL     3      -7.945  10.155  67.691  1.00  0.00     0.000 HD 
BRANCH   6   9
HETATM    9  C   UNL     3     -10.000  10.400  66.174  1.00  0.00    -0.231 C  
BRANCH   9  10
HETATM   10  O   UNL     3     -10.028   9.614  64.994  1.00  0.00    -0.224 OA 
HETATM   11  P   UNL     3      -9.162  10.434  63.740  1.00  0.00    -0.307 P  
HETATM   12  O   UNL     3      -8.387  11.168  62.619  1.00  0.00    -0.163 OA 
HETATM   13  O   UNL     3     -10.202  11.556  63.957  1.00  0.00    -0.283 OA 
HETATM   14  O   UNL     3      -7.946  10.258  64.694  1.00  0.00    -0.148 OA 
ENDBRANCH   9  10
ENDBRANCH   6   9
ENDBRANCH   4   6
TORSDOF 3
ENDMDL
MODEL      257
REMARK 921   NORMALIZED FREE ENERGY PREDICTED BY IDOCK:   -2.23 KCAL/MOL
REMARK 922        TOTAL FREE ENERGY PREDICTED BY IDOCK:   -3.39 KCAL/MOL
REMARK 923 INTER-LIGAND FREE ENERGY PREDICTED BY IDOCK:   -2.74 KCAL/MOL
REMARK 924 INTRA-LIGAND FREE ENERGY PREDICTED BY IDOCK:   -0.65 KCAL/MOL
REMARK 927      BINDING AFFINITY PREDICTED BY RF-SCORE:    0.00 PKD
ROOT
HETATM    1 NA   UNL     1      -6.523  13.230  69.301  1.00  0.00    -0.075 Na 
HETATM    2 NA   UNL     2      -9.948   9.994  67.359  1.00  0.00    -0.156 Na 
HETATM    3  O   UNL     3      -6.979  11.502  66.355  1.00  0.00    -0.332 OA 
HETATM    4  C   UNL     3      -7.576  12.794  66.493  1.00  0.00     0.786 C  
HETATM    5  H   UNL     3      -6.169  11.593  65.867  1.00  0.00     0.000 HD 
ENDROOT
BRANCH   4   6
HETATM    6  C   UNL     3      -8.882  12.648  67.280  1.00  0.00    -0.196 C  
HETATM    7  O   UNL     3      -8.812  13.367  68.551  1.00  0.00    -0.285 OA 
HETATM    8  H   UNL     3      -9.622  13.277  69.040  1.00  0.00     0.000 HD 
BRANCH   6   9
HETATM    9  C   UNL     3     -10.068  13.149  66.516  1.00  0.00    -0.280 C  
BRANCH   9  10
HETATM   10  O   UNL     3     -10.817  12.048  66.026  1.00  0.00    -0.268 OA 
HETATM   11  P   UNL     3     -11.695  12.536  64.617  1.00  0.00    -0.396 P  
HETATM   12  O   UNL     3     -12.480  12.974  63.357  1.00  0.00    -0.710 OA 
HETATM   13  O   UNL     3     -12.350  13.569  65.562  1.00  0.00    -0.423 OA 
HETATM   14  O   UNL     3     -10.279  12.768  64.018  1.00  0.00    -0.403 OA 
ENDBRANCH   9  10
ENDBRANCH   6   9
ENDBRANCH   4   6
TORSDOF 3
ENDMDL
MODEL      258
REMARK 921   NORMALIZED FREE ENERGY PREDICTED BY IDOCK:   -2.23 KCAL/MOL
REMARK 922        TOTAL FREE ENERGY PREDICTED BY IDOCK:   -3.39 KCAL/MOL
REMARK 923 INTER-LIGAND FREE ENERGY PREDICTED BY IDOCK:   -3.08 KCAL/MOL
REMARK 924 INTRA-LIGAND FREE ENERGY PREDICTED BY IDOCK:   -0.31 KCAL/MOL
REMARK 927      BINDING AFFINITY PREDICTED BY RF-SCORE:    0.00 PKD
ROOT
HETATM    1 NA   UNL     1     -12.364   4.698  73.018  1.00  0.00    -0.264 Na 
HETATM    2 NA   UNL     2      -9.513   8.356  70.907  1.00  0.00    -0.140 Na 
HETATM    3  O   UNL     3     -12.497   8.123  72.677  1.00  0.00    -0.577 OA 
HETATM    4  C   UNL     3     -13.059   7.308  71.645  1.00  0.00    -0.369 C  
HETATM    5  H   UNL     3     -13.199   8.419  73.245  1.00  0.00     0.000 HD 
ENDROOT
BRANCH   4   6
HETATM    6  C   UNL     3     -11.928   6.832  70.728  1.00  0.00    -0.378 C  
HETATM    7  O   UNL     3     -11.535   7.884  69.791  1.00  0.00    -0.454 OA 
HETATM    8  H   UNL     3     -10.833   7.589  69.222  1.00  0.00     0.000 HD 
BRANCH   6   9
HETATM    9  C   UNL     3     -10.715   6.402  71.493  1.00  0.00    -0.238 C  
BRANCH   9  10
HETATM   10  O   UNL     3      -9.803   5.761  70.615  1.00  0.00    -0.175 OA 
HETATM   11  P   UNL     3      -8.811   4.669  71.519  1.00  0.00    -0.129 P  
HETATM   12  O   UNL     3      -7.923   3.693  72.329  1.00  0.00    -0.066 OA 
HETATM   13  O   UNL     3      -8.387   5.933  72.302  1.00  0.00    -0.117 OA 
HETATM   14  O   UNL     3     -10.157   3.948  71.810  1.00  0.00    -0.178 OA 
ENDBRANCH   9  10
ENDBRANCH   6   9
ENDBRANCH   4   6
TORSDOF 3
ENDMDL
MODEL      259
REMARK 921   NORMALIZED FREE ENERGY PREDICTED BY IDOCK:   -2.22 KCAL/MOL
REMARK 922        TOTAL FREE ENERGY PREDICTED BY IDOCK:   -3.38 KCAL/MOL
REMARK 923 INTER-LIGAND FREE ENERGY PREDICTED BY IDOCK:   -3.02 KCAL/MOL
REMARK 924 INTRA-LIGAND FREE ENERGY PREDICTED BY IDOCK:   -0.36 KCAL/MOL
REMARK 927      BINDING AFFINITY PREDICTED BY RF-SCORE:    0.00 PKD
ROOT
HETATM    1 NA   UNL     1      -7.048   5.645  66.921  1.00  0.00    -0.056 Na 
HETATM    2 NA   UNL     2     -12.056   6.565  66.713  1.00  0.00    -0.633 Na 
HETATM    3  O   UNL     3      -9.928   4.245  68.192  1.00  0.00    -0.085 OA 
HETATM    4  C   UNL     3      -9.471   3.826  66.904  1.00  0.00    -0.199 C  
HETATM    5  H   UNL     3      -9.649   3.604  68.835  1.00  0.00     0.000 HD 
ENDROOT
BRANCH   4   6
HETATM    6  C   UNL     3      -9.921   4.859  65.866  1.00  0.00    -0.203 C  
HETATM    7  O   UNL     3     -11.373   4.828  65.690  1.00  0.00    -0.900 OA 
HETATM    8  H   UNL     3     -11.653   5.468  65.046  1.00  0.00     0.000 HD 
BRANCH   6   9
HETATM    9  C   UNL     3      -9.518   6.252  66.234  1.00  0.00    -0.100 C  
BRANCH   9  10
HETATM   10  O   UNL     3      -9.949   6.538  67.555  1.00  0.00    -0.124 OA 
HETATM   11  P   UNL     3      -9.545   8.174  67.946  1.00  0.00    -0.166 P  
HETATM   12  O   UNL     3      -9.182   9.639  68.296  1.00  0.00    -0.129 OA 
HETATM   13  O   UNL     3      -8.090   7.725  67.679  1.00  0.00    -0.121 OA 
HETATM   14  O   UNL     3     -10.515   8.518  66.781  1.00  0.00    -0.303 OA 
ENDBRANCH   9  10
ENDBRANCH   6   9
ENDBRANCH   4   6
TORSDOF 3
ENDMDL
MODEL      260
REMARK 921   NORMALIZED FREE ENERGY PREDICTED BY IDOCK:   -2.22 KCAL/MOL
REMARK 922        TOTAL FREE ENERGY PREDICTED BY IDOCK:   -3.38 KCAL/MOL
REMARK 923 INTER-LIGAND FREE ENERGY PREDICTED BY IDOCK:   -2.56 KCAL/MOL
REMARK 924 INTRA-LIGAND FREE ENERGY PREDICTED BY IDOCK:   -0.82 KCAL/MOL
REMARK 927      BINDING AFFINITY PREDICTED BY RF-SCORE:    0.00 PKD
ROOT
HETATM    1 NA   UNL     1      -7.942   5.980  69.379  1.00  0.00    -0.086 Na 
HETATM    2 NA   UNL     2     -12.672   6.631  71.161  1.00  0.00    -0.318 Na 
HETATM    3  O   UNL     3     -11.144   5.972  68.107  1.00  0.00    -0.306 OA 
HETATM    4  C   UNL     3     -10.437   7.212  68.180  1.00  0.00    -0.200 C  
HETATM    5  H   UNL     3     -11.076   5.636  67.220  1.00  0.00     0.000 HD 
ENDROOT
BRANCH   4   6
HETATM    6  C   UNL     3     -10.548   7.754  69.608  1.00  0.00    -0.242 C  
HETATM    7  O   UNL     3     -10.339   6.690  70.590  1.00  0.00    -0.198 OA 
HETATM    8  H   UNL     3     -10.407   7.026  71.477  1.00  0.00     0.000 HD 
BRANCH   6   9
HETATM    9  C   UNL     3      -9.567   8.851  69.881  1.00  0.00    -0.177 C  
BRANCH   9  10
HETATM   10  O   UNL     3      -8.246   8.360  69.710  1.00  0.00    -0.114 OA 
HETATM   11  P   UNL     3      -7.136   9.414  70.518  1.00  0.00    -0.114 P  
HETATM   12  O   UNL     3      -6.144  10.357  71.241  1.00  0.00    -0.322 OA 
HETATM   13  O   UNL     3      -7.697  10.495  69.567  1.00  0.00    -0.146 OA 
HETATM   14  O   UNL     3      -7.908   8.976  71.795  1.00  0.00    -0.333 OA 
ENDBRANCH   9  10
ENDBRANCH   6   9
ENDBRANCH   4   6
TORSDOF 3
ENDMDL
MODEL      261
REMARK 921   NORMALIZED FREE ENERGY PREDICTED BY IDOCK:   -2.21 KCAL/MOL
REMARK 922        TOTAL FREE ENERGY PREDICTED BY IDOCK:   -3.36 KCAL/MOL
REMARK 923 INTER-LIGAND FREE ENERGY PREDICTED BY IDOCK:   -2.56 KCAL/MOL
REMARK 924 INTRA-LIGAND FREE ENERGY PREDICTED BY IDOCK:   -0.80 KCAL/MOL
REMARK 927      BINDING AFFINITY PREDICTED BY RF-SCORE:    0.00 PKD
ROOT
HETATM    1 NA   UNL     1      -6.114   7.108  68.881  1.00  0.00    -0.020 Na 
HETATM    2 NA   UNL     2     -10.262   6.871  71.832  1.00  0.00    -0.183 Na 
HETATM    3  O   UNL     3      -9.339   5.927  68.614  1.00  0.00    -0.117 OA 
HETATM    4  C   UNL     3      -9.078   7.292  68.276  1.00  0.00    -0.134 C  
HETATM    5  H   UNL     3      -9.369   5.417  67.813  1.00  0.00     0.000 HD 
ENDROOT
BRANCH   4   6
HETATM    6  C   UNL     3      -9.030   8.114  69.568  1.00  0.00    -0.151 C  
HETATM    7  O   UNL     3      -7.837   8.959  69.608  1.00  0.00    -0.084 OA 
HETATM    8  H   UNL     3      -7.807   9.470  70.409  1.00  0.00     0.000 HD 
BRANCH   6   9
HETATM    9  C   UNL     3     -10.235   8.986  69.735  1.00  0.00    -0.205 C  
BRANCH   9  10
HETATM   10  O   UNL     3     -10.375   9.347  71.100  1.00  0.00    -0.301 OA 
HETATM   11  P   UNL     3     -12.050   9.582  71.461  1.00  0.00    -0.411 P  
HETATM   12  O   UNL     3     -13.550   9.792  71.783  1.00  0.00    -0.366 OA 
HETATM   13  O   UNL     3     -11.983  10.671  70.367  1.00  0.00    -0.286 OA 
HETATM   14  O   UNL     3     -12.169   8.074  71.099  1.00  0.00    -0.302 OA 
ENDBRANCH   9  10
ENDBRANCH   6   9
ENDBRANCH   4   6
TORSDOF 3
ENDMDL
MODEL      262
REMARK 921   NORMALIZED FREE ENERGY PREDICTED BY IDOCK:   -2.20 KCAL/MOL
REMARK 922        TOTAL FREE ENERGY PREDICTED BY IDOCK:   -3.35 KCAL/MOL
REMARK 923 INTER-LIGAND FREE ENERGY PREDICTED BY IDOCK:   -2.24 KCAL/MOL
REMARK 924 INTRA-LIGAND FREE ENERGY PREDICTED BY IDOCK:   -1.11 KCAL/MOL
REMARK 927      BINDING AFFINITY PREDICTED BY RF-SCORE:    0.00 PKD
ROOT
HETATM    1 NA   UNL     1      -9.601   7.378  68.716  1.00  0.00    -0.143 Na 
HETATM    2 NA   UNL     2      -6.313   3.750  70.127  1.00  0.00    -0.021 Na 
HETATM    3  O   UNL     3      -8.601   4.289  67.564  1.00  0.00    -0.102 OA 
HETATM    4  C   UNL     3      -9.667   4.355  68.514  1.00  0.00    -0.113 C  
HETATM    5  H   UNL     3      -8.975   4.197  66.695  1.00  0.00     0.000 HD 
ENDROOT
BRANCH   4   6
HETATM    6  C   UNL     3      -9.065   4.504  69.914  1.00  0.00    -0.107 C  
HETATM    7  O   UNL     3      -7.966   5.469  69.913  1.00  0.00    -0.080 OA 
HETATM    8  H   UNL     3      -7.592   5.561  70.782  1.00  0.00     0.000 HD 
BRANCH   6   9
HETATM    9  C   UNL     3     -10.076   4.938  70.928  1.00  0.00    -0.222 C  
BRANCH   9  10
HETATM   10  O   UNL     3     -11.047   5.765  70.307  1.00  0.00    -0.311 OA 
HETATM   11  P   UNL     3     -11.502   7.030  71.396  1.00  0.00    -0.313 P  
HETATM   12  O   UNL     3     -11.908   8.162  72.371  1.00  0.00    -0.352 OA 
HETATM   13  O   UNL     3     -11.938   5.875  72.325  1.00  0.00    -0.295 OA 
HETATM   14  O   UNL     3     -10.010   7.450  71.269  1.00  0.00    -0.187 OA 
ENDBRANCH   9  10
ENDBRANCH   6   9
ENDBRANCH   4   6
TORSDOF 3
ENDMDL
MODEL      263
REMARK 921   NORMALIZED FREE ENERGY PREDICTED BY IDOCK:   -2.20 KCAL/MOL
REMARK 922        TOTAL FREE ENERGY PREDICTED BY IDOCK:   -3.35 KCAL/MOL
REMARK 923 INTER-LIGAND FREE ENERGY PREDICTED BY IDOCK:   -2.44 KCAL/MOL
REMARK 924 INTRA-LIGAND FREE ENERGY PREDICTED BY IDOCK:   -0.91 KCAL/MOL
REMARK 927      BINDING AFFINITY PREDICTED BY RF-SCORE:    0.00 PKD
ROOT
HETATM    1 NA   UNL     1      -7.397   6.945  70.983  1.00  0.00    -0.065 Na 
HETATM    2 NA   UNL     2      -9.300   9.313  66.892  1.00  0.00    -0.128 Na 
HETATM    3  O   UNL     3      -6.706   9.785  69.159  1.00  0.00    -0.051 OA 
HETATM    4  C   UNL     3      -7.645   9.870  70.234  1.00  0.00    -0.158 C  
HETATM    5  H   UNL     3      -5.864  10.099  69.468  1.00  0.00     0.000 HD 
ENDROOT
BRANCH   4   6
HETATM    6  C   UNL     3      -9.003   9.365  69.737  1.00  0.00    -0.188 C  
HETATM    7  O   UNL     3      -8.855   8.120  68.983  1.00  0.00    -0.143 OA 
HETATM    8  H   UNL     3      -9.697   7.806  68.674  1.00  0.00     0.000 HD 
BRANCH   6   9
HETATM    9  C   UNL     3      -9.969   9.129  70.855  1.00  0.00    -0.288 C  
BRANCH   9  10
HETATM   10  O   UNL     3      -9.704   7.871  71.455  1.00  0.00    -0.157 OA 
HETATM   11  P   UNL     3     -11.198   7.041  71.726  1.00  0.00    -0.269 P  
HETATM   12  O   UNL     3     -12.536   6.299  71.967  1.00  0.00    -0.306 OA 
HETATM   13  O   UNL     3     -11.552   8.265  72.600  1.00  0.00    -0.399 OA 
HETATM   14  O   UNL     3     -11.315   7.090  70.176  1.00  0.00    -0.287 OA 
ENDBRANCH   9  10
ENDBRANCH   6   9
ENDBRANCH   4   6
TORSDOF 3
ENDMDL
MODEL      264
REMARK 921   NORMALIZED FREE ENERGY PREDICTED BY IDOCK:   -2.16 KCAL/MOL
REMARK 922        TOTAL FREE ENERGY PREDICTED BY IDOCK:   -3.30 KCAL/MOL
REMARK 923 INTER-LIGAND FREE ENERGY PREDICTED BY IDOCK:   -3.10 KCAL/MOL
REMARK 924 INTRA-LIGAND FREE ENERGY PREDICTED BY IDOCK:   -0.21 KCAL/MOL
REMARK 927      BINDING AFFINITY PREDICTED BY RF-SCORE:    0.00 PKD
ROOT
HETATM    1 NA   UNL     1      -6.961   8.170  67.275  1.00  0.00    -0.060 Na 
HETATM    2 NA   UNL     2     -11.670   7.987  69.214  1.00  0.00    -0.442 Na 
HETATM    3  O   UNL     3     -10.159   7.664  66.098  1.00  0.00    -0.456 OA 
HETATM    4  C   UNL     3      -9.664   9.002  66.187  1.00  0.00    -0.283 C  
HETATM    5  H   UNL     3     -10.067   7.366  65.200  1.00  0.00     0.000 HD 
ENDROOT
BRANCH   4   6
HETATM    6  C   UNL     3      -9.813   9.483  67.634  1.00  0.00    -0.165 C  
HETATM    7  O   UNL     3     -11.219   9.709  67.969  1.00  0.00    -0.513 OA 
HETATM    8  H   UNL     3     -11.312  10.007  68.866  1.00  0.00     0.000 HD 
BRANCH   6   9
HETATM    9  C   UNL     3      -9.239   8.515  68.620  1.00  0.00    -0.142 C  
BRANCH   9  10
HETATM   10  O   UNL     3      -8.298   9.180  69.447  1.00  0.00    -0.115 OA 
HETATM   11  P   UNL     3      -8.736   8.955  71.106  1.00  0.00    -0.162 P  
HETATM   12  O   UNL     3      -9.128   8.753  72.590  1.00  0.00    -0.354 OA 
HETATM   13  O   UNL     3     -10.054   9.654  70.702  1.00  0.00    -0.275 OA 
HETATM   14  O   UNL     3      -8.486   7.452  70.795  1.00  0.00    -0.128 OA 
ENDBRANCH   9  10
ENDBRANCH   6   9
ENDBRANCH   4   6
TORSDOF 3
ENDMDL
MODEL      265
REMARK 921   NORMALIZED FREE ENERGY PREDICTED BY IDOCK:   -2.13 KCAL/MOL
REMARK 922        TOTAL FREE ENERGY PREDICTED BY IDOCK:   -3.27 KCAL/MOL
REMARK 923 INTER-LIGAND FREE ENERGY PREDICTED BY IDOCK:   -2.60 KCAL/MOL
REMARK 924 INTRA-LIGAND FREE ENERGY PREDICTED BY IDOCK:   -0.67 KCAL/MOL
REMARK 927      BINDING AFFINITY PREDICTED BY RF-SCORE:    0.00 PKD
ROOT
HETATM    1 NA   UNL     1      -9.042  15.208  68.393  1.00  0.00    -0.157 Na 
HETATM    2 NA   UNL     2      -6.903  10.810  69.824  1.00  0.00    -0.060 Na 
HETATM    3  O   UNL     3      -7.253  12.668  66.905  1.00  0.00    -0.373 OA 
HETATM    4  C   UNL     3      -8.675  12.549  66.986  1.00  0.00    -0.205 C  
HETATM    5  H   UNL     3      -7.024  12.979  66.036  1.00  0.00     0.000 HD 
ENDROOT
BRANCH   4   6
HETATM    6  C   UNL     3      -9.044  12.048  68.386  1.00  0.00    -0.158 C  
HETATM    7  O   UNL     3     -10.161  12.812  68.940  1.00  0.00    -0.409 OA 
HETATM    8  H   UNL     3     -10.391  12.501  69.808  1.00  0.00     0.000 HD 
BRANCH   6   9
HETATM    9  C   UNL     3      -9.412  10.597  68.394  1.00  0.00    -0.165 C  
BRANCH   9  10
HETATM   10  O   UNL     3      -9.173  10.054  69.683  1.00  0.00    -0.210 OA 
HETATM   11  P   UNL     3     -10.338   8.817  70.007  1.00  0.00    -0.216 P  
HETATM   12  O   UNL     3     -11.382   7.710  70.297  1.00  0.00    -0.262 OA 
HETATM   13  O   UNL     3     -11.375   9.947  69.816  1.00  0.00    -0.239 OA 
HETATM   14  O   UNL     3      -9.678   8.107  68.792  1.00  0.00    -0.149 OA 
ENDBRANCH   9  10
ENDBRANCH   6   9
ENDBRANCH   4   6
TORSDOF 3
ENDMDL
MODEL      266
REMARK 921   NORMALIZED FREE ENERGY PREDICTED BY IDOCK:   -2.13 KCAL/MOL
REMARK 922        TOTAL FREE ENERGY PREDICTED BY IDOCK:   -3.27 KCAL/MOL
REMARK 923 INTER-LIGAND FREE ENERGY PREDICTED BY IDOCK:   -2.47 KCAL/MOL
REMARK 924 INTRA-LIGAND FREE ENERGY PREDICTED BY IDOCK:   -0.80 KCAL/MOL
REMARK 927      BINDING AFFINITY PREDICTED BY RF-SCORE:    0.00 PKD
ROOT
HETATM    1 NA   UNL     1      -8.273   5.334  67.267  1.00  0.00    -0.098 Na 
HETATM    2 NA   UNL     2      -7.915  10.404  66.898  1.00  0.00    -0.103 Na 
HETATM    3  O   UNL     3      -7.690   7.986  69.388  1.00  0.00    -0.099 OA 
HETATM    4  C   UNL     3      -9.041   7.589  69.140  1.00  0.00    -0.138 C  
HETATM    5  H   UNL     3      -7.410   7.608  70.213  1.00  0.00     0.000 HD 
ENDROOT
BRANCH   4   6
HETATM    6  C   UNL     3      -9.493   8.199  67.810  1.00  0.00    -0.142 C  
HETATM    7  O   UNL     3      -9.989   7.165  66.901  1.00  0.00    -0.194 OA 
HETATM    8  H   UNL     3     -10.269   7.543  66.075  1.00  0.00     0.000 HD 
BRANCH   6   9
HETATM    9  C   UNL     3     -10.566   9.227  67.987  1.00  0.00    -0.208 C  
BRANCH   9  10
HETATM   10  O   UNL     3     -10.017  10.386  68.593  1.00  0.00    -0.163 OA 
HETATM   11  P   UNL     3     -10.769  11.793  67.923  1.00  0.00    -0.231 P  
HETATM   12  O   UNL     3     -11.443  13.051  67.323  1.00  0.00    -0.295 OA 
HETATM   13  O   UNL     3     -10.210  11.273  66.580  1.00  0.00    -0.214 OA 
HETATM   14  O   UNL     3     -12.061  11.196  68.550  1.00  0.00    -0.586 OA 
ENDBRANCH   9  10
ENDBRANCH   6   9
ENDBRANCH   4   6
TORSDOF 3
ENDMDL
MODEL      267
REMARK 921   NORMALIZED FREE ENERGY PREDICTED BY IDOCK:   -2.13 KCAL/MOL
REMARK 922        TOTAL FREE ENERGY PREDICTED BY IDOCK:   -3.27 KCAL/MOL
REMARK 923 INTER-LIGAND FREE ENERGY PREDICTED BY IDOCK:   -2.15 KCAL/MOL
REMARK 924 INTRA-LIGAND FREE ENERGY PREDICTED BY IDOCK:   -1.12 KCAL/MOL
REMARK 927      BINDING AFFINITY PREDICTED BY RF-SCORE:    0.00 PKD
ROOT
HETATM    1 NA   UNL     1      -7.375   5.449  67.182  1.00  0.00    -0.068 Na 
HETATM    2 NA   UNL     2     -11.304   8.370  68.597  1.00  0.00    -0.415 Na 
HETATM    3  O   UNL     3      -9.430   5.761  69.930  1.00  0.00    -0.144 OA 
HETATM    4  C   UNL     3      -9.839   4.905  68.860  1.00  0.00    -0.170 C  
HETATM    5  H   UNL     3      -9.041   5.227  70.613  1.00  0.00     0.000 HD 
ENDROOT
BRANCH   4   6
HETATM    6  C   UNL     3     -10.466   5.766  67.759  1.00  0.00    -0.226 C  
HETATM    7  O   UNL     3      -9.652   6.951  67.492  1.00  0.00    -0.126 OA 
HETATM    8  H   UNL     3     -10.041   7.485  66.809  1.00  0.00     0.000 HD 
BRANCH   6   9
HETATM    9  C   UNL     3     -10.644   5.013  66.478  1.00  0.00    -0.231 C  
BRANCH   9  10
HETATM   10  O   UNL     3      -9.523   4.170  66.263  1.00  0.00    -0.159 OA 
HETATM   11  P   UNL     3      -8.998   4.324  64.621  1.00  0.00    -0.154 P  
HETATM   12  O   UNL     3      -8.529   4.463  63.152  1.00  0.00    -0.092 OA 
HETATM   13  O   UNL     3     -10.423   3.836  64.273  1.00  0.00    -0.242 OA 
HETATM   14  O   UNL     3      -8.722   5.801  65.023  1.00  0.00    -0.127 OA 
ENDBRANCH   9  10
ENDBRANCH   6   9
ENDBRANCH   4   6
TORSDOF 3
ENDMDL
MODEL      268
REMARK 921   NORMALIZED FREE ENERGY PREDICTED BY IDOCK:   -2.12 KCAL/MOL
REMARK 922        TOTAL FREE ENERGY PREDICTED BY IDOCK:   -3.27 KCAL/MOL
REMARK 923 INTER-LIGAND FREE ENERGY PREDICTED BY IDOCK:   -2.68 KCAL/MOL
REMARK 924 INTRA-LIGAND FREE ENERGY PREDICTED BY IDOCK:   -0.59 KCAL/MOL
REMARK 927      BINDING AFFINITY PREDICTED BY RF-SCORE:    0.00 PKD
ROOT
HETATM    1 NA   UNL     1      -5.544   8.251  71.382  1.00  0.00    -0.032 Na 
HETATM    2 NA   UNL     2      -9.560   8.683  74.489  1.00  0.00    -0.014 Na 
HETATM    3  O   UNL     3      -8.125   6.244  72.468  1.00  0.00    -0.103 OA 
HETATM    4  C   UNL     3      -8.330   7.063  71.314  1.00  0.00    -0.114 C  
HETATM    5  H   UNL     3      -7.914   5.363  72.180  1.00  0.00     0.000 HD 
ENDROOT
BRANCH   4   6
HETATM    6  C   UNL     3      -8.671   8.483  71.777  1.00  0.00    -0.201 C  
HETATM    7  O   UNL     3      -8.055   9.481  70.903  1.00  0.00    -0.297 OA 
HETATM    8  H   UNL     3      -8.266  10.362  71.190  1.00  0.00     0.000 HD 
BRANCH   6   9
HETATM    9  C   UNL     3     -10.146   8.733  71.817  1.00  0.00    -0.333 C  
BRANCH   9  10
HETATM   10  O   UNL     3     -10.785   7.689  72.535  1.00  0.00    -0.245 OA 
HETATM   11  P   UNL     3     -12.383   7.462  71.911  1.00  0.00    -0.262 P  
HETATM   12  O   UNL     3     -13.813   7.259  71.352  1.00  0.00    -0.394 OA 
HETATM   13  O   UNL     3     -12.596   8.937  72.320  1.00  0.00    -0.377 OA 
HETATM   14  O   UNL     3     -11.638   7.082  70.600  1.00  0.00    -0.307 OA 
ENDBRANCH   9  10
ENDBRANCH   6   9
ENDBRANCH   4   6
TORSDOF 3
ENDMDL
MODEL      269
REMARK 921   NORMALIZED FREE ENERGY PREDICTED BY IDOCK:   -2.11 KCAL/MOL
REMARK 922        TOTAL FREE ENERGY PREDICTED BY IDOCK:   -3.25 KCAL/MOL
REMARK 923 INTER-LIGAND FREE ENERGY PREDICTED BY IDOCK:   -2.33 KCAL/MOL
REMARK 924 INTRA-LIGAND FREE ENERGY PREDICTED BY IDOCK:   -0.93 KCAL/MOL
REMARK 927      BINDING AFFINITY PREDICTED BY RF-SCORE:    0.00 PKD
ROOT
HETATM    1 NA   UNL     1      -8.372   7.881  68.377  1.00  0.00    -0.110 Na 
HETATM    2 NA   UNL     2     -13.160   6.918  69.833  1.00  0.00    -0.637 Na 
HETATM    3  O   UNL     3     -10.152   7.822  71.326  1.00  0.00    -0.179 OA 
HETATM    4  C   UNL     3      -9.546   6.612  70.865  1.00  0.00    -0.175 C  
HETATM    5  H   UNL     3      -9.587   8.212  71.984  1.00  0.00     0.000 HD 
ENDROOT
BRANCH   4   6
HETATM    6  C   UNL     3     -10.456   5.983  69.806  1.00  0.00    -0.255 C  
HETATM    7  O   UNL     3     -10.788   6.949  68.759  1.00  0.00    -0.287 OA 
HETATM    8  H   UNL     3     -11.353   6.559  68.101  1.00  0.00     0.000 HD 
BRANCH   6   9
HETATM    9  C   UNL     3      -9.838   4.781  69.163  1.00  0.00    -0.184 C  
BRANCH   9  10
HETATM   10  O   UNL     3     -10.237   4.712  67.803  1.00  0.00    -0.078 OA 
HETATM   11  P   UNL     3      -8.867   4.314  66.825  1.00  0.00    -0.129 P  
HETATM   12  O   UNL     3      -7.640   3.958  65.950  1.00  0.00    -0.086 OA 
HETATM   13  O   UNL     3      -8.263   5.616  67.397  1.00  0.00    -0.102 OA 
HETATM   14  O   UNL     3      -8.874   2.993  67.645  1.00  0.00    -0.107 OA 
ENDBRANCH   9  10
ENDBRANCH   6   9
ENDBRANCH   4   6
TORSDOF 3
ENDMDL
MODEL      270
REMARK 921   NORMALIZED FREE ENERGY PREDICTED BY IDOCK:   -2.10 KCAL/MOL
REMARK 922        TOTAL FREE ENERGY PREDICTED BY IDOCK:   -3.24 KCAL/MOL
REMARK 923 INTER-LIGAND FREE ENERGY PREDICTED BY IDOCK:   -2.78 KCAL/MOL
REMARK 924 INTRA-LIGAND FREE ENERGY PREDICTED BY IDOCK:   -0.46 KCAL/MOL
REMARK 927      BINDING AFFINITY PREDICTED BY RF-SCORE:    0.00 PKD
ROOT
HETATM    1 NA   UNL     1      -9.815   9.766  64.875  1.00  0.00    -0.226 Na 
HETATM    2 NA   UNL     2      -7.342   6.862  68.255  1.00  0.00    -0.073 Na 
HETATM    3  O   UNL     3     -10.312   6.741  66.449  1.00  0.00    -0.452 OA 
HETATM    4  C   UNL     3     -10.766   7.933  67.094  1.00  0.00    -0.236 C  
HETATM    5  H   UNL     3     -11.050   6.333  66.011  1.00  0.00     0.000 HD 
ENDROOT
BRANCH   4   6
HETATM    6  C   UNL     3      -9.576   8.591  67.800  1.00  0.00    -0.156 C  
HETATM    7  O   UNL     3      -9.232   9.866  67.170  1.00  0.00    -0.137 OA 
HETATM    8  H   UNL     3      -8.494  10.274  67.608  1.00  0.00     0.000 HD 
BRANCH   6   9
HETATM    9  C   UNL     3      -9.837   8.834  69.253  1.00  0.00    -0.180 C  
BRANCH   9  10
HETATM   10  O   UNL     3     -10.936   8.044  69.677  1.00  0.00    -0.210 OA 
HETATM   11  P   UNL     3     -10.923   7.927  71.404  1.00  0.00    -0.244 P  
HETATM   12  O   UNL     3     -10.911   7.824  72.948  1.00  0.00    -0.361 OA 
HETATM   13  O   UNL     3      -9.530   7.288  71.205  1.00  0.00    -0.157 OA 
HETATM   14  O   UNL     3     -11.125   9.468  71.343  1.00  0.00    -0.351 OA 
ENDBRANCH   9  10
ENDBRANCH   6   9
ENDBRANCH   4   6
TORSDOF 3
ENDMDL
MODEL      271
REMARK 921   NORMALIZED FREE ENERGY PREDICTED BY IDOCK:   -2.10 KCAL/MOL
REMARK 922        TOTAL FREE ENERGY PREDICTED BY IDOCK:   -3.24 KCAL/MOL
REMARK 923 INTER-LIGAND FREE ENERGY PREDICTED BY IDOCK:   -2.74 KCAL/MOL
REMARK 924 INTRA-LIGAND FREE ENERGY PREDICTED BY IDOCK:   -0.50 KCAL/MOL
REMARK 927      BINDING AFFINITY PREDICTED BY RF-SCORE:    0.00 PKD
ROOT
HETATM    1 NA   UNL     1      -9.815   9.766  64.875  1.00  0.00    -0.226 Na 
HETATM    2 NA   UNL     2      -7.342   6.862  68.255  1.00  0.00    -0.073 Na 
HETATM    3  O   UNL     3     -10.312   6.741  66.449  1.00  0.00    -0.452 OA 
HETATM    4  C   UNL     3     -10.766   7.933  67.094  1.00  0.00    -0.236 C  
HETATM    5  H   UNL     3     -11.050   6.333  66.011  1.00  0.00     0.000 HD 
ENDROOT
BRANCH   4   6
HETATM    6  C   UNL     3      -9.576   8.591  67.800  1.00  0.00    -0.156 C  
HETATM    7  O   UNL     3      -8.364   8.491  66.987  1.00  0.00    -0.109 OA 
HETATM    8  H   UNL     3      -7.625   8.899  67.424  1.00  0.00     0.000 HD 
BRANCH   6   9
HETATM    9  C   UNL     3      -9.822  10.034  68.109  1.00  0.00    -0.142 C  
BRANCH   9  10
HETATM   10  O   UNL     3     -11.212  10.306  68.036  1.00  0.00    -0.293 OA 
HETATM   11  P   UNL     3     -11.550  11.787  68.864  1.00  0.00    -0.348 P  
HETATM   12  O   UNL     3     -11.851  13.113  69.605  1.00  0.00    -0.304 OA 
HETATM   13  O   UNL     3     -10.958  11.064  70.095  1.00  0.00    -0.190 OA 
HETATM   14  O   UNL     3     -10.635  12.412  67.773  1.00  0.00    -0.210 OA 
ENDBRANCH   9  10
ENDBRANCH   6   9
ENDBRANCH   4   6
TORSDOF 3
ENDMDL
MODEL      272
REMARK 921   NORMALIZED FREE ENERGY PREDICTED BY IDOCK:   -2.04 KCAL/MOL
REMARK 922        TOTAL FREE ENERGY PREDICTED BY IDOCK:   -3.17 KCAL/MOL
REMARK 923 INTER-LIGAND FREE ENERGY PREDICTED BY IDOCK:   -2.97 KCAL/MOL
REMARK 924 INTRA-LIGAND FREE ENERGY PREDICTED BY IDOCK:   -0.20 KCAL/MOL
REMARK 927      BINDING AFFINITY PREDICTED BY RF-SCORE:    0.00 PKD
ROOT
HETATM    1 NA   UNL     1      -9.797  16.243  67.301  1.00  0.00    -0.221 Na 
HETATM    2 NA   UNL     2      -7.100  12.101  66.059  1.00  0.00    -0.356 Na 
HETATM    3  O   UNL     3      -9.851  13.840  64.833  1.00  0.00    -0.609 OA 
HETATM    4  C   UNL     3     -10.563  13.593  66.048  1.00  0.00    -0.290 C  
HETATM    5  H   UNL     3     -10.468  14.147  64.178  1.00  0.00     0.000 HD 
ENDROOT
BRANCH   4   6
HETATM    6  C   UNL     3      -9.570  13.097  67.104  1.00  0.00    -0.235 C  
HETATM    7  O   UNL     3      -9.100  11.748  66.790  1.00  0.00    -0.182 OA 
HETATM    8  H   UNL     3      -8.484  11.440  67.445  1.00  0.00     0.000 HD 
BRANCH   6   9
HETATM    9  C   UNL     3      -8.380  13.995  67.235  1.00  0.00    -0.194 C  
BRANCH   9  10
HETATM   10  O   UNL     3      -7.728  13.742  68.470  1.00  0.00    -0.131 OA 
HETATM   11  P   UNL     3      -6.771  15.117  68.902  1.00  0.00    -0.128 P  
HETATM   12  O   UNL     3      -5.914  16.348  69.288  1.00  0.00    -0.136 OA 
HETATM   13  O   UNL     3      -6.044  14.848  67.565  1.00  0.00    -0.307 OA 
HETATM   14  O   UNL     3      -8.141  15.849  68.948  1.00  0.00    -0.183 OA 
ENDBRANCH   9  10
ENDBRANCH   6   9
ENDBRANCH   4   6
TORSDOF 3
ENDMDL
MODEL      273
REMARK 921   NORMALIZED FREE ENERGY PREDICTED BY IDOCK:   -2.04 KCAL/MOL
REMARK 922        TOTAL FREE ENERGY PREDICTED BY IDOCK:   -3.17 KCAL/MOL
REMARK 923 INTER-LIGAND FREE ENERGY PREDICTED BY IDOCK:   -2.58 KCAL/MOL
REMARK 924 INTRA-LIGAND FREE ENERGY PREDICTED BY IDOCK:   -0.59 KCAL/MOL
REMARK 927      BINDING AFFINITY PREDICTED BY RF-SCORE:    0.00 PKD
ROOT
HETATM    1 NA   UNL     1      -7.315   3.384  66.287  1.00  0.00    -0.060 Na 
HETATM    2 NA   UNL     2     -11.922   5.381  65.417  1.00  0.00    -0.711 Na 
HETATM    3  O   UNL     3      -8.745   5.537  64.009  1.00  0.00    -0.327 OA 
HETATM    4  C   UNL     3      -8.220   6.074  65.226  1.00  0.00    -0.138 C  
HETATM    5  H   UNL     3      -8.101   5.660  63.321  1.00  0.00     0.000 HD 
ENDROOT
BRANCH   4   6
HETATM    6  C   UNL     3      -9.258   5.877  66.335  1.00  0.00    -0.150 C  
HETATM    7  O   UNL     3      -8.708   5.081  67.432  1.00  0.00    -0.105 OA 
HETATM    8  H   UNL     3      -9.351   4.958  68.121  1.00  0.00     0.000 HD 
BRANCH   6   9
HETATM    9  C   UNL     3      -9.753   7.174  66.892  1.00  0.00    -0.186 C  
BRANCH   9  10
HETATM   10  O   UNL     3     -10.352   6.950  68.159  1.00  0.00    -0.170 OA 
HETATM   11  P   UNL     3      -9.913   8.232  69.234  1.00  0.00    -0.201 P  
HETATM   12  O   UNL     3      -9.519   9.380  70.196  1.00  0.00    -0.204 OA 
HETATM   13  O   UNL     3      -8.464   7.768  68.961  1.00  0.00    -0.130 OA 
HETATM   14  O   UNL     3     -10.684   9.123  68.221  1.00  0.00    -0.199 OA 
ENDBRANCH   9  10
ENDBRANCH   6   9
ENDBRANCH   4   6
TORSDOF 3
ENDMDL
MODEL      274
REMARK 921   NORMALIZED FREE ENERGY PREDICTED BY IDOCK:   -2.04 KCAL/MOL
REMARK 922        TOTAL FREE ENERGY PREDICTED BY IDOCK:   -3.16 KCAL/MOL
REMARK 923 INTER-LIGAND FREE ENERGY PREDICTED BY IDOCK:   -2.91 KCAL/MOL
REMARK 924 INTRA-LIGAND FREE ENERGY PREDICTED BY IDOCK:   -0.25 KCAL/MOL
REMARK 927      BINDING AFFINITY PREDICTED BY RF-SCORE:    0.00 PKD
ROOT
HETATM    1 NA   UNL     1      -8.361   8.537  65.798  1.00  0.00    -0.098 Na 
HETATM    2 NA   UNL     2     -11.829   8.283  69.523  1.00  0.00    -0.452 Na 
HETATM    3  O   UNL     3      -8.692   6.949  68.838  1.00  0.00    -0.130 OA 
HETATM    4  C   UNL     3      -9.207   6.307  67.668  1.00  0.00    -0.111 C  
HETATM    5  H   UNL     3      -7.840   6.577  69.036  1.00  0.00     0.000 HD 
ENDROOT
BRANCH   4   6
HETATM    6  C   UNL     3     -10.581   6.906  67.348  1.00  0.00    -0.303 C  
HETATM    7  O   UNL     3     -11.553   6.574  68.389  1.00  0.00    -0.525 OA 
HETATM    8  H   UNL     3     -12.405   6.945  68.191  1.00  0.00     0.000 HD 
BRANCH   6   9
HETATM    9  C   UNL     3     -10.535   8.395  67.200  1.00  0.00    -0.310 C  
BRANCH   9  10
HETATM   10  O   UNL     3     -10.419   8.996  68.480  1.00  0.00    -0.211 OA 
HETATM   11  P   UNL     3      -9.813  10.607  68.301  1.00  0.00    -0.176 P  
HETATM   12  O   UNL     3      -9.270  12.048  68.141  1.00  0.00    -0.185 OA 
HETATM   13  O   UNL     3      -8.593   9.919  67.648  1.00  0.00    -0.121 OA 
HETATM   14  O   UNL     3     -11.133  10.839  67.513  1.00  0.00    -0.290 OA 
ENDBRANCH   9  10
ENDBRANCH   6   9
ENDBRANCH   4   6
TORSDOF 3
ENDMDL
MODEL      275
REMARK 921   NORMALIZED FREE ENERGY PREDICTED BY IDOCK:   -2.02 KCAL/MOL
REMARK 922        TOTAL FREE ENERGY PREDICTED BY IDOCK:   -3.15 KCAL/MOL
REMARK 923 INTER-LIGAND FREE ENERGY PREDICTED BY IDOCK:   -3.00 KCAL/MOL
REMARK 924 INTRA-LIGAND FREE ENERGY PREDICTED BY IDOCK:   -0.15 KCAL/MOL
REMARK 927      BINDING AFFINITY PREDICTED BY RF-SCORE:    0.00 PKD
ROOT
HETATM    1 NA   UNL     1      -9.117  13.342  67.466  1.00  0.00    -0.165 Na 
HETATM    2 NA   UNL     2     -11.186   8.701  67.840  1.00  0.00    -0.403 Na 
HETATM    3  O   UNL     3      -9.162  10.774  69.762  1.00  0.00    -0.375 OA 
HETATM    4  C   UNL     3      -8.162  10.764  68.741  1.00  0.00    -0.145 C  
HETATM    5  H   UNL     3      -8.778  11.124  70.558  1.00  0.00     0.000 HD 
ENDROOT
BRANCH   4   6
HETATM    6  C   UNL     3      -8.780  10.200  67.457  1.00  0.00    -0.125 C  
HETATM    7  O   UNL     3      -8.987   8.756  67.566  1.00  0.00    -0.133 OA 
HETATM    8  H   UNL     3      -9.371   8.405  66.770  1.00  0.00     0.000 HD 
BRANCH   6   9
HETATM    9  C   UNL     3     -10.089  10.843  67.123  1.00  0.00    -0.198 C  
BRANCH   9  10
HETATM   10  O   UNL     3     -10.538  10.379  65.860  1.00  0.00    -0.159 OA 
HETATM   11  P   UNL     3     -11.050  11.727  64.904  1.00  0.00    -0.216 P  
HETATM   12  O   UNL     3     -11.508  12.934  64.050  1.00  0.00    -0.370 OA 
HETATM   13  O   UNL     3     -12.058  11.971  66.051  1.00  0.00    -0.561 OA 
HETATM   14  O   UNL     3      -9.563  12.164  65.024  1.00  0.00    -0.149 OA 
ENDBRANCH   9  10
ENDBRANCH   6   9
ENDBRANCH   4   6
TORSDOF 3
ENDMDL
MODEL      276
REMARK 921   NORMALIZED FREE ENERGY PREDICTED BY IDOCK:   -2.02 KCAL/MOL
REMARK 922        TOTAL FREE ENERGY PREDICTED BY IDOCK:   -3.14 KCAL/MOL
REMARK 923 INTER-LIGAND FREE ENERGY PREDICTED BY IDOCK:   -2.49 KCAL/MOL
REMARK 924 INTRA-LIGAND FREE ENERGY PREDICTED BY IDOCK:   -0.65 KCAL/MOL
REMARK 927      BINDING AFFINITY PREDICTED BY RF-SCORE:    0.00 PKD
ROOT
HETATM    1 NA   UNL     1     -10.749  10.641  70.510  1.00  0.00    -0.259 Na 
HETATM    2 NA   UNL     2      -9.959   5.806  71.913  1.00  0.00    -0.161 Na 
HETATM    3  O   UNL     3      -8.324   8.863  72.191  1.00  0.00    -0.381 OA 
HETATM    4  C   UNL     3      -8.240   8.961  70.767  1.00  0.00    -0.171 C  
HETATM    5  H   UNL     3      -7.740   9.508  72.573  1.00  0.00     0.000 HD 
ENDROOT
BRANCH   4   6
HETATM    6  C   UNL     3      -9.180   7.921  70.150  1.00  0.00    -0.153 C  
HETATM    7  O   UNL     3     -10.539   8.066  70.673  1.00  0.00    -0.212 OA 
HETATM    8  H   UNL     3     -11.123   7.421  70.290  1.00  0.00     0.000 HD 
BRANCH   6   9
HETATM    9  C   UNL     3      -9.235   8.014  68.657  1.00  0.00    -0.143 C  
BRANCH   9  10
HETATM   10  O   UNL     3      -8.882   9.326  68.250  1.00  0.00    -0.128 OA 
HETATM   11  P   UNL     3      -9.459   9.600  66.642  1.00  0.00    -0.197 P  
HETATM   12  O   UNL     3      -9.976   9.844  65.203  1.00  0.00    -0.318 OA 
HETATM   13  O   UNL     3      -8.561   8.398  66.271  1.00  0.00    -0.121 OA 
HETATM   14  O   UNL     3     -10.859   9.398  67.288  1.00  0.00    -0.247 OA 
ENDBRANCH   9  10
ENDBRANCH   6   9
ENDBRANCH   4   6
TORSDOF 3
ENDMDL
MODEL      277
REMARK 921   NORMALIZED FREE ENERGY PREDICTED BY IDOCK:   -2.01 KCAL/MOL
REMARK 922        TOTAL FREE ENERGY PREDICTED BY IDOCK:   -3.13 KCAL/MOL
REMARK 923 INTER-LIGAND FREE ENERGY PREDICTED BY IDOCK:   -2.53 KCAL/MOL
REMARK 924 INTRA-LIGAND FREE ENERGY PREDICTED BY IDOCK:   -0.60 KCAL/MOL
REMARK 927      BINDING AFFINITY PREDICTED BY RF-SCORE:    0.00 PKD
ROOT
HETATM    1 NA   UNL     1     -10.639   9.790  64.570  1.00  0.00    -0.303 Na 
HETATM    2 NA   UNL     2      -6.672   9.869  67.767  1.00  0.00    -0.063 Na 
HETATM    3  O   UNL     3      -9.609   8.052  67.360  1.00  0.00    -0.141 OA 
HETATM    4  C   UNL     3     -10.383   9.241  67.539  1.00  0.00    -0.262 C  
HETATM    5  H   UNL     3     -10.187   7.301  67.432  1.00  0.00     0.000 HD 
ENDROOT
BRANCH   4   6
HETATM    6  C   UNL     3      -9.452  10.451  67.423  1.00  0.00    -0.149 C  
HETATM    7  O   UNL     3      -8.977  10.618  66.050  1.00  0.00    -0.160 OA 
HETATM    8  H   UNL     3      -8.399  11.369  65.977  1.00  0.00     0.000 HD 
BRANCH   6   9
HETATM    9  C   UNL     3     -10.112  11.723  67.854  1.00  0.00    -0.186 C  
BRANCH   9  10
HETATM   10  O   UNL     3      -9.153  12.768  67.891  1.00  0.00    -0.187 OA 
HETATM   11  P   UNL     3      -9.900  14.249  67.398  1.00  0.00    -0.242 P  
HETATM   12  O   UNL     3     -10.570  15.573  66.957  1.00  0.00    -0.300 OA 
HETATM   13  O   UNL     3     -10.186  13.495  66.079  1.00  0.00    -0.292 OA 
HETATM   14  O   UNL     3     -10.779  14.032  68.663  1.00  0.00    -0.246 OA 
ENDBRANCH   9  10
ENDBRANCH   6   9
ENDBRANCH   4   6
TORSDOF 3
ENDMDL
MODEL      278
REMARK 921   NORMALIZED FREE ENERGY PREDICTED BY IDOCK:   -2.00 KCAL/MOL
REMARK 922        TOTAL FREE ENERGY PREDICTED BY IDOCK:   -3.12 KCAL/MOL
REMARK 923 INTER-LIGAND FREE ENERGY PREDICTED BY IDOCK:   -2.26 KCAL/MOL
REMARK 924 INTRA-LIGAND FREE ENERGY PREDICTED BY IDOCK:   -0.86 KCAL/MOL
REMARK 927      BINDING AFFINITY PREDICTED BY RF-SCORE:    0.00 PKD
ROOT
HETATM    1 NA   UNL     1     -10.108  11.004  69.622  1.00  0.00    -0.203 Na 
HETATM    2 NA   UNL     2      -6.196  12.809  66.901  1.00  0.00    -0.150 Na 
HETATM    3  O   UNL     3      -9.629  13.320  67.117  1.00  0.00    -0.225 OA 
HETATM    4  C   UNL     3      -9.867  11.958  66.756  1.00  0.00    -0.197 C  
HETATM    5  H   UNL     3     -10.446  13.800  67.041  1.00  0.00     0.000 HD 
ENDROOT
BRANCH   4   6
HETATM    6  C   UNL     3      -8.550  11.184  66.878  1.00  0.00    -0.148 C  
HETATM    7  O   UNL     3      -7.893  11.465  68.154  1.00  0.00    -0.115 OA 
HETATM    8  H   UNL     3      -7.076  10.985  68.231  1.00  0.00     0.000 HD 
BRANCH   6   9
HETATM    9  C   UNL     3      -8.744   9.704  66.761  1.00  0.00    -0.134 C  
BRANCH   9  10
HETATM   10  O   UNL     3     -10.121   9.419  66.570  1.00  0.00    -0.247 OA 
HETATM   11  P   UNL     3     -10.527   7.966  67.416  1.00  0.00    -0.237 P  
HETATM   12  O   UNL     3     -10.889   6.665  68.173  1.00  0.00    -0.244 OA 
HETATM   13  O   UNL     3      -9.459   7.312  66.509  1.00  0.00    -0.175 OA 
HETATM   14  O   UNL     3     -10.130   8.785  68.676  1.00  0.00    -0.178 OA 
ENDBRANCH   9  10
ENDBRANCH   6   9
ENDBRANCH   4   6
TORSDOF 3
ENDMDL
MODEL      279
REMARK 921   NORMALIZED FREE ENERGY PREDICTED BY IDOCK:   -1.99 KCAL/MOL
REMARK 922        TOTAL FREE ENERGY PREDICTED BY IDOCK:   -3.11 KCAL/MOL
REMARK 923 INTER-LIGAND FREE ENERGY PREDICTED BY IDOCK:   -2.72 KCAL/MOL
REMARK 924 INTRA-LIGAND FREE ENERGY PREDICTED BY IDOCK:   -0.39 KCAL/MOL
REMARK 927      BINDING AFFINITY PREDICTED BY RF-SCORE:    0.00 PKD
ROOT
HETATM    1 NA   UNL     1      -7.021   7.055  68.026  1.00  0.00    -0.059 Na 
HETATM    2 NA   UNL     2     -11.765   8.872  67.628  1.00  0.00    -0.487 Na 
HETATM    3  O   UNL     3     -10.051   6.568  69.591  1.00  0.00    -0.174 OA 
HETATM    4  C   UNL     3      -9.745   5.791  68.431  1.00  0.00    -0.133 C  
HETATM    5  H   UNL     3      -9.869   6.045  70.363  1.00  0.00     0.000 HD 
ENDROOT
BRANCH   4   6
HETATM    6  C   UNL     3     -10.038   6.634  67.186  1.00  0.00    -0.174 C  
HETATM    7  O   UNL     3     -11.477   6.710  66.931  1.00  0.00    -0.777 OA 
HETATM    8  H   UNL     3     -11.659   7.233  66.159  1.00  0.00     0.000 HD 
BRANCH   6   9
HETATM    9  C   UNL     3      -9.502   8.027  67.299  1.00  0.00    -0.155 C  
BRANCH   9  10
HETATM   10  O   UNL     3      -9.514   8.646  66.023  1.00  0.00    -0.225 OA 
HETATM   11  P   UNL     3      -8.740  10.190  66.129  1.00  0.00    -0.151 P  
HETATM   12  O   UNL     3      -8.047  11.571  66.226  1.00  0.00    -0.125 OA 
HETATM   13  O   UNL     3      -9.844  10.509  67.163  1.00  0.00    -0.167 OA 
HETATM   14  O   UNL     3      -7.488   9.350  66.512  1.00  0.00    -0.092 OA 
ENDBRANCH   9  10
ENDBRANCH   6   9
ENDBRANCH   4   6
TORSDOF 3
ENDMDL
MODEL      280
REMARK 921   NORMALIZED FREE ENERGY PREDICTED BY IDOCK:   -1.96 KCAL/MOL
REMARK 922        TOTAL FREE ENERGY PREDICTED BY IDOCK:   -3.07 KCAL/MOL
REMARK 923 INTER-LIGAND FREE ENERGY PREDICTED BY IDOCK:   -2.98 KCAL/MOL
REMARK 924 INTRA-LIGAND FREE ENERGY PREDICTED BY IDOCK:   -0.09 KCAL/MOL
REMARK 927      BINDING AFFINITY PREDICTED BY RF-SCORE:    0.00 PKD
ROOT
HETATM    1 NA   UNL     1     -10.126  10.297  63.815  1.00  0.00    -0.274 Na 
HETATM    2 NA   UNL     2     -11.283  11.100  68.712  1.00  0.00    -0.166 Na 
HETATM    3  O   UNL     3      -8.468  10.294  66.835  1.00  0.00    -0.125 OA 
HETATM    4  C   UNL     3      -9.094   9.086  66.394  1.00  0.00    -0.170 C  
HETATM    5  H   UNL     3      -7.542  10.247  66.629  1.00  0.00     0.000 HD 
ENDROOT
BRANCH   4   6
HETATM    6  C   UNL     3     -10.588   9.161  66.727  1.00  0.00    -0.136 C  
HETATM    7  O   UNL     3     -10.857   8.610  68.055  1.00  0.00    -0.458 OA 
HETATM    8  H   UNL     3     -11.783   8.655  68.262  1.00  0.00     0.000 HD 
BRANCH   6   9
HETATM    9  C   UNL     3     -11.115  10.560  66.679  1.00  0.00     0.064 C  
BRANCH   9  10
HETATM   10  O   UNL     3     -10.595  11.224  65.538  1.00  0.00    -0.262 OA 
HETATM   11  P   UNL     3     -10.914  12.920  65.669  1.00  0.00    -0.285 P  
HETATM   12  O   UNL     3     -11.200  14.437  65.787  1.00  0.00    -0.315 OA 
HETATM   13  O   UNL     3     -12.398  12.489  65.714  1.00  0.00    -0.627 OA 
HETATM   14  O   UNL     3     -10.003  12.825  66.925  1.00  0.00    -0.224 OA 
ENDBRANCH   9  10
ENDBRANCH   6   9
ENDBRANCH   4   6
TORSDOF 3
ENDMDL
MODEL      281
REMARK 921   NORMALIZED FREE ENERGY PREDICTED BY IDOCK:   -1.95 KCAL/MOL
REMARK 922        TOTAL FREE ENERGY PREDICTED BY IDOCK:   -3.06 KCAL/MOL
REMARK 923 INTER-LIGAND FREE ENERGY PREDICTED BY IDOCK:   -2.75 KCAL/MOL
REMARK 924 INTRA-LIGAND FREE ENERGY PREDICTED BY IDOCK:   -0.31 KCAL/MOL
REMARK 927      BINDING AFFINITY PREDICTED BY RF-SCORE:    0.00 PKD
ROOT
HETATM    1 NA   UNL     1      -8.864   9.893  62.743  1.00  0.00    -0.141 Na 
HETATM    2 NA   UNL     2     -11.026  12.183  66.749  1.00  0.00    -0.223 Na 
HETATM    3  O   UNL     3      -7.819  11.387  65.666  1.00  0.00    -0.361 OA 
HETATM    4  C   UNL     3      -8.145   9.995  65.685  1.00  0.00    -0.138 C  
HETATM    5  H   UNL     3      -6.875  11.475  65.596  1.00  0.00     0.000 HD 
ENDROOT
BRANCH   4   6
HETATM    6  C   UNL     3      -9.666   9.852  65.800  1.00  0.00    -0.266 C  
HETATM    7  O   UNL     3     -10.286   9.764  64.478  1.00  0.00    -0.344 OA 
HETATM    8  H   UNL     3     -11.229   9.675  64.548  1.00  0.00     0.000 HD 
BRANCH   6   9
HETATM    9  C   UNL     3     -10.068   8.648  66.593  1.00  0.00    -0.294 C  
BRANCH   9  10
HETATM   10  O   UNL     3      -9.268   8.560  67.761  1.00  0.00    -0.135 OA 
HETATM   11  P   UNL     3     -10.275   8.187  69.118  1.00  0.00    -0.209 P  
HETATM   12  O   UNL     3     -11.177   7.852  70.331  1.00  0.00    -0.269 OA 
HETATM   13  O   UNL     3     -10.995   9.507  68.761  1.00  0.00    -0.181 OA 
HETATM   14  O   UNL     3     -10.556   6.872  68.336  1.00  0.00    -0.193 OA 
ENDBRANCH   9  10
ENDBRANCH   6   9
ENDBRANCH   4   6
TORSDOF 3
ENDMDL
MODEL      282
REMARK 921   NORMALIZED FREE ENERGY PREDICTED BY IDOCK:   -1.93 KCAL/MOL
REMARK 922        TOTAL FREE ENERGY PREDICTED BY IDOCK:   -3.04 KCAL/MOL
REMARK 923 INTER-LIGAND FREE ENERGY PREDICTED BY IDOCK:   -2.60 KCAL/MOL
REMARK 924 INTRA-LIGAND FREE ENERGY PREDICTED BY IDOCK:   -0.44 KCAL/MOL
REMARK 927      BINDING AFFINITY PREDICTED BY RF-SCORE:    0.00 PKD
ROOT
HETATM    1 NA   UNL     1      -9.123   7.572  70.575  1.00  0.00    -0.141 Na 
HETATM    2 NA   UNL     2     -13.202  10.349  69.304  1.00  0.00    -0.560 Na 
HETATM    3  O   UNL     3     -11.062   8.076  67.772  1.00  0.00    -0.485 OA 
HETATM    4  C   UNL     3      -9.952   8.946  68.005  1.00  0.00    -0.178 C  
HETATM    5  H   UNL     3     -10.799   7.411  67.146  1.00  0.00     0.000 HD 
ENDROOT
BRANCH   4   6
HETATM    6  C   UNL     3     -10.375  10.018  69.014  1.00  0.00    -0.206 C  
HETATM    7  O   UNL     3      -9.865   9.711  70.350  1.00  0.00    -0.248 OA 
HETATM    8  H   UNL     3     -10.127  10.375  70.977  1.00  0.00     0.000 HD 
BRANCH   6   9
HETATM    9  C   UNL     3      -9.902  11.385  68.629  1.00  0.00    -0.193 C  
BRANCH   9  10
HETATM   10  O   UNL     3      -8.565  11.566  69.067  1.00  0.00    -0.030 OA 
HETATM   11  P   UNL     3      -7.823  12.822  68.136  1.00  0.00    -0.162 P  
HETATM   12  O   UNL     3      -7.161  13.946  67.303  1.00  0.00    -0.133 OA 
HETATM   13  O   UNL     3      -8.134  11.909  66.928  1.00  0.00    -0.165 OA 
HETATM   14  O   UNL     3      -8.920  13.717  68.780  1.00  0.00    -0.096 OA 
ENDBRANCH   9  10
ENDBRANCH   6   9
ENDBRANCH   4   6
TORSDOF 3
ENDMDL
MODEL      283
REMARK 921   NORMALIZED FREE ENERGY PREDICTED BY IDOCK:   -1.91 KCAL/MOL
REMARK 922        TOTAL FREE ENERGY PREDICTED BY IDOCK:   -3.01 KCAL/MOL
REMARK 923 INTER-LIGAND FREE ENERGY PREDICTED BY IDOCK:   -2.20 KCAL/MOL
REMARK 924 INTRA-LIGAND FREE ENERGY PREDICTED BY IDOCK:   -0.81 KCAL/MOL
REMARK 927      BINDING AFFINITY PREDICTED BY RF-SCORE:    0.00 PKD
ROOT
HETATM    1 NA   UNL     1      -8.125   8.767  64.035  1.00  0.00    -0.110 Na 
HETATM    2 NA   UNL     2      -7.435   9.049  69.076  1.00  0.00    -0.064 Na 
HETATM    3  O   UNL     3      -8.130   6.597  66.711  1.00  0.00    -0.110 OA 
HETATM    4  C   UNL     3      -9.348   7.261  66.364  1.00  0.00    -0.150 C  
HETATM    5  H   UNL     3      -8.147   5.721  66.342  1.00  0.00     0.000 HD 
ENDROOT
BRANCH   4   6
HETATM    6  C   UNL     3      -9.322   8.672  66.959  1.00  0.00    -0.159 C  
HETATM    7  O   UNL     3      -9.668   9.673  65.951  1.00  0.00    -0.235 OA 
HETATM    8  H   UNL     3      -9.652  10.549  66.320  1.00  0.00     0.000 HD 
BRANCH   6   9
HETATM    9  C   UNL     3     -10.258   8.821  68.117  1.00  0.00    -0.205 C  
BRANCH   9  10
HETATM   10  O   UNL     3      -9.723   9.752  69.044  1.00  0.00    -0.163 OA 
HETATM   11  P   UNL     3     -10.178   9.287  70.648  1.00  0.00    -0.308 P  
HETATM   12  O   UNL     3     -10.586   8.871  72.082  1.00  0.00    -0.340 OA 
HETATM   13  O   UNL     3     -11.624   9.447  70.126  1.00  0.00    -0.199 OA 
HETATM   14  O   UNL     3      -9.340   8.015  70.339  1.00  0.00    -0.157 OA 
ENDBRANCH   9  10
ENDBRANCH   6   9
ENDBRANCH   4   6
TORSDOF 3
ENDMDL
MODEL      284
REMARK 921   NORMALIZED FREE ENERGY PREDICTED BY IDOCK:   -1.90 KCAL/MOL
REMARK 922        TOTAL FREE ENERGY PREDICTED BY IDOCK:   -3.00 KCAL/MOL
REMARK 923 INTER-LIGAND FREE ENERGY PREDICTED BY IDOCK:   -2.47 KCAL/MOL
REMARK 924 INTRA-LIGAND FREE ENERGY PREDICTED BY IDOCK:   -0.53 KCAL/MOL
REMARK 927      BINDING AFFINITY PREDICTED BY RF-SCORE:    0.00 PKD
ROOT
HETATM    1 NA   UNL     1     -10.813  10.336  71.384  1.00  0.00    -0.304 Na 
HETATM    2 NA   UNL     2      -9.661   5.789  73.374  1.00  0.00    -0.138 Na 
HETATM    3  O   UNL     3      -8.006   8.746  72.591  1.00  0.00    -0.380 OA 
HETATM    4  C   UNL     3      -8.347   8.585  71.212  1.00  0.00    -0.156 C  
HETATM    5  H   UNL     3      -7.333   9.413  72.661  1.00  0.00     0.000 HD 
ENDROOT
BRANCH   4   6
HETATM    6  C   UNL     3      -9.431   7.508  71.099  1.00  0.00    -0.158 C  
HETATM    7  O   UNL     3     -10.621   7.881  71.864  1.00  0.00    -0.214 OA 
HETATM    8  H   UNL     3     -11.294   7.213  71.794  1.00  0.00     0.000 HD 
BRANCH   6   9
HETATM    9  C   UNL     3      -9.838   7.254  69.682  1.00  0.00    -0.163 C  
BRANCH   9  10
HETATM   10  O   UNL     3     -10.169   5.884  69.521  1.00  0.00    -0.186 OA 
HETATM   11  P   UNL     3     -10.171   5.490  67.836  1.00  0.00    -0.149 P  
HETATM   12  O   UNL     3     -10.172   5.138  66.329  1.00  0.00    -0.213 OA 
HETATM   13  O   UNL     3     -11.266   6.576  67.733  1.00  0.00    -0.305 OA 
HETATM   14  O   UNL     3      -8.664   5.862  67.918  1.00  0.00    -0.106 OA 
ENDBRANCH   9  10
ENDBRANCH   6   9
ENDBRANCH   4   6
TORSDOF 3
ENDMDL
MODEL      285
REMARK 921   NORMALIZED FREE ENERGY PREDICTED BY IDOCK:   -1.89 KCAL/MOL
REMARK 922        TOTAL FREE ENERGY PREDICTED BY IDOCK:   -2.99 KCAL/MOL
REMARK 923 INTER-LIGAND FREE ENERGY PREDICTED BY IDOCK:   -2.78 KCAL/MOL
REMARK 924 INTRA-LIGAND FREE ENERGY PREDICTED BY IDOCK:   -0.21 KCAL/MOL
REMARK 927      BINDING AFFINITY PREDICTED BY RF-SCORE:    0.00 PKD
ROOT
HETATM    1 NA   UNL     1      -9.524  19.463  67.921  1.00  0.00    -0.280 Na 
HETATM    2 NA   UNL     2      -7.690  14.792  68.806  1.00  0.00    -0.098 Na 
HETATM    3  O   UNL     3      -6.438  17.933  67.994  1.00  0.00    -0.180 OA 
HETATM    4  C   UNL     3      -7.179  17.925  66.772  1.00  0.00    -0.203 C  
HETATM    5  H   UNL     3      -5.795  18.632  67.953  1.00  0.00     0.000 HD 
ENDROOT
BRANCH   4   6
HETATM    6  C   UNL     3      -8.215  16.799  66.836  1.00  0.00    -0.210 C  
HETATM    7  O   UNL     3      -7.579  15.491  66.679  1.00  0.00    -0.229 OA 
HETATM    8  H   UNL     3      -8.221  14.792  66.719  1.00  0.00     0.000 HD 
BRANCH   6   9
HETATM    9  C   UNL     3      -8.983  16.801  68.120  1.00  0.00    -0.224 C  
BRANCH   9  10
HETATM   10  O   UNL     3     -10.368  16.658  67.846  1.00  0.00    -0.286 OA 
HETATM   11  P   UNL     3     -10.981  15.284  68.700  1.00  0.00    -0.292 P  
HETATM   12  O   UNL     3     -11.528  14.054  69.465  1.00  0.00    -0.259 OA 
HETATM   13  O   UNL     3      -9.936  14.492  67.882  1.00  0.00    -0.221 OA 
HETATM   14  O   UNL     3     -10.576  16.097  69.963  1.00  0.00    -0.300 OA 
ENDBRANCH   9  10
ENDBRANCH   6   9
ENDBRANCH   4   6
TORSDOF 3
ENDMDL
MODEL      286
REMARK 921   NORMALIZED FREE ENERGY PREDICTED BY IDOCK:   -1.88 KCAL/MOL
REMARK 922        TOTAL FREE ENERGY PREDICTED BY IDOCK:   -2.98 KCAL/MOL
REMARK 923 INTER-LIGAND FREE ENERGY PREDICTED BY IDOCK:   -2.79 KCAL/MOL
REMARK 924 INTRA-LIGAND FREE ENERGY PREDICTED BY IDOCK:   -0.18 KCAL/MOL
REMARK 927      BINDING AFFINITY PREDICTED BY RF-SCORE:    0.00 PKD
ROOT
HETATM    1 NA   UNL     1      -6.686  10.020  67.246  1.00  0.00    -0.065 Na 
HETATM    2 NA   UNL     2     -11.312   7.892  67.043  1.00  0.00    -0.419 Na 
HETATM    3  O   UNL     3      -9.931  11.072  66.762  1.00  0.00    -0.192 OA 
HETATM    4  C   UNL     3      -9.429  10.984  68.098  1.00  0.00    -0.172 C  
HETATM    5  H   UNL     3      -9.876  11.976  66.477  1.00  0.00     0.000 HD 
ENDROOT
BRANCH   4   6
HETATM    6  C   UNL     3      -9.518   9.526  68.559  1.00  0.00    -0.141 C  
HETATM    7  O   UNL     3      -8.362   9.164  69.379  1.00  0.00    -0.115 OA 
HETATM    8  H   UNL     3      -8.416   8.259  69.665  1.00  0.00     0.000 HD 
BRANCH   6   9
HETATM    9  C   UNL     3     -10.761   9.249  69.344  1.00  0.00    -0.208 C  
BRANCH   9  10
HETATM   10  O   UNL     3     -10.497   9.419  70.728  1.00  0.00    -0.257 OA 
HETATM   11  P   UNL     3     -11.958   9.870  71.538  1.00  0.00    -0.261 P  
HETATM   12  O   UNL     3     -13.266  10.272  72.261  1.00  0.00    -0.409 OA 
HETATM   13  O   UNL     3     -11.941  11.085  70.583  1.00  0.00    -0.331 OA 
HETATM   14  O   UNL     3     -12.454   8.474  71.066  1.00  0.00    -0.225 OA 
ENDBRANCH   9  10
ENDBRANCH   6   9
ENDBRANCH   4   6
TORSDOF 3
ENDMDL
MODEL      287
REMARK 921   NORMALIZED FREE ENERGY PREDICTED BY IDOCK:   -1.88 KCAL/MOL
REMARK 922        TOTAL FREE ENERGY PREDICTED BY IDOCK:   -2.97 KCAL/MOL
REMARK 923 INTER-LIGAND FREE ENERGY PREDICTED BY IDOCK:   -2.51 KCAL/MOL
REMARK 924 INTRA-LIGAND FREE ENERGY PREDICTED BY IDOCK:   -0.47 KCAL/MOL
REMARK 927      BINDING AFFINITY PREDICTED BY RF-SCORE:    0.00 PKD
ROOT
HETATM    1 NA   UNL     1      -7.150   8.864  66.678  1.00  0.00    -0.072 Na 
HETATM    2 NA   UNL     2     -11.885  10.259  67.941  1.00  0.00    -0.379 Na 
HETATM    3  O   UNL     3      -8.642  11.389  68.484  1.00  0.00    -0.151 OA 
HETATM    4  C   UNL     3      -8.315  10.168  69.152  1.00  0.00    -0.154 C  
HETATM    5  H   UNL     3      -7.958  12.025  68.665  1.00  0.00     0.000 HD 
ENDROOT
BRANCH   4   6
HETATM    6  C   UNL     3      -9.417   9.144  68.862  1.00  0.00    -0.151 C  
HETATM    7  O   UNL     3      -8.872   7.965  68.188  1.00  0.00    -0.126 OA 
HETATM    8  H   UNL     3      -9.555   7.329  68.008  1.00  0.00     0.000 HD 
BRANCH   6   9
HETATM    9  C   UNL     3     -10.122   8.696  70.104  1.00  0.00    -0.185 C  
BRANCH   9  10
HETATM   10  O   UNL     3     -10.934   7.571  69.809  1.00  0.00    -0.244 OA 
HETATM   11  P   UNL     3     -11.345   6.761  71.282  1.00  0.00    -0.324 P  
HETATM   12  O   UNL     3     -11.712   6.037  72.600  1.00  0.00    -0.262 OA 
HETATM   13  O   UNL     3      -9.817   6.600  71.449  1.00  0.00    -0.179 OA 
HETATM   14  O   UNL     3     -12.062   8.097  71.623  1.00  0.00    -0.281 OA 
ENDBRANCH   9  10
ENDBRANCH   6   9
ENDBRANCH   4   6
TORSDOF 3
ENDMDL
MODEL      288
REMARK 921   NORMALIZED FREE ENERGY PREDICTED BY IDOCK:   -1.83 KCAL/MOL
REMARK 922        TOTAL FREE ENERGY PREDICTED BY IDOCK:   -2.92 KCAL/MOL
REMARK 923 INTER-LIGAND FREE ENERGY PREDICTED BY IDOCK:   -2.67 KCAL/MOL
REMARK 924 INTRA-LIGAND FREE ENERGY PREDICTED BY IDOCK:   -0.25 KCAL/MOL
REMARK 927      BINDING AFFINITY PREDICTED BY RF-SCORE:    0.00 PKD
ROOT
HETATM    1 NA   UNL     1      -7.852   8.642  66.966  1.00  0.00    -0.086 Na 
HETATM    2 NA   UNL     2     -10.846  12.503  68.415  1.00  0.00    -0.191 Na 
HETATM    3  O   UNL     3      -9.792   9.447  69.697  1.00  0.00    -0.174 OA 
HETATM    4  C   UNL     3     -10.402   8.763  68.599  1.00  0.00    -0.205 C  
HETATM    5  H   UNL     3      -9.580   8.810  70.370  1.00  0.00     0.000 HD 
ENDROOT
BRANCH   4   6
HETATM    6  C   UNL     3     -10.745   9.790  67.515  1.00  0.00    -0.264 C  
HETATM    7  O   UNL     3     -11.795  10.702  67.970  1.00  0.00    -0.755 OA 
HETATM    8  H   UNL     3     -12.008  11.338  67.297  1.00  0.00     0.000 HD 
BRANCH   6   9
HETATM    9  C   UNL     3      -9.559  10.602  67.100  1.00  0.00    -0.164 C  
BRANCH   9  10
HETATM   10  O   UNL     3      -9.134  11.410  68.185  1.00  0.00    -0.160 OA 
HETATM   11  P   UNL     3      -7.865  12.460  67.653  1.00  0.00    -0.191 P  
HETATM   12  O   UNL     3      -6.730  13.399  67.176  1.00  0.00    -0.165 OA 
HETATM   13  O   UNL     3      -7.120  11.149  67.316  1.00  0.00    -0.095 OA 
HETATM   14  O   UNL     3      -8.961  13.035  66.712  1.00  0.00    -0.221 OA 
ENDBRANCH   9  10
ENDBRANCH   6   9
ENDBRANCH   4   6
TORSDOF 3
ENDMDL
MODEL      289
REMARK 921   NORMALIZED FREE ENERGY PREDICTED BY IDOCK:   -1.80 KCAL/MOL
REMARK 922        TOTAL FREE ENERGY PREDICTED BY IDOCK:   -2.89 KCAL/MOL
REMARK 923 INTER-LIGAND FREE ENERGY PREDICTED BY IDOCK:   -2.21 KCAL/MOL
REMARK 924 INTRA-LIGAND FREE ENERGY PREDICTED BY IDOCK:   -0.67 KCAL/MOL
REMARK 927      BINDING AFFINITY PREDICTED BY RF-SCORE:    0.00 PKD
ROOT
HETATM    1 NA   UNL     1      -7.645   5.238  68.059  1.00  0.00    -0.070 Na 
HETATM    2 NA   UNL     2      -9.452   8.259  64.374  1.00  0.00    -0.387 Na 
HETATM    3  O   UNL     3      -6.522   7.924  66.216  1.00  0.00    -0.045 OA 
HETATM    4  C   UNL     3      -7.240   8.174  67.426  1.00  0.00    -0.088 C  
HETATM    5  H   UNL     3      -5.591   7.997  66.395  1.00  0.00     0.000 HD 
ENDROOT
BRANCH   4   6
HETATM    6  C   UNL     3      -8.740   8.056  67.137  1.00  0.00    -0.131 C  
HETATM    7  O   UNL     3      -9.361   7.045  67.993  1.00  0.00    -0.129 OA 
HETATM    8  H   UNL     3     -10.291   6.971  67.814  1.00  0.00     0.000 HD 
BRANCH   6   9
HETATM    9  C   UNL     3      -9.463   9.351  67.333  1.00  0.00    -0.131 C  
BRANCH   9  10
HETATM   10  O   UNL     3     -10.106   9.724  66.124  1.00  0.00    -0.257 OA 
HETATM   11  P   UNL     3     -10.269  11.445  66.070  1.00  0.00    -0.263 P  
HETATM   12  O   UNL     3     -10.415  12.986  66.023  1.00  0.00    -0.270 OA 
HETATM   13  O   UNL     3     -11.089  11.263  67.368  1.00  0.00    -0.262 OA 
HETATM   14  O   UNL     3      -8.715  11.427  66.083  1.00  0.00    -0.181 OA 
ENDBRANCH   9  10
ENDBRANCH   6   9
ENDBRANCH   4   6
TORSDOF 3
ENDMDL
MODEL      290
REMARK 921   NORMALIZED FREE ENERGY PREDICTED BY IDOCK:   -1.80 KCAL/MOL
REMARK 922        TOTAL FREE ENERGY PREDICTED BY IDOCK:   -2.88 KCAL/MOL
REMARK 923 INTER-LIGAND FREE ENERGY PREDICTED BY IDOCK:   -2.53 KCAL/MOL
REMARK 924 INTRA-LIGAND FREE ENERGY PREDICTED BY IDOCK:   -0.35 KCAL/MOL
REMARK 927      BINDING AFFINITY PREDICTED BY RF-SCORE:    0.00 PKD
ROOT
HETATM    1 NA   UNL     1      -6.544  10.360  65.210  1.00  0.00    -0.086 Na 
HETATM    2 NA   UNL     2      -9.208  13.988  67.601  1.00  0.00    -0.163 Na 
HETATM    3  O   UNL     3      -5.876  13.054  67.251  1.00  0.00    -0.330 OA 
HETATM    4  C   UNL     3      -6.155  11.789  67.855  1.00  0.00    -0.050 C  
HETATM    5  H   UNL     3      -4.934  13.177  67.228  1.00  0.00     0.000 HD 
ENDROOT
BRANCH   4   6
HETATM    6  C   UNL     3      -7.674  11.591  67.893  1.00  0.00    -0.120 C  
HETATM    7  O   UNL     3      -8.268  12.310  69.020  1.00  0.00    -0.347 OA 
HETATM    8  H   UNL     3      -9.210  12.188  69.044  1.00  0.00     0.000 HD 
BRANCH   6   9
HETATM    9  C   UNL     3      -8.342  12.046  66.634  1.00  0.00    -0.085 C  
BRANCH   9  10
HETATM   10  O   UNL     3      -9.583  11.375  66.485  1.00  0.00    -0.189 OA 
HETATM   11  P   UNL     3     -10.223  11.700  64.911  1.00  0.00    -0.294 P  
HETATM   12  O   UNL     3     -10.795  11.991  63.502  1.00  0.00    -0.395 OA 
HETATM   13  O   UNL     3     -10.182  13.179  65.359  1.00  0.00    -0.295 OA 
HETATM   14  O   UNL     3      -8.944  10.965  64.421  1.00  0.00    -0.179 OA 
ENDBRANCH   9  10
ENDBRANCH   6   9
ENDBRANCH   4   6
TORSDOF 3
ENDMDL
MODEL      291
REMARK 921   NORMALIZED FREE ENERGY PREDICTED BY IDOCK:   -1.80 KCAL/MOL
REMARK 922        TOTAL FREE ENERGY PREDICTED BY IDOCK:   -2.88 KCAL/MOL
REMARK 923 INTER-LIGAND FREE ENERGY PREDICTED BY IDOCK:   -2.46 KCAL/MOL
REMARK 924 INTRA-LIGAND FREE ENERGY PREDICTED BY IDOCK:   -0.42 KCAL/MOL
REMARK 927      BINDING AFFINITY PREDICTED BY RF-SCORE:    0.00 PKD
ROOT
HETATM    1 NA   UNL     1      -6.757   9.274  66.447  1.00  0.00    -0.062 Na 
HETATM    2 NA   UNL     2     -10.065   5.427  65.968  1.00  0.00    -0.155 Na 
HETATM    3  O   UNL     3     -10.128   8.902  65.842  1.00  0.00    -0.432 OA 
HETATM    4  C   UNL     3      -9.678   8.971  67.197  1.00  0.00    -0.181 C  
HETATM    5  H   UNL     3     -10.447   9.759  65.585  1.00  0.00     0.000 HD 
ENDROOT
BRANCH   4   6
HETATM    6  C   UNL     3      -9.164   7.588  67.612  1.00  0.00    -0.127 C  
HETATM    7  O   UNL     3      -7.829   7.681  68.202  1.00  0.00    -0.117 OA 
HETATM    8  H   UNL     3      -7.509   6.823  68.460  1.00  0.00     0.000 HD 
BRANCH   6   9
HETATM    9  C   UNL     3     -10.070   6.912  68.592  1.00  0.00    -0.162 C  
BRANCH   9  10
HETATM   10  O   UNL     3      -9.562   7.085  69.906  1.00  0.00    -0.160 OA 
HETATM   11  P   UNL     3     -10.787   6.661  71.052  1.00  0.00    -0.271 P  
HETATM   12  O   UNL     3     -11.883   6.282  72.077  1.00  0.00    -0.320 OA 
HETATM   13  O   UNL     3     -11.604   7.785  70.376  1.00  0.00    -0.220 OA 
HETATM   14  O   UNL     3     -10.664   5.249  70.412  1.00  0.00    -0.250 OA 
ENDBRANCH   9  10
ENDBRANCH   6   9
ENDBRANCH   4   6
TORSDOF 3
ENDMDL
MODEL      292
REMARK 921   NORMALIZED FREE ENERGY PREDICTED BY IDOCK:   -1.77 KCAL/MOL
REMARK 922        TOTAL FREE ENERGY PREDICTED BY IDOCK:   -2.85 KCAL/MOL
REMARK 923 INTER-LIGAND FREE ENERGY PREDICTED BY IDOCK:   -2.84 KCAL/MOL
REMARK 924 INTRA-LIGAND FREE ENERGY PREDICTED BY IDOCK:   -0.01 KCAL/MOL
REMARK 927      BINDING AFFINITY PREDICTED BY RF-SCORE:    0.00 PKD
ROOT
HETATM    1 NA   UNL     1      -9.709   6.073  71.959  1.00  0.00    -0.152 Na 
HETATM    2 NA   UNL     2     -11.619   9.002  68.252  1.00  0.00    -0.465 Na 
HETATM    3  O   UNL     3      -9.362   9.326  70.878  1.00  0.00    -0.251 OA 
HETATM    4  C   UNL     3     -10.394   9.022  71.819  1.00  0.00    -0.337 C  
HETATM    5  H   UNL     3      -8.618   9.684  71.350  1.00  0.00     0.000 HD 
ENDROOT
BRANCH   4   6
HETATM    6  C   UNL     3     -11.593   8.445  71.059  1.00  0.00    -0.275 C  
HETATM    7  O   UNL     3     -12.588   9.482  70.784  1.00  0.00    -0.469 OA 
HETATM    8  H   UNL     3     -13.332   9.125  70.313  1.00  0.00     0.000 HD 
BRANCH   6   9
HETATM    9  C   UNL     3     -11.197   7.813  69.761  1.00  0.00    -0.007 C  
BRANCH   9  10
HETATM   10  O   UNL     3     -10.544   6.579  70.014  1.00  0.00    -0.202 OA 
HETATM   11  P   UNL     3      -9.736   6.055  68.576  1.00  0.00    -0.135 P  
HETATM   12  O   UNL     3      -9.014   5.587  67.289  1.00  0.00    -0.113 OA 
HETATM   13  O   UNL     3     -11.149   6.078  67.949  1.00  0.00    -0.301 OA 
HETATM   14  O   UNL     3      -8.910   7.359  68.764  1.00  0.00    -0.131 OA 
ENDBRANCH   9  10
ENDBRANCH   6   9
ENDBRANCH   4   6
TORSDOF 3
ENDMDL
MODEL      293
REMARK 921   NORMALIZED FREE ENERGY PREDICTED BY IDOCK:   -1.75 KCAL/MOL
REMARK 922        TOTAL FREE ENERGY PREDICTED BY IDOCK:   -2.82 KCAL/MOL
REMARK 923 INTER-LIGAND FREE ENERGY PREDICTED BY IDOCK:   -2.52 KCAL/MOL
REMARK 924 INTRA-LIGAND FREE ENERGY PREDICTED BY IDOCK:   -0.31 KCAL/MOL
REMARK 927      BINDING AFFINITY PREDICTED BY RF-SCORE:    0.00 PKD
ROOT
HETATM    1 NA   UNL     1      -7.503   8.186  69.333  1.00  0.00    -0.071 Na 
HETATM    2 NA   UNL     2     -11.439   9.962  72.039  1.00  0.00    -0.338 Na 
HETATM    3  O   UNL     3      -8.214   8.811  72.646  1.00  0.00    -0.403 OA 
HETATM    4  C   UNL     3      -8.554   7.535  72.100  1.00  0.00    -0.114 C  
HETATM    5  H   UNL     3      -7.390   8.731  73.113  1.00  0.00     0.000 HD 
ENDROOT
BRANCH   4   6
HETATM    6  C   UNL     3      -9.882   7.664  71.347  1.00  0.00    -0.174 C  
HETATM    7  O   UNL     3     -11.001   7.810  72.279  1.00  0.00    -0.249 OA 
HETATM    8  H   UNL     3     -11.825   7.890  71.812  1.00  0.00     0.000 HD 
BRANCH   6   9
HETATM    9  C   UNL     3      -9.895   8.826  70.405  1.00  0.00    -0.182 C  
BRANCH   9  10
HETATM   10  O   UNL     3     -11.142   8.878  69.731  1.00  0.00    -0.200 OA 
HETATM   11  P   UNL     3     -11.252  10.361  68.846  1.00  0.00    -0.179 P  
HETATM   12  O   UNL     3     -11.350  11.688  68.054  1.00  0.00    -0.249 OA 
HETATM   13  O   UNL     3     -11.083  11.030  70.229  1.00  0.00    -0.208 OA 
HETATM   14  O   UNL     3     -10.034   9.792  68.065  1.00  0.00    -0.148 OA 
ENDBRANCH   9  10
ENDBRANCH   6   9
ENDBRANCH   4   6
TORSDOF 3
ENDMDL
MODEL      294
REMARK 921   NORMALIZED FREE ENERGY PREDICTED BY IDOCK:   -1.73 KCAL/MOL
REMARK 922        TOTAL FREE ENERGY PREDICTED BY IDOCK:   -2.80 KCAL/MOL
REMARK 923 INTER-LIGAND FREE ENERGY PREDICTED BY IDOCK:   -2.33 KCAL/MOL
REMARK 924 INTRA-LIGAND FREE ENERGY PREDICTED BY IDOCK:   -0.48 KCAL/MOL
REMARK 927      BINDING AFFINITY PREDICTED BY RF-SCORE:    0.00 PKD
ROOT
HETATM    1 NA   UNL     1     -11.521  11.466  64.907  1.00  0.00    -0.294 Na 
HETATM    2 NA   UNL     2      -9.255  11.895  69.451  1.00  0.00    -0.373 Na 
HETATM    3  O   UNL     3     -10.525  14.013  67.002  1.00  0.00    -0.271 OA 
HETATM    4  C   UNL     3      -9.587  13.498  66.054  1.00  0.00    -0.161 C  
HETATM    5  H   UNL     3     -10.905  14.810  66.650  1.00  0.00     0.000 HD 
ENDROOT
BRANCH   4   6
HETATM    6  C   UNL     3      -8.974  12.214  66.622  1.00  0.00    -0.198 C  
HETATM    7  O   UNL     3      -8.596  11.294  65.549  1.00  0.00    -0.351 OA 
HETATM    8  H   UNL     3      -8.215  10.498  65.901  1.00  0.00     0.000 HD 
BRANCH   6   9
HETATM    9  C   UNL     3      -7.767  12.482  67.465  1.00  0.00    -0.165 C  
BRANCH   9  10
HETATM   10  O   UNL     3      -7.327  13.814  67.256  1.00  0.00    -0.145 OA 
HETATM   11  P   UNL     3      -6.952  14.539  68.782  1.00  0.00    -0.120 P  
HETATM   12  O   UNL     3      -6.616  15.186  70.147  1.00  0.00    -0.161 OA 
HETATM   13  O   UNL     3      -8.431  14.247  69.119  1.00  0.00    -0.017 OA 
HETATM   14  O   UNL     3      -5.868  13.426  68.855  1.00  0.00    -0.071 OA 
ENDBRANCH   9  10
ENDBRANCH   6   9
ENDBRANCH   4   6
TORSDOF 3
ENDMDL
MODEL      295
REMARK 921   NORMALIZED FREE ENERGY PREDICTED BY IDOCK:   -1.71 KCAL/MOL
REMARK 922        TOTAL FREE ENERGY PREDICTED BY IDOCK:   -2.78 KCAL/MOL
REMARK 923 INTER-LIGAND FREE ENERGY PREDICTED BY IDOCK:   -2.39 KCAL/MOL
REMARK 924 INTRA-LIGAND FREE ENERGY PREDICTED BY IDOCK:   -0.39 KCAL/MOL
REMARK 927      BINDING AFFINITY PREDICTED BY RF-SCORE:    0.00 PKD
ROOT
HETATM    1 NA   UNL     1      -8.950   2.502  71.860  1.00  0.00    -0.067 Na 
HETATM    2 NA   UNL     2      -8.717   5.833  68.010  1.00  0.00    -0.105 Na 
HETATM    3  O   UNL     3      -6.691   4.799  70.641  1.00  0.00    -0.034 OA 
HETATM    4  C   UNL     3      -7.672   5.235  71.584  1.00  0.00    -0.108 C  
HETATM    5  H   UNL     3      -5.876   4.640  71.104  1.00  0.00     0.000 HD 
ENDROOT
BRANCH   4   6
HETATM    6  C   UNL     3      -8.986   5.492  70.838  1.00  0.00    -0.139 C  
HETATM    7  O   UNL     3      -9.867   4.327  70.913  1.00  0.00    -0.188 OA 
HETATM    8  H   UNL     3     -10.682   4.486  70.450  1.00  0.00     0.000 HD 
BRANCH   6   9
HETATM    9  C   UNL     3      -9.723   6.680  71.372  1.00  0.00    -0.172 C  
BRANCH   9  10
HETATM   10  O   UNL     3     -11.064   6.316  71.661  1.00  0.00    -0.253 OA 
HETATM   11  P   UNL     3     -11.986   7.743  71.987  1.00  0.00    -0.315 P  
HETATM   12  O   UNL     3     -12.810   9.021  72.279  1.00  0.00    -0.385 OA 
HETATM   13  O   UNL     3     -10.970   7.962  73.132  1.00  0.00    -0.383 OA 
HETATM   14  O   UNL     3     -11.639   8.103  70.515  1.00  0.00    -0.238 OA 
ENDBRANCH   9  10
ENDBRANCH   6   9
ENDBRANCH   4   6
TORSDOF 3
ENDMDL
MODEL      296
REMARK 921   NORMALIZED FREE ENERGY PREDICTED BY IDOCK:   -1.69 KCAL/MOL
REMARK 922        TOTAL FREE ENERGY PREDICTED BY IDOCK:   -2.75 KCAL/MOL
REMARK 923 INTER-LIGAND FREE ENERGY PREDICTED BY IDOCK:   -2.28 KCAL/MOL
REMARK 924 INTRA-LIGAND FREE ENERGY PREDICTED BY IDOCK:   -0.48 KCAL/MOL
REMARK 927      BINDING AFFINITY PREDICTED BY RF-SCORE:    0.00 PKD
ROOT
HETATM    1 NA   UNL     1      -7.799   2.024  64.597  1.00  0.00    -0.059 Na 
HETATM    2 NA   UNL     2     -11.963   4.934  65.005  1.00  0.00    -0.696 Na 
HETATM    3  O   UNL     3      -8.848   5.106  63.468  1.00  0.00    -0.294 OA 
HETATM    4  C   UNL     3      -8.203   5.024  64.741  1.00  0.00    -0.130 C  
HETATM    5  H   UNL     3      -8.209   5.382  62.822  1.00  0.00     0.000 HD 
ENDROOT
BRANCH   4   6
HETATM    6  C   UNL     3      -9.233   4.579  65.783  1.00  0.00    -0.146 C  
HETATM    7  O   UNL     3      -8.771   3.392  66.504  1.00  0.00    -0.114 OA 
HETATM    8  H   UNL     3      -9.410   3.115  67.150  1.00  0.00     0.000 HD 
BRANCH   6   9
HETATM    9  C   UNL     3      -9.537   5.651  66.782  1.00  0.00    -0.146 C  
BRANCH   9  10
HETATM   10  O   UNL     3      -8.577   5.614  67.826  1.00  0.00    -0.103 OA 
HETATM   11  P   UNL     3      -9.391   5.646  69.352  1.00  0.00    -0.134 P  
HETATM   12  O   UNL     3     -10.120   5.675  70.718  1.00  0.00    -0.188 OA 
HETATM   13  O   UNL     3      -9.956   6.997  68.858  1.00  0.00    -0.154 OA 
HETATM   14  O   UNL     3      -9.988   4.292  68.874  1.00  0.00    -0.113 OA 
ENDBRANCH   9  10
ENDBRANCH   6   9
ENDBRANCH   4   6
TORSDOF 3
ENDMDL
MODEL      297
REMARK 921   NORMALIZED FREE ENERGY PREDICTED BY IDOCK:   -1.67 KCAL/MOL
REMARK 922        TOTAL FREE ENERGY PREDICTED BY IDOCK:   -2.74 KCAL/MOL
REMARK 923 INTER-LIGAND FREE ENERGY PREDICTED BY IDOCK:   -2.57 KCAL/MOL
REMARK 924 INTRA-LIGAND FREE ENERGY PREDICTED BY IDOCK:   -0.17 KCAL/MOL
REMARK 927      BINDING AFFINITY PREDICTED BY RF-SCORE:    0.00 PKD
ROOT
HETATM    1 NA   UNL     1      -8.924   5.527  66.807  1.00  0.00    -0.114 Na 
HETATM    2 NA   UNL     2     -11.204   8.739  70.040  1.00  0.00    -0.237 Na 
HETATM    3  O   UNL     3      -9.095   5.980  70.218  1.00  0.00    -0.148 OA 
HETATM    4  C   UNL     3     -10.085   5.167  69.583  1.00  0.00    -0.261 C  
HETATM    5  H   UNL     3      -8.433   5.411  70.594  1.00  0.00     0.000 HD 
ENDROOT
BRANCH   4   6
HETATM    6  C   UNL     3     -11.153   6.083  68.977  1.00  0.00    -0.307 C  
HETATM    7  O   UNL     3     -12.009   6.651  70.019  1.00  0.00    -0.630 OA 
HETATM    8  H   UNL     3     -12.672   7.219  69.643  1.00  0.00     0.000 HD 
BRANCH   6   9
HETATM    9  C   UNL     3     -10.561   7.207  68.186  1.00  0.00    -0.192 C  
BRANCH   9  10
HETATM   10  O   UNL     3      -9.145   7.151  68.269  1.00  0.00    -0.135 OA 
HETATM   11  P   UNL     3      -8.472   8.546  67.497  1.00  0.00    -0.129 P  
HETATM   12  O   UNL     3      -7.872   9.795  66.806  1.00  0.00    -0.101 OA 
HETATM   13  O   UNL     3      -9.203   8.023  66.240  1.00  0.00    -0.178 OA 
HETATM   14  O   UNL     3      -9.229   9.323  68.611  1.00  0.00    -0.135 OA 
ENDBRANCH   9  10
ENDBRANCH   6   9
ENDBRANCH   4   6
TORSDOF 3
ENDMDL
MODEL      298
REMARK 921   NORMALIZED FREE ENERGY PREDICTED BY IDOCK:   -1.66 KCAL/MOL
REMARK 922        TOTAL FREE ENERGY PREDICTED BY IDOCK:   -2.72 KCAL/MOL
REMARK 923 INTER-LIGAND FREE ENERGY PREDICTED BY IDOCK:   -2.16 KCAL/MOL
REMARK 924 INTRA-LIGAND FREE ENERGY PREDICTED BY IDOCK:   -0.56 KCAL/MOL
REMARK 927      BINDING AFFINITY PREDICTED BY RF-SCORE:    0.00 PKD
ROOT
HETATM    1 NA   UNL     1      -8.507   2.043  70.054  1.00  0.00    -0.044 Na 
HETATM    2 NA   UNL     2     -11.267   3.886  66.187  1.00  0.00    -0.312 Na 
HETATM    3  O   UNL     3      -7.907   3.410  66.949  1.00  0.00    -0.079 OA 
HETATM    4  C   UNL     3      -8.026   4.285  68.073  1.00  0.00    -0.086 C  
HETATM    5  H   UNL     3      -6.984   3.269  66.772  1.00  0.00     0.000 HD 
ENDROOT
BRANCH   4   6
HETATM    6  C   UNL     3      -9.514   4.513  68.359  1.00  0.00    -0.151 C  
HETATM    7  O   UNL     3      -9.882   3.984  69.672  1.00  0.00    -0.210 OA 
HETATM    8  H   UNL     3     -10.805   4.125  69.850  1.00  0.00     0.000 HD 
BRANCH   6   9
HETATM    9  C   UNL     3      -9.890   5.961  68.309  1.00  0.00    -0.137 C  
BRANCH   9  10
HETATM   10  O   UNL     3      -9.493   6.597  69.514  1.00  0.00    -0.148 OA 
HETATM   11  P   UNL     3     -10.618   7.855  69.893  1.00  0.00    -0.220 P  
HETATM   12  O   UNL     3     -11.626   8.981  70.231  1.00  0.00    -0.195 OA 
HETATM   13  O   UNL     3     -10.201   8.441  68.525  1.00  0.00    -0.194 OA 
HETATM   14  O   UNL     3     -11.637   6.685  69.998  1.00  0.00    -0.380 OA 
ENDBRANCH   9  10
ENDBRANCH   6   9
ENDBRANCH   4   6
TORSDOF 3
ENDMDL
MODEL      299
REMARK 921   NORMALIZED FREE ENERGY PREDICTED BY IDOCK:   -1.65 KCAL/MOL
REMARK 922        TOTAL FREE ENERGY PREDICTED BY IDOCK:   -2.71 KCAL/MOL
REMARK 923 INTER-LIGAND FREE ENERGY PREDICTED BY IDOCK:   -2.23 KCAL/MOL
REMARK 924 INTRA-LIGAND FREE ENERGY PREDICTED BY IDOCK:   -0.48 KCAL/MOL
REMARK 927      BINDING AFFINITY PREDICTED BY RF-SCORE:    0.00 PKD
ROOT
HETATM    1 NA   UNL     1      -6.791   4.558  69.050  1.00  0.00    -0.039 Na 
HETATM    2 NA   UNL     2      -7.939   7.716  72.880  1.00  0.00    -0.084 Na 
HETATM    3  O   UNL     3      -9.277   4.859  71.416  1.00  0.00    -0.138 OA 
HETATM    4  C   UNL     3      -9.424   5.551  70.174  1.00  0.00    -0.163 C  
HETATM    5  H   UNL     3      -9.780   4.054  71.375  1.00  0.00     0.000 HD 
ENDROOT
BRANCH   4   6
HETATM    6  C   UNL     3      -8.614   6.850  70.239  1.00  0.00    -0.140 C  
HETATM    7  O   UNL     3      -7.633   6.911  69.155  1.00  0.00    -0.093 OA 
HETATM    8  H   UNL     3      -7.130   7.716  69.195  1.00  0.00     0.000 HD 
BRANCH   6   9
HETATM    9  C   UNL     3      -9.480   8.068  70.163  1.00  0.00    -0.160 C  
BRANCH   9  10
HETATM   10  O   UNL     3     -10.844   7.680  70.130  1.00  0.00    -0.244 OA 
HETATM   11  P   UNL     3     -11.778   8.793  71.070  1.00  0.00    -0.235 P  
HETATM   12  O   UNL     3     -12.613   9.790  71.910  1.00  0.00    -0.385 OA 
HETATM   13  O   UNL     3     -10.866   8.348  72.236  1.00  0.00    -0.308 OA 
HETATM   14  O   UNL     3     -11.298   9.829  70.014  1.00  0.00    -0.242 OA 
ENDBRANCH   9  10
ENDBRANCH   6   9
ENDBRANCH   4   6
TORSDOF 3
ENDMDL
MODEL      300
REMARK 921   NORMALIZED FREE ENERGY PREDICTED BY IDOCK:   -1.65 KCAL/MOL
REMARK 922        TOTAL FREE ENERGY PREDICTED BY IDOCK:   -2.70 KCAL/MOL
REMARK 923 INTER-LIGAND FREE ENERGY PREDICTED BY IDOCK:   -2.26 KCAL/MOL
REMARK 924 INTRA-LIGAND FREE ENERGY PREDICTED BY IDOCK:   -0.44 KCAL/MOL
REMARK 927      BINDING AFFINITY PREDICTED BY RF-SCORE:    0.00 PKD
ROOT
HETATM    1 NA   UNL     1      -8.656   9.654  68.824  1.00  0.00    -0.106 Na 
HETATM    2 NA   UNL     2     -13.580  10.420  69.889  1.00  0.00    -0.483 Na 
HETATM    3  O   UNL     3     -11.512  10.502  67.094  1.00  0.00    -0.311 OA 
HETATM    4  C   UNL     3     -10.733  11.544  67.686  1.00  0.00    -0.211 C  
HETATM    5  H   UNL     3     -11.289  10.445  66.172  1.00  0.00     0.000 HD 
ENDROOT
BRANCH   4   6
HETATM    6  C   UNL     3     -11.092  11.637  69.173  1.00  0.00    -0.245 C  
HETATM    7  O   UNL     3      -9.996  11.147  70.008  1.00  0.00    -0.057 OA 
HETATM    8  H   UNL     3     -10.218  11.204  70.931  1.00  0.00     0.000 HD 
BRANCH   6   9
HETATM    9  C   UNL     3     -11.420  13.035  69.595  1.00  0.00    -0.183 C  
BRANCH   9  10
HETATM   10  O   UNL     3     -12.825  13.168  69.746  1.00  0.00     0.227 OA 
HETATM   11  P   UNL     3     -13.161  14.122  71.150  1.00  0.00    -0.262 P  
HETATM   12  O   UNL     3     -13.460  14.976  72.406  1.00  0.00    -0.359 OA 
HETATM   13  O   UNL     3     -12.394  13.015  71.908  1.00  0.00     0.075 OA 
HETATM   14  O   UNL     3     -12.412  15.237  70.367  1.00  0.00    -0.349 OA 
ENDBRANCH   9  10
ENDBRANCH   6   9
ENDBRANCH   4   6
TORSDOF 3
ENDMDL
MODEL      301
REMARK 921   NORMALIZED FREE ENERGY PREDICTED BY IDOCK:   -1.64 KCAL/MOL
REMARK 922        TOTAL FREE ENERGY PREDICTED BY IDOCK:   -2.70 KCAL/MOL
REMARK 923 INTER-LIGAND FREE ENERGY PREDICTED BY IDOCK:   -2.47 KCAL/MOL
REMARK 924 INTRA-LIGAND FREE ENERGY PREDICTED BY IDOCK:   -0.23 KCAL/MOL
REMARK 927      BINDING AFFINITY PREDICTED BY RF-SCORE:    0.00 PKD
ROOT
HETATM    1 NA   UNL     1     -11.800   5.309  71.149  1.00  0.00    -0.046 Na 
HETATM    2 NA   UNL     2      -8.867   9.474  71.023  1.00  0.00    -0.160 Na 
HETATM    3  O   UNL     3     -10.657   7.662  73.391  1.00  0.00    -0.368 OA 
HETATM    4  C   UNL     3     -11.873   7.920  72.686  1.00  0.00    -0.297 C  
HETATM    5  H   UNL     3     -10.873   7.330  74.255  1.00  0.00     0.000 HD 
ENDROOT
BRANCH   4   6
HETATM    6  C   UNL     3     -11.527   8.454  71.293  1.00  0.00    -0.280 C  
HETATM    7  O   UNL     3     -10.591   9.575  71.379  1.00  0.00    -0.336 OA 
HETATM    8  H   UNL     3     -10.375   9.908  70.515  1.00  0.00     0.000 HD 
BRANCH   6   9
HETATM    9  C   UNL     3     -10.928   7.404  70.410  1.00  0.00    -0.251 C  
BRANCH   9  10
HETATM   10  O   UNL     3      -9.706   6.952  70.972  1.00  0.00    -0.174 OA 
HETATM   11  P   UNL     3      -8.780   6.145  69.753  1.00  0.00    -0.136 P  
HETATM   12  O   UNL     3      -7.953   5.424  68.661  1.00  0.00    -0.087 OA 
HETATM   13  O   UNL     3      -9.998   5.197  69.661  1.00  0.00    -0.199 OA 
HETATM   14  O   UNL     3      -8.784   7.539  69.063  1.00  0.00    -0.135 OA 
ENDBRANCH   9  10
ENDBRANCH   6   9
ENDBRANCH   4   6
TORSDOF 3
ENDMDL
MODEL      302
REMARK 921   NORMALIZED FREE ENERGY PREDICTED BY IDOCK:   -1.64 KCAL/MOL
REMARK 922        TOTAL FREE ENERGY PREDICTED BY IDOCK:   -2.70 KCAL/MOL
REMARK 923 INTER-LIGAND FREE ENERGY PREDICTED BY IDOCK:   -2.18 KCAL/MOL
REMARK 924 INTRA-LIGAND FREE ENERGY PREDICTED BY IDOCK:   -0.51 KCAL/MOL
REMARK 927      BINDING AFFINITY PREDICTED BY RF-SCORE:    0.00 PKD
ROOT
HETATM    1 NA   UNL     1     -11.552   5.878  70.718  1.00  0.00    -0.276 Na 
HETATM    2 NA   UNL     2      -7.473   7.191  73.476  1.00  0.00    -0.078 Na 
HETATM    3  O   UNL     3     -10.881   7.881  73.440  1.00  0.00    -0.271 OA 
HETATM    4  C   UNL     3     -10.766   8.441  72.131  1.00  0.00    -0.337 C  
HETATM    5  H   UNL     3     -11.725   8.127  73.802  1.00  0.00     0.000 HD 
ENDROOT
BRANCH   4   6
HETATM    6  C   UNL     3      -9.406   8.045  71.547  1.00  0.00    -0.153 C  
HETATM    7  O   UNL     3      -9.076   6.659  71.880  1.00  0.00    -0.144 OA 
HETATM    8  H   UNL     3      -8.233   6.413  71.519  1.00  0.00     0.000 HD 
BRANCH   6   9
HETATM    9  C   UNL     3      -9.355   8.201  70.060  1.00  0.00    -0.159 C  
BRANCH   9  10
HETATM   10  O   UNL     3      -8.584   9.345  69.728  1.00  0.00    -0.143 OA 
HETATM   11  P   UNL     3      -9.130   9.983  68.215  1.00  0.00    -0.125 P  
HETATM   12  O   UNL     3      -9.620  10.553  66.862  1.00  0.00    -0.169 OA 
HETATM   13  O   UNL     3      -8.747   8.594  67.657  1.00  0.00    -0.134 OA 
HETATM   14  O   UNL     3     -10.464  10.210  68.982  1.00  0.00    -0.194 OA 
ENDBRANCH   9  10
ENDBRANCH   6   9
ENDBRANCH   4   6
TORSDOF 3
ENDMDL
MODEL      303
REMARK 921   NORMALIZED FREE ENERGY PREDICTED BY IDOCK:   -1.62 KCAL/MOL
REMARK 922        TOTAL FREE ENERGY PREDICTED BY IDOCK:   -2.67 KCAL/MOL
REMARK 923 INTER-LIGAND FREE ENERGY PREDICTED BY IDOCK:   -2.33 KCAL/MOL
REMARK 924 INTRA-LIGAND FREE ENERGY PREDICTED BY IDOCK:   -0.34 KCAL/MOL
REMARK 927      BINDING AFFINITY PREDICTED BY RF-SCORE:    0.00 PKD
ROOT
HETATM    1 NA   UNL     1      -6.434   9.701  65.696  1.00  0.00    -0.060 Na 
HETATM    2 NA   UNL     2      -6.522  13.232  69.369  1.00  0.00    -0.079 Na 
HETATM    3  O   UNL     3      -7.537   9.932  68.952  1.00  0.00    -0.077 OA 
HETATM    4  C   UNL     3      -8.420  10.325  67.898  1.00  0.00    -0.118 C  
HETATM    5  H   UNL     3      -7.760   9.047  69.219  1.00  0.00     0.000 HD 
ENDROOT
BRANCH   4   6
HETATM    6  C   UNL     3      -8.062  11.750  67.467  1.00  0.00    -0.152 C  
HETATM    7  O   UNL     3      -8.037  11.867  66.009  1.00  0.00    -0.364 OA 
HETATM    8  H   UNL     3      -7.815  12.751  65.741  1.00  0.00     0.000 HD 
BRANCH   6   9
HETATM    9  C   UNL     3      -9.017  12.768  68.008  1.00  0.00    -0.196 C  
BRANCH   9  10
HETATM   10  O   UNL     3      -9.966  13.106  67.009  1.00  0.00    -0.235 OA 
HETATM   11  P   UNL     3     -10.661  14.647  67.378  1.00  0.00    -0.293 P  
HETATM   12  O   UNL     3     -11.282  16.026  67.710  1.00  0.00    -0.315 OA 
HETATM   13  O   UNL     3     -11.115  13.965  68.689  1.00  0.00    -0.244 OA 
HETATM   14  O   UNL     3      -9.206  15.162  67.193  1.00  0.00    -0.198 OA 
ENDBRANCH   9  10
ENDBRANCH   6   9
ENDBRANCH   4   6
TORSDOF 3
ENDMDL
MODEL      304
REMARK 921   NORMALIZED FREE ENERGY PREDICTED BY IDOCK:   -1.61 KCAL/MOL
REMARK 922        TOTAL FREE ENERGY PREDICTED BY IDOCK:   -2.67 KCAL/MOL
REMARK 923 INTER-LIGAND FREE ENERGY PREDICTED BY IDOCK:   -2.15 KCAL/MOL
REMARK 924 INTRA-LIGAND FREE ENERGY PREDICTED BY IDOCK:   -0.52 KCAL/MOL
REMARK 927      BINDING AFFINITY PREDICTED BY RF-SCORE:    0.00 PKD
ROOT
HETATM    1 NA   UNL     1      -6.675   4.625  67.880  1.00  0.00    -0.041 Na 
HETATM    2 NA   UNL     2      -9.705   7.529  64.989  1.00  0.00    -0.284 Na 
HETATM    3  O   UNL     3      -7.077   7.983  67.222  1.00  0.00    -0.079 OA 
HETATM    4  C   UNL     3      -7.850   7.391  68.269  1.00  0.00    -0.122 C  
HETATM    5  H   UNL     3      -6.328   8.420  67.609  1.00  0.00     0.000 HD 
ENDROOT
BRANCH   4   6
HETATM    6  C   UNL     3      -9.059   6.687  67.646  1.00  0.00    -0.112 C  
HETATM    7  O   UNL     3      -8.782   5.268  67.424  1.00  0.00    -0.109 OA 
HETATM    8  H   UNL     3      -9.532   4.830  67.037  1.00  0.00     0.000 HD 
BRANCH   6   9
HETATM    9  C   UNL     3     -10.287   6.803  68.493  1.00  0.00    -0.190 C  
BRANCH   9  10
HETATM   10  O   UNL     3      -9.931   7.269  69.785  1.00  0.00    -0.179 OA 
HETATM   11  P   UNL     3     -10.748   6.321  70.980  1.00  0.00    -0.285 P  
HETATM   12  O   UNL     3     -11.480   5.473  72.048  1.00  0.00    -0.186 OA 
HETATM   13  O   UNL     3     -12.036   6.830  70.293  1.00  0.00    -0.352 OA 
HETATM   14  O   UNL     3      -9.916   5.152  70.381  1.00  0.00    -0.207 OA 
ENDBRANCH   9  10
ENDBRANCH   6   9
ENDBRANCH   4   6
TORSDOF 3
ENDMDL
MODEL      305
REMARK 921   NORMALIZED FREE ENERGY PREDICTED BY IDOCK:   -1.59 KCAL/MOL
REMARK 922        TOTAL FREE ENERGY PREDICTED BY IDOCK:   -2.63 KCAL/MOL
REMARK 923 INTER-LIGAND FREE ENERGY PREDICTED BY IDOCK:   -2.05 KCAL/MOL
REMARK 924 INTRA-LIGAND FREE ENERGY PREDICTED BY IDOCK:   -0.58 KCAL/MOL
REMARK 927      BINDING AFFINITY PREDICTED BY RF-SCORE:    0.00 PKD
ROOT
HETATM    1 NA   UNL     1     -10.174   3.977  69.484  1.00  0.00    -0.199 Na 
HETATM    2 NA   UNL     2      -8.381   8.746  69.566  1.00  0.00    -0.098 Na 
HETATM    3  O   UNL     3     -11.447   7.161  69.141  1.00  0.00    -0.480 OA 
HETATM    4  C   UNL     3     -10.952   6.490  67.980  1.00  0.00    -0.282 C  
HETATM    5  H   UNL     3     -12.392   7.071  69.163  1.00  0.00     0.000 HD 
ENDROOT
BRANCH   4   6
HETATM    6  C   UNL     3      -9.427   6.634  67.944  1.00  0.00    -0.117 C  
HETATM    7  O   UNL     3      -8.843   6.352  69.256  1.00  0.00    -0.127 OA 
HETATM    8  H   UNL     3      -7.898   6.442  69.234  1.00  0.00     0.000 HD 
BRANCH   6   9
HETATM    9  C   UNL     3      -8.791   5.729  66.937  1.00  0.00    -0.114 C  
BRANCH   9  10
HETATM   10  O   UNL     3      -9.779   5.247  66.040  1.00  0.00    -0.158 OA 
HETATM   11  P   UNL     3      -9.012   4.362  64.767  1.00  0.00    -0.153 P  
HETATM   12  O   UNL     3      -8.324   3.571  63.627  1.00  0.00    -0.089 OA 
HETATM   13  O   UNL     3      -8.279   5.692  64.481  1.00  0.00    -0.125 OA 
HETATM   14  O   UNL     3      -8.562   3.418  65.918  1.00  0.00    -0.110 OA 
ENDBRANCH   9  10
ENDBRANCH   6   9
ENDBRANCH   4   6
TORSDOF 3
ENDMDL
MODEL      306
REMARK 921   NORMALIZED FREE ENERGY PREDICTED BY IDOCK:   -1.57 KCAL/MOL
REMARK 922        TOTAL FREE ENERGY PREDICTED BY IDOCK:   -2.61 KCAL/MOL
REMARK 923 INTER-LIGAND FREE ENERGY PREDICTED BY IDOCK:   -2.11 KCAL/MOL
REMARK 924 INTRA-LIGAND FREE ENERGY PREDICTED BY IDOCK:   -0.50 KCAL/MOL
REMARK 927      BINDING AFFINITY PREDICTED BY RF-SCORE:    0.00 PKD
ROOT
HETATM    1 NA   UNL     1      -5.315   6.353  72.218  1.00  0.00    -0.024 Na 
HETATM    2 NA   UNL     2      -8.283   7.403  68.211  1.00  0.00    -0.108 Na 
HETATM    3  O   UNL     3      -5.640   8.892  69.913  1.00  0.00    -0.028 OA 
HETATM    4  C   UNL     3      -6.424   8.945  71.107  1.00  0.00    -0.066 C  
HETATM    5  H   UNL     3      -4.880   9.450  70.025  1.00  0.00     0.000 HD 
ENDROOT
BRANCH   4   6
HETATM    6  C   UNL     3      -7.651   8.045  70.926  1.00  0.00    -0.078 C  
HETATM    7  O   UNL     3      -7.826   7.159  72.077  1.00  0.00    -0.091 OA 
HETATM    8  H   UNL     3      -8.587   6.601  71.966  1.00  0.00     0.000 HD 
BRANCH   6   9
HETATM    9  C   UNL     3      -8.911   8.829  70.736  1.00  0.00    -0.192 C  
BRANCH   9  10
HETATM   10  O   UNL     3      -9.562   8.994  71.986  1.00  0.00    -0.306 OA 
HETATM   11  P   UNL     3     -11.261   8.739  71.784  1.00  0.00    -0.373 P  
HETATM   12  O   UNL     3     -12.782   8.510  71.602  1.00  0.00    -0.312 OA 
HETATM   13  O   UNL     3     -11.172   9.917  70.788  1.00  0.00    -0.303 OA 
HETATM   14  O   UNL     3     -10.829   7.301  71.381  1.00  0.00    -0.229 OA 
ENDBRANCH   9  10
ENDBRANCH   6   9
ENDBRANCH   4   6
TORSDOF 3
ENDMDL
MODEL      307
REMARK 921   NORMALIZED FREE ENERGY PREDICTED BY IDOCK:   -1.56 KCAL/MOL
REMARK 922        TOTAL FREE ENERGY PREDICTED BY IDOCK:   -2.60 KCAL/MOL
REMARK 923 INTER-LIGAND FREE ENERGY PREDICTED BY IDOCK:   -2.23 KCAL/MOL
REMARK 924 INTRA-LIGAND FREE ENERGY PREDICTED BY IDOCK:   -0.38 KCAL/MOL
REMARK 927      BINDING AFFINITY PREDICTED BY RF-SCORE:    0.00 PKD
ROOT
HETATM    1 NA   UNL     1      -7.435   2.729  73.090  1.00  0.00    -0.035 Na 
HETATM    2 NA   UNL     2     -12.322   4.173  73.082  1.00  0.00    -0.201 Na 
HETATM    3  O   UNL     3      -9.870   3.390  70.743  1.00  0.00    -0.160 OA 
HETATM    4  C   UNL     3      -9.059   4.469  71.215  1.00  0.00    -0.130 C  
HETATM    5  H   UNL     3      -9.522   3.092  69.911  1.00  0.00     0.000 HD 
ENDROOT
BRANCH   4   6
HETATM    6  C   UNL     3      -9.619   4.950  72.557  1.00  0.00    -0.144 C  
HETATM    7  O   UNL     3      -8.552   5.108  73.544  1.00  0.00    -0.112 OA 
HETATM    8  H   UNL     3      -8.898   5.406  74.377  1.00  0.00     0.000 HD 
BRANCH   6   9
HETATM    9  C   UNL     3     -10.351   6.250  72.438  1.00  0.00    -0.191 C  
BRANCH   9  10
HETATM   10  O   UNL     3      -9.422   7.323  72.468  1.00  0.00    -0.143 OA 
HETATM   11  P   UNL     3     -10.069   8.664  71.587  1.00  0.00    -0.346 P  
HETATM   12  O   UNL     3     -10.649   9.863  70.799  1.00  0.00    -0.304 OA 
HETATM   13  O   UNL     3     -10.091   7.682  70.394  1.00  0.00    -0.189 OA 
HETATM   14  O   UNL     3     -11.174   8.636  72.681  1.00  0.00    -0.271 OA 
ENDBRANCH   9  10
ENDBRANCH   6   9
ENDBRANCH   4   6
TORSDOF 3
ENDMDL
MODEL      308
REMARK 921   NORMALIZED FREE ENERGY PREDICTED BY IDOCK:   -1.55 KCAL/MOL
REMARK 922        TOTAL FREE ENERGY PREDICTED BY IDOCK:   -2.59 KCAL/MOL
REMARK 923 INTER-LIGAND FREE ENERGY PREDICTED BY IDOCK:   -2.41 KCAL/MOL
REMARK 924 INTRA-LIGAND FREE ENERGY PREDICTED BY IDOCK:   -0.18 KCAL/MOL
REMARK 927      BINDING AFFINITY PREDICTED BY RF-SCORE:    0.00 PKD
ROOT
HETATM    1 NA   UNL     1      -6.740   9.692  65.254  1.00  0.00    -0.069 Na 
HETATM    2 NA   UNL     2     -10.740   8.986  68.332  1.00  0.00    -0.194 Na 
HETATM    3  O   UNL     3      -7.776   7.343  67.551  1.00  0.00    -0.106 OA 
HETATM    4  C   UNL     3      -8.196   7.205  66.192  1.00  0.00    -0.128 C  
HETATM    5  H   UNL     3      -7.032   6.769  67.697  1.00  0.00     0.000 HD 
ENDROOT
BRANCH   4   6
HETATM    6  C   UNL     3      -9.396   8.129  65.956  1.00  0.00    -0.117 C  
HETATM    7  O   UNL     3     -10.596   7.607  66.609  1.00  0.00    -0.483 OA 
HETATM    8  H   UNL     3     -11.340   8.179  66.463  1.00  0.00     0.000 HD 
BRANCH   6   9
HETATM    9  C   UNL     3      -9.152   9.519  66.452  1.00  0.00    -0.159 C  
BRANCH   9  10
HETATM   10  O   UNL     3     -10.383  10.224  66.515  1.00  0.00    -0.232 OA 
HETATM   11  P   UNL     3     -10.086  11.914  66.294  1.00  0.00    -0.236 P  
HETATM   12  O   UNL     3      -9.819  13.426  66.097  1.00  0.00    -0.284 OA 
HETATM   13  O   UNL     3      -9.200  11.774  67.553  1.00  0.00    -0.168 OA 
HETATM   14  O   UNL     3      -9.579  11.473  64.892  1.00  0.00    -0.233 OA 
ENDBRANCH   9  10
ENDBRANCH   6   9
ENDBRANCH   4   6
TORSDOF 3
ENDMDL
MODEL      309
REMARK 921   NORMALIZED FREE ENERGY PREDICTED BY IDOCK:   -1.54 KCAL/MOL
REMARK 922        TOTAL FREE ENERGY PREDICTED BY IDOCK:   -2.57 KCAL/MOL
REMARK 923 INTER-LIGAND FREE ENERGY PREDICTED BY IDOCK:   -2.12 KCAL/MOL
REMARK 924 INTRA-LIGAND FREE ENERGY PREDICTED BY IDOCK:   -0.46 KCAL/MOL
REMARK 927      BINDING AFFINITY PREDICTED BY RF-SCORE:    0.00 PKD
ROOT
HETATM    1 NA   UNL     1      -7.423   8.811  66.780  1.00  0.00    -0.076 Na 
HETATM    2 NA   UNL     2     -11.849   8.474  69.284  1.00  0.00    -0.430 Na 
HETATM    3  O   UNL     3      -9.058  10.549  69.265  1.00  0.00    -0.243 OA 
HETATM    4  C   UNL     3      -8.223   9.448  69.633  1.00  0.00    -0.136 C  
HETATM    5  H   UNL     3      -8.570  11.355  69.390  1.00  0.00     0.000 HD 
ENDROOT
BRANCH   4   6
HETATM    6  C   UNL     3      -9.010   8.150  69.432  1.00  0.00    -0.147 C  
HETATM    7  O   UNL     3      -8.478   7.382  68.306  1.00  0.00    -0.124 OA 
HETATM    8  H   UNL     3      -8.966   6.576  68.181  1.00  0.00     0.000 HD 
BRANCH   6   9
HETATM    9  C   UNL     3      -8.996   7.279  70.649  1.00  0.00    -0.156 C  
BRANCH   9  10
HETATM   10  O   UNL     3      -9.675   7.933  71.709  1.00  0.00    -0.159 OA 
HETATM   11  P   UNL     3      -9.657   6.919  73.111  1.00  0.00    -0.188 P  
HETATM   12  O   UNL     3      -9.640   6.010  74.365  1.00  0.00    -0.165 OA 
HETATM   13  O   UNL     3     -10.402   5.908  72.210  1.00  0.00    -0.190 OA 
HETATM   14  O   UNL     3      -8.116   7.104  73.020  1.00  0.00    -0.103 OA 
ENDBRANCH   9  10
ENDBRANCH   6   9
ENDBRANCH   4   6
TORSDOF 3
ENDMDL
MODEL      310
REMARK 921   NORMALIZED FREE ENERGY PREDICTED BY IDOCK:   -1.53 KCAL/MOL
REMARK 922        TOTAL FREE ENERGY PREDICTED BY IDOCK:   -2.57 KCAL/MOL
REMARK 923 INTER-LIGAND FREE ENERGY PREDICTED BY IDOCK:   -2.01 KCAL/MOL
REMARK 924 INTRA-LIGAND FREE ENERGY PREDICTED BY IDOCK:   -0.57 KCAL/MOL
REMARK 927      BINDING AFFINITY PREDICTED BY RF-SCORE:    0.00 PKD
ROOT
HETATM    1 NA   UNL     1     -10.809   8.937  70.811  1.00  0.00    -0.197 Na 
HETATM    2 NA   UNL     2      -5.983   7.302  70.855  1.00  0.00    -0.030 Na 
HETATM    3  O   UNL     3      -7.670  10.324  70.508  1.00  0.00    -0.438 OA 
HETATM    4  C   UNL     3      -8.322   9.838  69.332  1.00  0.00    -0.152 C  
HETATM    5  H   UNL     3      -7.791  11.265  70.554  1.00  0.00     0.000 HD 
ENDROOT
BRANCH   4   6
HETATM    6  C   UNL     3      -8.127   8.320  69.257  1.00  0.00    -0.116 C  
HETATM    7  O   UNL     3      -8.966   7.634  70.240  1.00  0.00    -0.145 OA 
HETATM    8  H   UNL     3      -8.845   6.693  70.194  1.00  0.00     0.000 HD 
BRANCH   6   9
HETATM    9  C   UNL     3      -8.440   7.770  67.901  1.00  0.00    -0.122 C  
BRANCH   9  10
HETATM   10  O   UNL     3      -8.208   6.370  67.891  1.00  0.00    -0.114 OA 
HETATM   11  P   UNL     3      -9.331   5.613  66.815  1.00  0.00    -0.147 P  
HETATM   12  O   UNL     3     -10.336   4.936  65.851  1.00  0.00    -0.245 OA 
HETATM   13  O   UNL     3     -10.407   6.221  67.743  1.00  0.00    -0.151 OA 
HETATM   14  O   UNL     3      -8.615   6.469  65.732  1.00  0.00    -0.148 OA 
ENDBRANCH   9  10
ENDBRANCH   6   9
ENDBRANCH   4   6
TORSDOF 3
ENDMDL
MODEL      311
REMARK 921   NORMALIZED FREE ENERGY PREDICTED BY IDOCK:   -1.51 KCAL/MOL
REMARK 922        TOTAL FREE ENERGY PREDICTED BY IDOCK:   -2.54 KCAL/MOL
REMARK 923 INTER-LIGAND FREE ENERGY PREDICTED BY IDOCK:   -1.96 KCAL/MOL
REMARK 924 INTRA-LIGAND FREE ENERGY PREDICTED BY IDOCK:   -0.58 KCAL/MOL
REMARK 927      BINDING AFFINITY PREDICTED BY RF-SCORE:    0.00 PKD
ROOT
HETATM    1 NA   UNL     1      -7.313   5.378  66.666  1.00  0.00    -0.070 Na 
HETATM    2 NA   UNL     2      -5.768   9.099  69.787  1.00  0.00    -0.031 Na 
HETATM    3  O   UNL     3      -5.527   5.634  69.601  1.00  0.00    -0.004 OA 
HETATM    4  C   UNL     3      -6.950   5.520  69.671  1.00  0.00    -0.062 C  
HETATM    5  H   UNL     3      -5.146   4.777  69.755  1.00  0.00     0.000 HD 
ENDROOT
BRANCH   4   6
HETATM    6  C   UNL     3      -7.564   6.901  69.424  1.00  0.00    -0.099 C  
HETATM    7  O   UNL     3      -7.046   7.492  68.190  1.00  0.00    -0.079 OA 
HETATM    8  H   UNL     3      -7.426   8.349  68.036  1.00  0.00     0.000 HD 
BRANCH   6   9
HETATM    9  C   UNL     3      -9.057   6.856  69.337  1.00  0.00    -0.141 C  
BRANCH   9  10
HETATM   10  O   UNL     3      -9.560   5.924  70.281  1.00  0.00    -0.158 OA 
HETATM   11  P   UNL     3     -11.146   6.409  70.775  1.00  0.00    -0.336 P  
HETATM   12  O   UNL     3     -12.565   6.843  71.215  1.00  0.00    -0.375 OA 
HETATM   13  O   UNL     3     -10.445   7.702  71.249  1.00  0.00    -0.206 OA 
HETATM   14  O   UNL     3     -11.501   6.180  69.278  1.00  0.00    -0.404 OA 
ENDBRANCH   9  10
ENDBRANCH   6   9
ENDBRANCH   4   6
TORSDOF 3
ENDMDL
MODEL      312
REMARK 921   NORMALIZED FREE ENERGY PREDICTED BY IDOCK:   -1.50 KCAL/MOL
REMARK 922        TOTAL FREE ENERGY PREDICTED BY IDOCK:   -2.54 KCAL/MOL
REMARK 923 INTER-LIGAND FREE ENERGY PREDICTED BY IDOCK:   -2.13 KCAL/MOL
REMARK 924 INTRA-LIGAND FREE ENERGY PREDICTED BY IDOCK:   -0.40 KCAL/MOL
REMARK 927      BINDING AFFINITY PREDICTED BY RF-SCORE:    0.00 PKD
ROOT
HETATM    1 NA   UNL     1      -5.732   7.687  71.946  1.00  0.00    -0.034 Na 
HETATM    2 NA   UNL     2      -9.166  10.892  69.969  1.00  0.00    -0.374 Na 
HETATM    3  O   UNL     3      -8.945   8.702  72.662  1.00  0.00    -0.351 OA 
HETATM    4  C   UNL     3      -8.755   7.603  71.768  1.00  0.00    -0.116 C  
HETATM    5  H   UNL     3      -9.145   8.359  73.526  1.00  0.00     0.000 HD 
ENDROOT
BRANCH   4   6
HETATM    6  C   UNL     3      -8.434   8.156  70.376  1.00  0.00    -0.129 C  
HETATM    7  O   UNL     3      -7.028   8.549  70.279  1.00  0.00    -0.038 OA 
HETATM    8  H   UNL     3      -6.829   8.892  69.416  1.00  0.00     0.000 HD 
BRANCH   6   9
HETATM    9  C   UNL     3      -8.727   7.171  69.288  1.00  0.00    -0.136 C  
BRANCH   9  10
HETATM   10  O   UNL     3     -10.052   6.685  69.431  1.00  0.00    -0.166 OA 
HETATM   11  P   UNL     3     -10.606   6.079  67.907  1.00  0.00    -0.266 P  
HETATM   12  O   UNL     3     -11.100   5.538  66.544  1.00  0.00    -0.179 OA 
HETATM   13  O   UNL     3     -10.350   7.519  67.407  1.00  0.00    -0.221 OA 
HETATM   14  O   UNL     3      -9.443   5.061  68.078  1.00  0.00    -0.120 OA 
ENDBRANCH   9  10
ENDBRANCH   6   9
ENDBRANCH   4   6
TORSDOF 3
ENDMDL
MODEL      313
REMARK 921   NORMALIZED FREE ENERGY PREDICTED BY IDOCK:   -1.50 KCAL/MOL
REMARK 922        TOTAL FREE ENERGY PREDICTED BY IDOCK:   -2.53 KCAL/MOL
REMARK 923 INTER-LIGAND FREE ENERGY PREDICTED BY IDOCK:   -1.82 KCAL/MOL
REMARK 924 INTRA-LIGAND FREE ENERGY PREDICTED BY IDOCK:   -0.71 KCAL/MOL
REMARK 927      BINDING AFFINITY PREDICTED BY RF-SCORE:    0.00 PKD
ROOT
HETATM    1 NA   UNL     1      -9.126   3.611  68.838  1.00  0.00    -0.081 Na 
HETATM    2 NA   UNL     2      -8.914   8.041  71.347  1.00  0.00    -0.117 Na 
HETATM    3  O   UNL     3     -11.162   6.352  69.300  1.00  0.00    -0.379 OA 
HETATM    4  C   UNL     3     -10.217   6.371  68.227  1.00  0.00    -0.171 C  
HETATM    5  H   UNL     3     -12.012   6.112  68.950  1.00  0.00     0.000 HD 
ENDROOT
BRANCH   4   6
HETATM    6  C   UNL     3      -8.846   6.758  68.791  1.00  0.00    -0.131 C  
HETATM    7  O   UNL     3      -7.800   5.871  68.282  1.00  0.00    -0.102 OA 
HETATM    8  H   UNL     3      -6.950   6.111  68.631  1.00  0.00     0.000 HD 
BRANCH   6   9
HETATM    9  C   UNL     3      -8.471   8.170  68.463  1.00  0.00    -0.127 C  
BRANCH   9  10
HETATM   10  O   UNL     3      -9.495   9.048  68.903  1.00  0.00    -0.149 OA 
HETATM   11  P   UNL     3      -8.945  10.682  68.764  1.00  0.00    -0.160 P  
HETATM   12  O   UNL     3      -8.452  12.145  68.640  1.00  0.00    -0.113 OA 
HETATM   13  O   UNL     3      -7.828  10.235  69.734  1.00  0.00    -0.162 OA 
HETATM   14  O   UNL     3      -8.880  10.356  67.245  1.00  0.00    -0.132 OA 
ENDBRANCH   9  10
ENDBRANCH   6   9
ENDBRANCH   4   6
TORSDOF 3
ENDMDL
MODEL      314
REMARK 921   NORMALIZED FREE ENERGY PREDICTED BY IDOCK:   -1.50 KCAL/MOL
REMARK 922        TOTAL FREE ENERGY PREDICTED BY IDOCK:   -2.53 KCAL/MOL
REMARK 923 INTER-LIGAND FREE ENERGY PREDICTED BY IDOCK:   -2.14 KCAL/MOL
REMARK 924 INTRA-LIGAND FREE ENERGY PREDICTED BY IDOCK:   -0.39 KCAL/MOL
REMARK 927      BINDING AFFINITY PREDICTED BY RF-SCORE:    0.00 PKD
ROOT
HETATM    1 NA   UNL     1      -7.753   7.280  71.411  1.00  0.00    -0.078 Na 
HETATM    2 NA   UNL     2     -11.287   8.957  68.146  1.00  0.00    -0.429 Na 
HETATM    3  O   UNL     3     -11.112   8.041  71.496  1.00  0.00    -0.239 OA 
HETATM    4  C   UNL     3     -10.717   6.718  71.125  1.00  0.00    -0.229 C  
HETATM    5  H   UNL     3     -11.361   8.037  72.413  1.00  0.00     0.000 HD 
ENDROOT
BRANCH   4   6
HETATM    6  C   UNL     3     -10.316   6.724  69.647  1.00  0.00    -0.198 C  
HETATM    7  O   UNL     3      -9.283   7.728  69.388  1.00  0.00    -0.149 OA 
HETATM    8  H   UNL     3      -9.034   7.732  68.471  1.00  0.00     0.000 HD 
BRANCH   6   9
HETATM    9  C   UNL     3      -9.809   5.393  69.187  1.00  0.00    -0.177 C  
BRANCH   9  10
HETATM   10  O   UNL     3      -8.679   5.579  68.350  1.00  0.00    -0.106 OA 
HETATM   11  P   UNL     3      -8.966   4.816  66.824  1.00  0.00    -0.118 P  
HETATM   12  O   UNL     3      -9.224   4.132  65.458  1.00  0.00    -0.132 OA 
HETATM   13  O   UNL     3      -9.115   3.526  67.661  1.00  0.00    -0.129 OA 
HETATM   14  O   UNL     3     -10.122   5.849  66.712  1.00  0.00    -0.160 OA 
ENDBRANCH   9  10
ENDBRANCH   6   9
ENDBRANCH   4   6
TORSDOF 3
ENDMDL
MODEL      315
REMARK 921   NORMALIZED FREE ENERGY PREDICTED BY IDOCK:   -1.46 KCAL/MOL
REMARK 922        TOTAL FREE ENERGY PREDICTED BY IDOCK:   -2.49 KCAL/MOL
REMARK 923 INTER-LIGAND FREE ENERGY PREDICTED BY IDOCK:   -1.87 KCAL/MOL
REMARK 924 INTRA-LIGAND FREE ENERGY PREDICTED BY IDOCK:   -0.62 KCAL/MOL
REMARK 927      BINDING AFFINITY PREDICTED BY RF-SCORE:    0.00 PKD
ROOT
HETATM    1 NA   UNL     1      -7.411   3.328  73.498  1.00  0.00    -0.043 Na 
HETATM    2 NA   UNL     2     -10.066   7.657  73.931  1.00  0.00    -0.245 Na 
HETATM    3  O   UNL     3     -10.519   4.489  72.569  1.00  0.00    -0.194 OA 
HETATM    4  C   UNL     3      -9.415   4.699  71.685  1.00  0.00    -0.153 C  
HETATM    5  H   UNL     3     -11.006   3.730  72.270  1.00  0.00     0.000 HD 
ENDROOT
BRANCH   4   6
HETATM    6  C   UNL     3      -8.629   5.923  72.166  1.00  0.00    -0.129 C  
HETATM    7  O   UNL     3      -7.291   5.542  72.619  1.00  0.00    -0.091 OA 
HETATM    8  H   UNL     3      -6.804   6.301  72.918  1.00  0.00     0.000 HD 
BRANCH   6   9
HETATM    9  C   UNL     3      -8.491   6.967  71.104  1.00  0.00    -0.119 C  
BRANCH   9  10
HETATM   10  O   UNL     3      -9.163   8.150  71.510  1.00  0.00    -0.141 OA 
HETATM   11  P   UNL     3      -9.828   8.936  70.120  1.00  0.00    -0.202 P  
HETATM   12  O   UNL     3     -10.423   9.638  68.875  1.00  0.00    -0.203 OA 
HETATM   13  O   UNL     3      -8.362   8.997  69.634  1.00  0.00    -0.114 OA 
HETATM   14  O   UNL     3     -10.671   7.635  69.994  1.00  0.00    -0.235 OA 
ENDBRANCH   9  10
ENDBRANCH   6   9
ENDBRANCH   4   6
TORSDOF 3
ENDMDL
MODEL      316
REMARK 921   NORMALIZED FREE ENERGY PREDICTED BY IDOCK:   -1.44 KCAL/MOL
REMARK 922        TOTAL FREE ENERGY PREDICTED BY IDOCK:   -2.47 KCAL/MOL
REMARK 923 INTER-LIGAND FREE ENERGY PREDICTED BY IDOCK:   -1.74 KCAL/MOL
REMARK 924 INTRA-LIGAND FREE ENERGY PREDICTED BY IDOCK:   -0.72 KCAL/MOL
REMARK 927      BINDING AFFINITY PREDICTED BY RF-SCORE:    0.00 PKD
ROOT
HETATM    1 NA   UNL     1      -8.518   2.188  70.067  1.00  0.00    -0.044 Na 
HETATM    2 NA   UNL     2     -11.409   6.313  69.297  1.00  0.00    -0.233 Na 
HETATM    3  O   UNL     3     -10.145   3.673  67.418  1.00  0.00    -0.157 OA 
HETATM    4  C   UNL     3      -8.809   4.083  67.720  1.00  0.00    -0.115 C  
HETATM    5  H   UNL     3     -10.116   3.047  66.704  1.00  0.00     0.000 HD 
ENDROOT
BRANCH   4   6
HETATM    6  C   UNL     3      -8.856   5.094  68.870  1.00  0.00    -0.092 C  
HETATM    7  O   UNL     3      -7.804   4.823  69.849  1.00  0.00    -0.061 OA 
HETATM    8  H   UNL     3      -7.832   5.450  70.563  1.00  0.00     0.000 HD 
BRANCH   6   9
HETATM    9  C   UNL     3      -8.712   6.506  68.396  1.00  0.00    -0.121 C  
BRANCH   9  10
HETATM   10  O   UNL     3      -9.198   6.613  67.068  1.00  0.00    -0.128 OA 
HETATM   11  P   UNL     3      -9.716   8.238  66.778  1.00  0.00    -0.273 P  
HETATM   12  O   UNL     3     -10.179   9.693  66.520  1.00  0.00    -0.239 OA 
HETATM   13  O   UNL     3     -10.691   7.982  67.949  1.00  0.00    -0.174 OA 
HETATM   14  O   UNL     3      -8.220   8.583  67.028  1.00  0.00    -0.105 OA 
ENDBRANCH   9  10
ENDBRANCH   6   9
ENDBRANCH   4   6
TORSDOF 3
ENDMDL
MODEL      317
REMARK 921   NORMALIZED FREE ENERGY PREDICTED BY IDOCK:   -1.44 KCAL/MOL
REMARK 922        TOTAL FREE ENERGY PREDICTED BY IDOCK:   -2.46 KCAL/MOL
REMARK 923 INTER-LIGAND FREE ENERGY PREDICTED BY IDOCK:   -1.78 KCAL/MOL
REMARK 924 INTRA-LIGAND FREE ENERGY PREDICTED BY IDOCK:   -0.68 KCAL/MOL
REMARK 927      BINDING AFFINITY PREDICTED BY RF-SCORE:    0.00 PKD
ROOT
HETATM    1 NA   UNL     1      -7.506   8.537  65.851  1.00  0.00    -0.069 Na 
HETATM    2 NA   UNL     2      -6.568   6.917  70.591  1.00  0.00    -0.041 Na 
HETATM    3  O   UNL     3      -8.141   5.720  67.730  1.00  0.00    -0.101 OA 
HETATM    4  C   UNL     3      -9.075   6.801  67.777  1.00  0.00    -0.117 C  
HETATM    5  H   UNL     3      -8.467   5.065  67.123  1.00  0.00     0.000 HD 
ENDROOT
BRANCH   4   6
HETATM    6  C   UNL     3      -8.551   7.857  68.755  1.00  0.00    -0.128 C  
HETATM    7  O   UNL     3      -8.547   9.185  68.142  1.00  0.00    -0.127 OA 
HETATM    8  H   UNL     3      -8.222   9.840  68.748  1.00  0.00     0.000 HD 
BRANCH   6   9
HETATM    9  C   UNL     3      -9.356   7.919  70.015  1.00  0.00    -0.157 C  
BRANCH   9  10
HETATM   10  O   UNL     3      -9.259   6.681  70.702  1.00  0.00    -0.158 OA 
HETATM   11  P   UNL     3      -9.902   6.862  72.299  1.00  0.00    -0.148 P  
HETATM   12  O   UNL     3     -10.477   7.025  73.727  1.00  0.00    -0.364 OA 
HETATM   13  O   UNL     3      -8.802   7.936  72.462  1.00  0.00    -0.133 OA 
HETATM   14  O   UNL     3     -11.230   7.168  71.550  1.00  0.00    -0.238 OA 
ENDBRANCH   9  10
ENDBRANCH   6   9
ENDBRANCH   4   6
TORSDOF 3
ENDMDL
MODEL      318
REMARK 921   NORMALIZED FREE ENERGY PREDICTED BY IDOCK:   -1.41 KCAL/MOL
REMARK 922        TOTAL FREE ENERGY PREDICTED BY IDOCK:   -2.42 KCAL/MOL
REMARK 923 INTER-LIGAND FREE ENERGY PREDICTED BY IDOCK:   -1.96 KCAL/MOL
REMARK 924 INTRA-LIGAND FREE ENERGY PREDICTED BY IDOCK:   -0.46 KCAL/MOL
REMARK 927      BINDING AFFINITY PREDICTED BY RF-SCORE:    0.00 PKD
ROOT
HETATM    1 NA   UNL     1      -7.846   5.457  65.901  1.00  0.00    -0.088 Na 
HETATM    2 NA   UNL     2     -10.390   6.927  70.065  1.00  0.00    -0.179 Na 
HETATM    3  O   UNL     3     -11.066   6.388  66.697  1.00  0.00    -0.656 OA 
HETATM    4  C   UNL     3     -10.128   7.403  66.334  1.00  0.00     0.003 C  
HETATM    5  H   UNL     3     -11.597   6.180  65.936  1.00  0.00     0.000 HD 
ENDROOT
BRANCH   4   6
HETATM    6  C   UNL     3      -9.272   7.738  67.559  1.00  0.00    -0.132 C  
HETATM    7  O   UNL     3      -7.901   7.259  67.389  1.00  0.00    -0.108 OA 
HETATM    8  H   UNL     3      -7.370   7.467  68.149  1.00  0.00     0.000 HD 
BRANCH   6   9
HETATM    9  C   UNL     3      -9.230   9.207  67.842  1.00  0.00    -0.133 C  
BRANCH   9  10
HETATM   10  O   UNL     3      -7.880   9.642  67.894  1.00  0.00    -0.087 OA 
HETATM   11  P   UNL     3      -7.802  11.317  67.464  1.00  0.00    -0.137 P  
HETATM   12  O   UNL     3      -7.733  12.815  67.080  1.00  0.00    -0.146 OA 
HETATM   13  O   UNL     3      -8.424  10.853  66.127  1.00  0.00    -0.163 OA 
HETATM   14  O   UNL     3      -8.671  11.513  68.739  1.00  0.00    -0.137 OA 
ENDBRANCH   9  10
ENDBRANCH   6   9
ENDBRANCH   4   6
TORSDOF 3
ENDMDL
MODEL      319
REMARK 921   NORMALIZED FREE ENERGY PREDICTED BY IDOCK:   -1.39 KCAL/MOL
REMARK 922        TOTAL FREE ENERGY PREDICTED BY IDOCK:   -2.41 KCAL/MOL
REMARK 923 INTER-LIGAND FREE ENERGY PREDICTED BY IDOCK:   -1.88 KCAL/MOL
REMARK 924 INTRA-LIGAND FREE ENERGY PREDICTED BY IDOCK:   -0.52 KCAL/MOL
REMARK 927      BINDING AFFINITY PREDICTED BY RF-SCORE:    0.00 PKD
ROOT
HETATM    1 NA   UNL     1      -7.890   5.597  70.679  1.00  0.00    -0.078 Na 
HETATM    2 NA   UNL     2      -6.662  10.516  70.165  1.00  0.00    -0.060 Na 
HETATM    3  O   UNL     3      -5.465   7.733  71.874  1.00  0.00    -0.035 OA 
HETATM    4  C   UNL     3      -6.699   7.627  72.588  1.00  0.00    -0.064 C  
HETATM    5  H   UNL     3      -4.819   7.185  72.304  1.00  0.00     0.000 HD 
ENDROOT
BRANCH   4   6
HETATM    6  C   UNL     3      -7.742   8.510  71.896  1.00  0.00    -0.104 C  
HETATM    7  O   UNL     3      -7.486   8.596  70.458  1.00  0.00    -0.059 OA 
HETATM    8  H   UNL     3      -8.132   9.143  70.028  1.00  0.00     0.000 HD 
BRANCH   6   9
HETATM    9  C   UNL     3      -9.138   8.012  72.099  1.00  0.00    -0.168 C  
BRANCH   9  10
HETATM   10  O   UNL     3      -9.657   7.535  70.868  1.00  0.00    -0.165 OA 
HETATM   11  P   UNL     3     -11.341   7.185  71.054  1.00  0.00    -0.307 P  
HETATM   12  O   UNL     3     -12.848   6.871  71.222  1.00  0.00    -0.359 OA 
HETATM   13  O   UNL     3     -10.866   6.192  72.139  1.00  0.00    -0.226 OA 
HETATM   14  O   UNL     3     -11.456   8.708  71.342  1.00  0.00    -0.259 OA 
ENDBRANCH   9  10
ENDBRANCH   6   9
ENDBRANCH   4   6
TORSDOF 3
ENDMDL
MODEL      320
REMARK 921   NORMALIZED FREE ENERGY PREDICTED BY IDOCK:   -1.38 KCAL/MOL
REMARK 922        TOTAL FREE ENERGY PREDICTED BY IDOCK:   -2.39 KCAL/MOL
REMARK 923 INTER-LIGAND FREE ENERGY PREDICTED BY IDOCK:   -1.89 KCAL/MOL
REMARK 924 INTRA-LIGAND FREE ENERGY PREDICTED BY IDOCK:   -0.50 KCAL/MOL
REMARK 927      BINDING AFFINITY PREDICTED BY RF-SCORE:    0.00 PKD
ROOT
HETATM    1 NA   UNL     1      -6.587   4.893  68.685  1.00  0.00    -0.035 Na 
HETATM    2 NA   UNL     2      -7.353   8.391  72.310  1.00  0.00    -0.070 Na 
HETATM    3  O   UNL     3      -9.048   5.667  70.968  1.00  0.00    -0.142 OA 
HETATM    4  C   UNL     3      -9.076   6.301  69.686  1.00  0.00    -0.142 C  
HETATM    5  H   UNL     3      -9.657   4.938  70.958  1.00  0.00     0.000 HD 
ENDROOT
BRANCH   4   6
HETATM    6  C   UNL     3      -8.095   7.477  69.702  1.00  0.00    -0.127 C  
HETATM    7  O   UNL     3      -7.037   7.291  68.709  1.00  0.00    -0.078 OA 
HETATM    8  H   UNL     3      -6.428   8.021  68.718  1.00  0.00     0.000 HD 
BRANCH   6   9
HETATM    9  C   UNL     3      -8.768   8.787  69.437  1.00  0.00    -0.142 C  
BRANCH   9  10
HETATM   10  O   UNL     3     -10.147   8.570  69.184  1.00  0.00    -0.192 OA 
HETATM   11  P   UNL     3     -10.775   9.891  68.260  1.00  0.00    -0.194 P  
HETATM   12  O   UNL     3     -11.335  11.074  67.433  1.00  0.00    -0.401 OA 
HETATM   13  O   UNL     3     -10.327  10.754  69.462  1.00  0.00    -0.215 OA 
HETATM   14  O   UNL     3      -9.760   9.406  67.187  1.00  0.00    -0.156 OA 
ENDBRANCH   9  10
ENDBRANCH   6   9
ENDBRANCH   4   6
TORSDOF 3
ENDMDL
MODEL      321
REMARK 921   NORMALIZED FREE ENERGY PREDICTED BY IDOCK:   -1.38 KCAL/MOL
REMARK 922        TOTAL FREE ENERGY PREDICTED BY IDOCK:   -2.39 KCAL/MOL
REMARK 923 INTER-LIGAND FREE ENERGY PREDICTED BY IDOCK:   -1.83 KCAL/MOL
REMARK 924 INTRA-LIGAND FREE ENERGY PREDICTED BY IDOCK:   -0.56 KCAL/MOL
REMARK 927      BINDING AFFINITY PREDICTED BY RF-SCORE:    0.00 PKD
ROOT
HETATM    1 NA   UNL     1      -8.814  11.953  69.351  1.00  0.00    -0.353 Na 
HETATM    2 NA   UNL     2     -10.878   7.314  68.927  1.00  0.00    -0.190 Na 
HETATM    3  O   UNL     3      -9.450   9.273  71.420  1.00  0.00    -0.245 OA 
HETATM    4  C   UNL     3      -8.215   9.308  70.701  1.00  0.00    -0.190 C  
HETATM    5  H   UNL     3      -9.294   9.580  72.306  1.00  0.00     0.000 HD 
ENDROOT
BRANCH   4   6
HETATM    6  C   UNL     3      -8.467   8.813  69.273  1.00  0.00    -0.122 C  
HETATM    7  O   UNL     3      -9.783   9.235  68.796  1.00  0.00    -0.153 OA 
HETATM    8  H   UNL     3      -9.940   8.929  67.911  1.00  0.00     0.000 HD 
BRANCH   6   9
HETATM    9  C   UNL     3      -7.433   9.303  68.308  1.00  0.00    -0.079 C  
BRANCH   9  10
HETATM   10  O   UNL     3      -7.407   8.457  67.170  1.00  0.00    -0.082 OA 
HETATM   11  P   UNL     3      -7.297   9.425  65.740  1.00  0.00    -0.099 P  
HETATM   12  O   UNL     3      -7.198  10.292  64.461  1.00  0.00    -0.134 OA 
HETATM   13  O   UNL     3      -8.629  10.038  66.228  1.00  0.00    -0.127 OA 
HETATM   14  O   UNL     3      -5.932   9.864  66.343  1.00  0.00    -0.060 OA 
ENDBRANCH   9  10
ENDBRANCH   6   9
ENDBRANCH   4   6
TORSDOF 3
ENDMDL
MODEL      322
REMARK 921   NORMALIZED FREE ENERGY PREDICTED BY IDOCK:   -1.37 KCAL/MOL
REMARK 922        TOTAL FREE ENERGY PREDICTED BY IDOCK:   -2.38 KCAL/MOL
REMARK 923 INTER-LIGAND FREE ENERGY PREDICTED BY IDOCK:   -2.40 KCAL/MOL
REMARK 924 INTRA-LIGAND FREE ENERGY PREDICTED BY IDOCK:    0.02 KCAL/MOL
REMARK 927      BINDING AFFINITY PREDICTED BY RF-SCORE:    0.00 PKD
ROOT
HETATM    1 NA   UNL     1      -9.447   5.915  73.240  1.00  0.00    -0.138 Na 
HETATM    2 NA   UNL     2      -9.209   7.428  68.379  1.00  0.00    -0.134 Na 
HETATM    3  O   UNL     3      -8.060   8.527  71.472  1.00  0.00    -0.127 OA 
HETATM    4  C   UNL     3      -9.405   8.652  71.940  1.00  0.00    -0.287 C  
HETATM    5  H   UNL     3      -7.485   8.981  72.078  1.00  0.00     0.000 HD 
ENDROOT
BRANCH   4   6
HETATM    6  C   UNL     3     -10.332   7.921  70.964  1.00  0.00    -0.201 C  
HETATM    7  O   UNL     3     -11.677   7.782  71.522  1.00  0.00    -0.265 OA 
HETATM    8  H   UNL     3     -12.252   7.328  70.917  1.00  0.00     0.000 HD 
BRANCH   6   9
HETATM    9  C   UNL     3     -10.436   8.619  69.644  1.00  0.00    -0.220 C  
BRANCH   9  10
HETATM   10  O   UNL     3      -9.624   9.782  69.656  1.00  0.00    -0.193 OA 
HETATM   11  P   UNL     3     -10.223  10.910  68.488  1.00  0.00    -0.203 P  
HETATM   12  O   UNL     3     -10.759  11.918  67.443  1.00  0.00    -0.218 OA 
HETATM   13  O   UNL     3      -9.953   9.777  67.471  1.00  0.00    -0.166 OA 
HETATM   14  O   UNL     3     -11.493  10.909  69.385  1.00  0.00    -0.251 OA 
ENDBRANCH   9  10
ENDBRANCH   6   9
ENDBRANCH   4   6
TORSDOF 3
ENDMDL
MODEL      323
REMARK 921   NORMALIZED FREE ENERGY PREDICTED BY IDOCK:   -1.30 KCAL/MOL
REMARK 922        TOTAL FREE ENERGY PREDICTED BY IDOCK:   -2.29 KCAL/MOL
REMARK 923 INTER-LIGAND FREE ENERGY PREDICTED BY IDOCK:   -1.82 KCAL/MOL
REMARK 924 INTRA-LIGAND FREE ENERGY PREDICTED BY IDOCK:   -0.47 KCAL/MOL
REMARK 927      BINDING AFFINITY PREDICTED BY RF-SCORE:    0.00 PKD
ROOT
HETATM    1 NA   UNL     1     -11.595   6.724  73.776  1.00  0.00    -0.473 Na 
HETATM    2 NA   UNL     2      -6.587   5.913  73.291  1.00  0.00    -0.058 Na 
HETATM    3  O   UNL     3      -8.697   8.565  74.073  1.00  0.00    -0.287 OA 
HETATM    4  C   UNL     3      -9.318   8.464  72.789  1.00  0.00    -0.242 C  
HETATM    5  H   UNL     3      -8.949   9.392  74.467  1.00  0.00     0.000 HD 
ENDROOT
BRANCH   4   6
HETATM    6  C   UNL     3      -8.913   7.131  72.154  1.00  0.00    -0.129 C  
HETATM    7  O   UNL     3     -10.091   6.338  71.803  1.00  0.00    -0.185 OA 
HETATM    8  H   UNL     3      -9.840   5.510  71.408  1.00  0.00     0.000 HD 
BRANCH   6   9
HETATM    9  C   UNL     3      -8.081   7.314  70.923  1.00  0.00    -0.106 C  
BRANCH   9  10
HETATM   10  O   UNL     3      -8.322   8.600  70.374  1.00  0.00    -0.112 OA 
HETATM   11  P   UNL     3      -7.049   8.998  69.272  1.00  0.00    -0.059 P  
HETATM   12  O   UNL     3      -5.909   9.354  68.286  1.00  0.00    -0.041 OA 
HETATM   13  O   UNL     3      -6.129   8.833  70.502  1.00  0.00    -0.031 OA 
HETATM   14  O   UNL     3      -7.574   7.767  68.480  1.00  0.00    -0.101 OA 
ENDBRANCH   9  10
ENDBRANCH   6   9
ENDBRANCH   4   6
TORSDOF 3
ENDMDL
MODEL      324
REMARK 921   NORMALIZED FREE ENERGY PREDICTED BY IDOCK:   -1.24 KCAL/MOL
REMARK 922        TOTAL FREE ENERGY PREDICTED BY IDOCK:   -2.22 KCAL/MOL
REMARK 923 INTER-LIGAND FREE ENERGY PREDICTED BY IDOCK:   -1.75 KCAL/MOL
REMARK 924 INTRA-LIGAND FREE ENERGY PREDICTED BY IDOCK:   -0.47 KCAL/MOL
REMARK 927      BINDING AFFINITY PREDICTED BY RF-SCORE:    0.00 PKD
ROOT
HETATM    1 NA   UNL     1      -6.625   7.679  71.471  1.00  0.00    -0.042 Na 
HETATM    2 NA   UNL     2      -9.050  11.717  69.527  1.00  0.00    -0.372 Na 
HETATM    3  O   UNL     3      -9.684   9.216  71.859  1.00  0.00    -0.282 OA 
HETATM    4  C   UNL     3      -9.541   8.219  70.845  1.00  0.00    -0.165 C  
HETATM    5  H   UNL     3     -10.086   8.816  72.621  1.00  0.00     0.000 HD 
ENDROOT
BRANCH   4   6
HETATM    6  C   UNL     3      -8.893   8.862  69.615  1.00  0.00    -0.142 C  
HETATM    7  O   UNL     3      -7.482   9.161  69.861  1.00  0.00    -0.058 OA 
HETATM    8  H   UNL     3      -7.079   9.560  69.098  1.00  0.00     0.000 HD 
BRANCH   6   9
HETATM    9  C   UNL     3      -8.989   7.995  68.399  1.00  0.00    -0.133 C  
BRANCH   9  10
HETATM   10  O   UNL     3      -7.728   7.399  68.139  1.00  0.00    -0.115 OA 
HETATM   11  P   UNL     3      -7.964   5.899  67.309  1.00  0.00    -0.102 P  
HETATM   12  O   UNL     3      -8.177   4.558  66.567  1.00  0.00    -0.103 OA 
HETATM   13  O   UNL     3      -8.774   5.501  68.563  1.00  0.00    -0.105 OA 
HETATM   14  O   UNL     3      -8.576   6.801  66.200  1.00  0.00    -0.132 OA 
ENDBRANCH   9  10
ENDBRANCH   6   9
ENDBRANCH   4   6
TORSDOF 3
ENDMDL
MODEL      325
REMARK 921   NORMALIZED FREE ENERGY PREDICTED BY IDOCK:   -1.18 KCAL/MOL
REMARK 922        TOTAL FREE ENERGY PREDICTED BY IDOCK:   -2.16 KCAL/MOL
REMARK 923 INTER-LIGAND FREE ENERGY PREDICTED BY IDOCK:   -1.97 KCAL/MOL
REMARK 924 INTRA-LIGAND FREE ENERGY PREDICTED BY IDOCK:   -0.19 KCAL/MOL
REMARK 927      BINDING AFFINITY PREDICTED BY RF-SCORE:    0.00 PKD
ROOT
HETATM    1 NA   UNL     1      -8.080   7.889  65.624  1.00  0.00    -0.087 Na 
HETATM    2 NA   UNL     2     -10.053  10.327  69.640  1.00  0.00    -0.167 Na 
HETATM    3  O   UNL     3     -10.012   7.093  68.362  1.00  0.00    -0.149 OA 
HETATM    4  C   UNL     3     -10.662   7.543  67.171  1.00  0.00    -0.309 C  
HETATM    5  H   UNL     3     -10.054   6.144  68.390  1.00  0.00     0.000 HD 
ENDROOT
BRANCH   4   6
HETATM    6  C   UNL     3     -10.595   9.073  67.127  1.00  0.00    -0.220 C  
HETATM    7  O   UNL     3     -11.257   9.661  68.291  1.00  0.00    -0.500 OA 
HETATM    8  H   UNL     3     -11.216  10.610  68.264  1.00  0.00     0.000 HD 
BRANCH   6   9
HETATM    9  C   UNL     3      -9.189   9.582  67.073  1.00  0.00    -0.139 C  
BRANCH   9  10
HETATM   10  O   UNL     3      -8.671   9.686  68.390  1.00  0.00    -0.119 OA 
HETATM   11  P   UNL     3      -6.942   9.656  68.329  1.00  0.00    -0.074 P  
HETATM   12  O   UNL     3      -5.395   9.629  68.272  1.00  0.00    -0.036 OA 
HETATM   13  O   UNL     3      -7.135   8.270  67.671  1.00  0.00    -0.080 OA 
HETATM   14  O   UNL     3      -7.114  10.971  67.516  1.00  0.00    -0.085 OA 
ENDBRANCH   9  10
ENDBRANCH   6   9
ENDBRANCH   4   6
TORSDOF 3
ENDMDL
MODEL      326
REMARK 921   NORMALIZED FREE ENERGY PREDICTED BY IDOCK:   -1.18 KCAL/MOL
REMARK 922        TOTAL FREE ENERGY PREDICTED BY IDOCK:   -2.15 KCAL/MOL
REMARK 923 INTER-LIGAND FREE ENERGY PREDICTED BY IDOCK:   -1.61 KCAL/MOL
REMARK 924 INTRA-LIGAND FREE ENERGY PREDICTED BY IDOCK:   -0.54 KCAL/MOL
REMARK 927      BINDING AFFINITY PREDICTED BY RF-SCORE:    0.00 PKD
ROOT
HETATM    1 NA   UNL     1     -11.335   5.676  70.822  1.00  0.00    -0.257 Na 
HETATM    2 NA   UNL     2      -7.597   3.397  68.216  1.00  0.00    -0.053 Na 
HETATM    3  O   UNL     3      -7.944   6.093  70.386  1.00  0.00    -0.103 OA 
HETATM    4  C   UNL     3      -8.837   6.730  69.470  1.00  0.00    -0.139 C  
HETATM    5  H   UNL     3      -7.669   6.731  71.034  1.00  0.00     0.000 HD 
ENDROOT
BRANCH   4   6
HETATM    6  C   UNL     3      -9.279   5.702  68.423  1.00  0.00    -0.118 C  
HETATM    7  O   UNL     3     -10.734   5.690  68.281  1.00  0.00    -0.214 OA 
HETATM    8  H   UNL     3     -11.009   5.053  67.632  1.00  0.00     0.000 HD 
BRANCH   6   9
HETATM    9  C   UNL     3      -8.674   5.959  67.079  1.00  0.00    -0.109 C  
BRANCH   9  10
HETATM   10  O   UNL     3      -9.579   5.552  66.065  1.00  0.00    -0.157 OA 
HETATM   11  P   UNL     3      -8.712   4.704  64.831  1.00  0.00    -0.149 P  
HETATM   12  O   UNL     3      -7.935   3.945  63.728  1.00  0.00    -0.085 OA 
HETATM   13  O   UNL     3      -7.917   6.021  64.687  1.00  0.00    -0.119 OA 
HETATM   14  O   UNL     3      -8.407   3.693  65.973  1.00  0.00    -0.103 OA 
ENDBRANCH   9  10
ENDBRANCH   6   9
ENDBRANCH   4   6
TORSDOF 3
ENDMDL
MODEL      327
REMARK 921   NORMALIZED FREE ENERGY PREDICTED BY IDOCK:   -1.13 KCAL/MOL
REMARK 922        TOTAL FREE ENERGY PREDICTED BY IDOCK:   -2.09 KCAL/MOL
REMARK 923 INTER-LIGAND FREE ENERGY PREDICTED BY IDOCK:   -1.77 KCAL/MOL
REMARK 924 INTRA-LIGAND FREE ENERGY PREDICTED BY IDOCK:   -0.32 KCAL/MOL
REMARK 927      BINDING AFFINITY PREDICTED BY RF-SCORE:    0.00 PKD
ROOT
HETATM    1 NA   UNL     1      -9.314   4.261  68.898  1.00  0.00    -0.095 Na 
HETATM    2 NA   UNL     2      -9.299   9.347  68.584  1.00  0.00    -0.132 Na 
HETATM    3  O   UNL     3     -11.648   6.795  68.836  1.00  0.00    -0.574 OA 
HETATM    4  C   UNL     3     -11.199   6.244  67.595  1.00  0.00    -0.117 C  
HETATM    5  H   UNL     3     -12.480   6.394  69.062  1.00  0.00     0.000 HD 
ENDROOT
BRANCH   4   6
HETATM    6  C   UNL     3      -9.859   6.889  67.230  1.00  0.00    -0.152 C  
HETATM    7  O   UNL     3     -10.057   8.222  66.660  1.00  0.00    -0.267 OA 
HETATM    8  H   UNL     3      -9.225   8.623  66.433  1.00  0.00     0.000 HD 
BRANCH   6   9
HETATM    9  C   UNL     3      -8.943   7.009  68.408  1.00  0.00    -0.122 C  
BRANCH   9  10
HETATM   10  O   UNL     3      -7.690   6.420  68.097  1.00  0.00    -0.101 OA 
HETATM   11  P   UNL     3      -6.595   6.679  69.411  1.00  0.00    -0.051 P  
HETATM   12  O   UNL     3      -5.615   6.912  70.587  1.00  0.00    -0.023 OA 
HETATM   13  O   UNL     3      -6.844   8.179  69.132  1.00  0.00    -0.053 OA 
HETATM   14  O   UNL     3      -7.615   5.822  70.213  1.00  0.00    -0.085 OA 
ENDBRANCH   9  10
ENDBRANCH   6   9
ENDBRANCH   4   6
TORSDOF 3
ENDMDL
MODEL      328
REMARK 921   NORMALIZED FREE ENERGY PREDICTED BY IDOCK:   -1.12 KCAL/MOL
REMARK 922        TOTAL FREE ENERGY PREDICTED BY IDOCK:   -2.09 KCAL/MOL
REMARK 923 INTER-LIGAND FREE ENERGY PREDICTED BY IDOCK:   -1.48 KCAL/MOL
REMARK 924 INTRA-LIGAND FREE ENERGY PREDICTED BY IDOCK:   -0.61 KCAL/MOL
REMARK 927      BINDING AFFINITY PREDICTED BY RF-SCORE:    0.00 PKD
ROOT
HETATM    1 NA   UNL     1      -6.387   6.114  66.397  1.00  0.00    -0.032 Na 
HETATM    2 NA   UNL     2      -6.309   8.187  71.052  1.00  0.00    -0.035 Na 
HETATM    3  O   UNL     3      -8.682   6.965  68.822  1.00  0.00    -0.129 OA 
HETATM    4  C   UNL     3      -8.303   7.951  67.860  1.00  0.00    -0.126 C  
HETATM    5  H   UNL     3      -9.508   6.580  68.552  1.00  0.00     0.000 HD 
ENDROOT
BRANCH   4   6
HETATM    6  C   UNL     3      -6.972   8.572  68.296  1.00  0.00    -0.070 C  
HETATM    7  O   UNL     3      -5.945   8.386  67.270  1.00  0.00    -0.048 OA 
HETATM    8  H   UNL     3      -5.120   8.771  67.540  1.00  0.00     0.000 HD 
BRANCH   6   9
HETATM    9  C   UNL     3      -7.092  10.035  68.586  1.00  0.00    -0.078 C  
BRANCH   9  10
HETATM   10  O   UNL     3      -5.798  10.595  68.752  1.00  0.00    -0.041 OA 
HETATM   11  P   UNL     3      -5.852  11.803  69.989  1.00  0.00    -0.163 P  
HETATM   12  O   UNL     3      -5.901  12.884  71.096  1.00  0.00    -0.325 OA 
HETATM   13  O   UNL     3      -6.889  12.489  69.071  1.00  0.00    -0.101 OA 
HETATM   14  O   UNL     3      -6.244  10.610  70.906  1.00  0.00    -0.329 OA 
ENDBRANCH   9  10
ENDBRANCH   6   9
ENDBRANCH   4   6
TORSDOF 3
ENDMDL
MODEL      329
REMARK 921   NORMALIZED FREE ENERGY PREDICTED BY IDOCK:   -1.12 KCAL/MOL
REMARK 922        TOTAL FREE ENERGY PREDICTED BY IDOCK:   -2.09 KCAL/MOL
REMARK 923 INTER-LIGAND FREE ENERGY PREDICTED BY IDOCK:   -1.51 KCAL/MOL
REMARK 924 INTRA-LIGAND FREE ENERGY PREDICTED BY IDOCK:   -0.58 KCAL/MOL
REMARK 927      BINDING AFFINITY PREDICTED BY RF-SCORE:    0.00 PKD
ROOT
HETATM    1 NA   UNL     1      -6.203   5.767  63.945  1.00  0.00    -0.021 Na 
HETATM    2 NA   UNL     2      -8.325   7.645  68.180  1.00  0.00    -0.111 Na 
HETATM    3  O   UNL     3      -6.138   5.081  67.320  1.00  0.00    -0.028 OA 
HETATM    4  C   UNL     3      -7.150   4.472  66.515  1.00  0.00    -0.074 C  
HETATM    5  H   UNL     3      -5.436   4.454  67.449  1.00  0.00     0.000 HD 
ENDROOT
BRANCH   4   6
HETATM    6  C   UNL     3      -8.283   5.483  66.307  1.00  0.00    -0.111 C  
HETATM    7  O   UNL     3      -7.751   6.807  65.986  1.00  0.00    -0.087 OA 
HETATM    8  H   UNL     3      -8.453   7.434  65.857  1.00  0.00     0.000 HD 
BRANCH   6   9
HETATM    9  C   UNL     3      -9.222   5.072  65.217  1.00  0.00    -0.118 C  
BRANCH   9  10
HETATM   10  O   UNL     3      -9.163   3.665  65.045  1.00  0.00    -0.134 OA 
HETATM   11  P   UNL     3     -10.088   3.220  63.651  1.00  0.00    -0.223 P  
HETATM   12  O   UNL     3     -10.916   2.824  62.404  1.00  0.00    -0.167 OA 
HETATM   13  O   UNL     3     -11.270   3.866  64.410  1.00  0.00    -0.328 OA 
HETATM   14  O   UNL     3      -9.044   4.084  62.889  1.00  0.00    -0.104 OA 
ENDBRANCH   9  10
ENDBRANCH   6   9
ENDBRANCH   4   6
TORSDOF 3
ENDMDL
MODEL      330
REMARK 921   NORMALIZED FREE ENERGY PREDICTED BY IDOCK:   -1.02 KCAL/MOL
REMARK 922        TOTAL FREE ENERGY PREDICTED BY IDOCK:   -1.97 KCAL/MOL
REMARK 923 INTER-LIGAND FREE ENERGY PREDICTED BY IDOCK:   -2.30 KCAL/MOL
REMARK 924 INTRA-LIGAND FREE ENERGY PREDICTED BY IDOCK:    0.33 KCAL/MOL
REMARK 927      BINDING AFFINITY PREDICTED BY RF-SCORE:    0.00 PKD
ROOT
HETATM    1 NA   UNL     1      -9.464   4.021  68.836  1.00  0.00    -0.101 Na 
HETATM    2 NA   UNL     2      -9.813   8.650  70.938  1.00  0.00    -0.157 Na 
HETATM    3  O   UNL     3     -11.858   6.478  69.150  1.00  0.00    -0.570 OA 
HETATM    4  C   UNL     3     -10.962   6.531  68.038  1.00  0.00    -0.282 C  
HETATM    5  H   UNL     3     -12.676   6.089  68.861  1.00  0.00     0.000 HD 
ENDROOT
BRANCH   4   6
HETATM    6  C   UNL     3      -9.643   7.159  68.503  1.00  0.00    -0.139 C  
HETATM    7  O   UNL     3      -9.515   8.532  68.015  1.00  0.00    -0.139 OA 
HETATM    8  H   UNL     3      -8.698   8.921  68.303  1.00  0.00     0.000 HD 
BRANCH   6   9
HETATM    9  C   UNL     3      -9.510   7.171  69.993  1.00  0.00    -0.164 C  
BRANCH   9  10
HETATM   10  O   UNL     3      -9.563   5.841  70.485  1.00  0.00    -0.166 OA 
HETATM   11  P   UNL     3      -9.396   5.862  72.208  1.00  0.00    -0.141 P  
HETATM   12  O   UNL     3      -9.246   5.882  73.748  1.00  0.00    -0.127 OA 
HETATM   13  O   UNL     3      -8.035   6.537  71.922  1.00  0.00    -0.102 OA 
HETATM   14  O   UNL     3     -10.726   6.666  72.160  1.00  0.00    -0.210 OA 
ENDBRANCH   9  10
ENDBRANCH   6   9
ENDBRANCH   4   6
TORSDOF 3
ENDMDL
MODEL      331
REMARK 921   NORMALIZED FREE ENERGY PREDICTED BY IDOCK:    0.82 KCAL/MOL
REMARK 922        TOTAL FREE ENERGY PREDICTED BY IDOCK:    0.19 KCAL/MOL
REMARK 923 INTER-LIGAND FREE ENERGY PREDICTED BY IDOCK:   -3.86 KCAL/MOL
REMARK 924 INTRA-LIGAND FREE ENERGY PREDICTED BY IDOCK:    4.05 KCAL/MOL
REMARK 927      BINDING AFFINITY PREDICTED BY RF-SCORE:    0.00 PKD
ROOT
HETATM    1 NA   UNL     1      -9.430  14.595  64.354  1.00  0.00    -0.314 Na 
HETATM    2 NA   UNL     2      -9.295  10.692  67.627  1.00  0.00    -0.137 Na 
HETATM    3  O   UNL     3      -8.843  11.203  64.217  1.00  0.00    -0.370 OA 
HETATM    4  C   UNL     3     -10.188  11.672  64.097  1.00  0.00    -0.326 C  
HETATM    5  H   UNL     3      -8.505  11.028  63.346  1.00  0.00     0.000 HD 
ENDROOT
BRANCH   4   6
HETATM    6  C   UNL     3     -10.733  11.954  65.501  1.00  0.00    -0.283 C  
HETATM    7  O   UNL     3     -10.886  10.714  66.263  1.00  0.00    -0.150 OA 
HETATM    8  H   UNL     3     -11.225  10.889  67.133  1.00  0.00     0.000 HD 
BRANCH   6   9
HETATM    9  C   UNL     3      -9.856  12.884  66.279  1.00  0.00    -0.273 C  
BRANCH   9  10
HETATM   10  O   UNL     3     -10.613  14.005  66.705  1.00  0.00    -0.275 OA 
HETATM   11  P   UNL     3     -12.217  13.890  66.066  1.00  0.00    -0.443 P  
HETATM   12  O   UNL     3     -13.651  13.785  65.493  1.00  0.00    -0.511 OA 
HETATM   13  O   UNL     3     -11.512  13.899  64.690  1.00  0.00    -0.349 OA 
HETATM   14  O   UNL     3     -12.290  12.600  66.932  1.00  0.00    -0.430 OA 
ENDBRANCH   9  10
ENDBRANCH   6   9
ENDBRANCH   4   6
TORSDOF 3
ENDMDL
