MODEL        1
REMARK 921   NORMALIZED FREE ENERGY PREDICTED BY IDOCK:   -7.10 KCAL/MOL
REMARK 922        TOTAL FREE ENERGY PREDICTED BY IDOCK:  -12.98 KCAL/MOL
REMARK 923 INTER-LIGAND FREE ENERGY PREDICTED BY IDOCK:  -10.43 KCAL/MOL
REMARK 924 INTRA-LIGAND FREE ENERGY PREDICTED BY IDOCK:   -2.55 KCAL/MOL
REMARK 927      BINDING AFFINITY PREDICTED BY RF-SCORE:    0.00 PKD
ROOT
HETATM    1  C   UNL     1     -10.385   8.531  72.231  1.00  0.00    -0.402 C  
HETATM    2  C   UNL     1     -10.059   9.097  70.854  1.00  0.00    -0.287 C  
HETATM    3  C   UNL     1     -11.066  10.183  70.483  1.00  0.00    -0.400 C  
ENDROOT
BRANCH   2   4
HETATM    4  O   UNL     1      -8.749   9.698  70.872  1.00  0.00    -0.220 OA 
BRANCH   4   5
HETATM    5  C   UNL     1      -7.773   9.038  70.176  1.00  0.00    -0.089 C  
HETATM    6  O   UNL     1      -7.819   7.858  69.848  1.00  0.00    -0.099 OA 
BRANCH   5   7
HETATM    7  C   UNL     1      -6.647  10.007  69.807  1.00  0.00    -0.074 C  
HETATM    8  C   UNL     1      -5.397   9.604  70.589  1.00  0.00    -0.045 C  
BRANCH   7   9
HETATM    9  N   UNL     1      -7.066  11.410  70.046  1.00  0.00    -0.414 NA 
HETATM   10  P   UNL     1      -6.928  12.431  68.700  1.00  0.00    -0.087 P  
HETATM   11  H   UNL     1      -6.558  11.800  70.840  1.00  0.00     0.000 HD 
HETATM   12  O   UNL     1      -7.485  13.914  69.196  1.00  0.00    -0.081 OA 
HETATM   13  O   UNL     1      -8.546  11.995  68.274  1.00  0.00    -0.168 OA 
HETATM   14  O   UNL     1      -5.478  12.820  69.082  1.00  0.00    -0.068 OA 
BRANCH  13  15
HETATM   15  C   UNL     1      -8.729  11.086  67.264  1.00  0.00    -0.129 A  
HETATM   16  C   UNL     1      -9.020   9.381  65.081  1.00  0.00    -0.258 A  
HETATM   17  C   UNL     1      -7.763  11.072  66.260  1.00  0.00    -0.132 A  
HETATM   18  C   UNL     1      -9.824  10.225  67.201  1.00  0.00    -0.228 A  
HETATM   19  C   UNL     1      -7.911  10.223  65.164  1.00  0.00    -0.147 A  
HETATM   20  C   UNL     1      -9.970   9.376  66.102  1.00  0.00    -0.351 A  
ENDBRANCH  13  15
BRANCH  12  21
HETATM   21  C   UNL     1      -6.960  15.055  68.491  1.00  0.00    -0.106 C  
BRANCH  21  22
HETATM   22  C   UNL     1      -7.920  15.846  67.551  1.00  0.00    -0.145 C  
HETATM   23  O   UNL     1      -8.652  14.936  66.701  1.00  0.00    -0.244 OA 
HETATM   24  C   UNL     1     -10.262  16.505  67.407  1.00  0.00    -0.287 C  
HETATM   25  H   UNL     1      -9.337  18.625  68.751  1.00  0.00     0.000 HD 
HETATM   26  C   UNL     1      -8.995  16.708  68.254  1.00  0.00    -0.214 C  
HETATM   27  O   UNL     1      -8.676  18.095  68.319  1.00  0.00    -0.270 OA 
HETATM   28  F   UNL     1     -10.785  17.711  67.051  1.00  0.00    -0.337 F  
HETATM   29  C   UNL     1     -11.318  15.773  68.220  1.00  0.00    -0.354 C  
HETATM   30  C   UNL     1      -9.729  15.749  66.188  1.00  0.00    -0.322 C  
BRANCH  30  31
HETATM   31  N   UNL     1     -10.686  14.916  65.453  1.00  0.00    -0.349 N  
HETATM   32  C   UNL     1     -10.793  13.559  65.701  1.00  0.00    -0.287 C  
HETATM   33  C   UNL     1     -11.579  12.765  64.977  1.00  0.00    -0.372 C  
HETATM   34  C   UNL     1     -12.342  13.349  63.864  1.00  0.00    -0.343 C  
HETATM   35  O   UNL     1     -12.963  12.637  63.084  1.00  0.00    -0.524 OA 
HETATM   36  N   UNL     1     -12.291  14.707  63.763  1.00  0.00    -1.092 N  
HETATM   37  H   UNL     1     -12.933  15.149  63.105  1.00  0.00     0.000 HD 
HETATM   38  C   UNL     1     -11.453  15.534  64.469  1.00  0.00    -0.308 C  
HETATM   39  O   UNL     1     -11.396  16.727  64.199  1.00  0.00    -1.194 OA 
ENDBRANCH  30  31
ENDBRANCH  21  22
ENDBRANCH  12  21
ENDBRANCH   7   9
ENDBRANCH   5   7
ENDBRANCH   4   5
ENDBRANCH   2   4
TORSDOF 8
ENDMDL
MODEL        2
REMARK 921   NORMALIZED FREE ENERGY PREDICTED BY IDOCK:   -6.67 KCAL/MOL
REMARK 922        TOTAL FREE ENERGY PREDICTED BY IDOCK:  -12.34 KCAL/MOL
REMARK 923 INTER-LIGAND FREE ENERGY PREDICTED BY IDOCK:  -10.55 KCAL/MOL
REMARK 924 INTRA-LIGAND FREE ENERGY PREDICTED BY IDOCK:   -1.80 KCAL/MOL
REMARK 927      BINDING AFFINITY PREDICTED BY RF-SCORE:    0.00 PKD
ROOT
HETATM    1  C   UNL     1      -8.450   5.450  71.317  1.00  0.00    -0.126 C  
HETATM    2  C   UNL     1      -9.746   4.724  70.976  1.00  0.00    -0.187 C  
HETATM    3  C   UNL     1      -9.873   3.457  71.819  1.00  0.00    -0.229 C  
ENDROOT
BRANCH   2   4
HETATM    4  O   UNL     1     -10.873   5.569  71.278  1.00  0.00    -0.242 OA 
BRANCH   4   5
HETATM    5  C   UNL     1     -11.206   6.495  70.327  1.00  0.00    -0.374 C  
HETATM    6  O   UNL     1     -11.484   6.236  69.162  1.00  0.00    -0.394 OA 
BRANCH   5   7
HETATM    7  C   UNL     1     -11.247   7.893  70.948  1.00  0.00    -0.270 C  
HETATM    8  C   UNL     1     -11.910   7.784  72.321  1.00  0.00    -0.378 C  
BRANCH   7   9
HETATM    9  N   UNL     1     -11.926   8.849  70.039  1.00  0.00    -0.262 NA 
HETATM   10  P   UNL     1     -11.149  10.346  69.873  1.00  0.00    -0.319 P  
HETATM   11  H   UNL     1     -12.896   8.983  70.327  1.00  0.00     0.000 HD 
HETATM   12  O   UNL     1     -12.060  11.214  68.792  1.00  0.00    -0.522 OA 
HETATM   13  O   UNL     1     -10.264   9.676  68.547  1.00  0.00    -0.178 OA 
HETATM   14  O   UNL     1     -11.941  10.945  71.062  1.00  0.00    -0.326 OA 
BRANCH  13  15
HETATM   15  C   UNL     1      -8.964   9.295  68.761  1.00  0.00    -0.132 A  
HETATM   16  C   UNL     1      -6.278   8.723  69.228  1.00  0.00    -0.042 A  
HETATM   17  C   UNL     1      -8.261  10.006  69.732  1.00  0.00    -0.191 A  
HETATM   18  C   UNL     1      -8.340   8.273  68.045  1.00  0.00    -0.129 A  
HETATM   19  C   UNL     1      -6.915   9.724  69.962  1.00  0.00    -0.106 A  
HETATM   20  C   UNL     1      -6.992   7.994  68.278  1.00  0.00    -0.073 A  
ENDBRANCH  13  15
BRANCH  12  21
HETATM   21  C   UNL     1     -11.984  12.648  68.909  1.00  0.00    -0.242 C  
BRANCH  21  22
HETATM   22  C   UNL     1     -11.826  13.485  67.603  1.00  0.00    -0.363 C  
HETATM   23  O   UNL     1     -11.623  14.880  67.923  1.00  0.00    -0.329 OA 
HETATM   24  C   UNL     1     -10.075  14.440  66.202  1.00  0.00    -0.309 C  
HETATM   25  H   UNL     1     -10.278  12.053  65.010  1.00  0.00     0.000 HD 
HETATM   26  C   UNL     1     -10.639  13.096  66.690  1.00  0.00    -0.279 C  
HETATM   27  O   UNL     1     -11.006  12.293  65.572  1.00  0.00    -0.280 OA 
HETATM   28  F   UNL     1      -9.981  14.442  64.844  1.00  0.00    -0.409 F  
HETATM   29  C   UNL     1      -8.674  14.646  66.756  1.00  0.00    -0.233 C  
HETATM   30  C   UNL     1     -11.128  15.438  66.687  1.00  0.00    -0.236 C  
BRANCH  30  31
HETATM   31  N   UNL     1     -10.684  16.820  66.899  1.00  0.00    -0.205 N  
HETATM   32  C   UNL     1     -10.305  17.267  68.153  1.00  0.00    -0.357 C  
HETATM   33  C   UNL     1      -9.999  18.541  68.389  1.00  0.00    -0.414 C  
HETATM   34  C   UNL     1     -10.086  19.507  67.284  1.00  0.00    -0.405 C  
HETATM   35  O   UNL     1      -9.953  20.707  67.484  1.00  0.00    -0.421 OA 
HETATM   36  N   UNL     1     -10.334  18.974  66.054  1.00  0.00    -0.460 N  
HETATM   37  H   UNL     1     -10.242  19.596  65.250  1.00  0.00     0.000 HD 
HETATM   38  C   UNL     1     -10.697  17.675  65.800  1.00  0.00    -0.110 C  
HETATM   39  O   UNL     1     -11.030  17.340  64.670  1.00  0.00    -1.013 OA 
ENDBRANCH  30  31
ENDBRANCH  21  22
ENDBRANCH  12  21
ENDBRANCH   7   9
ENDBRANCH   5   7
ENDBRANCH   4   5
ENDBRANCH   2   4
TORSDOF 8
ENDMDL
MODEL        3
REMARK 921   NORMALIZED FREE ENERGY PREDICTED BY IDOCK:   -6.49 KCAL/MOL
REMARK 922        TOTAL FREE ENERGY PREDICTED BY IDOCK:  -12.07 KCAL/MOL
REMARK 923 INTER-LIGAND FREE ENERGY PREDICTED BY IDOCK:  -10.36 KCAL/MOL
REMARK 924 INTRA-LIGAND FREE ENERGY PREDICTED BY IDOCK:   -1.71 KCAL/MOL
REMARK 927      BINDING AFFINITY PREDICTED BY RF-SCORE:    0.00 PKD
ROOT
HETATM    1  C   UNL     1     -11.015   5.903  69.581  1.00  0.00    -0.447 C  
HETATM    2  C   UNL     1      -9.496   5.813  69.501  1.00  0.00    -0.135 C  
HETATM    3  C   UNL     1      -9.066   4.355  69.363  1.00  0.00    -0.171 C  
ENDROOT
BRANCH   2   4
HETATM    4  O   UNL     1      -9.027   6.523  68.337  1.00  0.00    -0.126 OA 
BRANCH   4   5
HETATM    5  C   UNL     1      -8.868   7.875  68.479  1.00  0.00    -0.134 C  
HETATM    6  O   UNL     1      -7.908   8.418  69.012  1.00  0.00    -0.098 OA 
BRANCH   5   7
HETATM    7  C   UNL     1     -10.032   8.611  67.812  1.00  0.00    -0.190 C  
HETATM    8  C   UNL     1     -10.105   8.162  66.353  1.00  0.00    -0.196 C  
BRANCH   7   9
HETATM    9  N   UNL     1      -9.881  10.079  67.971  1.00  0.00    -0.140 NA 
HETATM   10  P   UNL     1     -11.147  10.836  68.805  1.00  0.00    -0.303 P  
HETATM   11  H   UNL     1      -9.742  10.521  67.062  1.00  0.00     0.000 HD 
HETATM   12  O   UNL     1     -10.739  12.443  68.890  1.00  0.00    -0.222 OA 
HETATM   13  O   UNL     1     -10.270  10.564  70.270  1.00  0.00    -0.039 OA 
HETATM   14  O   UNL     1     -11.933  11.080  67.492  1.00  0.00    -0.529 OA 
BRANCH  13  15
HETATM   15  C   UNL     1     -10.670   9.535  71.083  1.00  0.00    -0.338 A  
HETATM   16  C   UNL     1     -11.661   7.549  72.765  1.00  0.00    -0.232 A  
HETATM   17  C   UNL     1     -12.023   9.203  71.045  1.00  0.00    -0.344 A  
HETATM   18  C   UNL     1      -9.801   8.852  71.934  1.00  0.00    -0.364 A  
HETATM   19  C   UNL     1     -12.521   8.213  71.891  1.00  0.00    -0.368 A  
HETATM   20  C   UNL     1     -10.303   7.861  72.780  1.00  0.00    -0.399 A  
ENDBRANCH  13  15
BRANCH  12  21
HETATM   21  C   UNL     1     -11.836  13.369  69.004  1.00  0.00    -0.335 C  
BRANCH  21  22
HETATM   22  C   UNL     1     -11.903  14.558  67.997  1.00  0.00    -0.315 C  
HETATM   23  O   UNL     1     -10.974  15.595  68.382  1.00  0.00    -0.277 OA 
HETATM   24  C   UNL     1     -10.723  15.417  66.045  1.00  0.00    -0.322 C  
HETATM   25  H   UNL     1     -12.484  13.847  64.783  1.00  0.00     0.000 HD 
HETATM   26  C   UNL     1     -11.558  14.219  66.527  1.00  0.00    -0.378 C  
HETATM   27  O   UNL     1     -12.696  14.055  65.686  1.00  0.00    -0.526 OA 
HETATM   28  F   UNL     1     -11.243  15.914  64.889  1.00  0.00    -0.381 F  
HETATM   29  C   UNL     1      -9.300  14.971  65.751  1.00  0.00    -0.171 C  
HETATM   30  C   UNL     1     -10.876  16.413  67.197  1.00  0.00    -0.169 C  
BRANCH  30  31
HETATM   31  N   UNL     1      -9.812  17.410  67.357  1.00  0.00    -0.273 N  
HETATM   32  C   UNL     1      -8.867  17.294  68.361  1.00  0.00    -0.269 C  
HETATM   33  C   UNL     1      -7.957  18.237  68.590  1.00  0.00    -0.306 C  
HETATM   34  C   UNL     1      -7.970  19.451  67.760  1.00  0.00    -0.286 C  
HETATM   35  O   UNL     1      -7.247  20.404  68.025  1.00  0.00    -0.290 OA 
HETATM   36  N   UNL     1      -8.838  19.436  66.709  1.00  0.00    -0.311 N  
HETATM   37  H   UNL     1      -8.756  20.192  66.028  1.00  0.00     0.000 HD 
HETATM   38  C   UNL     1      -9.812  18.496  66.486  1.00  0.00    -0.363 C  
HETATM   39  O   UNL     1     -10.626  18.657  65.585  1.00  0.00    -0.610 OA 
ENDBRANCH  30  31
ENDBRANCH  21  22
ENDBRANCH  12  21
ENDBRANCH   7   9
ENDBRANCH   5   7
ENDBRANCH   4   5
ENDBRANCH   2   4
TORSDOF 8
ENDMDL
MODEL        4
REMARK 921   NORMALIZED FREE ENERGY PREDICTED BY IDOCK:   -6.34 KCAL/MOL
REMARK 922        TOTAL FREE ENERGY PREDICTED BY IDOCK:  -11.86 KCAL/MOL
REMARK 923 INTER-LIGAND FREE ENERGY PREDICTED BY IDOCK:  -10.53 KCAL/MOL
REMARK 924 INTRA-LIGAND FREE ENERGY PREDICTED BY IDOCK:   -1.33 KCAL/MOL
REMARK 927      BINDING AFFINITY PREDICTED BY RF-SCORE:    0.00 PKD
ROOT
HETATM    1  C   UNL     1     -10.755   4.077  73.014  1.00  0.00    -0.251 C  
HETATM    2  C   UNL     1     -11.066   5.564  72.900  1.00  0.00    -0.299 C  
HETATM    3  C   UNL     1     -10.277   6.345  73.948  1.00  0.00    -0.330 C  
ENDROOT
BRANCH   2   4
HETATM    4  O   UNL     1     -10.673   6.047  71.601  1.00  0.00    -0.234 OA 
BRANCH   4   5
HETATM    5  C   UNL     1     -11.561   6.875  70.970  1.00  0.00    -0.328 C  
HETATM    6  O   UNL     1     -12.776   6.851  71.126  1.00  0.00    -0.369 OA 
BRANCH   5   7
HETATM    7  C   UNL     1     -10.809   7.880  70.094  1.00  0.00    -0.243 C  
HETATM    8  C   UNL     1      -9.611   8.400  70.887  1.00  0.00    -0.212 C  
BRANCH   7   9
HETATM    9  N   UNL     1     -11.722   8.955  69.632  1.00  0.00    -0.181 NA 
HETATM   10  P   UNL     1     -10.957  10.414  69.236  1.00  0.00    -0.266 P  
HETATM   11  H   UNL     1     -12.457   9.116  70.321  1.00  0.00     0.000 HD 
HETATM   12  O   UNL     1     -12.160  11.432  68.716  1.00  0.00    -0.480 OA 
HETATM   13  O   UNL     1     -10.794   9.824  67.618  1.00  0.00    -0.282 OA 
HETATM   14  O   UNL     1     -11.102  10.942  70.685  1.00  0.00    -0.079 OA 
BRANCH  13  15
HETATM   15  C   UNL     1      -9.570   9.353  67.220  1.00  0.00    -0.151 A  
HETATM   16  C   UNL     1      -7.176   8.214  66.367  1.00  0.00    -0.079 A  
HETATM   17  C   UNL     1      -9.562   8.490  66.126  1.00  0.00    -0.276 A  
HETATM   18  C   UNL     1      -8.379   9.678  67.870  1.00  0.00    -0.117 A  
HETATM   19  C   UNL     1      -8.364   7.915  65.702  1.00  0.00    -0.146 A  
HETATM   20  C   UNL     1      -7.181   9.100  67.443  1.00  0.00    -0.080 A  
ENDBRANCH  13  15
BRANCH  12  21
HETATM   21  C   UNL     1     -11.909  12.842  68.875  1.00  0.00    -0.308 C  
BRANCH  21  22
HETATM   22  C   UNL     1     -11.772  13.714  67.590  1.00  0.00    -0.363 C  
HETATM   23  O   UNL     1     -11.567  15.100  67.944  1.00  0.00    -0.333 OA 
HETATM   24  C   UNL     1     -10.044  14.710  66.189  1.00  0.00    -0.300 C  
HETATM   25  H   UNL     1     -10.262  12.356  64.936  1.00  0.00     0.000 HD 
HETATM   26  C   UNL     1     -10.599  13.352  66.648  1.00  0.00    -0.282 C  
HETATM   27  O   UNL     1     -10.982  12.579  65.515  1.00  0.00    -0.274 OA 
HETATM   28  F   UNL     1      -9.971  14.749  64.829  1.00  0.00    -0.374 F  
HETATM   29  C   UNL     1      -8.635  14.903  66.727  1.00  0.00    -0.256 C  
HETATM   30  C   UNL     1     -11.091  15.693  66.717  1.00  0.00    -0.169 C  
BRANCH  30  31
HETATM   31  N   UNL     1     -10.646  17.069  66.959  1.00  0.00    -0.272 N  
HETATM   32  C   UNL     1     -10.307  17.499  68.230  1.00  0.00    -0.379 C  
HETATM   33  C   UNL     1     -10.000  18.768  68.491  1.00  0.00    -0.450 C  
HETATM   34  C   UNL     1     -10.044  19.747  67.395  1.00  0.00    -0.422 C  
HETATM   35  O   UNL     1      -9.911  20.944  67.613  1.00  0.00    -0.364 OA 
HETATM   36  N   UNL     1     -10.255  19.230  66.151  1.00  0.00    -0.445 N  
HETATM   37  H   UNL     1     -10.132  19.861  65.359  1.00  0.00     0.000 HD 
HETATM   38  C   UNL     1     -10.617  17.936  65.870  1.00  0.00    -0.215 C  
HETATM   39  O   UNL     1     -10.914  17.616  64.726  1.00  0.00    -0.917 OA 
ENDBRANCH  30  31
ENDBRANCH  21  22
ENDBRANCH  12  21
ENDBRANCH   7   9
ENDBRANCH   5   7
ENDBRANCH   4   5
ENDBRANCH   2   4
TORSDOF 8
ENDMDL
MODEL        5
REMARK 921   NORMALIZED FREE ENERGY PREDICTED BY IDOCK:   -6.34 KCAL/MOL
REMARK 922        TOTAL FREE ENERGY PREDICTED BY IDOCK:  -11.86 KCAL/MOL
REMARK 923 INTER-LIGAND FREE ENERGY PREDICTED BY IDOCK:  -11.15 KCAL/MOL
REMARK 924 INTRA-LIGAND FREE ENERGY PREDICTED BY IDOCK:   -0.71 KCAL/MOL
REMARK 927      BINDING AFFINITY PREDICTED BY RF-SCORE:    0.00 PKD
ROOT
HETATM    1  C   UNL     1     -10.321  11.129  64.525  1.00  0.00    -0.400 C  
HETATM    2  C   UNL     1     -11.407  12.126  64.911  1.00  0.00    -0.326 C  
HETATM    3  C   UNL     1     -12.576  12.032  63.933  1.00  0.00    -0.517 C  
ENDROOT
BRANCH   2   4
HETATM    4  O   UNL     1     -11.908  11.816  66.227  1.00  0.00    -0.501 OA 
BRANCH   4   5
HETATM    5  C   UNL     1     -11.882  12.836  67.138  1.00  0.00    -0.350 C  
HETATM    6  O   UNL     1     -12.326  13.961  66.947  1.00  0.00    -0.410 OA 
BRANCH   5   7
HETATM    7  C   UNL     1     -11.278  12.344  68.456  1.00  0.00    -0.279 C  
HETATM    8  C   UNL     1      -9.809  12.004  68.210  1.00  0.00    -0.204 C  
BRANCH   7   9
HETATM    9  N   UNL     1     -12.064  11.207  68.998  1.00  0.00    -0.523 NA 
HETATM   10  P   UNL     1     -11.949  11.001  70.677  1.00  0.00    -0.285 P  
HETATM   11  H   UNL     1     -11.813  10.343  68.518  1.00  0.00     0.000 HD 
HETATM   12  O   UNL     1     -12.930   9.714  71.045  1.00  0.00    -0.317 OA 
HETATM   13  O   UNL     1     -13.311  12.053  70.843  1.00  0.00     0.194 OA 
HETATM   14  O   UNL     1     -10.728  10.060  70.528  1.00  0.00    -0.294 OA 
BRANCH  13  15
HETATM   15  C   UNL     1     -13.086  13.350  71.228  1.00  0.00    -0.238 A  
HETATM   16  C   UNL     1     -12.794  15.966  72.137  1.00  0.00    -0.491 A  
HETATM   17  C   UNL     1     -13.344  13.654  72.564  1.00  0.00    -0.638 A  
HETATM   18  C   UNL     1     -12.647  14.341  70.351  1.00  0.00    -0.405 A  
HETATM   19  C   UNL     1     -13.204  14.965  73.018  1.00  0.00    -0.596 A  
HETATM   20  C   UNL     1     -12.508  15.653  70.809  1.00  0.00    -0.484 A  
ENDBRANCH  13  15
BRANCH  12  21
HETATM   21  C   UNL     1     -12.586   8.977  72.234  1.00  0.00    -0.375 C  
BRANCH  21  22
HETATM   22  C   UNL     1     -11.989   7.546  72.065  1.00  0.00    -0.294 C  
HETATM   23  O   UNL     1     -11.910   7.198  70.665  1.00  0.00    -0.321 OA 
HETATM   24  C   UNL     1      -9.865   6.459  71.571  1.00  0.00    -0.168 C  
HETATM   25  H   UNL     1      -9.643   6.568  74.235  1.00  0.00     0.000 HD 
HETATM   26  C   UNL     1     -10.561   7.339  72.622  1.00  0.00    -0.266 C  
HETATM   27  O   UNL     1     -10.521   6.696  73.892  1.00  0.00    -0.331 OA 
HETATM   28  F   UNL     1      -9.309   5.369  72.168  1.00  0.00    -0.144 F  
HETATM   29  C   UNL     1      -8.739   7.237  70.907  1.00  0.00    -0.148 C  
HETATM   30  C   UNL     1     -11.021   6.061  70.652  1.00  0.00    -0.307 C  
BRANCH  30  31
HETATM   31  N   UNL     1     -10.679   5.702  69.272  1.00  0.00    -0.296 N  
HETATM   32  C   UNL     1     -10.989   6.540  68.216  1.00  0.00    -0.281 C  
HETATM   33  C   UNL     1     -10.782   6.190  66.948  1.00  0.00    -0.413 C  
HETATM   34  C   UNL     1     -10.223   4.860  66.663  1.00  0.00    -0.255 C  
HETATM   35  O   UNL     1     -10.149   4.441  65.515  1.00  0.00    -0.213 OA 
HETATM   36  N   UNL     1      -9.819   4.145  67.751  1.00  0.00    -0.103 N  
HETATM   37  H   UNL     1      -9.285   3.294  67.575  1.00  0.00     0.000 HD 
HETATM   38  C   UNL     1     -10.066   4.469  69.061  1.00  0.00     0.013 C  
HETATM   39  O   UNL     1      -9.776   3.682  69.954  1.00  0.00    -0.188 OA 
ENDBRANCH  30  31
ENDBRANCH  21  22
ENDBRANCH  12  21
ENDBRANCH   7   9
ENDBRANCH   5   7
ENDBRANCH   4   5
ENDBRANCH   2   4
TORSDOF 8
ENDMDL
MODEL        6
REMARK 921   NORMALIZED FREE ENERGY PREDICTED BY IDOCK:   -6.33 KCAL/MOL
REMARK 922        TOTAL FREE ENERGY PREDICTED BY IDOCK:  -11.84 KCAL/MOL
REMARK 923 INTER-LIGAND FREE ENERGY PREDICTED BY IDOCK:  -10.35 KCAL/MOL
REMARK 924 INTRA-LIGAND FREE ENERGY PREDICTED BY IDOCK:   -1.49 KCAL/MOL
REMARK 927      BINDING AFFINITY PREDICTED BY RF-SCORE:    0.00 PKD
ROOT
HETATM    1  C   UNL     1     -11.279   5.394  72.310  1.00  0.00    -0.235 C  
HETATM    2  C   UNL     1     -10.161   4.994  71.355  1.00  0.00    -0.199 C  
HETATM    3  C   UNL     1      -9.817   3.518  71.540  1.00  0.00    -0.219 C  
ENDROOT
BRANCH   2   4
HETATM    4  O   UNL     1     -10.594   5.178  69.992  1.00  0.00    -0.285 OA 
BRANCH   4   5
HETATM    5  C   UNL     1      -9.668   5.696  69.129  1.00  0.00    -0.145 C  
HETATM    6  O   UNL     1      -8.522   5.284  68.997  1.00  0.00    -0.094 OA 
BRANCH   5   7
HETATM    7  C   UNL     1     -10.295   6.821  68.302  1.00  0.00    -0.187 C  
HETATM    8  C   UNL     1     -11.009   6.192  67.106  1.00  0.00    -0.420 C  
BRANCH   7   9
HETATM    9  N   UNL     1      -9.268   7.821  67.917  1.00  0.00    -0.137 NA 
HETATM   10  P   UNL     1      -9.867   9.382  67.638  1.00  0.00    -0.198 P  
HETATM   11  H   UNL     1      -8.742   7.493  67.107  1.00  0.00     0.000 HD 
HETATM   12  O   UNL     1      -8.546  10.316  67.268  1.00  0.00    -0.125 OA 
HETATM   13  O   UNL     1      -9.604   9.721  69.313  1.00  0.00    -0.175 OA 
HETATM   14  O   UNL     1     -10.103   9.077  66.138  1.00  0.00    -0.290 OA 
BRANCH  13  15
HETATM   15  C   UNL     1     -10.687   9.716  70.154  1.00  0.00    -0.275 A  
HETATM   16  C   UNL     1     -12.890   9.913  71.846  1.00  0.00    -0.524 A  
HETATM   17  C   UNL     1     -11.670  10.672  69.906  1.00  0.00    -0.395 A  
HETATM   18  C   UNL     1     -10.818   8.831  71.224  1.00  0.00    -0.347 A  
HETATM   19  C   UNL     1     -12.770  10.775  70.756  1.00  0.00    -0.451 A  
HETATM   20  C   UNL     1     -11.921   8.937  72.074  1.00  0.00    -0.439 A  
ENDBRANCH  13  15
BRANCH  12  21
HETATM   21  C   UNL     1      -8.799  11.473  66.448  1.00  0.00    -0.193 C  
BRANCH  21  22
HETATM   22  C   UNL     1      -9.821  12.531  66.964  1.00  0.00    -0.217 C  
HETATM   23  O   UNL     1      -9.188  13.825  67.080  1.00  0.00    -0.232 OA 
HETATM   24  C   UNL     1     -11.285  14.281  66.107  1.00  0.00    -0.331 C  
HETATM   25  H   UNL     1     -13.002  12.233  65.985  1.00  0.00     0.000 HD 
HETATM   26  C   UNL     1     -11.065  12.760  66.073  1.00  0.00    -0.285 C  
HETATM   27  O   UNL     1     -12.238  12.093  66.532  1.00  0.00    -0.584 OA 
HETATM   28  F   UNL     1     -12.571  14.560  66.458  1.00  0.00    -0.411 F  
HETATM   29  C   UNL     1     -11.052  14.869  64.724  1.00  0.00    -0.395 C  
HETATM   30  C   UNL     1     -10.303  14.735  67.189  1.00  0.00    -0.255 C  
BRANCH  30  31
HETATM   31  N   UNL     1      -9.833  16.122  67.118  1.00  0.00    -0.237 N  
HETATM   32  C   UNL     1      -8.708  16.461  66.387  1.00  0.00    -0.319 C  
HETATM   33  C   UNL     1      -8.203  17.692  66.392  1.00  0.00    -0.298 C  
HETATM   34  C   UNL     1      -8.852  18.721  67.218  1.00  0.00    -0.274 C  
HETATM   35  O   UNL     1      -8.344  19.825  67.366  1.00  0.00    -0.289 OA 
HETATM   36  N   UNL     1     -10.027  18.351  67.802  1.00  0.00    -0.330 N  
HETATM   37  H   UNL     1     -10.577  19.087  68.247  1.00  0.00     0.000 HD 
HETATM   38  C   UNL     1     -10.536  17.078  67.846  1.00  0.00    -0.365 C  
HETATM   39  O   UNL     1     -11.533  16.837  68.517  1.00  0.00    -0.198 OA 
ENDBRANCH  30  31
ENDBRANCH  21  22
ENDBRANCH  12  21
ENDBRANCH   7   9
ENDBRANCH   5   7
ENDBRANCH   4   5
ENDBRANCH   2   4
TORSDOF 8
ENDMDL
MODEL        7
REMARK 921   NORMALIZED FREE ENERGY PREDICTED BY IDOCK:   -6.31 KCAL/MOL
REMARK 922        TOTAL FREE ENERGY PREDICTED BY IDOCK:  -11.81 KCAL/MOL
REMARK 923 INTER-LIGAND FREE ENERGY PREDICTED BY IDOCK:  -10.00 KCAL/MOL
REMARK 924 INTRA-LIGAND FREE ENERGY PREDICTED BY IDOCK:   -1.82 KCAL/MOL
REMARK 927      BINDING AFFINITY PREDICTED BY RF-SCORE:    0.00 PKD
ROOT
HETATM    1  C   UNL     1      -7.608   4.863  71.532  1.00  0.00    -0.084 C  
HETATM    2  C   UNL     1      -8.301   6.153  71.110  1.00  0.00    -0.124 C  
HETATM    3  C   UNL     1      -7.320   7.321  71.179  1.00  0.00    -0.074 C  
ENDROOT
BRANCH   2   4
HETATM    4  O   UNL     1      -8.756   6.039  69.747  1.00  0.00    -0.128 OA 
BRANCH   4   5
HETATM    5  C   UNL     1     -10.111   5.988  69.565  1.00  0.00    -0.193 C  
HETATM    6  O   UNL     1     -10.898   5.410  70.305  1.00  0.00    -0.266 OA 
BRANCH   5   7
HETATM    7  C   UNL     1     -10.506   6.818  68.341  1.00  0.00    -0.205 C  
HETATM    8  C   UNL     1     -10.879   5.855  67.214  1.00  0.00    -0.351 C  
BRANCH   7   9
HETATM    9  N   UNL     1      -9.420   7.761  67.976  1.00  0.00    -0.144 NA 
HETATM   10  P   UNL     1      -9.925   9.356  67.708  1.00  0.00    -0.210 P  
HETATM   11  H   UNL     1      -8.906   7.412  67.167  1.00  0.00     0.000 HD 
HETATM   12  O   UNL     1      -8.549  10.216  67.359  1.00  0.00    -0.122 OA 
HETATM   13  O   UNL     1      -9.659   9.663  69.389  1.00  0.00    -0.170 OA 
HETATM   14  O   UNL     1     -10.165   9.080  66.202  1.00  0.00    -0.267 OA 
BRANCH  13  15
HETATM   15  C   UNL     1     -10.749   9.712  70.219  1.00  0.00    -0.281 A  
HETATM   16  C   UNL     1     -12.938   9.607  71.938  1.00  0.00    -0.527 A  
HETATM   17  C   UNL     1     -10.712   8.887  71.342  1.00  0.00    -0.382 A  
HETATM   18  C   UNL     1     -11.863  10.514  69.970  1.00  0.00    -0.388 A  
HETATM   19  C   UNL     1     -11.810   8.829  72.200  1.00  0.00    -0.436 A  
HETATM   20  C   UNL     1     -12.961  10.453  70.831  1.00  0.00    -0.475 A  
ENDBRANCH  13  15
BRANCH  12  21
HETATM   21  C   UNL     1      -8.728  11.394  66.549  1.00  0.00    -0.181 C  
BRANCH  21  22
HETATM   22  C   UNL     1      -9.720  12.488  67.049  1.00  0.00    -0.213 C  
HETATM   23  O   UNL     1      -9.065  13.775  67.098  1.00  0.00    -0.220 OA 
HETATM   24  C   UNL     1     -11.180  14.226  66.162  1.00  0.00    -0.331 C  
HETATM   25  H   UNL     1     -12.930  12.202  66.164  1.00  0.00     0.000 HD 
HETATM   26  C   UNL     1     -10.984  12.701  66.182  1.00  0.00    -0.282 C  
HETATM   27  O   UNL     1     -12.154  12.072  66.697  1.00  0.00    -0.615 OA 
HETATM   28  F   UNL     1     -12.452  14.539  66.534  1.00  0.00    -0.422 F  
HETATM   29  C   UNL     1     -10.975  14.756  64.752  1.00  0.00    -0.393 C  
HETATM   30  C   UNL     1     -10.163  14.706  67.200  1.00  0.00    -0.256 C  
BRANCH  30  31
HETATM   31  N   UNL     1      -9.675  16.082  67.063  1.00  0.00    -0.226 N  
HETATM   32  C   UNL     1      -8.560  16.373  66.297  1.00  0.00    -0.340 C  
HETATM   33  C   UNL     1      -8.037  17.596  66.242  1.00  0.00    -0.281 C  
HETATM   34  C   UNL     1      -8.655  18.667  67.037  1.00  0.00    -0.276 C  
HETATM   35  O   UNL     1      -8.127  19.768  67.129  1.00  0.00    -0.271 OA 
HETATM   36  N   UNL     1      -9.824  18.340  67.658  1.00  0.00    -0.309 N  
HETATM   37  H   UNL     1     -10.354  19.102  68.082  1.00  0.00     0.000 HD 
HETATM   38  C   UNL     1     -10.350  17.077  67.764  1.00  0.00    -0.335 C  
HETATM   39  O   UNL     1     -11.336  16.879  68.464  1.00  0.00    -0.221 OA 
ENDBRANCH  30  31
ENDBRANCH  21  22
ENDBRANCH  12  21
ENDBRANCH   7   9
ENDBRANCH   5   7
ENDBRANCH   4   5
ENDBRANCH   2   4
TORSDOF 8
ENDMDL
MODEL        8
REMARK 921   NORMALIZED FREE ENERGY PREDICTED BY IDOCK:   -6.23 KCAL/MOL
REMARK 922        TOTAL FREE ENERGY PREDICTED BY IDOCK:  -11.69 KCAL/MOL
REMARK 923 INTER-LIGAND FREE ENERGY PREDICTED BY IDOCK:  -10.17 KCAL/MOL
REMARK 924 INTRA-LIGAND FREE ENERGY PREDICTED BY IDOCK:   -1.53 KCAL/MOL
REMARK 927      BINDING AFFINITY PREDICTED BY RF-SCORE:    0.00 PKD
ROOT
HETATM    1  C   UNL     1      -9.505   4.216  69.175  1.00  0.00    -0.248 C  
HETATM    2  C   UNL     1     -10.050   5.376  68.350  1.00  0.00    -0.173 C  
HETATM    3  C   UNL     1     -10.358   4.909  66.929  1.00  0.00    -0.237 C  
ENDROOT
BRANCH   2   4
HETATM    4  O   UNL     1     -11.279   5.854  68.933  1.00  0.00    -0.291 OA 
BRANCH   4   5
HETATM    5  C   UNL     1     -11.200   6.305  70.222  1.00  0.00    -0.388 C  
HETATM    6  O   UNL     1     -11.496   5.653  71.215  1.00  0.00    -0.112 OA 
BRANCH   5   7
HETATM    7  C   UNL     1     -10.621   7.722  70.245  1.00  0.00    -0.231 C  
HETATM    8  C   UNL     1     -10.140   8.016  71.666  1.00  0.00    -0.238 C  
BRANCH   7   9
HETATM    9  N   UNL     1     -11.617   8.702  69.744  1.00  0.00    -0.350 NA 
HETATM   10  P   UNL     1     -10.964  10.182  69.239  1.00  0.00    -0.220 P  
HETATM   11  H   UNL     1     -12.344   8.856  70.443  1.00  0.00     0.000 HD 
HETATM   12  O   UNL     1     -12.247  11.082  68.692  1.00  0.00    -0.571 OA 
HETATM   13  O   UNL     1     -10.799   9.505  67.657  1.00  0.00    -0.279 OA 
HETATM   14  O   UNL     1     -11.111  10.788  70.657  1.00  0.00    -0.170 OA 
BRANCH  13  15
HETATM   15  C   UNL     1      -9.554   9.094  67.254  1.00  0.00    -0.154 A  
HETATM   16  C   UNL     1      -6.956   8.446  66.490  1.00  0.00    -0.071 A  
HETATM   17  C   UNL     1      -8.474   9.566  67.997  1.00  0.00    -0.119 A  
HETATM   18  C   UNL     1      -9.344   8.268  66.150  1.00  0.00    -0.254 A  
HETATM   19  C   UNL     1      -7.172   9.246  67.611  1.00  0.00    -0.083 A  
HETATM   20  C   UNL     1      -8.039   7.950  65.766  1.00  0.00    -0.123 A  
ENDBRANCH  13  15
BRANCH  12  21
HETATM   21  C   UNL     1     -12.091  12.512  68.759  1.00  0.00    -0.110 C  
BRANCH  21  22
HETATM   22  C   UNL     1     -11.874  13.291  67.426  1.00  0.00    -0.366 C  
HETATM   23  O   UNL     1     -11.708  14.702  67.691  1.00  0.00    -0.350 OA 
HETATM   24  C   UNL     1     -10.064  14.209  66.076  1.00  0.00    -0.316 C  
HETATM   25  H   UNL     1     -10.171  11.767  64.988  1.00  0.00     0.000 HD 
HETATM   26  C   UNL     1     -10.635  12.879  66.596  1.00  0.00    -0.261 C  
HETATM   27  O   UNL     1     -10.932  12.021  65.498  1.00  0.00    -0.282 OA 
HETATM   28  F   UNL     1      -9.898  14.151  64.726  1.00  0.00    -0.365 F  
HETATM   29  C   UNL     1      -8.698  14.462  66.693  1.00  0.00    -0.131 C  
HETATM   30  C   UNL     1     -11.155  15.212  66.459  1.00  0.00    -0.305 C  
BRANCH  30  31
HETATM   31  N   UNL     1     -10.742  16.609  66.629  1.00  0.00    -0.193 N  
HETATM   32  C   UNL     1     -10.365  17.098  67.867  1.00  0.00    -0.350 C  
HETATM   33  C   UNL     1     -10.087  18.384  68.066  1.00  0.00    -0.392 C  
HETATM   34  C   UNL     1     -10.203  19.317  66.935  1.00  0.00    -0.400 C  
HETATM   35  O   UNL     1     -10.097  20.526  67.102  1.00  0.00    -0.425 OA 
HETATM   36  N   UNL     1     -10.447  18.745  65.722  1.00  0.00    -0.384 N  
HETATM   37  H   UNL     1     -10.375  19.347  64.902  1.00  0.00     0.000 HD 
HETATM   38  C   UNL     1     -10.782  17.432  65.507  1.00  0.00    -0.078 C  
HETATM   39  O   UNL     1     -11.114  17.058  64.389  1.00  0.00    -1.144 OA 
ENDBRANCH  30  31
ENDBRANCH  21  22
ENDBRANCH  12  21
ENDBRANCH   7   9
ENDBRANCH   5   7
ENDBRANCH   4   5
ENDBRANCH   2   4
TORSDOF 8
ENDMDL
MODEL        9
REMARK 921   NORMALIZED FREE ENERGY PREDICTED BY IDOCK:   -6.23 KCAL/MOL
REMARK 922        TOTAL FREE ENERGY PREDICTED BY IDOCK:  -11.69 KCAL/MOL
REMARK 923 INTER-LIGAND FREE ENERGY PREDICTED BY IDOCK:   -9.74 KCAL/MOL
REMARK 924 INTRA-LIGAND FREE ENERGY PREDICTED BY IDOCK:   -1.95 KCAL/MOL
REMARK 927      BINDING AFFINITY PREDICTED BY RF-SCORE:    0.00 PKD
ROOT
HETATM    1  C   UNL     1      -8.202   4.937  66.449  1.00  0.00    -0.108 C  
HETATM    2  C   UNL     1      -8.055   6.432  66.704  1.00  0.00    -0.110 C  
HETATM    3  C   UNL     1      -6.820   6.966  65.981  1.00  0.00    -0.060 C  
ENDROOT
BRANCH   2   4
HETATM    4  O   UNL     1      -9.205   7.131  66.187  1.00  0.00    -0.155 OA 
BRANCH   4   5
HETATM    5  C   UNL     1     -10.304   7.167  67.000  1.00  0.00    -0.298 C  
HETATM    6  O   UNL     1     -11.301   6.467  66.866  1.00  0.00    -0.304 OA 
BRANCH   5   7
HETATM    7  C   UNL     1     -10.079   8.161  68.142  1.00  0.00    -0.198 C  
HETATM    8  C   UNL     1      -9.931   7.368  69.440  1.00  0.00    -0.176 C  
BRANCH   7   9
HETATM    9  N   UNL     1     -11.171   9.164  68.184  1.00  0.00    -0.402 NA 
HETATM   10  P   UNL     1     -10.655  10.778  68.142  1.00  0.00    -0.244 P  
HETATM   11  H   UNL     1     -11.767   9.004  68.997  1.00  0.00     0.000 HD 
HETATM   12  O   UNL     1     -12.036  11.698  68.159  1.00  0.00    -0.577 OA 
HETATM   13  O   UNL     1     -10.756  10.706  66.417  1.00  0.00    -0.214 OA 
HETATM   14  O   UNL     1     -10.563  10.841  69.687  1.00  0.00    -0.231 OA 
BRANCH  13  15
HETATM   15  C   UNL     1      -9.593  10.566  65.705  1.00  0.00    -0.226 A  
HETATM   16  C   UNL     1      -7.319  10.122  64.159  1.00  0.00    -0.108 A  
HETATM   17  C   UNL     1      -9.723  10.172  64.374  1.00  0.00    -0.345 A  
HETATM   18  C   UNL     1      -8.330  10.776  66.258  1.00  0.00    -0.160 A  
HETATM   19  C   UNL     1      -8.585   9.943  63.602  1.00  0.00    -0.203 A  
HETATM   20  C   UNL     1      -7.192  10.545  65.481  1.00  0.00    -0.103 A  
ENDBRANCH  13  15
BRANCH  12  21
HETATM   21  C   UNL     1     -11.906  13.025  68.703  1.00  0.00    -0.318 C  
BRANCH  21  22
HETATM   22  C   UNL     1     -12.036  14.236  67.729  1.00  0.00    -0.349 C  
HETATM   23  O   UNL     1     -11.107  15.279  68.099  1.00  0.00    -0.282 OA 
HETATM   24  C   UNL     1     -10.955  15.161  65.751  1.00  0.00    -0.349 C  
HETATM   25  H   UNL     1     -12.744  13.593  64.527  1.00  0.00     0.000 HD 
HETATM   26  C   UNL     1     -11.749  13.938  66.238  1.00  0.00    -0.383 C  
HETATM   27  O   UNL     1     -12.920  13.776  65.443  1.00  0.00    -0.706 OA 
HETATM   28  F   UNL     1     -11.532  15.677  64.630  1.00  0.00    -0.391 F  
HETATM   29  C   UNL     1      -9.539  14.746  65.384  1.00  0.00    -0.064 C  
HETATM   30  C   UNL     1     -11.073  16.127  66.931  1.00  0.00     0.011 C  
BRANCH  30  31
HETATM   31  N   UNL     1     -10.019  17.137  67.070  1.00  0.00    -0.277 N  
HETATM   32  C   UNL     1      -9.059  17.039  68.062  1.00  0.00    -0.237 C  
HETATM   33  C   UNL     1      -8.157  17.995  68.273  1.00  0.00    -0.296 C  
HETATM   34  C   UNL     1      -8.196  19.203  67.434  1.00  0.00    -0.276 C  
HETATM   35  O   UNL     1      -7.481  20.166  67.682  1.00  0.00    -0.285 OA 
HETATM   36  N   UNL     1      -9.078  19.170  66.395  1.00  0.00    -0.340 N  
HETATM   37  H   UNL     1      -9.013  19.921  65.708  1.00  0.00     0.000 HD 
HETATM   38  C   UNL     1     -10.044  18.217  66.192  1.00  0.00    -0.346 C  
HETATM   39  O   UNL     1     -10.872  18.362  65.301  1.00  0.00    -0.624 OA 
ENDBRANCH  30  31
ENDBRANCH  21  22
ENDBRANCH  12  21
ENDBRANCH   7   9
ENDBRANCH   5   7
ENDBRANCH   4   5
ENDBRANCH   2   4
TORSDOF 8
ENDMDL
MODEL       10
REMARK 921   NORMALIZED FREE ENERGY PREDICTED BY IDOCK:   -6.22 KCAL/MOL
REMARK 922        TOTAL FREE ENERGY PREDICTED BY IDOCK:  -11.68 KCAL/MOL
REMARK 923 INTER-LIGAND FREE ENERGY PREDICTED BY IDOCK:  -10.10 KCAL/MOL
REMARK 924 INTRA-LIGAND FREE ENERGY PREDICTED BY IDOCK:   -1.58 KCAL/MOL
REMARK 927      BINDING AFFINITY PREDICTED BY RF-SCORE:    0.00 PKD
ROOT
HETATM    1  C   UNL     1     -11.014   8.224  72.492  1.00  0.00    -0.424 C  
HETATM    2  C   UNL     1     -10.786   7.016  71.592  1.00  0.00    -0.220 C  
HETATM    3  C   UNL     1     -11.440   5.778  72.202  1.00  0.00    -0.295 C  
ENDROOT
BRANCH   2   4
HETATM    4  O   UNL     1     -11.391   7.245  70.304  1.00  0.00    -0.273 OA 
BRANCH   4   5
HETATM    5  C   UNL     1     -10.686   6.802  69.219  1.00  0.00    -0.253 C  
HETATM    6  O   UNL     1     -10.505   5.625  68.931  1.00  0.00    -0.220 OA 
BRANCH   5   7
HETATM    7  C   UNL     1     -10.215   7.992  68.379  1.00  0.00    -0.207 C  
HETATM    8  C   UNL     1      -8.905   8.505  68.975  1.00  0.00    -0.145 C  
BRANCH   7   9
HETATM    9  N   UNL     1     -11.274   9.028  68.302  1.00  0.00    -0.343 NA 
HETATM   10  P   UNL     1     -10.716  10.624  68.421  1.00  0.00    -0.266 P  
HETATM   11  H   UNL     1     -11.994   8.851  69.003  1.00  0.00     0.000 HD 
HETATM   12  O   UNL     1     -12.059  11.588  68.269  1.00  0.00    -0.580 OA 
HETATM   13  O   UNL     1     -10.548  10.634  66.700  1.00  0.00    -0.243 OA 
HETATM   14  O   UNL     1     -10.866  10.614  69.963  1.00  0.00    -0.274 OA 
BRANCH  13  15
HETATM   15  C   UNL     1      -9.291  10.488  66.171  1.00  0.00    -0.176 A  
HETATM   16  C   UNL     1      -6.783   9.991  65.068  1.00  0.00    -0.128 A  
HETATM   17  C   UNL     1      -9.163   9.592  65.112  1.00  0.00    -0.305 A  
HETATM   18  C   UNL     1      -8.174  11.167  66.659  1.00  0.00    -0.158 A  
HETATM   19  C   UNL     1      -7.907   9.338  64.563  1.00  0.00    -0.118 A  
HETATM   20  C   UNL     1      -6.917  10.910  66.107  1.00  0.00    -0.099 A  
ENDBRANCH  13  15
BRANCH  12  21
HETATM   21  C   UNL     1     -11.981  12.884  68.893  1.00  0.00    -0.250 C  
BRANCH  21  22
HETATM   22  C   UNL     1     -12.008  14.145  67.976  1.00  0.00    -0.337 C  
HETATM   23  O   UNL     1     -11.027  15.108  68.420  1.00  0.00    -0.251 OA 
HETATM   24  C   UNL     1     -10.817  15.091  66.073  1.00  0.00    -0.334 C  
HETATM   25  H   UNL     1     -12.665  13.699  64.730  1.00  0.00     0.000 HD 
HETATM   26  C   UNL     1     -11.699  13.900  66.480  1.00  0.00    -0.393 C  
HETATM   27  O   UNL     1     -12.855  13.849  65.649  1.00  0.00    -0.541 OA 
HETATM   28  F   UNL     1     -11.329  15.694  64.965  1.00  0.00    -0.345 F  
HETATM   29  C   UNL     1      -9.420  14.605  65.722  1.00  0.00    -0.180 C  
HETATM   30  C   UNL     1     -10.908  16.006  67.296  1.00  0.00    -0.255 C  
BRANCH  30  31
HETATM   31  N   UNL     1      -9.797  16.940  67.509  1.00  0.00    -0.254 N  
HETATM   32  C   UNL     1      -8.860  16.722  68.503  1.00  0.00    -0.248 C  
HETATM   33  C   UNL     1      -7.905  17.606  68.783  1.00  0.00    -0.242 C  
HETATM   34  C   UNL     1      -7.860  18.864  68.024  1.00  0.00    -0.277 C  
HETATM   35  O   UNL     1      -7.092  19.765  68.340  1.00  0.00    -0.289 OA 
HETATM   36  N   UNL     1      -8.727  18.951  66.976  1.00  0.00    -0.286 N  
HETATM   37  H   UNL     1      -8.609  19.739  66.338  1.00  0.00     0.000 HD 
HETATM   38  C   UNL     1      -9.746  18.073  66.702  1.00  0.00    -0.332 C  
HETATM   39  O   UNL     1     -10.551  18.324  65.813  1.00  0.00    -0.554 OA 
ENDBRANCH  30  31
ENDBRANCH  21  22
ENDBRANCH  12  21
ENDBRANCH   7   9
ENDBRANCH   5   7
ENDBRANCH   4   5
ENDBRANCH   2   4
TORSDOF 8
ENDMDL
MODEL       11
REMARK 921   NORMALIZED FREE ENERGY PREDICTED BY IDOCK:   -6.15 KCAL/MOL
REMARK 922        TOTAL FREE ENERGY PREDICTED BY IDOCK:  -11.58 KCAL/MOL
REMARK 923 INTER-LIGAND FREE ENERGY PREDICTED BY IDOCK:   -9.99 KCAL/MOL
REMARK 924 INTRA-LIGAND FREE ENERGY PREDICTED BY IDOCK:   -1.60 KCAL/MOL
REMARK 927      BINDING AFFINITY PREDICTED BY RF-SCORE:    0.00 PKD
ROOT
HETATM    1  C   UNL     1     -10.560  18.903  67.897  1.00  0.00    -0.425 C  
HETATM    2  C   UNL     1     -10.761  18.843  66.388  1.00  0.00    -0.290 C  
HETATM    3  C   UNL     1     -10.496  20.214  65.769  1.00  0.00    -0.385 C  
ENDROOT
BRANCH   2   4
HETATM    4  O   UNL     1      -9.829  17.910  65.808  1.00  0.00    -0.540 OA 
BRANCH   4   5
HETATM    5  C   UNL     1      -9.963  16.604  66.194  1.00  0.00    -0.337 C  
HETATM    6  O   UNL     1     -10.947  15.906  65.982  1.00  0.00    -0.261 OA 
BRANCH   5   7
HETATM    7  C   UNL     1      -8.675  16.122  66.868  1.00  0.00    -0.223 C  
HETATM    8  C   UNL     1      -7.524  16.997  66.374  1.00  0.00    -0.336 C  
BRANCH   7   9
HETATM    9  N   UNL     1      -8.466  14.675  66.619  1.00  0.00    -0.429 NA 
HETATM   10  P   UNL     1      -8.215  13.744  68.013  1.00  0.00    -0.191 P  
HETATM   11  H   UNL     1      -7.700  14.536  65.959  1.00  0.00     0.000 HD 
HETATM   12  O   UNL     1      -8.048  12.178  67.490  1.00  0.00    -0.143 OA 
HETATM   13  O   UNL     1      -9.926  13.506  68.094  1.00  0.00    -0.227 OA 
HETATM   14  O   UNL     1      -6.682  13.958  67.940  1.00  0.00    -0.125 OA 
BRANCH  13  15
HETATM   15  C   UNL     1     -10.640  14.241  69.005  1.00  0.00    -0.232 A  
HETATM   16  C   UNL     1     -12.263  15.683  70.750  1.00  0.00    -0.463 A  
HETATM   17  C   UNL     1     -11.896  13.748  69.353  1.00  0.00    -0.392 A  
HETATM   18  C   UNL     1     -10.175  15.437  69.553  1.00  0.00    -0.273 A  
HETATM   19  C   UNL     1     -12.711  14.472  70.223  1.00  0.00    -0.325 A  
HETATM   20  C   UNL     1     -10.994  16.160  70.423  1.00  0.00    -0.320 A  
ENDBRANCH  13  15
BRANCH  12  21
HETATM   21  C   UNL     1      -7.275  11.306  68.337  1.00  0.00    -0.085 C  
BRANCH  21  22
HETATM   22  C   UNL     1      -7.888   9.929  68.732  1.00  0.00    -0.091 C  
HETATM   23  O   UNL     1      -9.022  10.117  69.609  1.00  0.00    -0.202 OA 
HETATM   24  C   UNL     1      -9.720   8.452  68.094  1.00  0.00    -0.155 C  
HETATM   25  H   UNL     1      -7.843   7.489  66.448  1.00  0.00     0.000 HD 
HETATM   26  C   UNL     1      -8.412   9.062  67.562  1.00  0.00    -0.116 C  
HETATM   27  O   UNL     1      -7.522   8.022  67.167  1.00  0.00    -0.089 OA 
HETATM   28  F   UNL     1      -9.704   7.100  67.934  1.00  0.00    -0.134 F  
HETATM   29  C   UNL     1     -10.901   8.991  67.304  1.00  0.00    -0.100 C  
HETATM   30  C   UNL     1      -9.688   8.837  69.575  1.00  0.00    -0.172 C  
BRANCH  30  31
HETATM   31  N   UNL     1     -10.978   8.920  70.267  1.00  0.00    -0.241 N  
HETATM   32  C   UNL     1     -11.552  10.142  70.569  1.00  0.00    -0.329 C  
HETATM   33  C   UNL     1     -12.669  10.244  71.286  1.00  0.00    -0.523 C  
HETATM   34  C   UNL     1     -13.301   9.016  71.789  1.00  0.00    -0.397 C  
HETATM   35  O   UNL     1     -14.244   9.066  72.569  1.00  0.00    -0.537 OA 
HETATM   36  N   UNL     1     -12.759   7.848  71.342  1.00  0.00    -0.408 N  
HETATM   37  H   UNL     1     -13.272   6.989  71.545  1.00  0.00     0.000 HD 
HETATM   38  C   UNL     1     -11.584   7.724  70.643  1.00  0.00    -0.218 C  
HETATM   39  O   UNL     1     -11.121   6.614  70.411  1.00  0.00    -0.273 OA 
ENDBRANCH  30  31
ENDBRANCH  21  22
ENDBRANCH  12  21
ENDBRANCH   7   9
ENDBRANCH   5   7
ENDBRANCH   4   5
ENDBRANCH   2   4
TORSDOF 8
ENDMDL
MODEL       12
REMARK 921   NORMALIZED FREE ENERGY PREDICTED BY IDOCK:   -6.08 KCAL/MOL
REMARK 922        TOTAL FREE ENERGY PREDICTED BY IDOCK:  -11.48 KCAL/MOL
REMARK 923 INTER-LIGAND FREE ENERGY PREDICTED BY IDOCK:   -9.62 KCAL/MOL
REMARK 924 INTRA-LIGAND FREE ENERGY PREDICTED BY IDOCK:   -1.86 KCAL/MOL
REMARK 927      BINDING AFFINITY PREDICTED BY RF-SCORE:    0.00 PKD
ROOT
HETATM    1  C   UNL     1      -7.203  18.797  65.938  1.00  0.00    -0.270 C  
HETATM    2  C   UNL     1      -7.470  17.554  66.779  1.00  0.00    -0.219 C  
HETATM    3  C   UNL     1      -7.198  17.851  68.252  1.00  0.00    -0.236 C  
ENDROOT
BRANCH   2   4
HETATM    4  O   UNL     1      -8.853  17.169  66.654  1.00  0.00    -0.227 OA 
BRANCH   4   5
HETATM    5  C   UNL     1      -9.135  15.850  66.883  1.00  0.00    -0.231 C  
HETATM    6  O   UNL     1      -8.396  14.914  66.600  1.00  0.00    -0.188 OA 
BRANCH   5   7
HETATM    7  C   UNL     1     -10.477  15.718  67.606  1.00  0.00    -0.282 C  
HETATM    8  C   UNL     1     -10.905  17.110  68.071  1.00  0.00    -0.317 C  
BRANCH   7   9
HETATM    9  N   UNL     1     -10.381  14.731  68.710  1.00  0.00    -0.242 NA 
HETATM   10  P   UNL     1     -11.632  13.588  68.750  1.00  0.00    -0.367 P  
HETATM   11  H   UNL     1     -10.311  15.211  69.608  1.00  0.00     0.000 HD 
HETATM   12  O   UNL     1     -11.289  12.584  70.027  1.00  0.00    -0.088 OA 
HETATM   13  O   UNL     1     -10.666  12.578  67.732  1.00  0.00    -0.211 OA 
HETATM   14  O   UNL     1     -12.498  14.493  69.662  1.00  0.00    -0.279 OA 
BRANCH  13  15
HETATM   15  C   UNL     1     -10.976  12.516  66.398  1.00  0.00    -0.273 A  
HETATM   16  C   UNL     1     -11.803  12.345  63.744  1.00  0.00    -0.587 A  
HETATM   17  C   UNL     1     -12.236  12.985  66.031  1.00  0.00    -0.463 A  
HETATM   18  C   UNL     1     -10.111  11.994  65.436  1.00  0.00    -0.285 A  
HETATM   19  C   UNL     1     -12.653  12.895  64.703  1.00  0.00    -0.459 A  
HETATM   20  C   UNL     1     -10.532  11.905  64.108  1.00  0.00    -0.393 A  
ENDBRANCH  13  15
BRANCH  12  21
HETATM   21  C   UNL     1     -12.418  11.928  70.636  1.00  0.00    -0.257 C  
BRANCH  21  22
HETATM   22  C   UNL     1     -12.479  10.371  70.583  1.00  0.00    -0.348 C  
HETATM   23  O   UNL     1     -11.358   9.849  69.836  1.00  0.00    -0.244 OA 
HETATM   24  C   UNL     1     -11.529   8.429  71.708  1.00  0.00    -0.301 C  
HETATM   25  H   UNL     1     -13.685   8.766  73.256  1.00  0.00     0.000 HD 
HETATM   26  C   UNL     1     -12.437   9.646  71.950  1.00  0.00    -0.377 C  
HETATM   27  O   UNL     1     -13.711   9.212  72.416  1.00  0.00    -0.464 OA 
HETATM   28  F   UNL     1     -12.157   7.290  72.113  1.00  0.00    -0.302 F  
HETATM   29  C   UNL     1     -10.255   8.562  72.527  1.00  0.00    -0.323 C  
HETATM   30  C   UNL     1     -11.341   8.450  70.190  1.00  0.00    -0.065 C  
BRANCH  30  31
HETATM   31  N   UNL     1     -10.132   7.809  69.662  1.00  0.00    -0.191 N  
HETATM   32  C   UNL     1      -9.002   8.549  69.362  1.00  0.00    -0.149 C  
HETATM   33  C   UNL     1      -7.931   8.006  68.787  1.00  0.00    -0.119 C  
HETATM   34  C   UNL     1      -7.961   6.578  68.441  1.00  0.00    -0.110 C  
HETATM   35  O   UNL     1      -7.061   6.069  67.784  1.00  0.00    -0.070 OA 
HETATM   36  N   UNL     1      -9.049   5.886  68.885  1.00  0.00    -0.120 N  
HETATM   37  H   UNL     1      -9.020   4.870  68.799  1.00  0.00     0.000 HD 
HETATM   38  C   UNL     1     -10.178   6.436  69.437  1.00  0.00    -0.192 C  
HETATM   39  O   UNL     1     -11.152   5.731  69.674  1.00  0.00    -0.372 OA 
ENDBRANCH  30  31
ENDBRANCH  21  22
ENDBRANCH  12  21
ENDBRANCH   7   9
ENDBRANCH   5   7
ENDBRANCH   4   5
ENDBRANCH   2   4
TORSDOF 8
ENDMDL
MODEL       13
REMARK 921   NORMALIZED FREE ENERGY PREDICTED BY IDOCK:   -6.06 KCAL/MOL
REMARK 922        TOTAL FREE ENERGY PREDICTED BY IDOCK:  -11.45 KCAL/MOL
REMARK 923 INTER-LIGAND FREE ENERGY PREDICTED BY IDOCK:  -10.08 KCAL/MOL
REMARK 924 INTRA-LIGAND FREE ENERGY PREDICTED BY IDOCK:   -1.37 KCAL/MOL
REMARK 927      BINDING AFFINITY PREDICTED BY RF-SCORE:    0.00 PKD
ROOT
HETATM    1  C   UNL     1     -10.013  10.991  64.417  1.00  0.00    -0.368 C  
HETATM    2  C   UNL     1      -9.222   9.692  64.516  1.00  0.00    -0.218 C  
HETATM    3  C   UNL     1      -8.193   9.619  63.391  1.00  0.00    -0.160 C  
ENDROOT
BRANCH   2   4
HETATM    4  O   UNL     1      -8.510   9.648  65.769  1.00  0.00    -0.127 OA 
BRANCH   4   5
HETATM    5  C   UNL     1      -8.695   8.526  66.529  1.00  0.00    -0.132 C  
HETATM    6  O   UNL     1      -8.224   7.423  66.280  1.00  0.00    -0.114 OA 
BRANCH   5   7
HETATM    7  C   UNL     1      -9.520   8.866  67.773  1.00  0.00    -0.141 C  
HETATM    8  C   UNL     1     -10.901   8.232  67.616  1.00  0.00    -0.083 C  
BRANCH   7   9
HETATM    9  N   UNL     1      -9.565  10.335  67.984  1.00  0.00    -0.145 NA 
HETATM   10  P   UNL     1     -11.025  10.916  68.616  1.00  0.00    -0.276 P  
HETATM   11  H   UNL     1      -9.335  10.823  67.118  1.00  0.00     0.000 HD 
HETATM   12  O   UNL     1     -10.822  12.553  68.798  1.00  0.00    -0.242 OA 
HETATM   13  O   UNL     1     -10.366  10.686  70.199  1.00  0.00    -0.082 OA 
HETATM   14  O   UNL     1     -11.616  11.121  67.199  1.00  0.00    -0.495 OA 
BRANCH  13  15
HETATM   15  C   UNL     1     -10.770   9.589  70.916  1.00  0.00    -0.333 A  
HETATM   16  C   UNL     1     -11.420   7.263  72.303  1.00  0.00    -0.316 A  
HETATM   17  C   UNL     1      -9.763   8.827  71.504  1.00  0.00    -0.361 A  
HETATM   18  C   UNL     1     -12.107   9.214  71.048  1.00  0.00    -0.324 A  
HETATM   19  C   UNL     1     -10.088   7.659  72.194  1.00  0.00    -0.246 A  
HETATM   20  C   UNL     1     -12.428   8.043  71.739  1.00  0.00    -0.355 A  
ENDBRANCH  13  15
BRANCH  12  21
HETATM   21  C   UNL     1     -12.022  13.349  68.752  1.00  0.00    -0.324 C  
BRANCH  21  22
HETATM   22  C   UNL     1     -12.065  14.560  67.772  1.00  0.00    -0.234 C  
HETATM   23  O   UNL     1     -11.138  15.583  68.198  1.00  0.00    -0.298 OA 
HETATM   24  C   UNL     1     -10.843  15.458  65.864  1.00  0.00    -0.325 C  
HETATM   25  H   UNL     1     -12.587  13.927  64.532  1.00  0.00     0.000 HD 
HETATM   26  C   UNL     1     -11.693  14.254  66.301  1.00  0.00    -0.393 C  
HETATM   27  O   UNL     1     -12.815  14.116  65.435  1.00  0.00    -0.637 OA 
HETATM   28  F   UNL     1     -11.337  15.984  64.709  1.00  0.00    -0.389 F  
HETATM   29  C   UNL     1      -9.416  15.011  65.586  1.00  0.00    -0.179 C  
HETATM   30  C   UNL     1     -11.013  16.428  67.034  1.00  0.00    -0.048 C  
BRANCH  30  31
HETATM   31  N   UNL     1      -9.947  17.415  67.238  1.00  0.00    -0.292 N  
HETATM   32  C   UNL     1      -9.036  17.283  68.271  1.00  0.00    -0.262 C  
HETATM   33  C   UNL     1      -8.127  18.218  68.538  1.00  0.00    -0.330 C  
HETATM   34  C   UNL     1      -8.104  19.439  67.719  1.00  0.00    -0.291 C  
HETATM   35  O   UNL     1      -7.384  20.383  68.016  1.00  0.00    -0.283 OA 
HETATM   36  N   UNL     1      -8.938  19.440  66.641  1.00  0.00    -0.329 N  
HETATM   37  H   UNL     1      -8.828  20.201  65.969  1.00  0.00     0.000 HD 
HETATM   38  C   UNL     1      -9.912  18.509  66.378  1.00  0.00    -0.379 C  
HETATM   39  O   UNL     1     -10.695  18.684  65.452  1.00  0.00    -0.572 OA 
ENDBRANCH  30  31
ENDBRANCH  21  22
ENDBRANCH  12  21
ENDBRANCH   7   9
ENDBRANCH   5   7
ENDBRANCH   4   5
ENDBRANCH   2   4
TORSDOF 8
ENDMDL
MODEL       14
REMARK 921   NORMALIZED FREE ENERGY PREDICTED BY IDOCK:   -5.94 KCAL/MOL
REMARK 922        TOTAL FREE ENERGY PREDICTED BY IDOCK:  -11.27 KCAL/MOL
REMARK 923 INTER-LIGAND FREE ENERGY PREDICTED BY IDOCK:  -10.42 KCAL/MOL
REMARK 924 INTRA-LIGAND FREE ENERGY PREDICTED BY IDOCK:   -0.85 KCAL/MOL
REMARK 927      BINDING AFFINITY PREDICTED BY RF-SCORE:    0.00 PKD
ROOT
HETATM    1  C   UNL     1     -12.944  13.964  65.251  1.00  0.00    -0.341 C  
HETATM    2  C   UNL     1     -11.583  13.296  65.091  1.00  0.00    -0.308 C  
HETATM    3  C   UNL     1     -11.706  12.068  64.192  1.00  0.00    -0.457 C  
ENDROOT
BRANCH   2   4
HETATM    4  O   UNL     1     -10.661  14.210  64.466  1.00  0.00    -0.403 OA 
BRANCH   4   5
HETATM    5  C   UNL     1     -10.443  15.390  65.123  1.00  0.00    -0.411 C  
HETATM    6  O   UNL     1     -10.939  16.468  64.817  1.00  0.00    -0.688 OA 
BRANCH   5   7
HETATM    7  C   UNL     1      -9.543  15.154  66.339  1.00  0.00    -0.284 C  
HETATM    8  C   UNL     1      -8.361  16.118  66.250  1.00  0.00    -0.322 C  
BRANCH   7   9
HETATM    9  N   UNL     1      -9.138  13.729  66.419  1.00  0.00    -0.469 NA 
HETATM   10  P   UNL     1      -8.600  13.228  67.946  1.00  0.00    -0.211 P  
HETATM   11  H   UNL     1      -8.433  13.521  65.711  1.00  0.00     0.000 HD 
HETATM   12  O   UNL     1      -8.247  11.614  67.798  1.00  0.00    -0.129 OA 
HETATM   13  O   UNL     1     -10.236  12.809  68.321  1.00  0.00    -0.233 OA 
HETATM   14  O   UNL     1      -7.136  13.606  67.610  1.00  0.00    -0.148 OA 
BRANCH  13  15
HETATM   15  C   UNL     1     -10.957  13.659  69.119  1.00  0.00    -0.194 A  
HETATM   16  C   UNL     1     -12.242  15.444  70.828  1.00  0.00    -0.430 A  
HETATM   17  C   UNL     1     -10.356  14.877  69.431  1.00  0.00    -0.217 A  
HETATM   18  C   UNL     1     -12.216  13.343  69.629  1.00  0.00    -0.279 A  
HETATM   19  C   UNL     1     -10.996  15.769  70.291  1.00  0.00    -0.368 A  
HETATM   20  C   UNL     1     -12.854  14.238  70.491  1.00  0.00    -0.336 A  
ENDBRANCH  13  15
BRANCH  12  21
HETATM   21  C   UNL     1      -7.264  11.094  68.713  1.00  0.00    -0.098 C  
BRANCH  21  22
HETATM   22  C   UNL     1      -7.668   9.897  69.627  1.00  0.00    -0.149 C  
HETATM   23  O   UNL     1      -8.934  10.163  70.270  1.00  0.00    -0.024 OA 
HETATM   24  C   UNL     1      -9.083   7.914  69.583  1.00  0.00    -0.153 C  
HETATM   25  H   UNL     1      -6.839   6.819  68.622  1.00  0.00     0.000 HD 
HETATM   26  C   UNL     1      -7.844   8.534  68.916  1.00  0.00    -0.109 C  
HETATM   27  O   UNL     1      -6.731   7.657  69.059  1.00  0.00    -0.047 OA 
HETATM   28  F   UNL     1      -8.798   6.657  70.022  1.00  0.00    -0.136 F  
HETATM   29  C   UNL     1     -10.212   7.798  68.571  1.00  0.00    -0.227 C  
HETATM   30  C   UNL     1      -9.343   8.865  70.753  1.00  0.00    -0.230 C  
BRANCH  30  31
HETATM   31  N   UNL     1     -10.715   8.926  71.266  1.00  0.00    -0.260 N  
HETATM   32  C   UNL     1     -11.576   9.943  70.892  1.00  0.00    -0.373 C  
HETATM   33  C   UNL     1     -12.789  10.077  71.424  1.00  0.00    -0.519 C  
HETATM   34  C   UNL     1     -13.219   9.124  72.457  1.00  0.00    -0.397 C  
HETATM   35  O   UNL     1     -14.263   9.291  73.074  1.00  0.00    -0.387 OA 
HETATM   36  N   UNL     1     -12.376   8.075  72.677  1.00  0.00    -0.596 N  
HETATM   37  H   UNL     1     -12.722   7.318  73.268  1.00  0.00     0.000 HD 
HETATM   38  C   UNL     1     -11.106   7.946  72.174  1.00  0.00    -0.294 C  
HETATM   39  O   UNL     1     -10.387   7.027  72.549  1.00  0.00    -0.193 OA 
ENDBRANCH  30  31
ENDBRANCH  21  22
ENDBRANCH  12  21
ENDBRANCH   7   9
ENDBRANCH   5   7
ENDBRANCH   4   5
ENDBRANCH   2   4
TORSDOF 8
ENDMDL
MODEL       15
REMARK 921   NORMALIZED FREE ENERGY PREDICTED BY IDOCK:   -5.90 KCAL/MOL
REMARK 922        TOTAL FREE ENERGY PREDICTED BY IDOCK:  -11.22 KCAL/MOL
REMARK 923 INTER-LIGAND FREE ENERGY PREDICTED BY IDOCK:   -9.61 KCAL/MOL
REMARK 924 INTRA-LIGAND FREE ENERGY PREDICTED BY IDOCK:   -1.60 KCAL/MOL
REMARK 927      BINDING AFFINITY PREDICTED BY RF-SCORE:    0.00 PKD
ROOT
HETATM    1  C   UNL     1      -6.725   9.522  70.214  1.00  0.00    -0.084 C  
HETATM    2  C   UNL     1      -6.822   8.019  69.984  1.00  0.00    -0.041 C  
HETATM    3  C   UNL     1      -6.653   7.275  71.307  1.00  0.00    -0.043 C  
ENDROOT
BRANCH   2   4
HETATM    4  O   UNL     1      -8.123   7.689  69.457  1.00  0.00    -0.122 OA 
BRANCH   4   5
HETATM    5  C   UNL     1      -8.314   7.934  68.125  1.00  0.00    -0.124 C  
HETATM    6  O   UNL     1      -7.513   7.662  67.238  1.00  0.00    -0.095 OA 
BRANCH   5   7
HETATM    7  C   UNL     1      -9.703   8.535  67.897  1.00  0.00    -0.162 C  
HETATM    8  C   UNL     1     -10.159   8.158  66.487  1.00  0.00    -0.286 C  
BRANCH   7   9
HETATM    9  N   UNL     1      -9.685   9.999  68.140  1.00  0.00    -0.139 NA 
HETATM   10  P   UNL     1     -11.107  10.623  68.818  1.00  0.00    -0.290 P  
HETATM   11  H   UNL     1      -9.455  10.497  67.279  1.00  0.00     0.000 HD 
HETATM   12  O   UNL     1     -10.835  12.247  69.031  1.00  0.00    -0.213 OA 
HETATM   13  O   UNL     1     -10.422  10.332  70.380  1.00  0.00    -0.247 OA 
HETATM   14  O   UNL     1     -11.720  10.883  67.420  1.00  0.00    -0.510 OA 
BRANCH  13  15
HETATM   15  C   UNL     1     -10.853   9.236  71.082  1.00  0.00    -0.337 A  
HETATM   16  C   UNL     1     -11.533   6.940  72.505  1.00  0.00    -0.268 A  
HETATM   17  C   UNL     1      -9.969   8.716  72.026  1.00  0.00    -0.399 A  
HETATM   18  C   UNL     1     -12.093   8.634  70.871  1.00  0.00    -0.173 A  
HETATM   19  C   UNL     1     -10.306   7.563  72.734  1.00  0.00    -0.331 A  
HETATM   20  C   UNL     1     -12.428   7.479  71.582  1.00  0.00    -0.371 A  
ENDBRANCH  13  15
BRANCH  12  21
HETATM   21  C   UNL     1     -12.003  13.089  69.029  1.00  0.00    -0.267 C  
BRANCH  21  22
HETATM   22  C   UNL     1     -12.029  14.309  68.059  1.00  0.00    -0.318 C  
HETATM   23  O   UNL     1     -11.086  15.315  68.492  1.00  0.00    -0.255 OA 
HETATM   24  C   UNL     1     -10.797  15.204  66.156  1.00  0.00    -0.330 C  
HETATM   25  H   UNL     1     -12.566  13.711  64.815  1.00  0.00     0.000 HD 
HETATM   26  C   UNL     1     -11.664  14.010  66.586  1.00  0.00    -0.399 C  
HETATM   27  O   UNL     1     -12.790  13.896  65.720  1.00  0.00    -0.501 OA 
HETATM   28  F   UNL     1     -11.286  15.748  65.007  1.00  0.00    -0.358 F  
HETATM   29  C   UNL     1      -9.378  14.739  65.872  1.00  0.00    -0.189 C  
HETATM   30  C   UNL     1     -10.950  16.168  67.335  1.00  0.00    -0.210 C  
BRANCH  30  31
HETATM   31  N   UNL     1      -9.870  17.137  67.545  1.00  0.00    -0.260 N  
HETATM   32  C   UNL     1      -8.939  16.964  68.554  1.00  0.00    -0.254 C  
HETATM   33  C   UNL     1      -8.014  17.881  68.830  1.00  0.00    -0.246 C  
HETATM   34  C   UNL     1      -7.995  19.125  68.047  1.00  0.00    -0.296 C  
HETATM   35  O   UNL     1      -7.258  20.053  68.356  1.00  0.00    -0.299 OA 
HETATM   36  N   UNL     1      -8.851  19.168  66.987  1.00  0.00    -0.287 N  
HETATM   37  H   UNL     1      -8.747  19.947  66.336  1.00  0.00     0.000 HD 
HETATM   38  C   UNL     1      -9.840  18.256  66.717  1.00  0.00    -0.341 C  
HETATM   39  O   UNL     1     -10.641  18.467  65.814  1.00  0.00    -0.570 OA 
ENDBRANCH  30  31
ENDBRANCH  21  22
ENDBRANCH  12  21
ENDBRANCH   7   9
ENDBRANCH   5   7
ENDBRANCH   4   5
ENDBRANCH   2   4
TORSDOF 8
ENDMDL
MODEL       16
REMARK 921   NORMALIZED FREE ENERGY PREDICTED BY IDOCK:   -5.86 KCAL/MOL
REMARK 922        TOTAL FREE ENERGY PREDICTED BY IDOCK:  -11.15 KCAL/MOL
REMARK 923 INTER-LIGAND FREE ENERGY PREDICTED BY IDOCK:   -9.54 KCAL/MOL
REMARK 924 INTRA-LIGAND FREE ENERGY PREDICTED BY IDOCK:   -1.62 KCAL/MOL
REMARK 927      BINDING AFFINITY PREDICTED BY RF-SCORE:    0.00 PKD
ROOT
HETATM    1  C   UNL     1     -10.929   3.481  73.708  1.00  0.00    -0.308 C  
HETATM    2  C   UNL     1     -10.597   4.593  72.721  1.00  0.00    -0.208 C  
HETATM    3  C   UNL     1     -11.748   5.594  72.654  1.00  0.00    -0.256 C  
ENDROOT
BRANCH   2   4
HETATM    4  O   UNL     1      -9.421   5.302  73.161  1.00  0.00    -0.142 OA 
BRANCH   4   5
HETATM    5  C   UNL     1      -8.354   5.290  72.306  1.00  0.00    -0.122 C  
HETATM    6  O   UNL     1      -7.944   4.303  71.707  1.00  0.00    -0.083 OA 
BRANCH   5   7
HETATM    7  C   UNL     1      -7.789   6.705  72.154  1.00  0.00    -0.097 C  
HETATM    8  C   UNL     1      -6.884   6.987  73.352  1.00  0.00    -0.069 C  
BRANCH   7   9
HETATM    9  N   UNL     1      -8.887   7.691  71.998  1.00  0.00    -0.114 NA 
HETATM   10  P   UNL     1      -8.903   8.505  70.511  1.00  0.00    -0.180 P  
HETATM   11  H   UNL     1      -8.873   8.360  72.768  1.00  0.00     0.000 HD 
HETATM   12  O   UNL     1     -10.224   9.509  70.557  1.00  0.00    -0.249 OA 
HETATM   13  O   UNL     1      -9.916   7.245  69.896  1.00  0.00    -0.181 OA 
HETATM   14  O   UNL     1      -7.996   9.633  71.062  1.00  0.00    -0.301 OA 
BRANCH  13  15
HETATM   15  C   UNL     1      -9.347   6.290  69.094  1.00  0.00    -0.131 A  
HETATM   16  C   UNL     1      -8.242   4.209  67.608  1.00  0.00    -0.095 A  
HETATM   17  C   UNL     1      -9.965   5.041  69.081  1.00  0.00    -0.267 A  
HETATM   18  C   UNL     1      -8.198   6.516  68.337  1.00  0.00    -0.114 A  
HETATM   19  C   UNL     1      -9.409   3.997  68.342  1.00  0.00    -0.218 A  
HETATM   20  C   UNL     1      -7.643   5.468  67.598  1.00  0.00    -0.088 A  
ENDBRANCH  13  15
BRANCH  12  21
HETATM   21  C   UNL     1     -10.153  10.687  69.731  1.00  0.00    -0.006 C  
BRANCH  21  22
HETATM   22  C   UNL     1     -10.847  10.649  68.335  1.00  0.00    -0.237 C  
HETATM   23  O   UNL     1     -10.980  11.987  67.805  1.00  0.00    -0.211 OA 
HETATM   24  C   UNL     1     -10.274  10.693  65.967  1.00  0.00    -0.247 C  
HETATM   25  H   UNL     1     -10.202   8.045  66.342  1.00  0.00     0.000 HD 
HETATM   26  C   UNL     1     -10.114   9.842  67.237  1.00  0.00    -0.211 C  
HETATM   27  O   UNL     1     -10.652   8.541  67.016  1.00  0.00    -0.306 OA 
HETATM   28  F   UNL     1     -10.780   9.934  64.956  1.00  0.00    -0.087 F  
HETATM   29  C   UNL     1      -8.916  11.208  65.514  1.00  0.00    -0.178 C  
HETATM   30  C   UNL     1     -11.271  11.767  66.409  1.00  0.00    -0.323 C  
BRANCH  30  31
HETATM   31  N   UNL     1     -11.243  13.039  65.679  1.00  0.00    -0.280 N  
HETATM   32  C   UNL     1     -10.255  13.978  65.915  1.00  0.00    -0.320 C  
HETATM   33  C   UNL     1     -10.267  15.179  65.342  1.00  0.00    -0.402 C  
HETATM   34  C   UNL     1     -11.379  15.525  64.445  1.00  0.00    -0.252 C  
HETATM   35  O   UNL     1     -11.509  16.662  64.010  1.00  0.00    -1.192 OA 
HETATM   36  N   UNL     1     -12.240  14.508  64.156  1.00  0.00    -0.813 N  
HETATM   37  H   UNL     1     -12.924  14.674  63.416  1.00  0.00     0.000 HD 
HETATM   38  C   UNL     1     -12.270  13.282  64.771  1.00  0.00    -0.417 C  
HETATM   39  O   UNL     1     -13.175  12.493  64.527  1.00  0.00    -0.832 OA 
ENDBRANCH  30  31
ENDBRANCH  21  22
ENDBRANCH  12  21
ENDBRANCH   7   9
ENDBRANCH   5   7
ENDBRANCH   4   5
ENDBRANCH   2   4
TORSDOF 8
ENDMDL
MODEL       17
REMARK 921   NORMALIZED FREE ENERGY PREDICTED BY IDOCK:   -5.84 KCAL/MOL
REMARK 922        TOTAL FREE ENERGY PREDICTED BY IDOCK:  -11.12 KCAL/MOL
REMARK 923 INTER-LIGAND FREE ENERGY PREDICTED BY IDOCK:   -9.70 KCAL/MOL
REMARK 924 INTRA-LIGAND FREE ENERGY PREDICTED BY IDOCK:   -1.42 KCAL/MOL
REMARK 927      BINDING AFFINITY PREDICTED BY RF-SCORE:    0.00 PKD
ROOT
HETATM    1  C   UNL     1     -11.887   9.472  71.554  1.00  0.00    -0.478 C  
HETATM    2  C   UNL     1     -12.794   8.330  71.996  1.00  0.00    -0.340 C  
HETATM    3  C   UNL     1     -14.256   8.761  71.911  1.00  0.00    -0.467 C  
ENDROOT
BRANCH   2   4
HETATM    4  O   UNL     1     -12.615   7.199  71.120  1.00  0.00    -0.364 OA 
BRANCH   4   5
HETATM    5  C   UNL     1     -11.696   6.267  71.517  1.00  0.00    -0.269 C  
HETATM    6  O   UNL     1     -11.644   5.762  72.632  1.00  0.00    -0.300 OA 
BRANCH   5   7
HETATM    7  C   UNL     1     -10.785   5.898  70.344  1.00  0.00    -0.303 C  
HETATM    8  C   UNL     1      -9.339   6.162  70.763  1.00  0.00    -0.170 C  
BRANCH   7   9
HETATM    9  N   UNL     1     -11.188   6.631  69.119  1.00  0.00    -0.517 NA 
HETATM   10  P   UNL     1      -9.903   7.110  68.123  1.00  0.00    -0.153 P  
HETATM   11  H   UNL     1     -11.766   7.436  69.362  1.00  0.00     0.000 HD 
HETATM   12  O   UNL     1     -10.596   7.863  66.817  1.00  0.00    -0.326 OA 
HETATM   13  O   UNL     1     -10.054   5.598  67.297  1.00  0.00    -0.143 OA 
HETATM   14  O   UNL     1      -9.767   8.463  68.864  1.00  0.00    -0.162 OA 
BRANCH  13  15
HETATM   15  C   UNL     1      -9.148   4.610  67.583  1.00  0.00    -0.118 A  
HETATM   16  C   UNL     1      -7.200   2.663  67.997  1.00  0.00    -0.049 A  
HETATM   17  C   UNL     1      -7.810   4.901  67.327  1.00  0.00    -0.095 A  
HETATM   18  C   UNL     1      -9.515   3.359  68.080  1.00  0.00    -0.211 A  
HETATM   19  C   UNL     1      -6.835   3.924  67.529  1.00  0.00    -0.054 A  
HETATM   20  C   UNL     1      -8.536   2.383  68.281  1.00  0.00    -0.109 A  
ENDBRANCH  13  15
BRANCH  12  21
HETATM   21  C   UNL     1      -9.780   8.842  66.145  1.00  0.00    -0.268 C  
BRANCH  21  22
HETATM   22  C   UNL     1     -10.399  10.244  65.858  1.00  0.00    -0.171 C  
HETATM   23  O   UNL     1     -10.954  10.805  67.069  1.00  0.00    -0.272 OA 
HETATM   24  C   UNL     1      -9.831  12.607  66.048  1.00  0.00    -0.254 C  
HETATM   25  H   UNL     1      -8.902  12.173  63.576  1.00  0.00     0.000 HD 
HETATM   26  C   UNL     1      -9.423  11.316  65.318  1.00  0.00    -0.221 C  
HETATM   27  O   UNL     1      -9.501  11.515  63.909  1.00  0.00    -0.199 OA 
HETATM   28  F   UNL     1     -10.043  13.606  65.148  1.00  0.00    -0.323 F  
HETATM   29  C   UNL     1      -8.709  13.055  66.971  1.00  0.00    -0.195 C  
HETATM   30  C   UNL     1     -11.132  12.199  66.742  1.00  0.00    -0.300 C  
BRANCH  30  31
HETATM   31  N   UNL     1     -11.510  12.956  67.940  1.00  0.00    -0.296 N  
HETATM   32  C   UNL     1     -11.484  12.371  69.194  1.00  0.00    -0.302 C  
HETATM   33  C   UNL     1     -11.920  13.004  70.281  1.00  0.00    -0.360 C  
HETATM   34  C   UNL     1     -12.465  14.362  70.138  1.00  0.00    -0.339 C  
HETATM   35  O   UNL     1     -13.007  14.926  71.081  1.00  0.00    -0.320 OA 
HETATM   36  N   UNL     1     -12.335  14.922  68.902  1.00  0.00    -0.588 N  
HETATM   37  H   UNL     1     -12.558  15.915  68.816  1.00  0.00     0.000 HD 
HETATM   38  C   UNL     1     -11.933  14.270  67.764  1.00  0.00    -0.349 C  
HETATM   39  O   UNL     1     -11.985  14.838  66.680  1.00  0.00    -0.314 OA 
ENDBRANCH  30  31
ENDBRANCH  21  22
ENDBRANCH  12  21
ENDBRANCH   7   9
ENDBRANCH   5   7
ENDBRANCH   4   5
ENDBRANCH   2   4
TORSDOF 8
ENDMDL
MODEL       18
REMARK 921   NORMALIZED FREE ENERGY PREDICTED BY IDOCK:   -5.79 KCAL/MOL
REMARK 922        TOTAL FREE ENERGY PREDICTED BY IDOCK:  -11.05 KCAL/MOL
REMARK 923 INTER-LIGAND FREE ENERGY PREDICTED BY IDOCK:   -9.28 KCAL/MOL
REMARK 924 INTRA-LIGAND FREE ENERGY PREDICTED BY IDOCK:   -1.77 KCAL/MOL
REMARK 927      BINDING AFFINITY PREDICTED BY RF-SCORE:    0.00 PKD
ROOT
HETATM    1  C   UNL     1     -10.241  18.641  66.525  1.00  0.00    -0.449 C  
HETATM    2  C   UNL     1      -9.052  17.726  66.792  1.00  0.00    -0.262 C  
HETATM    3  C   UNL     1      -7.931  18.510  67.471  1.00  0.00    -0.245 C  
ENDROOT
BRANCH   2   4
HETATM    4  O   UNL     1      -9.446  16.661  67.680  1.00  0.00    -0.223 OA 
BRANCH   4   5
HETATM    5  C   UNL     1      -9.846  15.496  67.085  1.00  0.00    -0.235 C  
HETATM    6  O   UNL     1      -9.380  15.040  66.048  1.00  0.00    -0.304 OA 
BRANCH   5   7
HETATM    7  C   UNL     1     -10.913  14.810  67.941  1.00  0.00    -0.278 C  
HETATM    8  C   UNL     1     -11.605  15.880  68.786  1.00  0.00    -0.389 C  
BRANCH   7   9
HETATM    9  N   UNL     1     -10.314  13.718  68.747  1.00  0.00    -0.330 NA 
HETATM   10  P   UNL     1     -11.206  12.277  68.764  1.00  0.00    -0.299 P  
HETATM   11  H   UNL     1     -10.138  14.037  69.700  1.00  0.00     0.000 HD 
HETATM   12  O   UNL     1     -10.328  11.209  69.683  1.00  0.00    -0.073 OA 
HETATM   13  O   UNL     1     -10.312  11.773  67.372  1.00  0.00    -0.200 OA 
HETATM   14  O   UNL     1     -12.008  12.729  70.010  1.00  0.00    -0.332 OA 
BRANCH  13  15
HETATM   15  C   UNL     1     -10.921  11.854  66.146  1.00  0.00    -0.308 A  
HETATM   16  C   UNL     1     -11.969  12.046  63.573  1.00  0.00    -0.605 A  
HETATM   17  C   UNL     1     -10.226  11.306  65.070  1.00  0.00    -0.339 A  
HETATM   18  C   UNL     1     -12.158  12.467  65.948  1.00  0.00    -0.420 A  
HETATM   19  C   UNL     1     -10.747  11.407  63.781  1.00  0.00    -0.470 A  
HETATM   20  C   UNL     1     -12.677  12.568  64.655  1.00  0.00    -0.434 A  
ENDBRANCH  13  15
BRANCH  12  21
HETATM   21  C   UNL     1     -11.080  10.165  70.330  1.00  0.00    -0.324 C  
BRANCH  21  22
HETATM   22  C   UNL     1     -11.250   8.808  69.582  1.00  0.00     0.071 C  
HETATM   23  O   UNL     1     -10.467   8.803  68.368  1.00  0.00    -0.207 OA 
HETATM   24  C   UNL     1     -10.106   6.674  69.309  1.00  0.00    -0.169 C  
HETATM   25  H   UNL     1     -11.616   6.045  71.426  1.00  0.00     0.000 HD 
HETATM   26  C   UNL     1     -10.810   7.546  70.361  1.00  0.00    -0.244 C  
HETATM   27  O   UNL     1     -11.887   6.820  70.947  1.00  0.00    -0.350 OA 
HETATM   28  F   UNL     1     -10.636   5.419  69.312  1.00  0.00    -0.302 F  
HETATM   29  C   UNL     1      -8.629   6.545  69.647  1.00  0.00    -0.132 C  
HETATM   30  C   UNL     1     -10.422   7.407  68.004  1.00  0.00    -0.199 C  
BRANCH  30  31
HETATM   31  N   UNL     1      -9.492   7.205  66.888  1.00  0.00    -0.152 N  
HETATM   32  C   UNL     1      -8.528   8.149  66.579  1.00  0.00    -0.130 C  
HETATM   33  C   UNL     1      -7.743   8.036  65.510  1.00  0.00    -0.093 C  
HETATM   34  C   UNL     1      -7.920   6.881  64.619  1.00  0.00    -0.112 C  
HETATM   35  O   UNL     1      -7.322   6.809  63.553  1.00  0.00    -0.060 OA 
HETATM   36  N   UNL     1      -8.792   5.928  65.056  1.00  0.00    -0.363 N  
HETATM   37  H   UNL     1      -8.815   5.048  64.541  1.00  0.00     0.000 HD 
HETATM   38  C   UNL     1      -9.641   6.049  66.127  1.00  0.00    -0.055 C  
HETATM   39  O   UNL     1     -10.480   5.183  66.347  1.00  0.00    -0.267 OA 
ENDBRANCH  30  31
ENDBRANCH  21  22
ENDBRANCH  12  21
ENDBRANCH   7   9
ENDBRANCH   5   7
ENDBRANCH   4   5
ENDBRANCH   2   4
TORSDOF 8
ENDMDL
MODEL       19
REMARK 921   NORMALIZED FREE ENERGY PREDICTED BY IDOCK:   -5.78 KCAL/MOL
REMARK 922        TOTAL FREE ENERGY PREDICTED BY IDOCK:  -11.04 KCAL/MOL
REMARK 923 INTER-LIGAND FREE ENERGY PREDICTED BY IDOCK:   -9.71 KCAL/MOL
REMARK 924 INTRA-LIGAND FREE ENERGY PREDICTED BY IDOCK:   -1.34 KCAL/MOL
REMARK 927      BINDING AFFINITY PREDICTED BY RF-SCORE:    0.00 PKD
ROOT
HETATM    1  C   UNL     1      -9.001   2.303  66.522  1.00  0.00    -0.123 C  
HETATM    2  C   UNL     1      -9.072   3.770  66.118  1.00  0.00    -0.151 C  
HETATM    3  C   UNL     1      -9.844   3.915  64.808  1.00  0.00    -0.197 C  
ENDROOT
BRANCH   2   4
HETATM    4  O   UNL     1      -9.772   4.522  67.128  1.00  0.00    -0.175 OA 
BRANCH   4   5
HETATM    5  C   UNL     1      -9.004   5.329  67.922  1.00  0.00    -0.109 C  
HETATM    6  O   UNL     1      -7.910   5.025  68.383  1.00  0.00    -0.082 OA 
BRANCH   5   7
HETATM    7  C   UNL     1      -9.679   6.692  68.093  1.00  0.00    -0.130 C  
HETATM    8  C   UNL     1     -11.004   6.665  67.332  1.00  0.00    -0.434 C  
BRANCH   7   9
HETATM    9  N   UNL     1      -8.771   7.782  67.658  1.00  0.00    -0.126 NA 
HETATM   10  P   UNL     1      -9.521   9.287  67.444  1.00  0.00    -0.141 P  
HETATM   11  H   UNL     1      -8.273   7.511  66.810  1.00  0.00     0.000 HD 
HETATM   12  O   UNL     1      -8.314  10.338  67.004  1.00  0.00    -0.124 OA 
HETATM   13  O   UNL     1      -9.178   9.631  69.103  1.00  0.00    -0.153 OA 
HETATM   14  O   UNL     1      -9.828   8.978  65.957  1.00  0.00    -0.277 OA 
BRANCH  13  15
HETATM   15  C   UNL     1     -10.199   9.522  70.012  1.00  0.00    -0.244 A  
HETATM   16  C   UNL     1     -12.312   9.501  71.826  1.00  0.00    -0.474 A  
HETATM   17  C   UNL     1     -11.344  10.273  69.754  1.00  0.00    -0.334 A  
HETATM   18  C   UNL     1     -10.119   8.730  71.158  1.00  0.00    -0.317 A  
HETATM   19  C   UNL     1     -12.400  10.267  70.665  1.00  0.00    -0.416 A  
HETATM   20  C   UNL     1     -11.178   8.727  72.068  1.00  0.00    -0.443 A  
ENDBRANCH  13  15
BRANCH  12  21
HETATM   21  C   UNL     1      -8.720  11.476  66.221  1.00  0.00    -0.159 C  
BRANCH  21  22
HETATM   22  C   UNL     1      -9.768  12.455  66.833  1.00  0.00    -0.215 C  
HETATM   23  O   UNL     1      -9.193  13.770  66.993  1.00  0.00    -0.232 OA 
HETATM   24  C   UNL     1     -11.349  14.172  66.132  1.00  0.00    -0.337 C  
HETATM   25  H   UNL     1     -12.971  12.051  65.969  1.00  0.00     0.000 HD 
HETATM   26  C   UNL     1     -11.059  12.667  66.007  1.00  0.00    -0.287 C  
HETATM   27  O   UNL     1     -12.178  11.921  66.476  1.00  0.00    -0.483 OA 
HETATM   28  F   UNL     1     -12.630  14.368  66.548  1.00  0.00    -0.461 F  
HETATM   29  C   UNL     1     -11.204  14.841  64.774  1.00  0.00    -0.392 C  
HETATM   30  C   UNL     1     -10.344  14.617  67.196  1.00  0.00    -0.265 C  
BRANCH  30  31
HETATM   31  N   UNL     1      -9.943  16.028  67.182  1.00  0.00    -0.244 N  
HETATM   32  C   UNL     1      -8.869  16.459  66.424  1.00  0.00    -0.311 C  
HETATM   33  C   UNL     1      -8.424  17.713  66.474  1.00  0.00    -0.294 C  
HETATM   34  C   UNL     1      -9.083  18.663  67.382  1.00  0.00    -0.279 C  
HETATM   35  O   UNL     1      -8.621  19.781  67.568  1.00  0.00    -0.307 OA 
HETATM   36  N   UNL     1     -10.213  18.206  67.994  1.00  0.00    -0.362 N  
HETATM   37  H   UNL     1     -10.776  18.889  68.500  1.00  0.00     0.000 HD 
HETATM   38  C   UNL     1     -10.659  16.908  67.989  1.00  0.00    -0.367 C  
HETATM   39  O   UNL     1     -11.611  16.583  68.687  1.00  0.00    -0.261 OA 
ENDBRANCH  30  31
ENDBRANCH  21  22
ENDBRANCH  12  21
ENDBRANCH   7   9
ENDBRANCH   5   7
ENDBRANCH   4   5
ENDBRANCH   2   4
TORSDOF 8
ENDMDL
MODEL       20
REMARK 921   NORMALIZED FREE ENERGY PREDICTED BY IDOCK:   -5.78 KCAL/MOL
REMARK 922        TOTAL FREE ENERGY PREDICTED BY IDOCK:  -11.03 KCAL/MOL
REMARK 923 INTER-LIGAND FREE ENERGY PREDICTED BY IDOCK:  -10.32 KCAL/MOL
REMARK 924 INTRA-LIGAND FREE ENERGY PREDICTED BY IDOCK:   -0.71 KCAL/MOL
REMARK 927      BINDING AFFINITY PREDICTED BY RF-SCORE:    0.00 PKD
ROOT
HETATM    1  C   UNL     1      -9.992   3.683  72.224  1.00  0.00    -0.239 C  
HETATM    2  C   UNL     1     -10.599   5.080  72.284  1.00  0.00    -0.206 C  
HETATM    3  C   UNL     1     -10.421   5.668  73.682  1.00  0.00    -0.289 C  
ENDROOT
BRANCH   2   4
HETATM    4  O   UNL     1      -9.921   5.947  71.353  1.00  0.00    -0.178 OA 
BRANCH   4   5
HETATM    5  C   UNL     1     -10.721   6.697  70.535  1.00  0.00    -0.247 C  
HETATM    6  O   UNL     1     -11.820   6.352  70.117  1.00  0.00    -0.409 OA 
BRANCH   5   7
HETATM    7  C   UNL     1     -10.074   8.060  70.277  1.00  0.00    -0.192 C  
HETATM    8  C   UNL     1      -9.570   8.608  71.611  1.00  0.00    -0.344 C  
BRANCH   7   9
HETATM    9  N   UNL     1     -11.025   8.967  69.588  1.00  0.00    -0.377 NA 
HETATM   10  P   UNL     1     -10.411   9.715  68.196  1.00  0.00    -0.217 P  
HETATM   11  H   UNL     1     -11.380   9.669  70.239  1.00  0.00     0.000 HD 
HETATM   12  O   UNL     1     -11.653  10.634  67.589  1.00  0.00    -0.492 OA 
HETATM   13  O   UNL     1     -10.998   8.368  67.283  1.00  0.00    -0.124 OA 
HETATM   14  O   UNL     1      -9.885  10.920  69.014  1.00  0.00    -0.206 OA 
BRANCH  13  15
HETATM   15  C   UNL     1     -10.097   7.417  66.878  1.00  0.00    -0.257 A  
HETATM   16  C   UNL     1      -8.356   5.355  66.192  1.00  0.00    -0.117 A  
HETATM   17  C   UNL     1     -10.562   6.105  66.822  1.00  0.00    -0.351 A  
HETATM   18  C   UNL     1      -8.772   7.710  66.557  1.00  0.00    -0.161 A  
HETATM   19  C   UNL     1      -9.689   5.071  66.484  1.00  0.00    -0.193 A  
HETATM   20  C   UNL     1      -7.900   6.672  66.219  1.00  0.00    -0.105 A  
ENDBRANCH  13  15
BRANCH  12  21
HETATM   21  C   UNL     1     -11.267  11.777  66.802  1.00  0.00    -0.328 C  
BRANCH  21  22
HETATM   22  C   UNL     1     -11.761  13.184  67.256  1.00  0.00    -0.374 C  
HETATM   23  O   UNL     1     -12.154  13.153  68.647  1.00  0.00    -0.315 OA 
HETATM   24  C   UNL     1     -10.942  15.161  68.423  1.00  0.00    -0.271 C  
HETATM   25  H   UNL     1     -10.271  15.865  65.930  1.00  0.00     0.000 HD 
HETATM   26  C   UNL     1     -10.730  14.332  67.145  1.00  0.00    -0.282 C  
HETATM   27  O   UNL     1     -10.904  15.160  65.999  1.00  0.00    -0.322 OA 
HETATM   28  F   UNL     1     -11.125  16.473  68.104  1.00  0.00    -0.333 F  
HETATM   29  C   UNL     1      -9.708  15.076  69.307  1.00  0.00    -0.192 C  
HETATM   30  C   UNL     1     -12.216  14.549  69.009  1.00  0.00    -0.180 C  
BRANCH  30  31
HETATM   31  N   UNL     1     -12.414  14.688  70.455  1.00  0.00    -0.329 N  
HETATM   32  C   UNL     1     -12.392  15.930  71.065  1.00  0.00    -0.356 C  
HETATM   33  C   UNL     1     -12.466  16.072  72.387  1.00  0.00    -0.549 C  
HETATM   34  C   UNL     1     -12.553  14.868  73.225  1.00  0.00    -0.471 C  
HETATM   35  O   UNL     1     -12.479  14.942  74.445  1.00  0.00    -0.505 OA 
HETATM   36  N   UNL     1     -12.705  13.692  72.552  1.00  0.00    -0.153 N  
HETATM   37  H   UNL     1     -12.927  12.864  73.107  1.00  0.00     0.000 HD 
HETATM   38  C   UNL     1     -12.585  13.522  71.196  1.00  0.00    -0.355 C  
HETATM   39  O   UNL     1     -12.605  12.396  70.714  1.00  0.00    -0.303 OA 
ENDBRANCH  30  31
ENDBRANCH  21  22
ENDBRANCH  12  21
ENDBRANCH   7   9
ENDBRANCH   5   7
ENDBRANCH   4   5
ENDBRANCH   2   4
TORSDOF 8
ENDMDL
MODEL       21
REMARK 921   NORMALIZED FREE ENERGY PREDICTED BY IDOCK:   -5.77 KCAL/MOL
REMARK 922        TOTAL FREE ENERGY PREDICTED BY IDOCK:  -11.01 KCAL/MOL
REMARK 923 INTER-LIGAND FREE ENERGY PREDICTED BY IDOCK:   -9.67 KCAL/MOL
REMARK 924 INTRA-LIGAND FREE ENERGY PREDICTED BY IDOCK:   -1.34 KCAL/MOL
REMARK 927      BINDING AFFINITY PREDICTED BY RF-SCORE:    0.00 PKD
ROOT
HETATM    1  C   UNL     1     -10.060   4.758  71.982  1.00  0.00    -0.258 C  
HETATM    2  C   UNL     1      -9.411   4.680  70.606  1.00  0.00    -0.172 C  
HETATM    3  C   UNL     1      -9.553   3.269  70.040  1.00  0.00    -0.182 C  
ENDROOT
BRANCH   2   4
HETATM    4  O   UNL     1     -10.074   5.586  69.702  1.00  0.00    -0.195 OA 
BRANCH   4   5
HETATM    5  C   UNL     1      -9.265   6.431  68.994  1.00  0.00    -0.129 C  
HETATM    6  O   UNL     1      -8.050   6.317  68.888  1.00  0.00    -0.107 OA 
BRANCH   5   7
HETATM    7  C   UNL     1     -10.108   7.501  68.295  1.00  0.00    -0.183 C  
HETATM    8  C   UNL     1     -10.568   6.941  66.950  1.00  0.00    -0.372 C  
BRANCH   7   9
HETATM    9  N   UNL     1      -9.349   8.770  68.178  1.00  0.00    -0.140 NA 
HETATM   10  P   UNL     1     -10.286  10.175  68.327  1.00  0.00    -0.213 P  
HETATM   11  H   UNL     1      -8.822   8.788  67.304  1.00  0.00     0.000 HD 
HETATM   12  O   UNL     1      -9.225  11.445  68.203  1.00  0.00    -0.164 OA 
HETATM   13  O   UNL     1      -9.986  10.126  70.029  1.00  0.00    -0.240 OA 
HETATM   14  O   UNL     1     -10.555  10.217  66.802  1.00  0.00    -0.231 OA 
BRANCH  13  15
HETATM   15  C   UNL     1     -10.982   9.662  70.850  1.00  0.00    -0.342 A  
HETATM   16  C   UNL     1     -13.048   8.920  72.564  1.00  0.00    -0.426 A  
HETATM   17  C   UNL     1     -12.141  10.434  70.916  1.00  0.00    -0.477 A  
HETATM   18  C   UNL     1     -10.865   8.499  71.611  1.00  0.00    -0.356 A  
HETATM   19  C   UNL     1     -13.174  10.065  71.779  1.00  0.00    -0.540 A  
HETATM   20  C   UNL     1     -11.901   8.134  72.474  1.00  0.00    -0.438 A  
ENDBRANCH  13  15
BRANCH  12  21
HETATM   21  C   UNL     1      -9.777  12.685  67.720  1.00  0.00    -0.206 C  
BRANCH  21  22
HETATM   22  C   UNL     1      -8.806  13.719  67.073  1.00  0.00    -0.218 C  
HETATM   23  O   UNL     1      -9.393  15.039  67.095  1.00  0.00    -0.203 OA 
HETATM   24  C   UNL     1      -7.148  15.382  67.725  1.00  0.00    -0.165 C  
HETATM   25  H   UNL     1      -5.524  13.266  67.512  1.00  0.00     0.000 HD 
HETATM   26  C   UNL     1      -7.425  13.870  67.754  1.00  0.00    -0.167 C  
HETATM   27  O   UNL     1      -6.373  13.174  67.093  1.00  0.00    -0.257 OA 
HETATM   28  F   UNL     1      -5.925  15.622  67.177  1.00  0.00    -0.144 F  
HETATM   29  C   UNL     1      -7.128  15.933  69.142  1.00  0.00    -0.185 C  
HETATM   30  C   UNL     1      -8.271  15.909  66.829  1.00  0.00    -0.272 C  
BRANCH  30  31
HETATM   31  N   UNL     1      -8.663  17.310  67.012  1.00  0.00    -0.224 N  
HETATM   32  C   UNL     1      -9.684  17.661  67.877  1.00  0.00    -0.295 C  
HETATM   33  C   UNL     1     -10.126  18.913  67.981  1.00  0.00    -0.437 C  
HETATM   34  C   UNL     1      -9.521  19.951  67.133  1.00  0.00    -0.373 C  
HETATM   35  O   UNL     1      -9.988  21.082  67.091  1.00  0.00    -0.274 OA 
HETATM   36  N   UNL     1      -8.435  19.559  66.407  1.00  0.00    -0.340 N  
HETATM   37  H   UNL     1      -7.902  20.291  65.937  1.00  0.00     0.000 HD 
HETATM   38  C   UNL     1      -7.997  18.268  66.252  1.00  0.00    -0.234 C  
HETATM   39  O   UNL     1      -7.092  18.017  65.465  1.00  0.00    -0.515 OA 
ENDBRANCH  30  31
ENDBRANCH  21  22
ENDBRANCH  12  21
ENDBRANCH   7   9
ENDBRANCH   5   7
ENDBRANCH   4   5
ENDBRANCH   2   4
TORSDOF 8
ENDMDL
MODEL       22
REMARK 921   NORMALIZED FREE ENERGY PREDICTED BY IDOCK:   -5.75 KCAL/MOL
REMARK 922        TOTAL FREE ENERGY PREDICTED BY IDOCK:  -10.99 KCAL/MOL
REMARK 923 INTER-LIGAND FREE ENERGY PREDICTED BY IDOCK:  -10.49 KCAL/MOL
REMARK 924 INTRA-LIGAND FREE ENERGY PREDICTED BY IDOCK:   -0.49 KCAL/MOL
REMARK 927      BINDING AFFINITY PREDICTED BY RF-SCORE:    0.00 PKD
ROOT
HETATM    1  C   UNL     1     -10.434   4.252  72.706  1.00  0.00    -0.249 C  
HETATM    2  C   UNL     1     -11.211   5.525  73.018  1.00  0.00    -0.293 C  
HETATM    3  C   UNL     1     -10.387   6.431  73.929  1.00  0.00    -0.338 C  
ENDROOT
BRANCH   2   4
HETATM    4  O   UNL     1     -11.474   6.248  71.798  1.00  0.00    -0.280 OA 
BRANCH   4   5
HETATM    5  C   UNL     1     -12.603   7.020  71.785  1.00  0.00    -0.350 C  
HETATM    6  O   UNL     1     -13.744   6.599  71.926  1.00  0.00    -0.172 OA 
BRANCH   5   7
HETATM    7  C   UNL     1     -12.225   8.496  71.639  1.00  0.00    -0.322 C  
HETATM    8  C   UNL     1     -13.176   9.319  72.508  1.00  0.00    -0.439 C  
BRANCH   7   9
HETATM    9  N   UNL     1     -12.235   8.898  70.210  1.00  0.00    -0.298 NA 
HETATM   10  P   UNL     1     -10.895   9.814  69.722  1.00  0.00    -0.270 P  
HETATM   11  H   UNL     1     -13.100   9.390  69.987  1.00  0.00     0.000 HD 
HETATM   12  O   UNL     1     -11.108  10.104  68.102  1.00  0.00    -0.266 OA 
HETATM   13  O   UNL     1     -10.098   8.332  69.324  1.00  0.00    -0.189 OA 
HETATM   14  O   UNL     1     -11.609  11.141  70.079  1.00  0.00    -0.296 OA 
BRANCH  13  15
HETATM   15  C   UNL     1      -9.150   7.852  70.192  1.00  0.00    -0.152 A  
HETATM   16  C   UNL     1      -7.139   7.066  71.950  1.00  0.00    -0.069 A  
HETATM   17  C   UNL     1      -8.684   8.743  71.157  1.00  0.00    -0.265 A  
HETATM   18  C   UNL     1      -8.641   6.556  70.124  1.00  0.00    -0.140 A  
HETATM   19  C   UNL     1      -7.673   8.352  72.034  1.00  0.00    -0.163 A  
HETATM   20  C   UNL     1      -7.627   6.167  71.004  1.00  0.00    -0.097 A  
ENDBRANCH  13  15
BRANCH  12  21
HETATM   21  C   UNL     1     -10.476  11.290  67.582  1.00  0.00    -0.193 C  
BRANCH  21  22
HETATM   22  C   UNL     1     -11.383  12.501  67.205  1.00  0.00    -0.324 C  
HETATM   23  O   UNL     1     -10.890  13.709  67.826  1.00  0.00    -0.247 OA 
HETATM   24  C   UNL     1     -11.447  14.361  65.631  1.00  0.00    -0.336 C  
HETATM   25  H   UNL     1     -12.735  12.544  64.148  1.00  0.00     0.000 HD 
HETATM   26  C   UNL     1     -11.483  12.825  65.695  1.00  0.00    -0.342 C  
HETATM   27  O   UNL     1     -12.673  12.345  65.076  1.00  0.00    -0.631 OA 
HETATM   28  F   UNL     1     -12.503  14.823  64.905  1.00  0.00    -0.392 F  
HETATM   29  C   UNL     1     -10.178  14.821  64.933  1.00  0.00    -0.310 C  
HETATM   30  C   UNL     1     -11.570  14.758  67.104  1.00  0.00    -0.359 C  
BRANCH  30  31
HETATM   31  N   UNL     1     -11.029  16.067  67.485  1.00  0.00    -0.300 N  
HETATM   32  C   UNL     1     -10.384  16.872  66.563  1.00  0.00    -0.299 C  
HETATM   33  C   UNL     1      -9.796  18.015  66.908  1.00  0.00    -0.330 C  
HETATM   34  C   UNL     1      -9.815  18.423  68.320  1.00  0.00    -0.359 C  
HETATM   35  O   UNL     1      -9.167  19.388  68.707  1.00  0.00    -0.368 OA 
HETATM   36  N   UNL     1     -10.579  17.653  69.146  1.00  0.00    -0.387 N  
HETATM   37  H   UNL     1     -10.739  18.002  70.091  1.00  0.00     0.000 HD 
HETATM   38  C   UNL     1     -11.153  16.450  68.818  1.00  0.00    -0.337 C  
HETATM   39  O   UNL     1     -11.704  15.777  69.680  1.00  0.00    -0.334 OA 
ENDBRANCH  30  31
ENDBRANCH  21  22
ENDBRANCH  12  21
ENDBRANCH   7   9
ENDBRANCH   5   7
ENDBRANCH   4   5
ENDBRANCH   2   4
TORSDOF 8
ENDMDL
MODEL       23
REMARK 921   NORMALIZED FREE ENERGY PREDICTED BY IDOCK:   -5.74 KCAL/MOL
REMARK 922        TOTAL FREE ENERGY PREDICTED BY IDOCK:  -10.97 KCAL/MOL
REMARK 923 INTER-LIGAND FREE ENERGY PREDICTED BY IDOCK:   -9.01 KCAL/MOL
REMARK 924 INTRA-LIGAND FREE ENERGY PREDICTED BY IDOCK:   -1.96 KCAL/MOL
REMARK 927      BINDING AFFINITY PREDICTED BY RF-SCORE:    0.00 PKD
ROOT
HETATM    1  C   UNL     1     -10.159  15.601  65.727  1.00  0.00    -0.394 C  
HETATM    2  C   UNL     1     -10.457  15.718  67.217  1.00  0.00    -0.308 C  
HETATM    3  C   UNL     1     -10.622  17.186  67.604  1.00  0.00    -0.343 C  
ENDROOT
BRANCH   2   4
HETATM    4  O   UNL     1     -11.692  15.040  67.521  1.00  0.00    -0.343 OA 
BRANCH   4   5
HETATM    5  C   UNL     1     -11.755  14.418  68.738  1.00  0.00    -0.337 C  
HETATM    6  O   UNL     1     -12.255  14.898  69.748  1.00  0.00    -0.309 OA 
BRANCH   5   7
HETATM    7  C   UNL     1     -11.170  13.007  68.636  1.00  0.00    -0.277 C  
HETATM    8  C   UNL     1     -11.847  12.296  67.464  1.00  0.00    -0.331 C  
BRANCH   7   9
HETATM    9  N   UNL     1     -11.314  12.287  69.925  1.00  0.00    -0.507 NA 
HETATM   10  P   UNL     1     -11.714  10.646  69.782  1.00  0.00    -0.307 P  
HETATM   11  H   UNL     1     -11.989  12.765  70.524  1.00  0.00     0.000 HD 
HETATM   12  O   UNL     1     -11.778  10.057  71.332  1.00  0.00    -0.367 OA 
HETATM   13  O   UNL     1     -10.021  10.295  69.748  1.00  0.00    -0.230 OA 
HETATM   14  O   UNL     1     -13.230  10.962  69.811  1.00  0.00     0.031 OA 
BRANCH  13  15
HETATM   15  C   UNL     1      -9.442  10.013  68.537  1.00  0.00    -0.148 A  
HETATM   16  C   UNL     1      -8.188   9.633  66.080  1.00  0.00    -0.119 A  
HETATM   17  C   UNL     1      -8.188  10.574  68.303  1.00  0.00    -0.117 A  
HETATM   18  C   UNL     1     -10.058   9.231  67.561  1.00  0.00    -0.273 A  
HETATM   19  C   UNL     1      -7.562  10.389  67.070  1.00  0.00    -0.101 A  
HETATM   20  C   UNL     1      -9.429   9.048  66.327  1.00  0.00    -0.306 A  
ENDBRANCH  13  15
BRANCH  12  21
HETATM   21  C   UNL     1     -12.630   8.914  71.539  1.00  0.00    -0.331 C  
BRANCH  21  22
HETATM   22  C   UNL     1     -11.958   7.519  71.726  1.00  0.00    -0.301 C  
HETATM   23  O   UNL     1     -11.734   6.894  70.443  1.00  0.00    -0.342 OA 
HETATM   24  C   UNL     1      -9.751   6.489  71.649  1.00  0.00    -0.163 C  
HETATM   25  H   UNL     1      -9.782   7.162  74.238  1.00  0.00     0.000 HD 
HETATM   26  C   UNL     1     -10.579   7.522  72.429  1.00  0.00    -0.251 C  
HETATM   27  O   UNL     1     -10.629   7.160  73.806  1.00  0.00    -0.377 OA 
HETATM   28  F   UNL     1      -9.206   5.583  72.507  1.00  0.00    -0.140 F  
HETATM   29  C   UNL     1      -8.604   7.181  70.929  1.00  0.00    -0.138 C  
HETATM   30  C   UNL     1     -10.798   5.837  70.744  1.00  0.00    -0.260 C  
BRANCH  30  31
HETATM   31  N   UNL     1     -10.314   5.222  69.504  1.00  0.00    -0.269 N  
HETATM   32  C   UNL     1     -10.485   5.845  68.281  1.00  0.00    -0.236 C  
HETATM   33  C   UNL     1     -10.147   5.261  67.134  1.00  0.00    -0.239 C  
HETATM   34  C   UNL     1      -9.592   3.900  67.169  1.00  0.00    -0.189 C  
HETATM   35  O   UNL     1      -9.401   3.270  66.136  1.00  0.00    -0.162 OA 
HETATM   36  N   UNL     1      -9.328   3.403  68.411  1.00  0.00    -0.179 N  
HETATM   37  H   UNL     1      -8.798   2.532  68.460  1.00  0.00     0.000 HD 
HETATM   38  C   UNL     1      -9.711   3.970  69.600  1.00  0.00    -0.175 C  
HETATM   39  O   UNL     1      -9.540   3.367  70.652  1.00  0.00    -0.170 OA 
ENDBRANCH  30  31
ENDBRANCH  21  22
ENDBRANCH  12  21
ENDBRANCH   7   9
ENDBRANCH   5   7
ENDBRANCH   4   5
ENDBRANCH   2   4
TORSDOF 8
ENDMDL
MODEL       24
REMARK 921   NORMALIZED FREE ENERGY PREDICTED BY IDOCK:   -5.73 KCAL/MOL
REMARK 922        TOTAL FREE ENERGY PREDICTED BY IDOCK:  -10.97 KCAL/MOL
REMARK 923 INTER-LIGAND FREE ENERGY PREDICTED BY IDOCK:   -9.39 KCAL/MOL
REMARK 924 INTRA-LIGAND FREE ENERGY PREDICTED BY IDOCK:   -1.58 KCAL/MOL
REMARK 927      BINDING AFFINITY PREDICTED BY RF-SCORE:    0.00 PKD
ROOT
HETATM    1  C   UNL     1      -9.946   4.469  70.816  1.00  0.00    -0.269 C  
HETATM    2  C   UNL     1     -10.051   5.582  69.780  1.00  0.00    -0.232 C  
HETATM    3  C   UNL     1      -9.823   5.018  68.380  1.00  0.00    -0.209 C  
ENDROOT
BRANCH   2   4
HETATM    4  O   UNL     1     -11.373   6.156  69.814  1.00  0.00    -0.411 OA 
BRANCH   4   5
HETATM    5  C   UNL     1     -11.525   7.276  70.585  1.00  0.00    -0.293 C  
HETATM    6  O   UNL     1     -12.159   7.328  71.632  1.00  0.00    -0.293 OA 
BRANCH   5   7
HETATM    7  C   UNL     1     -10.731   8.438  69.983  1.00  0.00    -0.236 C  
HETATM    8  C   UNL     1      -9.844   9.027  71.080  1.00  0.00    -0.371 C  
BRANCH   7   9
HETATM    9  N   UNL     1     -11.644   9.431  69.366  1.00  0.00    -0.367 NA 
HETATM   10  P   UNL     1     -11.087  11.031  69.409  1.00  0.00    -0.264 P  
HETATM   11  H   UNL     1     -12.572   9.368  69.786  1.00  0.00     0.000 HD 
HETATM   12  O   UNL     1     -12.243  11.936  68.635  1.00  0.00    -0.358 OA 
HETATM   13  O   UNL     1     -10.325  10.747  67.883  1.00  0.00    -0.172 OA 
HETATM   14  O   UNL     1     -11.768  11.284  70.777  1.00  0.00    -0.276 OA 
BRANCH  13  15
HETATM   15  C   UNL     1      -8.972  10.530  67.864  1.00  0.00    -0.137 A  
HETATM   16  C   UNL     1      -6.196  10.295  67.834  1.00  0.00    -0.059 A  
HETATM   17  C   UNL     1      -8.192  11.399  68.625  1.00  0.00    -0.142 A  
HETATM   18  C   UNL     1      -8.371   9.519  67.114  1.00  0.00    -0.131 A  
HETATM   19  C   UNL     1      -6.803  11.285  68.606  1.00  0.00    -0.076 A  
HETATM   20  C   UNL     1      -6.979   9.408  67.096  1.00  0.00    -0.085 A  
ENDBRANCH  13  15
BRANCH  12  21
HETATM   21  C   UNL     1     -12.326  13.321  69.022  1.00  0.00     0.058 C  
BRANCH  21  22
HETATM   22  C   UNL     1     -12.249  14.404  67.904  1.00  0.00    -0.143 C  
HETATM   23  O   UNL     1     -11.391  15.491  68.316  1.00  0.00    -0.328 OA 
HETATM   24  C   UNL     1     -10.795  15.091  66.072  1.00  0.00    -0.334 C  
HETATM   25  H   UNL     1     -12.343  13.374  64.726  1.00  0.00     0.000 HD 
HETATM   26  C   UNL     1     -11.687  13.930  66.542  1.00  0.00    -0.393 C  
HETATM   27  O   UNL     1     -12.688  13.664  65.563  1.00  0.00    -0.504 OA 
HETATM   28  F   UNL     1     -11.140  15.463  64.808  1.00  0.00    -0.369 F  
HETATM   29  C   UNL     1      -9.342  14.645  66.035  1.00  0.00    -0.216 C  
HETATM   30  C   UNL     1     -11.121  16.192  67.083  1.00  0.00    -0.053 C  
BRANCH  30  31
HETATM   31  N   UNL     1     -10.097  17.219  67.299  1.00  0.00    -0.291 N  
HETATM   32  C   UNL     1      -9.247  17.165  68.389  1.00  0.00    -0.266 C  
HETATM   33  C   UNL     1      -8.381  18.139  68.662  1.00  0.00    -0.289 C  
HETATM   34  C   UNL     1      -8.342  19.318  67.785  1.00  0.00    -0.300 C  
HETATM   35  O   UNL     1      -7.666  20.298  68.075  1.00  0.00    -0.271 OA 
HETATM   36  N   UNL     1      -9.109  19.242  66.660  1.00  0.00    -0.323 N  
HETATM   37  H   UNL     1      -8.980  19.972  65.959  1.00  0.00     0.000 HD 
HETATM   38  C   UNL     1     -10.039  18.271  66.388  1.00  0.00    -0.396 C  
HETATM   39  O   UNL     1     -10.770  18.376  65.410  1.00  0.00    -0.594 OA 
ENDBRANCH  30  31
ENDBRANCH  21  22
ENDBRANCH  12  21
ENDBRANCH   7   9
ENDBRANCH   5   7
ENDBRANCH   4   5
ENDBRANCH   2   4
TORSDOF 8
ENDMDL
MODEL       25
REMARK 921   NORMALIZED FREE ENERGY PREDICTED BY IDOCK:   -5.73 KCAL/MOL
REMARK 922        TOTAL FREE ENERGY PREDICTED BY IDOCK:  -10.97 KCAL/MOL
REMARK 923 INTER-LIGAND FREE ENERGY PREDICTED BY IDOCK:   -9.59 KCAL/MOL
REMARK 924 INTRA-LIGAND FREE ENERGY PREDICTED BY IDOCK:   -1.38 KCAL/MOL
REMARK 927      BINDING AFFINITY PREDICTED BY RF-SCORE:    0.00 PKD
ROOT
HETATM    1  C   UNL     1     -13.040  10.442  71.377  1.00  0.00    -0.512 C  
HETATM    2  C   UNL     1     -13.014   8.982  71.813  1.00  0.00    -0.377 C  
HETATM    3  C   UNL     1     -14.403   8.367  71.666  1.00  0.00    -0.536 C  
ENDROOT
BRANCH   2   4
HETATM    4  O   UNL     1     -12.111   8.237  70.971  1.00  0.00    -0.288 OA 
BRANCH   4   5
HETATM    5  C   UNL     1     -11.343   7.293  71.597  1.00  0.00    -0.254 C  
HETATM    6  O   UNL     1     -11.739   6.192  71.959  1.00  0.00    -0.312 OA 
BRANCH   5   7
HETATM    7  C   UNL     1      -9.899   7.787  71.714  1.00  0.00    -0.167 C  
HETATM    8  C   UNL     1      -9.504   7.757  73.190  1.00  0.00    -0.325 C  
BRANCH   7   9
HETATM    9  N   UNL     1      -9.752   9.125  71.090  1.00  0.00    -0.290 NA 
HETATM   10  P   UNL     1      -8.450   9.269  70.014  1.00  0.00    -0.213 P  
HETATM   11  H   UNL     1      -9.698   9.847  71.809  1.00  0.00     0.000 HD 
HETATM   12  O   UNL     1      -8.517  10.818  69.424  1.00  0.00    -0.105 OA 
HETATM   13  O   UNL     1      -9.515   8.769  68.747  1.00  0.00    -0.141 OA 
HETATM   14  O   UNL     1      -7.496   9.715  71.150  1.00  0.00    -0.328 OA 
BRANCH  13  15
HETATM   15  C   UNL     1      -9.430   7.475  68.301  1.00  0.00    -0.144 A  
HETATM   16  C   UNL     1      -9.462   4.832  67.423  1.00  0.00    -0.166 A  
HETATM   17  C   UNL     1     -10.499   7.009  67.538  1.00  0.00    -0.320 A  
HETATM   18  C   UNL     1      -8.357   6.635  68.598  1.00  0.00    -0.123 A  
HETATM   19  C   UNL     1     -10.518   5.684  67.103  1.00  0.00    -0.334 A  
HETATM   20  C   UNL     1      -8.380   5.308  68.161  1.00  0.00    -0.097 A  
ENDBRANCH  13  15
BRANCH  12  21
HETATM   21  C   UNL     1      -7.267  11.380  68.978  1.00  0.00    -0.118 C  
BRANCH  21  22
HETATM   22  C   UNL     1      -7.302  12.738  68.213  1.00  0.00    -0.117 C  
HETATM   23  O   UNL     1      -8.426  12.774  67.307  1.00  0.00    -0.179 OA 
HETATM   24  C   UNL     1      -8.411  14.905  68.312  1.00  0.00    -0.151 C  
HETATM   25  H   UNL     1      -6.295  15.474  69.847  1.00  0.00     0.000 HD 
HETATM   26  C   UNL     1      -7.438  14.005  69.091  1.00  0.00    -0.005 C  
HETATM   27  O   UNL     1      -6.211  14.696  69.308  1.00  0.00    -0.101 OA 
HETATM   28  F   UNL     1      -7.871  16.144  68.147  1.00  0.00    -0.137 F  
HETATM   29  C   UNL     1      -9.703  15.072  69.097  1.00  0.00    -0.212 C  
HETATM   30  C   UNL     1      -8.543  14.174  66.975  1.00  0.00    -0.184 C  
BRANCH  30  31
HETATM   31  N   UNL     1      -9.771  14.411  66.208  1.00  0.00    -0.299 N  
HETATM   32  C   UNL     1     -10.760  13.447  66.123  1.00  0.00    -0.284 C  
HETATM   33  C   UNL     1     -11.833  13.598  65.351  1.00  0.00    -0.370 C  
HETATM   34  C   UNL     1     -11.960  14.822  64.546  1.00  0.00    -0.440 C  
HETATM   35  O   UNL     1     -12.853  14.942  63.716  1.00  0.00    -0.662 OA 
HETATM   36  N   UNL     1     -11.020  15.781  64.780  1.00  0.00    -0.603 N  
HETATM   37  H   UNL     1     -11.174  16.697  64.357  1.00  0.00     0.000 HD 
HETATM   38  C   UNL     1      -9.885  15.625  65.536  1.00  0.00    -0.291 C  
HETATM   39  O   UNL     1      -9.040  16.512  65.566  1.00  0.00    -0.404 OA 
ENDBRANCH  30  31
ENDBRANCH  21  22
ENDBRANCH  12  21
ENDBRANCH   7   9
ENDBRANCH   5   7
ENDBRANCH   4   5
ENDBRANCH   2   4
TORSDOF 8
ENDMDL
MODEL       26
REMARK 921   NORMALIZED FREE ENERGY PREDICTED BY IDOCK:   -5.69 KCAL/MOL
REMARK 922        TOTAL FREE ENERGY PREDICTED BY IDOCK:  -10.90 KCAL/MOL
REMARK 923 INTER-LIGAND FREE ENERGY PREDICTED BY IDOCK:   -9.72 KCAL/MOL
REMARK 924 INTRA-LIGAND FREE ENERGY PREDICTED BY IDOCK:   -1.18 KCAL/MOL
REMARK 927      BINDING AFFINITY PREDICTED BY RF-SCORE:    0.00 PKD
ROOT
HETATM    1  C   UNL     1      -7.670   4.155  67.709  1.00  0.00    -0.072 C  
HETATM    2  C   UNL     1      -6.892   5.465  67.753  1.00  0.00    -0.060 C  
HETATM    3  C   UNL     1      -5.772   5.443  66.716  1.00  0.00    -0.017 C  
ENDROOT
BRANCH   2   4
HETATM    4  O   UNL     1      -7.768   6.563  67.433  1.00  0.00    -0.098 OA 
BRANCH   4   5
HETATM    5  C   UNL     1      -8.213   7.309  68.490  1.00  0.00    -0.125 C  
HETATM    6  O   UNL     1      -7.601   7.478  69.538  1.00  0.00    -0.091 OA 
BRANCH   5   7
HETATM    7  C   UNL     1      -9.556   7.957  68.145  1.00  0.00    -0.152 C  
HETATM    8  C   UNL     1      -9.983   7.462  66.764  1.00  0.00    -0.300 C  
BRANCH   7   9
HETATM    9  N   UNL     1      -9.461   9.435  68.240  1.00  0.00    -0.137 NA 
HETATM   10  P   UNL     1     -10.837  10.196  68.873  1.00  0.00    -0.207 P  
HETATM   11  H   UNL     1      -9.224   9.833  67.330  1.00  0.00     0.000 HD 
HETATM   12  O   UNL     1     -10.482  11.816  68.917  1.00  0.00    -0.207 OA 
HETATM   13  O   UNL     1     -10.138  10.027  70.445  1.00  0.00    -0.247 OA 
HETATM   14  O   UNL     1     -11.464  10.345  67.464  1.00  0.00    -0.386 OA 
BRANCH  13  15
HETATM   15  C   UNL     1     -10.608   9.030  71.261  1.00  0.00    -0.308 A  
HETATM   16  C   UNL     1     -11.372   6.925  72.916  1.00  0.00    -0.199 A  
HETATM   17  C   UNL     1      -9.732   8.561  72.237  1.00  0.00    -0.380 A  
HETATM   18  C   UNL     1     -11.881   8.475  71.130  1.00  0.00    -0.322 A  
HETATM   19  C   UNL     1     -10.112   7.503  73.063  1.00  0.00    -0.342 A  
HETATM   20  C   UNL     1     -12.258   7.415  71.958  1.00  0.00    -0.315 A  
ENDBRANCH  13  15
BRANCH  12  21
HETATM   21  C   UNL     1     -11.607  12.713  68.847  1.00  0.00    -0.317 C  
BRANCH  21  22
HETATM   22  C   UNL     1     -11.718  13.660  67.614  1.00  0.00    -0.363 C  
HETATM   23  O   UNL     1     -11.433  15.023  68.001  1.00  0.00    -0.321 OA 
HETATM   24  C   UNL     1     -10.292  14.740  65.959  1.00  0.00    -0.305 C  
HETATM   25  H   UNL     1     -10.777  12.464  64.639  1.00  0.00     0.000 HD 
HETATM   26  C   UNL     1     -10.758  13.356  66.439  1.00  0.00    -0.286 C  
HETATM   27  O   UNL     1     -11.366  12.651  65.361  1.00  0.00    -0.293 OA 
HETATM   28  F   UNL     1     -10.489  14.860  64.616  1.00  0.00    -0.421 F  
HETATM   29  C   UNL     1      -8.803  14.904  66.217  1.00  0.00    -0.108 C  
HETATM   30  C   UNL     1     -11.204  15.688  66.740  1.00  0.00    -0.083 C  
BRANCH  30  31
HETATM   31  N   UNL     1     -10.707  17.049  66.969  1.00  0.00    -0.215 N  
HETATM   32  C   UNL     1     -10.291  17.457  68.224  1.00  0.00    -0.374 C  
HETATM   33  C   UNL     1      -9.934  18.714  68.478  1.00  0.00    -0.430 C  
HETATM   34  C   UNL     1     -10.004  19.704  67.393  1.00  0.00    -0.385 C  
HETATM   35  O   UNL     1      -9.824  20.895  67.613  1.00  0.00    -0.364 OA 
HETATM   36  N   UNL     1     -10.291  19.203  66.158  1.00  0.00    -0.459 N  
HETATM   37  H   UNL     1     -10.189  19.837  65.364  1.00  0.00     0.000 HD 
HETATM   38  C   UNL     1     -10.706  17.924  65.887  1.00  0.00    -0.114 C  
HETATM   39  O   UNL     1     -11.069  17.622  64.756  1.00  0.00    -0.915 OA 
ENDBRANCH  30  31
ENDBRANCH  21  22
ENDBRANCH  12  21
ENDBRANCH   7   9
ENDBRANCH   5   7
ENDBRANCH   4   5
ENDBRANCH   2   4
TORSDOF 8
ENDMDL
MODEL       27
REMARK 921   NORMALIZED FREE ENERGY PREDICTED BY IDOCK:   -5.67 KCAL/MOL
REMARK 922        TOTAL FREE ENERGY PREDICTED BY IDOCK:  -10.87 KCAL/MOL
REMARK 923 INTER-LIGAND FREE ENERGY PREDICTED BY IDOCK:  -10.35 KCAL/MOL
REMARK 924 INTRA-LIGAND FREE ENERGY PREDICTED BY IDOCK:   -0.51 KCAL/MOL
REMARK 927      BINDING AFFINITY PREDICTED BY RF-SCORE:    0.00 PKD
ROOT
HETATM    1  C   UNL     1     -13.861   9.303  72.435  1.00  0.00    -0.484 C  
HETATM    2  C   UNL     1     -12.608   8.438  72.376  1.00  0.00    -0.316 C  
HETATM    3  C   UNL     1     -12.859   7.211  71.503  1.00  0.00    -0.434 C  
ENDROOT
BRANCH   2   4
HETATM    4  O   UNL     1     -11.527   9.186  71.785  1.00  0.00    -0.347 OA 
BRANCH   4   5
HETATM    5  C   UNL     1     -10.362   8.500  71.576  1.00  0.00    -0.250 C  
HETATM    6  O   UNL     1      -9.746   7.882  72.437  1.00  0.00    -0.177 OA 
BRANCH   5   7
HETATM    7  C   UNL     1      -9.976   8.561  70.096  1.00  0.00    -0.181 C  
HETATM    8  C   UNL     1      -8.525   9.030  70.001  1.00  0.00    -0.149 C  
BRANCH   7   9
HETATM    9  N   UNL     1     -10.924   9.419  69.344  1.00  0.00    -0.377 NA 
HETATM   10  P   UNL     1     -10.394   9.881  67.802  1.00  0.00    -0.253 P  
HETATM   11  H   UNL     1     -11.169  10.242  69.895  1.00  0.00     0.000 HD 
HETATM   12  O   UNL     1     -11.623  10.788  67.151  1.00  0.00    -0.385 OA 
HETATM   13  O   UNL     1     -11.152   8.457  67.178  1.00  0.00     0.027 OA 
HETATM   14  O   UNL     1      -9.715  11.155  68.362  1.00  0.00    -0.177 OA 
BRANCH  13  15
HETATM   15  C   UNL     1     -10.357   7.383  66.866  1.00  0.00    -0.296 A  
HETATM   16  C   UNL     1      -8.813   5.111  66.408  1.00  0.00    -0.120 A  
HETATM   17  C   UNL     1     -10.862   6.124  67.185  1.00  0.00    -0.442 A  
HETATM   18  C   UNL     1      -9.096   7.511  66.285  1.00  0.00    -0.198 A  
HETATM   19  C   UNL     1     -10.087   4.987  66.961  1.00  0.00    -0.251 A  
HETATM   20  C   UNL     1      -8.322   6.369  66.063  1.00  0.00    -0.132 A  
ENDBRANCH  13  15
BRANCH  12  21
HETATM   21  C   UNL     1     -11.236  11.754  66.156  1.00  0.00    -0.306 C  
BRANCH  21  22
HETATM   22  C   UNL     1     -11.293  13.265  66.536  1.00  0.00    -0.322 C  
HETATM   23  O   UNL     1     -11.718  13.421  67.908  1.00  0.00    -0.320 OA 
HETATM   24  C   UNL     1      -9.946  14.955  67.664  1.00  0.00    -0.226 C  
HETATM   25  H   UNL     1      -9.016  15.301  65.179  1.00  0.00     0.000 HD 
HETATM   26  C   UNL     1      -9.958  14.040  66.428  1.00  0.00    -0.294 C  
HETATM   27  O   UNL     1      -9.836  14.825  65.246  1.00  0.00    -0.329 OA 
HETATM   28  F   UNL     1      -9.712  16.243  67.289  1.00  0.00    -0.228 F  
HETATM   29  C   UNL     1      -8.824  14.542  68.603  1.00  0.00    -0.180 C  
HETATM   30  C   UNL     1     -11.363  14.786  68.216  1.00  0.00    -0.301 C  
BRANCH  30  31
HETATM   31  N   UNL     1     -11.554  15.048  69.646  1.00  0.00    -0.284 N  
HETATM   32  C   UNL     1     -12.055  14.075  70.492  1.00  0.00    -0.353 C  
HETATM   33  C   UNL     1     -12.334  14.322  71.770  1.00  0.00    -0.362 C  
HETATM   34  C   UNL     1     -12.118  15.679  72.293  1.00  0.00    -0.454 C  
HETATM   35  O   UNL     1     -12.492  15.988  73.417  1.00  0.00    -0.456 OA 
HETATM   36  N   UNL     1     -11.499  16.546  71.443  1.00  0.00    -0.513 N  
HETATM   37  H   UNL     1     -11.195  17.440  71.831  1.00  0.00     0.000 HD 
HETATM   38  C   UNL     1     -11.249  16.324  70.112  1.00  0.00    -0.333 C  
HETATM   39  O   UNL     1     -10.810  17.228  69.410  1.00  0.00    -0.152 OA 
ENDBRANCH  30  31
ENDBRANCH  21  22
ENDBRANCH  12  21
ENDBRANCH   7   9
ENDBRANCH   5   7
ENDBRANCH   4   5
ENDBRANCH   2   4
TORSDOF 8
ENDMDL
MODEL       28
REMARK 921   NORMALIZED FREE ENERGY PREDICTED BY IDOCK:   -5.66 KCAL/MOL
REMARK 922        TOTAL FREE ENERGY PREDICTED BY IDOCK:  -10.86 KCAL/MOL
REMARK 923 INTER-LIGAND FREE ENERGY PREDICTED BY IDOCK:   -9.27 KCAL/MOL
REMARK 924 INTRA-LIGAND FREE ENERGY PREDICTED BY IDOCK:   -1.59 KCAL/MOL
REMARK 927      BINDING AFFINITY PREDICTED BY RF-SCORE:    0.00 PKD
ROOT
HETATM    1  C   UNL     1      -9.205  20.044  66.637  1.00  0.00    -0.484 C  
HETATM    2  C   UNL     1      -7.771  19.603  66.371  1.00  0.00    -0.298 C  
HETATM    3  C   UNL     1      -6.799  20.699  66.802  1.00  0.00    -0.343 C  
ENDROOT
BRANCH   2   4
HETATM    4  O   UNL     1      -7.473  18.422  67.142  1.00  0.00    -0.213 OA 
BRANCH   4   5
HETATM    5  C   UNL     1      -6.972  17.357  66.444  1.00  0.00    -0.279 C  
HETATM    6  O   UNL     1      -5.878  17.329  65.893  1.00  0.00    -0.218 OA 
BRANCH   5   7
HETATM    7  C   UNL     1      -7.949  16.181  66.510  1.00  0.00    -0.259 C  
HETATM    8  C   UNL     1      -9.074  16.551  67.476  1.00  0.00    -0.200 C  
BRANCH   7   9
HETATM    9  N   UNL     1      -7.239  14.932  66.882  1.00  0.00    -0.299 NA 
HETATM   10  P   UNL     1      -8.110  13.898  67.904  1.00  0.00    -0.193 P  
HETATM   11  H   UNL     1      -6.330  15.151  67.292  1.00  0.00     0.000 HD 
HETATM   12  O   UNL     1      -7.140  12.572  68.143  1.00  0.00    -0.084 OA 
HETATM   13  O   UNL     1      -8.755  13.138  66.492  1.00  0.00    -0.073 OA 
HETATM   14  O   UNL     1      -7.533  14.580  69.170  1.00  0.00    -0.130 OA 
BRANCH  13  15
HETATM   15  C   UNL     1     -10.036  13.451  66.114  1.00  0.00    -0.294 A  
HETATM   16  C   UNL     1     -12.704  13.959  65.498  1.00  0.00    -0.536 A  
HETATM   17  C   UNL     1     -10.980  13.538  67.135  1.00  0.00    -0.302 A  
HETATM   18  C   UNL     1     -10.412  13.653  64.786  1.00  0.00    -0.436 A  
HETATM   19  C   UNL     1     -12.317  13.787  66.826  1.00  0.00    -0.365 A  
HETATM   20  C   UNL     1     -11.752  13.901  64.481  1.00  0.00    -0.430 A  
ENDBRANCH  13  15
BRANCH  12  21
HETATM   21  C   UNL     1      -7.350  11.848  69.370  1.00  0.00     0.182 C  
BRANCH  21  22
HETATM   22  C   UNL     1      -7.990  10.429  69.287  1.00  0.00    -0.157 C  
HETATM   23  O   UNL     1      -9.103  10.326  70.203  1.00  0.00    -0.004 OA 
HETATM   24  C   UNL     1      -9.867   9.290  68.229  1.00  0.00    -0.158 C  
HETATM   25  H   UNL     1      -8.043   8.915  66.308  1.00  0.00     0.000 HD 
HETATM   26  C   UNL     1      -8.555  10.022  67.905  1.00  0.00    -0.121 C  
HETATM   27  O   UNL     1      -7.697   9.165  67.157  1.00  0.00    -0.097 OA 
HETATM   28  F   UNL     1      -9.887   8.073  67.617  1.00  0.00    -0.162 F  
HETATM   29  C   UNL     1     -11.049  10.086  67.698  1.00  0.00    -0.222 C  
HETATM   30  C   UNL     1      -9.801   9.145  69.751  1.00  0.00    -0.181 C  
BRANCH  30  31
HETATM   31  N   UNL     1     -11.077   9.009  70.461  1.00  0.00    -0.248 N  
HETATM   32  C   UNL     1     -11.730  10.113  70.978  1.00  0.00    -0.382 C  
HETATM   33  C   UNL     1     -12.834  10.004  71.714  1.00  0.00    -0.546 C  
HETATM   34  C   UNL     1     -13.363   8.662  72.002  1.00  0.00    -0.392 C  
HETATM   35  O   UNL     1     -14.288   8.505  72.789  1.00  0.00    -0.449 OA 
HETATM   36  N   UNL     1     -12.748   7.634  71.352  1.00  0.00    -0.401 N  
HETATM   37  H   UNL     1     -13.192   6.717  71.407  1.00  0.00     0.000 HD 
HETATM   38  C   UNL     1     -11.584   7.723  70.629  1.00  0.00    -0.218 C  
HETATM   39  O   UNL     1     -11.048   6.709  70.201  1.00  0.00    -0.275 OA 
ENDBRANCH  30  31
ENDBRANCH  21  22
ENDBRANCH  12  21
ENDBRANCH   7   9
ENDBRANCH   5   7
ENDBRANCH   4   5
ENDBRANCH   2   4
TORSDOF 8
ENDMDL
MODEL       29
REMARK 921   NORMALIZED FREE ENERGY PREDICTED BY IDOCK:   -5.65 KCAL/MOL
REMARK 922        TOTAL FREE ENERGY PREDICTED BY IDOCK:  -10.84 KCAL/MOL
REMARK 923 INTER-LIGAND FREE ENERGY PREDICTED BY IDOCK:   -8.63 KCAL/MOL
REMARK 924 INTRA-LIGAND FREE ENERGY PREDICTED BY IDOCK:   -2.21 KCAL/MOL
REMARK 927      BINDING AFFINITY PREDICTED BY RF-SCORE:    0.00 PKD
ROOT
HETATM    1  C   UNL     1     -10.267  19.992  66.553  1.00  0.00    -0.598 C  
HETATM    2  C   UNL     1      -9.189  19.777  67.609  1.00  0.00    -0.338 C  
HETATM    3  C   UNL     1      -9.689  18.809  68.678  1.00  0.00    -0.437 C  
ENDROOT
BRANCH   2   4
HETATM    4  O   UNL     1      -8.019  19.194  67.000  1.00  0.00    -0.248 OA 
BRANCH   4   5
HETATM    5  C   UNL     1      -8.097  17.862  66.696  1.00  0.00    -0.253 C  
HETATM    6  O   UNL     1      -8.755  17.387  65.779  1.00  0.00    -0.522 OA 
BRANCH   5   7
HETATM    7  C   UNL     1      -7.186  17.059  67.628  1.00  0.00    -0.153 C  
HETATM    8  C   UNL     1      -5.984  17.932  67.986  1.00  0.00    -0.165 C  
BRANCH   7   9
HETATM    9  N   UNL     1      -6.811  15.766  67.005  1.00  0.00    -0.263 NA 
HETATM   10  P   UNL     1      -7.111  14.402  67.965  1.00  0.00    -0.176 P  
HETATM   11  H   UNL     1      -5.834  15.784  66.712  1.00  0.00     0.000 HD 
HETATM   12  O   UNL     1      -6.655  13.093  67.052  1.00  0.00    -0.118 OA 
HETATM   13  O   UNL     1      -8.685  14.316  67.253  1.00  0.00    -0.195 OA 
HETATM   14  O   UNL     1      -5.702  14.479  68.604  1.00  0.00    -0.084 OA 
BRANCH  13  15
HETATM   15  C   UNL     1      -9.753  14.769  67.984  1.00  0.00    -0.213 A  
HETATM   16  C   UNL     1     -11.842  15.589  69.633  1.00  0.00    -0.384 A  
HETATM   17  C   UNL     1      -9.498  15.108  69.311  1.00  0.00    -0.212 A  
HETATM   18  C   UNL     1     -11.044  14.872  67.465  1.00  0.00    -0.319 A  
HETATM   19  C   UNL     1     -10.544  15.513  70.139  1.00  0.00    -0.336 A  
HETATM   20  C   UNL     1     -12.090  15.277  68.297  1.00  0.00    -0.012 A  
ENDBRANCH  13  15
BRANCH  12  21
HETATM   21  C   UNL     1      -6.257  11.918  67.784  1.00  0.00    -0.070 C  
BRANCH  21  22
HETATM   22  C   UNL     1      -7.275  10.743  67.898  1.00  0.00    -0.087 C  
HETATM   23  O   UNL     1      -8.271  11.037  68.903  1.00  0.00    -0.145 OA 
HETATM   24  C   UNL     1      -9.495  10.116  67.113  1.00  0.00    -0.158 C  
HETATM   25  H   UNL     1      -8.059   9.082  65.106  1.00  0.00     0.000 HD 
HETATM   26  C   UNL     1      -8.071  10.410  66.614  1.00  0.00    -0.122 C  
HETATM   27  O   UNL     1      -7.570   9.286  65.895  1.00  0.00    -0.096 OA 
HETATM   28  F   UNL     1      -9.919   8.914  66.634  1.00  0.00    -0.246 F  
HETATM   29  C   UNL     1     -10.454  11.176  66.595  1.00  0.00    -0.298 C  
HETATM   30  C   UNL     1      -9.314  10.077  68.632  1.00  0.00    -0.156 C  
BRANCH  30  31
HETATM   31  N   UNL     1     -10.497  10.371  69.448  1.00  0.00    -0.224 N  
HETATM   32  C   UNL     1     -10.912  11.673  69.665  1.00  0.00    -0.032 C  
HETATM   33  C   UNL     1     -11.917  11.969  70.485  1.00  0.00    -0.338 C  
HETATM   34  C   UNL     1     -12.595  10.877  71.198  1.00  0.00    -0.428 C  
HETATM   35  O   UNL     1     -13.427  11.111  72.066  1.00  0.00    -0.376 OA 
HETATM   36  N   UNL     1     -12.224   9.616  70.835  1.00  0.00    -0.374 N  
HETATM   37  H   UNL     1     -12.786   8.844  71.194  1.00  0.00     0.000 HD 
HETATM   38  C   UNL     1     -11.161   9.294  70.029  1.00  0.00    -0.205 C  
HETATM   39  O   UNL     1     -10.836   8.122  69.880  1.00  0.00    -0.247 OA 
ENDBRANCH  30  31
ENDBRANCH  21  22
ENDBRANCH  12  21
ENDBRANCH   7   9
ENDBRANCH   5   7
ENDBRANCH   4   5
ENDBRANCH   2   4
TORSDOF 8
ENDMDL
MODEL       30
REMARK 921   NORMALIZED FREE ENERGY PREDICTED BY IDOCK:   -5.64 KCAL/MOL
REMARK 922        TOTAL FREE ENERGY PREDICTED BY IDOCK:  -10.83 KCAL/MOL
REMARK 923 INTER-LIGAND FREE ENERGY PREDICTED BY IDOCK:   -9.39 KCAL/MOL
REMARK 924 INTRA-LIGAND FREE ENERGY PREDICTED BY IDOCK:   -1.44 KCAL/MOL
REMARK 927      BINDING AFFINITY PREDICTED BY RF-SCORE:    0.00 PKD
ROOT
HETATM    1  C   UNL     1     -10.029  19.136  67.172  1.00  0.00    -0.435 C  
HETATM    2  C   UNL     1      -9.133  17.957  66.810  1.00  0.00    -0.268 C  
HETATM    3  C   UNL     1      -7.670  18.394  66.805  1.00  0.00    -0.248 C  
ENDROOT
BRANCH   2   4
HETATM    4  O   UNL     1      -9.279  16.914  67.793  1.00  0.00    -0.226 OA 
BRANCH   4   5
HETATM    5  C   UNL     1      -9.491  15.652  67.308  1.00  0.00    -0.216 C  
HETATM    6  O   UNL     1      -8.794  15.096  66.468  1.00  0.00    -0.275 OA 
BRANCH   5   7
HETATM    7  C   UNL     1     -10.686  15.012  68.019  1.00  0.00    -0.262 C  
HETATM    8  C   UNL     1     -11.362  16.085  68.872  1.00  0.00    -0.370 C  
BRANCH   7   9
HETATM    9  N   UNL     1     -10.255  13.824  68.796  1.00  0.00    -0.350 NA 
HETATM   10  P   UNL     1     -11.274  12.476  68.655  1.00  0.00    -0.321 P  
HETATM   11  H   UNL     1     -10.129  14.071  69.778  1.00  0.00     0.000 HD 
HETATM   12  O   UNL     1     -10.574  11.280  69.568  1.00  0.00    -0.162 OA 
HETATM   13  O   UNL     1     -10.320  11.968  67.305  1.00  0.00    -0.208 OA 
HETATM   14  O   UNL     1     -12.128  12.933  69.864  1.00  0.00    -0.309 OA 
BRANCH  13  15
HETATM   15  C   UNL     1     -10.818  12.175  66.045  1.00  0.00    -0.282 A  
HETATM   16  C   UNL     1     -12.010  12.516  63.551  1.00  0.00    -0.629 A  
HETATM   17  C   UNL     1     -12.157  12.552  65.960  1.00  0.00    -0.390 A  
HETATM   18  C   UNL     1     -10.060  12.003  64.887  1.00  0.00    -0.289 A  
HETATM   19  C   UNL     1     -12.756  12.717  64.712  1.00  0.00    -0.469 A  
HETATM   20  C   UNL     1     -10.663  12.168  63.638  1.00  0.00    -0.518 A  
ENDBRANCH  13  15
BRANCH  12  21
HETATM   21  C   UNL     1     -11.467  10.278  70.090  1.00  0.00    -0.309 C  
BRANCH  21  22
HETATM   22  C   UNL     1     -10.868   8.896  70.492  1.00  0.00    -0.236 C  
HETATM   23  O   UNL     1     -10.890   7.992  69.365  1.00  0.00    -0.199 OA 
HETATM   24  C   UNL     1      -8.774   7.658  70.346  1.00  0.00    -0.143 C  
HETATM   25  H   UNL     1      -8.356   8.866  72.696  1.00  0.00     0.000 HD 
HETATM   26  C   UNL     1      -9.400   8.911  70.980  1.00  0.00    -0.249 C  
HETATM   27  O   UNL     1      -9.258   8.857  72.396  1.00  0.00    -0.362 OA 
HETATM   28  F   UNL     1      -8.163   6.905  71.303  1.00  0.00    -0.109 F  
HETATM   29  C   UNL     1      -7.710   8.063  69.338  1.00  0.00    -0.104 C  
HETATM   30  C   UNL     1      -9.991   6.936  69.764  1.00  0.00    -0.178 C  
BRANCH  30  31
HETATM   31  N   UNL     1      -9.748   6.026  68.640  1.00  0.00    -0.124 N  
HETATM   32  C   UNL     1      -9.699   6.493  67.339  1.00  0.00    -0.126 C  
HETATM   33  C   UNL     1      -9.583   5.674  66.295  1.00  0.00    -0.166 C  
HETATM   34  C   UNL     1      -9.527   4.225  66.536  1.00  0.00    -0.185 C  
HETATM   35  O   UNL     1      -9.564   3.429  65.605  1.00  0.00    -0.154 OA 
HETATM   36  N   UNL     1      -9.446   3.847  67.843  1.00  0.00    -0.181 N  
HETATM   37  H   UNL     1      -9.245   2.864  68.031  1.00  0.00     0.000 HD 
HETATM   38  C   UNL     1      -9.610   4.671  68.928  1.00  0.00    -0.164 C  
HETATM   39  O   UNL     1      -9.653   4.198  70.057  1.00  0.00    -0.173 OA 
ENDBRANCH  30  31
ENDBRANCH  21  22
ENDBRANCH  12  21
ENDBRANCH   7   9
ENDBRANCH   5   7
ENDBRANCH   4   5
ENDBRANCH   2   4
TORSDOF 8
ENDMDL
MODEL       31
REMARK 921   NORMALIZED FREE ENERGY PREDICTED BY IDOCK:   -5.63 KCAL/MOL
REMARK 922        TOTAL FREE ENERGY PREDICTED BY IDOCK:  -10.82 KCAL/MOL
REMARK 923 INTER-LIGAND FREE ENERGY PREDICTED BY IDOCK:   -9.67 KCAL/MOL
REMARK 924 INTRA-LIGAND FREE ENERGY PREDICTED BY IDOCK:   -1.15 KCAL/MOL
REMARK 927      BINDING AFFINITY PREDICTED BY RF-SCORE:    0.00 PKD
ROOT
HETATM    1  C   UNL     1     -10.434   8.471  72.002  1.00  0.00    -0.407 C  
HETATM    2  C   UNL     1     -10.691   7.741  70.689  1.00  0.00    -0.231 C  
HETATM    3  C   UNL     1     -11.876   6.791  70.843  1.00  0.00    -0.438 C  
ENDROOT
BRANCH   2   4
HETATM    4  O   UNL     1     -11.020   8.693  69.659  1.00  0.00    -0.198 OA 
BRANCH   4   5
HETATM    5  C   UNL     1     -10.497   8.446  68.419  1.00  0.00    -0.164 C  
HETATM    6  O   UNL     1     -10.174   7.341  68.000  1.00  0.00    -0.169 OA 
BRANCH   5   7
HETATM    7  C   UNL     1     -10.438   9.743  67.607  1.00  0.00    -0.251 C  
HETATM    8  C   UNL     1      -9.244   9.656  66.658  1.00  0.00    -0.187 C  
BRANCH   7   9
HETATM    9  N   UNL     1     -10.392  10.921  68.508  1.00  0.00    -0.178 NA 
HETATM   10  P   UNL     1      -9.586  12.270  67.872  1.00  0.00    -0.212 P  
HETATM   11  H   UNL     1      -9.990  10.662  69.409  1.00  0.00     0.000 HD 
HETATM   12  O   UNL     1      -9.700  13.455  69.028  1.00  0.00     0.056 OA 
HETATM   13  O   UNL     1     -11.100  12.796  67.222  1.00  0.00    -0.257 OA 
HETATM   14  O   UNL     1      -8.231  11.797  68.453  1.00  0.00    -0.146 OA 
BRANCH  13  15
HETATM   15  C   UNL     1     -11.333  12.605  65.884  1.00  0.00    -0.334 A  
HETATM   16  C   UNL     1     -11.634  12.327  63.129  1.00  0.00    -0.283 A  
HETATM   17  C   UNL     1     -10.211  12.434  65.076  1.00  0.00    -0.306 A  
HETATM   18  C   UNL     1     -12.611  12.601  65.325  1.00  0.00    -0.388 A  
HETATM   19  C   UNL     1     -10.360  12.301  63.696  1.00  0.00    -0.463 A  
HETATM   20  C   UNL     1     -12.758  12.468  63.943  1.00  0.00    -0.414 A  
ENDBRANCH  13  15
BRANCH  12  21
HETATM   21  C   UNL     1      -8.658  14.449  69.019  1.00  0.00     0.005 C  
BRANCH  21  22
HETATM   22  C   UNL     1      -9.066  15.940  68.816  1.00  0.00    -0.219 C  
HETATM   23  O   UNL     1      -8.076  16.627  68.018  1.00  0.00    -0.173 OA 
HETATM   24  C   UNL     1     -10.142  17.370  67.162  1.00  0.00    -0.307 C  
HETATM   25  H   UNL     1     -12.321  16.643  68.533  1.00  0.00     0.000 HD 
HETATM   26  C   UNL     1     -10.415  16.181  68.097  1.00  0.00    -0.279 C  
HETATM   27  O   UNL     1     -11.492  16.495  68.975  1.00  0.00    -0.249 OA 
HETATM   28  F   UNL     1     -11.075  18.342  67.358  1.00  0.00    -0.415 F  
HETATM   29  C   UNL     1     -10.247  16.924  65.712  1.00  0.00    -0.287 C  
HETATM   30  C   UNL     1      -8.754  17.834  67.609  1.00  0.00    -0.244 C  
BRANCH  30  31
HETATM   31  N   UNL     1      -7.947  18.558  66.622  1.00  0.00    -0.252 N  
HETATM   32  C   UNL     1      -6.905  17.939  65.956  1.00  0.00    -0.301 C  
HETATM   33  C   UNL     1      -6.094  18.602  65.135  1.00  0.00    -0.294 C  
HETATM   34  C   UNL     1      -6.303  20.045  64.946  1.00  0.00    -0.282 C  
HETATM   35  O   UNL     1      -5.500  20.721  64.316  1.00  0.00    -0.191 OA 
HETATM   36  N   UNL     1      -7.424  20.559  65.527  1.00  0.00    -0.528 N  
HETATM   37  H   UNL     1      -7.678  21.516  65.281  1.00  0.00     0.000 HD 
HETATM   38  C   UNL     1      -8.243  19.902  66.412  1.00  0.00    -0.335 C  
HETATM   39  O   UNL     1      -9.146  20.506  66.977  1.00  0.00    -0.345 OA 
ENDBRANCH  30  31
ENDBRANCH  21  22
ENDBRANCH  12  21
ENDBRANCH   7   9
ENDBRANCH   5   7
ENDBRANCH   4   5
ENDBRANCH   2   4
TORSDOF 8
ENDMDL
MODEL       32
REMARK 921   NORMALIZED FREE ENERGY PREDICTED BY IDOCK:   -5.63 KCAL/MOL
REMARK 922        TOTAL FREE ENERGY PREDICTED BY IDOCK:  -10.82 KCAL/MOL
REMARK 923 INTER-LIGAND FREE ENERGY PREDICTED BY IDOCK:   -8.83 KCAL/MOL
REMARK 924 INTRA-LIGAND FREE ENERGY PREDICTED BY IDOCK:   -1.99 KCAL/MOL
REMARK 927      BINDING AFFINITY PREDICTED BY RF-SCORE:    0.00 PKD
ROOT
HETATM    1  C   UNL     1      -7.627  20.463  67.219  1.00  0.00    -0.371 C  
HETATM    2  C   UNL     1      -7.826  19.887  65.822  1.00  0.00    -0.224 C  
HETATM    3  C   UNL     1      -6.476  19.723  65.127  1.00  0.00    -0.318 C  
ENDROOT
BRANCH   2   4
HETATM    4  O   UNL     1      -8.436  18.584  65.914  1.00  0.00    -0.497 OA 
BRANCH   4   5
HETATM    5  C   UNL     1      -9.700  18.545  66.436  1.00  0.00    -0.336 C  
HETATM    6  O   UNL     1     -10.658  19.175  66.006  1.00  0.00    -0.463 OA 
BRANCH   5   7
HETATM    7  C   UNL     1      -9.757  17.544  67.593  1.00  0.00    -0.275 C  
HETATM    8  C   UNL     1     -10.092  18.312  68.871  1.00  0.00    -0.358 C  
BRANCH   7   9
HETATM    9  N   UNL     1      -8.491  16.775  67.682  1.00  0.00    -0.189 NA 
HETATM   10  P   UNL     1      -8.663  15.187  68.250  1.00  0.00    -0.184 P  
HETATM   11  H   UNL     1      -7.809  17.281  68.247  1.00  0.00     0.000 HD 
HETATM   12  O   UNL     1      -7.141  14.527  68.223  1.00  0.00    -0.096 OA 
HETATM   13  O   UNL     1      -8.882  14.684  66.610  1.00  0.00    -0.252 OA 
HETATM   14  O   UNL     1      -8.469  15.639  69.719  1.00  0.00    -0.170 OA 
BRANCH  13  15
HETATM   15  C   UNL     1     -10.155  14.412  66.180  1.00  0.00    -0.309 A  
HETATM   16  C   UNL     1     -12.754  13.720  65.458  1.00  0.00    -0.530 A  
HETATM   17  C   UNL     1     -11.094  14.113  67.165  1.00  0.00    -0.315 A  
HETATM   18  C   UNL     1     -10.519  14.402  64.833  1.00  0.00    -0.448 A  
HETATM   19  C   UNL     1     -12.394  13.761  66.804  1.00  0.00    -0.365 A  
HETATM   20  C   UNL     1     -11.822  14.048  64.475  1.00  0.00    -0.452 A  
ENDBRANCH  13  15
BRANCH  12  21
HETATM   21  C   UNL     1      -6.898  13.458  69.157  1.00  0.00    -0.076 C  
BRANCH  21  22
HETATM   22  C   UNL     1      -6.813  12.003  68.605  1.00  0.00    -0.091 C  
HETATM   23  O   UNL     1      -7.801  11.164  69.245  1.00  0.00    -0.103 OA 
HETATM   24  C   UNL     1      -7.905  10.563  66.969  1.00  0.00    -0.114 C  
HETATM   25  H   UNL     1      -6.015  11.601  65.384  1.00  0.00     0.000 HD 
HETATM   26  C   UNL     1      -7.057  11.841  67.086  1.00  0.00    -0.146 C  
HETATM   27  O   UNL     1      -5.866  11.701  66.318  1.00  0.00    -0.187 OA 
HETATM   28  F   UNL     1      -7.335   9.704  66.079  1.00  0.00    -0.091 F  
HETATM   29  C   UNL     1      -9.291  10.906  66.447  1.00  0.00    -0.199 C  
HETATM   30  C   UNL     1      -7.857  10.001  68.391  1.00  0.00    -0.089 C  
BRANCH  30  31
HETATM   31  N   UNL     1      -8.964   9.129  68.797  1.00  0.00    -0.136 N  
HETATM   32  C   UNL     1     -10.050   9.628  69.495  1.00  0.00    -0.209 C  
HETATM   33  C   UNL     1     -11.015   8.839  69.963  1.00  0.00    -0.216 C  
HETATM   34  C   UNL     1     -10.910   7.388  69.748  1.00  0.00    -0.234 C  
HETATM   35  O   UNL     1     -11.695   6.614  70.281  1.00  0.00    -0.389 OA 
HETATM   36  N   UNL     1      -9.888   6.984  68.942  1.00  0.00    -0.148 N  
HETATM   37  H   UNL     1      -9.887   6.007  68.647  1.00  0.00     0.000 HD 
HETATM   38  C   UNL     1      -8.862   7.775  68.490  1.00  0.00    -0.130 C  
HETATM   39  O   UNL     1      -7.922   7.275  67.884  1.00  0.00    -0.115 OA 
ENDBRANCH  30  31
ENDBRANCH  21  22
ENDBRANCH  12  21
ENDBRANCH   7   9
ENDBRANCH   5   7
ENDBRANCH   4   5
ENDBRANCH   2   4
TORSDOF 8
ENDMDL
MODEL       33
REMARK 921   NORMALIZED FREE ENERGY PREDICTED BY IDOCK:   -5.61 KCAL/MOL
REMARK 922        TOTAL FREE ENERGY PREDICTED BY IDOCK:  -10.78 KCAL/MOL
REMARK 923 INTER-LIGAND FREE ENERGY PREDICTED BY IDOCK:   -9.09 KCAL/MOL
REMARK 924 INTRA-LIGAND FREE ENERGY PREDICTED BY IDOCK:   -1.70 KCAL/MOL
REMARK 927      BINDING AFFINITY PREDICTED BY RF-SCORE:    0.00 PKD
ROOT
HETATM    1  C   UNL     1     -12.877  13.906  65.591  1.00  0.00    -0.467 C  
HETATM    2  C   UNL     1     -11.706  14.154  64.647  1.00  0.00    -0.417 C  
HETATM    3  C   UNL     1     -11.010  15.463  65.010  1.00  0.00    -0.450 C  
ENDROOT
BRANCH   2   4
HETATM    4  O   UNL     1     -10.741  13.091  64.776  1.00  0.00    -0.314 OA 
BRANCH   4   5
HETATM    5  C   UNL     1     -10.955  11.984  64.001  1.00  0.00    -0.381 C  
HETATM    6  O   UNL     1     -11.981  11.755  63.371  1.00  0.00    -0.474 OA 
BRANCH   5   7
HETATM    7  C   UNL     1      -9.700  11.109  63.980  1.00  0.00    -0.283 C  
HETATM    8  C   UNL     1      -9.110  11.156  62.571  1.00  0.00    -0.347 C  
BRANCH   7   9
HETATM    9  N   UNL     1     -10.014   9.734  64.443  1.00  0.00    -0.399 NA 
HETATM   10  P   UNL     1      -9.148   9.230  65.810  1.00  0.00    -0.235 P  
HETATM   11  H   UNL     1      -9.891   9.068  63.680  1.00  0.00     0.000 HD 
HETATM   12  O   UNL     1      -9.693   7.701  66.155  1.00  0.00    -0.106 OA 
HETATM   13  O   UNL     1     -10.422   9.875  66.785  1.00  0.00    -0.230 OA 
HETATM   14  O   UNL     1      -8.007   8.653  64.935  1.00  0.00    -0.121 OA 
BRANCH  13  15
HETATM   15  C   UNL     1     -10.219  11.084  67.400  1.00  0.00    -0.195 A  
HETATM   16  C   UNL     1     -10.003  13.590  68.597  1.00  0.00    -0.149 A  
HETATM   17  C   UNL     1     -11.309  11.626  68.079  1.00  0.00    -0.366 A  
HETATM   18  C   UNL     1      -9.008  11.774  67.346  1.00  0.00    -0.173 A  
HETATM   19  C   UNL     1     -11.202  12.883  68.674  1.00  0.00    -0.321 A  
HETATM   20  C   UNL     1      -8.905  13.033  67.942  1.00  0.00    -0.193 A  
ENDBRANCH  13  15
BRANCH  12  21
HETATM   21  C   UNL     1      -8.770   6.843  66.853  1.00  0.00    -0.118 C  
BRANCH  21  22
HETATM   22  C   UNL     1      -8.599   7.042  68.390  1.00  0.00    -0.126 C  
HETATM   23  O   UNL     1      -9.839   7.493  68.978  1.00  0.00    -0.164 OA 
HETATM   24  C   UNL     1      -9.031   5.868  70.481  1.00  0.00    -0.144 C  
HETATM   25  H   UNL     1      -6.560   4.953  70.016  1.00  0.00     0.000 HD 
HETATM   26  C   UNL     1      -8.194   5.784  69.194  1.00  0.00    -0.101 C  
HETATM   27  O   UNL     1      -6.809   5.725  69.522  1.00  0.00    -0.057 OA 
HETATM   28  F   UNL     1      -8.223   5.751  71.572  1.00  0.00    -0.111 F  
HETATM   29  C   UNL     1     -10.028   4.721  70.527  1.00  0.00    -0.306 C  
HETATM   30  C   UNL     1      -9.641   7.268  70.391  1.00  0.00    -0.165 C  
BRANCH  30  31
HETATM   31  N   UNL     1     -10.893   7.495  71.120  1.00  0.00    -0.236 N  
HETATM   32  C   UNL     1     -12.093   6.984  70.658  1.00  0.00    -0.284 C  
HETATM   33  C   UNL     1     -13.255   7.262  71.244  1.00  0.00    -0.352 C  
HETATM   34  C   UNL     1     -13.263   8.159  72.410  1.00  0.00    -0.086 C  
HETATM   35  O   UNL     1     -14.316   8.556  72.892  1.00  0.00    -0.404 OA 
HETATM   36  N   UNL     1     -12.037   8.514  72.888  1.00  0.00    -0.332 N  
HETATM   37  H   UNL     1     -12.011   9.002  73.784  1.00  0.00     0.000 HD 
HETATM   38  C   UNL     1     -10.835   8.276  72.270  1.00  0.00    -0.338 C  
HETATM   39  O   UNL     1      -9.805   8.762  72.723  1.00  0.00    -0.140 OA 
ENDBRANCH  30  31
ENDBRANCH  21  22
ENDBRANCH  12  21
ENDBRANCH   7   9
ENDBRANCH   5   7
ENDBRANCH   4   5
ENDBRANCH   2   4
TORSDOF 8
ENDMDL
MODEL       34
REMARK 921   NORMALIZED FREE ENERGY PREDICTED BY IDOCK:   -5.60 KCAL/MOL
REMARK 922        TOTAL FREE ENERGY PREDICTED BY IDOCK:  -10.77 KCAL/MOL
REMARK 923 INTER-LIGAND FREE ENERGY PREDICTED BY IDOCK:   -8.57 KCAL/MOL
REMARK 924 INTRA-LIGAND FREE ENERGY PREDICTED BY IDOCK:   -2.20 KCAL/MOL
REMARK 927      BINDING AFFINITY PREDICTED BY RF-SCORE:    0.00 PKD
ROOT
HETATM    1  C   UNL     1      -8.437   4.845  70.253  1.00  0.00    -0.099 C  
HETATM    2  C   UNL     1      -9.785   4.273  70.676  1.00  0.00    -0.204 C  
HETATM    3  C   UNL     1      -9.584   3.188  71.731  1.00  0.00    -0.227 C  
ENDROOT
BRANCH   2   4
HETATM    4  O   UNL     1     -10.594   5.313  71.261  1.00  0.00    -0.224 OA 
BRANCH   4   5
HETATM    5  C   UNL     1     -11.065   6.267  70.401  1.00  0.00    -0.352 C  
HETATM    6  O   UNL     1     -11.432   6.057  69.251  1.00  0.00    -0.345 OA 
BRANCH   5   7
HETATM    7  C   UNL     1     -11.133   7.622  71.108  1.00  0.00    -0.251 C  
HETATM    8  C   UNL     1     -11.660   7.394  72.525  1.00  0.00    -0.319 C  
BRANCH   7   9
HETATM    9  N   UNL     1     -11.949   8.581  70.323  1.00  0.00    -0.421 NA 
HETATM   10  P   UNL     1     -11.250  10.113  70.126  1.00  0.00    -0.338 P  
HETATM   11  H   UNL     1     -12.881   8.667  70.728  1.00  0.00     0.000 HD 
HETATM   12  O   UNL     1     -12.313  10.981  69.194  1.00  0.00    -0.451 OA 
HETATM   13  O   UNL     1     -10.505   9.525  68.680  1.00  0.00    -0.200 OA 
HETATM   14  O   UNL     1     -11.916  10.638  71.422  1.00  0.00    -0.299 OA 
BRANCH  13  15
HETATM   15  C   UNL     1      -9.176   9.189  68.726  1.00  0.00    -0.136 A  
HETATM   16  C   UNL     1      -6.434   8.711  68.816  1.00  0.00    -0.053 A  
HETATM   17  C   UNL     1      -8.349  10.028  69.470  1.00  0.00    -0.180 A  
HETATM   18  C   UNL     1      -8.644   8.089  68.054  1.00  0.00    -0.129 A  
HETATM   19  C   UNL     1      -6.975   9.792  69.511  1.00  0.00    -0.064 A  
HETATM   20  C   UNL     1      -7.267   7.857  68.096  1.00  0.00    -0.090 A  
ENDBRANCH  13  15
BRANCH  12  21
HETATM   21  C   UNL     1     -12.275  12.412  69.357  1.00  0.00    -0.065 C  
BRANCH  21  22
HETATM   22  C   UNL     1     -11.805  13.278  68.149  1.00  0.00    -0.353 C  
HETATM   23  O   UNL     1     -10.641  14.054  68.510  1.00  0.00    -0.241 OA 
HETATM   24  C   UNL     1     -10.156  13.236  66.355  1.00  0.00    -0.290 C  
HETATM   25  H   UNL     1     -12.156  11.997  65.082  1.00  0.00     0.000 HD 
HETATM   26  C   UNL     1     -11.400  12.498  66.875  1.00  0.00    -0.326 C  
HETATM   27  O   UNL     1     -12.405  12.476  65.865  1.00  0.00    -0.626 OA 
HETATM   28  F   UNL     1     -10.319  13.561  65.043  1.00  0.00    -0.310 F  
HETATM   29  C   UNL     1      -8.939  12.329  66.451  1.00  0.00    -0.117 C  
HETATM   30  C   UNL     1     -10.117  14.486  67.236  1.00  0.00    -0.247 C  
BRANCH  30  31
HETATM   31  N   UNL     1      -8.812  15.129  67.418  1.00  0.00    -0.178 N  
HETATM   32  C   UNL     1      -8.009  14.827  68.503  1.00  0.00    -0.136 C  
HETATM   33  C   UNL     1      -6.870  15.472  68.744  1.00  0.00    -0.116 C  
HETATM   34  C   UNL     1      -6.463  16.555  67.837  1.00  0.00    -0.135 C  
HETATM   35  O   UNL     1      -5.502  17.268  68.097  1.00  0.00    -0.122 OA 
HETATM   36  N   UNL     1      -7.230  16.706  66.720  1.00  0.00    -0.218 N  
HETATM   37  H   UNL     1      -6.882  17.339  65.999  1.00  0.00     0.000 HD 
HETATM   38  C   UNL     1      -8.430  16.084  66.480  1.00  0.00    -0.313 C  
HETATM   39  O   UNL     1      -9.101  16.400  65.505  1.00  0.00    -0.390 OA 
ENDBRANCH  30  31
ENDBRANCH  21  22
ENDBRANCH  12  21
ENDBRANCH   7   9
ENDBRANCH   5   7
ENDBRANCH   4   5
ENDBRANCH   2   4
TORSDOF 8
ENDMDL
MODEL       35
REMARK 921   NORMALIZED FREE ENERGY PREDICTED BY IDOCK:   -5.59 KCAL/MOL
REMARK 922        TOTAL FREE ENERGY PREDICTED BY IDOCK:  -10.76 KCAL/MOL
REMARK 923 INTER-LIGAND FREE ENERGY PREDICTED BY IDOCK:   -9.27 KCAL/MOL
REMARK 924 INTRA-LIGAND FREE ENERGY PREDICTED BY IDOCK:   -1.49 KCAL/MOL
REMARK 927      BINDING AFFINITY PREDICTED BY RF-SCORE:    0.00 PKD
ROOT
HETATM    1  C   UNL     1     -14.200  15.247  72.125  1.00  0.00    -0.667 C  
HETATM    2  C   UNL     1     -12.791  15.479  71.595  1.00  0.00    -0.446 C  
HETATM    3  C   UNL     1     -11.951  16.206  72.643  1.00  0.00    -0.653 C  
ENDROOT
BRANCH   2   4
HETATM    4  O   UNL     1     -12.157  14.213  71.323  1.00  0.00    -0.351 OA 
BRANCH   4   5
HETATM    5  C   UNL     1     -11.642  14.054  70.066  1.00  0.00    -0.232 C  
HETATM    6  O   UNL     1     -11.062  14.925  69.428  1.00  0.00    -0.256 OA 
BRANCH   5   7
HETATM    7  C   UNL     1     -11.835  12.609  69.600  1.00  0.00    -0.311 C  
HETATM    8  C   UNL     1     -12.755  11.906  70.598  1.00  0.00    -0.176 C  
BRANCH   7   9
HETATM    9  N   UNL     1     -10.524  11.935  69.430  1.00  0.00    -0.427 NA 
HETATM   10  P   UNL     1     -10.365  11.043  67.998  1.00  0.00    -0.209 P  
HETATM   11  H   UNL     1     -10.322  11.346  70.238  1.00  0.00     0.000 HD 
HETATM   12  O   UNL     1      -8.824  10.426  68.015  1.00  0.00    -0.128 OA 
HETATM   13  O   UNL     1      -9.755  12.473  67.241  1.00  0.00    -0.197 OA 
HETATM   14  O   UNL     1     -10.912   9.762  68.676  1.00  0.00    -0.213 OA 
BRANCH  13  15
HETATM   15  C   UNL     1     -10.595  13.183  66.422  1.00  0.00    -0.286 A  
HETATM   16  C   UNL     1     -12.348  14.444  64.663  1.00  0.00    -0.435 A  
HETATM   17  C   UNL     1     -11.770  12.542  66.033  1.00  0.00    -0.472 A  
HETATM   18  C   UNL     1     -10.308  14.468  65.964  1.00  0.00    -0.320 A  
HETATM   19  C   UNL     1     -12.645  13.171  65.148  1.00  0.00    -0.525 A  
HETATM   20  C   UNL     1     -11.186  15.095  65.077  1.00  0.00    -0.414 A  
ENDBRANCH  13  15
BRANCH  12  21
HETATM   21  C   UNL     1      -8.620   9.212  67.268  1.00  0.00    -0.118 C  
BRANCH  21  22
HETATM   22  C   UNL     1      -8.017   7.982  68.013  1.00  0.00    -0.128 C  
HETATM   23  O   UNL     1      -8.714   7.759  69.259  1.00  0.00    -0.137 OA 
HETATM   24  C   UNL     1      -8.449   5.606  68.340  1.00  0.00    -0.105 C  
HETATM   25  H   UNL     1      -6.903   5.431  66.164  1.00  0.00     0.000 HD 
HETATM   26  C   UNL     1      -8.084   6.634  67.257  1.00  0.00    -0.121 C  
HETATM   27  O   UNL     1      -6.862   6.259  66.628  1.00  0.00    -0.058 OA 
HETATM   28  F   UNL     1      -7.564   4.571  68.319  1.00  0.00    -0.069 F  
HETATM   29  C   UNL     1      -9.829   5.030  68.065  1.00  0.00    -0.202 C  
HETATM   30  C   UNL     1      -8.320   6.421  69.629  1.00  0.00    -0.126 C  
BRANCH  30  31
HETATM   31  N   UNL     1      -9.100   5.964  70.784  1.00  0.00    -0.151 N  
HETATM   32  C   UNL     1     -10.331   6.521  71.081  1.00  0.00    -0.205 C  
HETATM   33  C   UNL     1     -11.009   6.196  72.180  1.00  0.00    -0.307 C  
HETATM   34  C   UNL     1     -10.419   5.229  73.117  1.00  0.00    -0.212 C  
HETATM   35  O   UNL     1     -10.936   5.009  74.204  1.00  0.00    -0.304 OA 
HETATM   36  N   UNL     1      -9.273   4.624  72.694  1.00  0.00    -0.126 N  
HETATM   37  H   UNL     1      -8.931   3.838  73.248  1.00  0.00     0.000 HD 
HETATM   38  C   UNL     1      -8.538   4.979  71.591  1.00  0.00    -0.128 C  
HETATM   39  O   UNL     1      -7.450   4.455  71.383  1.00  0.00    -0.057 OA 
ENDBRANCH  30  31
ENDBRANCH  21  22
ENDBRANCH  12  21
ENDBRANCH   7   9
ENDBRANCH   5   7
ENDBRANCH   4   5
ENDBRANCH   2   4
TORSDOF 8
ENDMDL
MODEL       36
REMARK 921   NORMALIZED FREE ENERGY PREDICTED BY IDOCK:   -5.57 KCAL/MOL
REMARK 922        TOTAL FREE ENERGY PREDICTED BY IDOCK:  -10.72 KCAL/MOL
REMARK 923 INTER-LIGAND FREE ENERGY PREDICTED BY IDOCK:   -8.79 KCAL/MOL
REMARK 924 INTRA-LIGAND FREE ENERGY PREDICTED BY IDOCK:   -1.93 KCAL/MOL
REMARK 927      BINDING AFFINITY PREDICTED BY RF-SCORE:    0.00 PKD
ROOT
HETATM    1  C   UNL     1      -7.324   5.574  70.796  1.00  0.00    -0.083 C  
HETATM    2  C   UNL     1      -8.255   5.900  69.634  1.00  0.00    -0.110 C  
HETATM    3  C   UNL     1      -7.673   5.360  68.330  1.00  0.00    -0.081 C  
ENDROOT
BRANCH   2   4
HETATM    4  O   UNL     1      -9.533   5.268  69.842  1.00  0.00    -0.139 OA 
BRANCH   4   5
HETATM    5  C   UNL     1     -10.634   6.064  69.679  1.00  0.00    -0.300 C  
HETATM    6  O   UNL     1     -11.278   6.170  68.642  1.00  0.00    -0.356 OA 
BRANCH   5   7
HETATM    7  C   UNL     1     -10.983   6.750  71.002  1.00  0.00    -0.255 C  
HETATM    8  C   UNL     1     -11.279   5.665  72.037  1.00  0.00    -0.271 C  
BRANCH   7   9
HETATM    9  N   UNL     1     -12.102   7.707  70.814  1.00  0.00    -0.484 NA 
HETATM   10  P   UNL     1     -11.847   9.239  71.494  1.00  0.00    -0.414 P  
HETATM   11  H   UNL     1     -12.973   7.306  71.162  1.00  0.00     0.000 HD 
HETATM   12  O   UNL     1     -13.197  10.131  71.124  1.00  0.00    -0.380 OA 
HETATM   13  O   UNL     1     -11.145   9.727  69.991  1.00  0.00    -0.242 OA 
HETATM   14  O   UNL     1     -12.475   8.800  72.841  1.00  0.00    -0.264 OA 
BRANCH  13  15
HETATM   15  C   UNL     1      -9.779   9.802  69.908  1.00  0.00    -0.238 A  
HETATM   16  C   UNL     1      -7.021   9.912  69.535  1.00  0.00    -0.070 A  
HETATM   17  C   UNL     1      -9.257  10.352  68.738  1.00  0.00    -0.172 A  
HETATM   18  C   UNL     1      -8.927   9.338  70.910  1.00  0.00    -0.273 A  
HETATM   19  C   UNL     1      -7.877  10.403  68.549  1.00  0.00    -0.107 A  
HETATM   20  C   UNL     1      -7.545   9.390  70.716  1.00  0.00    -0.138 A  
ENDBRANCH  13  15
BRANCH  12  21
HETATM   21  C   UNL     1     -13.509  11.210  72.026  1.00  0.00    -0.174 C  
BRANCH  21  22
HETATM   22  C   UNL     1     -12.696  12.534  71.899  1.00  0.00    -0.087 C  
HETATM   23  O   UNL     1     -12.324  12.763  70.522  1.00  0.00    -0.339 OA 
HETATM   24  C   UNL     1     -13.025  14.873  71.301  1.00  0.00    -0.363 C  
HETATM   25  H   UNL     1     -13.508  15.063  73.926  1.00  0.00     0.000 HD 
HETATM   26  C   UNL     1     -13.426  13.821  72.349  1.00  0.00    -0.571 C  
HETATM   27  O   UNL     1     -13.059  14.272  73.649  1.00  0.00    -0.410 OA 
HETATM   28  F   UNL     1     -12.536  15.984  71.918  1.00  0.00    -0.449 F  
HETATM   29  C   UNL     1     -14.246  15.297  70.500  1.00  0.00     0.603 C  
HETATM   30  C   UNL     1     -11.933  14.153  70.507  1.00  0.00    -0.323 C  
BRANCH  30  31
HETATM   31  N   UNL     1     -11.710  14.602  69.129  1.00  0.00    -0.292 N  
HETATM   32  C   UNL     1     -12.248  13.914  68.056  1.00  0.00    -0.153 C  
HETATM   33  C   UNL     1     -11.974  14.240  66.795  1.00  0.00    -0.462 C  
HETATM   34  C   UNL     1     -11.054  15.358  66.537  1.00  0.00    -0.227 C  
HETATM   35  O   UNL     1     -10.662  15.602  65.403  1.00  0.00    -0.362 OA 
HETATM   36  N   UNL     1     -10.670  16.070  67.634  1.00  0.00    -0.316 N  
HETATM   37  H   UNL     1     -10.164  16.941  67.468  1.00  0.00     0.000 HD 
HETATM   38  C   UNL     1     -10.904  15.721  68.940  1.00  0.00    -0.260 C  
HETATM   39  O   UNL     1     -10.394  16.365  69.849  1.00  0.00    -0.235 OA 
ENDBRANCH  30  31
ENDBRANCH  21  22
ENDBRANCH  12  21
ENDBRANCH   7   9
ENDBRANCH   5   7
ENDBRANCH   4   5
ENDBRANCH   2   4
TORSDOF 8
ENDMDL
MODEL       37
REMARK 921   NORMALIZED FREE ENERGY PREDICTED BY IDOCK:   -5.54 KCAL/MOL
REMARK 922        TOTAL FREE ENERGY PREDICTED BY IDOCK:  -10.69 KCAL/MOL
REMARK 923 INTER-LIGAND FREE ENERGY PREDICTED BY IDOCK:   -8.48 KCAL/MOL
REMARK 924 INTRA-LIGAND FREE ENERGY PREDICTED BY IDOCK:   -2.21 KCAL/MOL
REMARK 927      BINDING AFFINITY PREDICTED BY RF-SCORE:    0.00 PKD
ROOT
HETATM    1  C   UNL     1      -8.102   7.816  74.449  1.00  0.00    -0.276 C  
HETATM    2  C   UNL     1      -8.358   6.594  73.574  1.00  0.00    -0.117 C  
HETATM    3  C   UNL     1      -9.814   6.153  73.704  1.00  0.00    -0.189 C  
ENDROOT
BRANCH   2   4
HETATM    4  O   UNL     1      -8.119   6.926  72.192  1.00  0.00    -0.098 OA 
BRANCH   4   5
HETATM    5  C   UNL     1      -7.520   5.958  71.433  1.00  0.00    -0.096 C  
HETATM    6  O   UNL     1      -6.506   5.346  71.747  1.00  0.00    -0.037 OA 
BRANCH   5   7
HETATM    7  C   UNL     1      -8.342   5.701  70.167  1.00  0.00    -0.118 C  
HETATM    8  C   UNL     1      -8.047   4.280  69.689  1.00  0.00    -0.062 C  
BRANCH   7   9
HETATM    9  N   UNL     1      -8.062   6.738  69.144  1.00  0.00    -0.119 NA 
HETATM   10  P   UNL     1      -9.415   7.246  68.259  1.00  0.00    -0.142 P  
HETATM   11  H   UNL     1      -7.325   6.423  68.513  1.00  0.00     0.000 HD 
HETATM   12  O   UNL     1      -8.866   8.419  67.222  1.00  0.00    -0.128 OA 
HETATM   13  O   UNL     1      -9.671   8.465  69.459  1.00  0.00    -0.173 OA 
HETATM   14  O   UNL     1      -9.186   6.153  67.186  1.00  0.00    -0.116 OA 
BRANCH  13  15
HETATM   15  C   UNL     1     -10.656   8.261  70.390  1.00  0.00    -0.224 A  
HETATM   16  C   UNL     1     -12.778   7.776  72.128  1.00  0.00    -0.220 A  
HETATM   17  C   UNL     1     -11.463   7.140  70.207  1.00  0.00    -0.287 A  
HETATM   18  C   UNL     1     -10.883   9.125  71.462  1.00  0.00    -0.436 A  
HETATM   19  C   UNL     1     -12.528   6.899  71.073  1.00  0.00    -0.364 A  
HETATM   20  C   UNL     1     -11.952   8.881  72.328  1.00  0.00    -0.380 A  
ENDBRANCH  13  15
BRANCH  12  21
HETATM   21  C   UNL     1      -9.622   8.595  66.008  1.00  0.00    -0.195 C  
BRANCH  21  22
HETATM   22  C   UNL     1     -10.278   9.985  65.745  1.00  0.00    -0.200 C  
HETATM   23  O   UNL     1     -10.869  10.499  66.959  1.00  0.00    -0.268 OA 
HETATM   24  C   UNL     1      -9.784  12.358  65.999  1.00  0.00    -0.244 C  
HETATM   25  H   UNL     1      -8.803  12.012  63.535  1.00  0.00     0.000 HD 
HETATM   26  C   UNL     1      -9.326  11.098  65.246  1.00  0.00    -0.219 C  
HETATM   27  O   UNL     1      -9.388  11.328  63.841  1.00  0.00    -0.197 OA 
HETATM   28  F   UNL     1     -10.011  13.372  65.120  1.00  0.00    -0.303 F  
HETATM   29  C   UNL     1      -8.691  12.817  66.952  1.00  0.00    -0.169 C  
HETATM   30  C   UNL     1     -11.083  11.895  66.662  1.00  0.00    -0.310 C  
BRANCH  30  31
HETATM   31  N   UNL     1     -11.503  12.611  67.871  1.00  0.00    -0.288 N  
HETATM   32  C   UNL     1     -11.403  12.025  69.121  1.00  0.00    -0.281 C  
HETATM   33  C   UNL     1     -11.872  12.613  70.219  1.00  0.00    -0.295 C  
HETATM   34  C   UNL     1     -12.535  13.920  70.095  1.00  0.00    -0.292 C  
HETATM   35  O   UNL     1     -13.106  14.431  71.050  1.00  0.00    -0.351 OA 
HETATM   36  N   UNL     1     -12.478  14.494  68.860  1.00  0.00    -0.569 N  
HETATM   37  H   UNL     1     -12.787  15.464  68.783  1.00  0.00     0.000 HD 
HETATM   38  C   UNL     1     -12.041  13.885  67.710  1.00  0.00    -0.293 C  
HETATM   39  O   UNL     1     -12.162  14.450  66.631  1.00  0.00    -0.424 OA 
ENDBRANCH  30  31
ENDBRANCH  21  22
ENDBRANCH  12  21
ENDBRANCH   7   9
ENDBRANCH   5   7
ENDBRANCH   4   5
ENDBRANCH   2   4
TORSDOF 8
ENDMDL
MODEL       38
REMARK 921   NORMALIZED FREE ENERGY PREDICTED BY IDOCK:   -5.53 KCAL/MOL
REMARK 922        TOTAL FREE ENERGY PREDICTED BY IDOCK:  -10.66 KCAL/MOL
REMARK 923 INTER-LIGAND FREE ENERGY PREDICTED BY IDOCK:   -9.53 KCAL/MOL
REMARK 924 INTRA-LIGAND FREE ENERGY PREDICTED BY IDOCK:   -1.13 KCAL/MOL
REMARK 927      BINDING AFFINITY PREDICTED BY RF-SCORE:    0.00 PKD
ROOT
HETATM    1  C   UNL     1      -9.747   3.921  71.312  1.00  0.00    -0.247 C  
HETATM    2  C   UNL     1     -10.074   5.361  71.688  1.00  0.00    -0.203 C  
HETATM    3  C   UNL     1      -8.934   5.959  72.509  1.00  0.00    -0.132 C  
ENDROOT
BRANCH   2   4
HETATM    4  O   UNL     1     -10.220   6.156  70.494  1.00  0.00    -0.186 OA 
BRANCH   4   5
HETATM    5  C   UNL     1     -11.013   7.265  70.601  1.00  0.00    -0.256 C  
HETATM    6  O   UNL     1     -12.170   7.266  71.003  1.00  0.00    -0.328 OA 
BRANCH   5   7
HETATM    7  C   UNL     1     -10.220   8.515  70.211  1.00  0.00    -0.193 C  
HETATM    8  C   UNL     1      -9.699   9.167  71.491  1.00  0.00    -0.313 C  
BRANCH   7   9
HETATM    9  N   UNL     1     -11.051   9.423  69.382  1.00  0.00    -0.416 NA 
HETATM   10  P   UNL     1     -10.370   9.844  67.888  1.00  0.00    -0.243 P  
HETATM   11  H   UNL     1     -11.292  10.263  69.910  1.00  0.00     0.000 HD 
HETATM   12  O   UNL     1     -11.485  10.817  67.138  1.00  0.00    -0.400 OA 
HETATM   13  O   UNL     1     -11.155   8.463  67.205  1.00  0.00     0.027 OA 
HETATM   14  O   UNL     1      -9.665  11.080  68.501  1.00  0.00    -0.176 OA 
BRANCH  13  15
HETATM   15  C   UNL     1     -10.402   7.343  66.962  1.00  0.00    -0.314 A  
HETATM   16  C   UNL     1      -8.781   5.173  66.313  1.00  0.00    -0.119 A  
HETATM   17  C   UNL     1      -9.085   7.555  66.561  1.00  0.00    -0.201 A  
HETATM   18  C   UNL     1     -10.904   6.046  67.076  1.00  0.00    -0.413 A  
HETATM   19  C   UNL     1      -8.275   6.470  66.230  1.00  0.00    -0.119 A  
HETATM   20  C   UNL     1     -10.090   4.961  66.743  1.00  0.00    -0.269 A  
ENDBRANCH  13  15
BRANCH  12  21
HETATM   21  C   UNL     1     -10.962  11.754  66.176  1.00  0.00    -0.307 C  
BRANCH  21  22
HETATM   22  C   UNL     1     -11.025  13.273  66.520  1.00  0.00    -0.286 C  
HETATM   23  O   UNL     1     -11.546  13.465  67.854  1.00  0.00    -0.297 OA 
HETATM   24  C   UNL     1      -9.740  14.971  67.706  1.00  0.00    -0.215 C  
HETATM   25  H   UNL     1      -8.629  15.251  65.288  1.00  0.00     0.000 HD 
HETATM   26  C   UNL     1      -9.675  14.029  66.492  1.00  0.00    -0.295 C  
HETATM   27  O   UNL     1      -9.458  14.787  65.306  1.00  0.00    -0.062 OA 
HETATM   28  F   UNL     1      -9.461  16.247  67.322  1.00  0.00    -0.219 F  
HETATM   29  C   UNL     1      -8.694  14.565  68.733  1.00  0.00    -0.147 C  
HETATM   30  C   UNL     1     -11.195  14.832  68.158  1.00  0.00    -0.294 C  
BRANCH  30  31
HETATM   31  N   UNL     1     -11.484  15.127  69.565  1.00  0.00    -0.276 N  
HETATM   32  C   UNL     1     -11.974  14.152  70.416  1.00  0.00    -0.330 C  
HETATM   33  C   UNL     1     -12.340  14.422  71.666  1.00  0.00    -0.415 C  
HETATM   34  C   UNL     1     -12.240  15.806  72.151  1.00  0.00    -0.464 C  
HETATM   35  O   UNL     1     -12.697  16.127  73.241  1.00  0.00    -0.472 OA 
HETATM   36  N   UNL     1     -11.627  16.683  71.306  1.00  0.00    -0.518 N  
HETATM   37  H   UNL     1     -11.401  17.606  71.678  1.00  0.00     0.000 HD 
HETATM   38  C   UNL     1     -11.286  16.435  70.001  1.00  0.00    -0.258 C  
HETATM   39  O   UNL     1     -10.864  17.341  69.293  1.00  0.00    -0.178 OA 
ENDBRANCH  30  31
ENDBRANCH  21  22
ENDBRANCH  12  21
ENDBRANCH   7   9
ENDBRANCH   5   7
ENDBRANCH   4   5
ENDBRANCH   2   4
TORSDOF 8
ENDMDL
MODEL       39
REMARK 921   NORMALIZED FREE ENERGY PREDICTED BY IDOCK:   -5.45 KCAL/MOL
REMARK 922        TOTAL FREE ENERGY PREDICTED BY IDOCK:  -10.55 KCAL/MOL
REMARK 923 INTER-LIGAND FREE ENERGY PREDICTED BY IDOCK:  -10.38 KCAL/MOL
REMARK 924 INTRA-LIGAND FREE ENERGY PREDICTED BY IDOCK:   -0.17 KCAL/MOL
REMARK 927      BINDING AFFINITY PREDICTED BY RF-SCORE:    0.00 PKD
ROOT
HETATM    1  C   UNL     1     -13.131  16.053  73.536  1.00  0.00    -0.665 C  
HETATM    2  C   UNL     1     -12.321  14.849  73.072  1.00  0.00    -0.342 C  
HETATM    3  C   UNL     1     -13.253  13.768  72.532  1.00  0.00    -0.599 C  
ENDROOT
BRANCH   2   4
HETATM    4  O   UNL     1     -11.434  15.240  72.005  1.00  0.00    -0.420 OA 
BRANCH   4   5
HETATM    5  C   UNL     1     -12.031  15.685  70.857  1.00  0.00    -0.397 C  
HETATM    6  O   UNL     1     -13.240  15.790  70.688  1.00  0.00    -0.501 OA 
BRANCH   5   7
HETATM    7  C   UNL     1     -10.965  16.097  69.838  1.00  0.00    -0.362 C  
HETATM    8  C   UNL     1     -11.631  16.196  68.466  1.00  0.00    -0.265 C  
BRANCH   7   9
HETATM    9  N   UNL     1      -9.819  15.154  69.871  1.00  0.00    -0.476 NA 
HETATM   10  P   UNL     1      -9.074  14.890  68.372  1.00  0.00    -0.195 P  
HETATM   11  H   UNL     1     -10.103  14.267  70.286  1.00  0.00     0.000 HD 
HETATM   12  O   UNL     1      -7.816  13.849  68.667  1.00  0.00    -0.136 OA 
HETATM   13  O   UNL     1      -8.023  16.218  68.725  1.00  0.00    -0.195 OA 
HETATM   14  O   UNL     1     -10.016  13.702  68.056  1.00  0.00    -0.232 OA 
BRANCH  13  15
HETATM   15  C   UNL     1      -8.273  17.421  68.118  1.00  0.00    -0.238 A  
HETATM   16  C   UNL     1      -8.832  19.941  67.072  1.00  0.00    -0.413 A  
HETATM   17  C   UNL     1      -7.950  18.564  68.848  1.00  0.00    -0.232 A  
HETATM   18  C   UNL     1      -8.842  17.533  66.850  1.00  0.00    -0.267 A  
HETATM   19  C   UNL     1      -8.235  19.826  68.327  1.00  0.00    -0.312 A  
HETATM   20  C   UNL     1      -9.127  18.798  66.332  1.00  0.00    -0.305 A  
ENDBRANCH  13  15
BRANCH  12  21
HETATM   21  C   UNL     1      -7.402  13.027  67.559  1.00  0.00    -0.152 C  
BRANCH  21  22
HETATM   22  C   UNL     1      -7.792  11.517  67.577  1.00  0.00    -0.133 C  
HETATM   23  O   UNL     1      -8.680  11.242  68.683  1.00  0.00    -0.154 OA 
HETATM   24  C   UNL     1      -9.608  10.053  66.873  1.00  0.00    -0.175 C  
HETATM   25  H   UNL     1      -8.136   9.960  64.641  1.00  0.00     0.000 HD 
HETATM   26  C   UNL     1      -8.525  10.993  66.320  1.00  0.00    -0.165 C  
HETATM   27  O   UNL     1      -7.687  10.282  65.413  1.00  0.00    -0.139 OA 
HETATM   28  F   UNL     1      -9.532   8.839  66.259  1.00  0.00    -0.207 F  
HETATM   29  C   UNL     1     -10.987  10.624  66.583  1.00  0.00    -0.144 C  
HETATM   30  C   UNL     1      -9.236   9.951  68.354  1.00  0.00    -0.130 C  
BRANCH  30  31
HETATM   31  N   UNL     1     -10.314   9.611  69.287  1.00  0.00    -0.199 N  
HETATM   32  C   UNL     1     -11.021  10.596  69.955  1.00  0.00    -0.274 C  
HETATM   33  C   UNL     1     -11.931  10.310  70.883  1.00  0.00    -0.473 C  
HETATM   34  C   UNL     1     -12.179   8.901  71.221  1.00  0.00    -0.299 C  
HETATM   35  O   UNL     1     -12.900   8.596  72.163  1.00  0.00    -0.349 OA 
HETATM   36  N   UNL     1     -11.548   7.985  70.432  1.00  0.00    -0.459 N  
HETATM   37  H   UNL     1     -11.824   7.009  70.540  1.00  0.00     0.000 HD 
HETATM   38  C   UNL     1     -10.573   8.261  69.506  1.00  0.00    -0.213 C  
HETATM   39  O   UNL     1      -9.977   7.346  68.951  1.00  0.00    -0.161 OA 
ENDBRANCH  30  31
ENDBRANCH  21  22
ENDBRANCH  12  21
ENDBRANCH   7   9
ENDBRANCH   5   7
ENDBRANCH   4   5
ENDBRANCH   2   4
TORSDOF 8
ENDMDL
MODEL       40
REMARK 921   NORMALIZED FREE ENERGY PREDICTED BY IDOCK:   -5.40 KCAL/MOL
REMARK 922        TOTAL FREE ENERGY PREDICTED BY IDOCK:  -10.48 KCAL/MOL
REMARK 923 INTER-LIGAND FREE ENERGY PREDICTED BY IDOCK:   -9.12 KCAL/MOL
REMARK 924 INTRA-LIGAND FREE ENERGY PREDICTED BY IDOCK:   -1.36 KCAL/MOL
REMARK 927      BINDING AFFINITY PREDICTED BY RF-SCORE:    0.00 PKD
ROOT
HETATM    1  C   UNL     1     -10.632  16.137  65.384  1.00  0.00    -0.399 C  
HETATM    2  C   UNL     1     -10.306  16.329  66.860  1.00  0.00    -0.299 C  
HETATM    3  C   UNL     1     -10.523  17.786  67.259  1.00  0.00    -0.356 C  
ENDROOT
BRANCH   2   4
HETATM    4  O   UNL     1     -11.186  15.516  67.663  1.00  0.00    -0.323 OA 
BRANCH   4   5
HETATM    5  C   UNL     1     -10.581  14.674  68.556  1.00  0.00    -0.245 C  
HETATM    6  O   UNL     1      -9.435  14.794  68.970  1.00  0.00    -0.208 OA 
BRANCH   5   7
HETATM    7  C   UNL     1     -11.571  13.600  69.014  1.00  0.00    -0.312 C  
HETATM    8  C   UNL     1     -12.422  14.186  70.139  1.00  0.00    -0.391 C  
BRANCH   7   9
HETATM    9  N   UNL     1     -10.853  12.360  69.401  1.00  0.00    -0.454 NA 
HETATM   10  P   UNL     1     -11.414  10.950  68.646  1.00  0.00    -0.269 P  
HETATM   11  H   UNL     1     -10.865  12.247  70.415  1.00  0.00     0.000 HD 
HETATM   12  O   UNL     1     -10.445   9.721  69.200  1.00  0.00    -0.197 OA 
HETATM   13  O   UNL     1     -10.274  11.242  67.380  1.00  0.00    -0.181 OA 
HETATM   14  O   UNL     1     -12.436  10.689  69.781  1.00  0.00    -0.280 OA 
BRANCH  13  15
HETATM   15  C   UNL     1     -10.735  11.769  66.201  1.00  0.00    -0.277 A  
HETATM   16  C   UNL     1     -11.478  12.905  63.769  1.00  0.00    -0.519 A  
HETATM   17  C   UNL     1      -9.868  11.709  65.112  1.00  0.00    -0.281 A  
HETATM   18  C   UNL     1     -11.990  12.364  66.070  1.00  0.00    -0.419 A  
HETATM   19  C   UNL     1     -10.237  12.282  63.896  1.00  0.00    -0.421 A  
HETATM   20  C   UNL     1     -12.357  12.938  64.851  1.00  0.00    -0.532 A  
ENDBRANCH  13  15
BRANCH  12  21
HETATM   21  C   UNL     1     -11.029   8.405  69.197  1.00  0.00     0.085 C  
BRANCH  21  22
HETATM   22  C   UNL     1     -11.128   7.641  70.553  1.00  0.00    -0.255 C  
HETATM   23  O   UNL     1     -10.095   6.634  70.637  1.00  0.00    -0.183 OA 
HETATM   24  C   UNL     1     -10.114   7.638  72.769  1.00  0.00    -0.254 C  
HETATM   25  H   UNL     1     -12.103   9.362  73.246  1.00  0.00     0.000 HD 
HETATM   26  C   UNL     1     -10.969   8.503  71.828  1.00  0.00    -0.306 C  
HETATM   27  O   UNL     1     -12.201   8.833  72.463  1.00  0.00    -0.364 OA 
HETATM   28  F   UNL     1     -10.724   7.525  73.982  1.00  0.00    -0.337 F  
HETATM   29  C   UNL     1      -8.765   8.299  72.997  1.00  0.00    -0.287 C  
HETATM   30  C   UNL     1     -10.074   6.293  72.040  1.00  0.00    -0.183 C  
BRANCH  30  31
HETATM   31  N   UNL     1      -8.935   5.415  72.330  1.00  0.00    -0.135 N  
HETATM   32  C   UNL     1      -7.831   5.376  71.497  1.00  0.00    -0.110 C  
HETATM   33  C   UNL     1      -6.833   4.514  71.683  1.00  0.00    -0.035 C  
HETATM   34  C   UNL     1      -6.919   3.560  72.798  1.00  0.00    -0.043 C  
HETATM   35  O   UNL     1      -6.099   2.660  72.922  1.00  0.00    -0.008 OA 
HETATM   36  N   UNL     1      -7.966   3.746  73.652  1.00  0.00    -0.085 N  
HETATM   37  H   UNL     1      -7.961   3.205  74.517  1.00  0.00     0.000 HD 
HETATM   38  C   UNL     1      -9.025   4.595  73.452  1.00  0.00    -0.108 C  
HETATM   39  O   UNL     1      -9.979   4.580  74.220  1.00  0.00    -0.148 OA 
ENDBRANCH  30  31
ENDBRANCH  21  22
ENDBRANCH  12  21
ENDBRANCH   7   9
ENDBRANCH   5   7
ENDBRANCH   4   5
ENDBRANCH   2   4
TORSDOF 8
ENDMDL
MODEL       41
REMARK 921   NORMALIZED FREE ENERGY PREDICTED BY IDOCK:   -5.36 KCAL/MOL
REMARK 922        TOTAL FREE ENERGY PREDICTED BY IDOCK:  -10.41 KCAL/MOL
REMARK 923 INTER-LIGAND FREE ENERGY PREDICTED BY IDOCK:   -9.19 KCAL/MOL
REMARK 924 INTRA-LIGAND FREE ENERGY PREDICTED BY IDOCK:   -1.22 KCAL/MOL
REMARK 927      BINDING AFFINITY PREDICTED BY RF-SCORE:    0.00 PKD
ROOT
HETATM    1  C   UNL     1      -5.297  10.246  70.049  1.00  0.00    -0.040 C  
HETATM    2  C   UNL     1      -5.711   8.949  70.733  1.00  0.00    -0.034 C  
HETATM    3  C   UNL     1      -5.664   9.119  72.250  1.00  0.00    -0.058 C  
ENDROOT
BRANCH   2   4
HETATM    4  O   UNL     1      -7.065   8.616  70.368  1.00  0.00    -0.039 OA 
BRANCH   4   5
HETATM    5  C   UNL     1      -7.211   7.731  69.335  1.00  0.00    -0.080 C  
HETATM    6  O   UNL     1      -6.473   6.779  69.115  1.00  0.00    -0.034 OA 
BRANCH   5   7
HETATM    7  C   UNL     1      -8.473   8.065  68.535  1.00  0.00    -0.128 C  
HETATM    8  C   UNL     1      -8.268   7.581  67.100  1.00  0.00    -0.114 C  
BRANCH   7   9
HETATM    9  N   UNL     1      -8.783   9.513  68.630  1.00  0.00    -0.126 NA 
HETATM   10  P   UNL     1     -10.427   9.874  68.831  1.00  0.00    -0.230 P  
HETATM   11  H   UNL     1      -8.408  10.010  67.822  1.00  0.00     0.000 HD 
HETATM   12  O   UNL     1     -10.518  11.527  68.951  1.00  0.00    -0.208 OA 
HETATM   13  O   UNL     1     -10.179   9.791  70.541  1.00  0.00    -0.274 OA 
HETATM   14  O   UNL     1     -10.649   9.948  67.300  1.00  0.00    -0.248 OA 
BRANCH  13  15
HETATM   15  C   UNL     1     -10.593   8.663  71.201  1.00  0.00    -0.228 A  
HETATM   16  C   UNL     1     -11.233   6.322  72.568  1.00  0.00    -0.316 A  
HETATM   17  C   UNL     1      -9.803   8.244  72.270  1.00  0.00    -0.364 A  
HETATM   18  C   UNL     1     -11.725   7.936  70.834  1.00  0.00    -0.271 A  
HETATM   19  C   UNL     1     -10.120   7.069  72.951  1.00  0.00    -0.225 A  
HETATM   20  C   UNL     1     -12.039   6.759  71.517  1.00  0.00    -0.410 A  
ENDBRANCH  13  15
BRANCH  12  21
HETATM   21  C   UNL     1     -11.766  12.123  68.549  1.00  0.00    -0.330 C  
BRANCH  21  22
HETATM   22  C   UNL     1     -11.757  13.102  67.335  1.00  0.00    -0.370 C  
HETATM   23  O   UNL     1     -11.541  14.457  67.786  1.00  0.00    -0.319 OA 
HETATM   24  C   UNL     1     -10.176  14.247  65.876  1.00  0.00    -0.324 C  
HETATM   25  H   UNL     1     -10.472  12.000  64.454  1.00  0.00     0.000 HD 
HETATM   26  C   UNL     1     -10.668  12.843  66.267  1.00  0.00    -0.274 C  
HETATM   27  O   UNL     1     -11.141  12.159  65.110  1.00  0.00    -0.305 OA 
HETATM   28  F   UNL     1     -10.226  14.400  64.524  1.00  0.00    -0.430 F  
HETATM   29  C   UNL     1      -8.728  14.425  66.302  1.00  0.00     0.221 C  
HETATM   30  C   UNL     1     -11.186  15.160  66.575  1.00  0.00    -0.283 C  
BRANCH  30  31
HETATM   31  N   UNL     1     -10.740  16.521  66.892  1.00  0.00    -0.235 N  
HETATM   32  C   UNL     1     -10.418  16.885  68.188  1.00  0.00    -0.350 C  
HETATM   33  C   UNL     1     -10.112  18.139  68.516  1.00  0.00    -0.413 C  
HETATM   34  C   UNL     1     -10.138  19.171  67.470  1.00  0.00    -0.376 C  
HETATM   35  O   UNL     1     -10.004  20.356  67.750  1.00  0.00    -0.406 OA 
HETATM   36  N   UNL     1     -10.331  18.717  66.199  1.00  0.00    -0.440 N  
HETATM   37  H   UNL     1     -10.195  19.387  65.441  1.00  0.00     0.000 HD 
HETATM   38  C   UNL     1     -10.693  17.441  65.849  1.00  0.00    -0.123 C  
HETATM   39  O   UNL     1     -10.974  17.179  64.686  1.00  0.00    -1.005 OA 
ENDBRANCH  30  31
ENDBRANCH  21  22
ENDBRANCH  12  21
ENDBRANCH   7   9
ENDBRANCH   5   7
ENDBRANCH   4   5
ENDBRANCH   2   4
TORSDOF 8
ENDMDL
MODEL       42
REMARK 921   NORMALIZED FREE ENERGY PREDICTED BY IDOCK:   -5.35 KCAL/MOL
REMARK 922        TOTAL FREE ENERGY PREDICTED BY IDOCK:  -10.40 KCAL/MOL
REMARK 923 INTER-LIGAND FREE ENERGY PREDICTED BY IDOCK:  -10.30 KCAL/MOL
REMARK 924 INTRA-LIGAND FREE ENERGY PREDICTED BY IDOCK:   -0.10 KCAL/MOL
REMARK 927      BINDING AFFINITY PREDICTED BY RF-SCORE:    0.00 PKD
ROOT
HETATM    1  C   UNL     1     -11.923   8.928  71.967  1.00  0.00    -0.439 C  
HETATM    2  C   UNL     1     -12.859   7.725  71.946  1.00  0.00    -0.292 C  
HETATM    3  C   UNL     1     -14.304   8.188  71.778  1.00  0.00    -0.582 C  
ENDROOT
BRANCH   2   4
HETATM    4  O   UNL     1     -12.535   6.875  70.827  1.00  0.00    -0.356 OA 
BRANCH   4   5
HETATM    5  C   UNL     1     -11.316   6.257  70.871  1.00  0.00    -0.325 C  
HETATM    6  O   UNL     1     -10.909   5.571  71.800  1.00  0.00    -0.242 OA 
BRANCH   5   7
HETATM    7  C   UNL     1     -10.563   6.490  69.559  1.00  0.00    -0.246 C  
HETATM    8  C   UNL     1      -9.110   6.822  69.897  1.00  0.00    -0.144 C  
BRANCH   7   9
HETATM    9  N   UNL     1     -11.235   7.538  68.750  1.00  0.00    -0.366 NA 
HETATM   10  P   UNL     1     -10.184   8.589  67.936  1.00  0.00    -0.212 P  
HETATM   11  H   UNL     1     -11.887   8.068  69.329  1.00  0.00     0.000 HD 
HETATM   12  O   UNL     1     -11.153   9.630  67.082  1.00  0.00    -0.106 OA 
HETATM   13  O   UNL     1     -10.221   7.498  66.596  1.00  0.00    -0.250 OA 
HETATM   14  O   UNL     1     -10.150   9.566  69.138  1.00  0.00    -0.180 OA 
BRANCH  13  15
HETATM   15  C   UNL     1      -9.148   6.665  66.408  1.00  0.00    -0.152 A  
HETATM   16  C   UNL     1      -6.877   5.128  65.918  1.00  0.00    -0.061 A  
HETATM   17  C   UNL     1      -7.889   7.263  66.416  1.00  0.00    -0.106 A  
HETATM   18  C   UNL     1      -9.275   5.293  66.191  1.00  0.00    -0.158 A  
HETATM   19  C   UNL     1      -6.752   6.494  66.165  1.00  0.00    -0.049 A  
HETATM   20  C   UNL     1      -8.135   4.527  65.940  1.00  0.00    -0.102 A  
ENDBRANCH  13  15
BRANCH  12  21
HETATM   21  C   UNL     1     -10.592  10.925  66.794  1.00  0.00    -0.259 C  
BRANCH  21  22
HETATM   22  C   UNL     1     -11.561  12.143  66.698  1.00  0.00    -0.350 C  
HETATM   23  O   UNL     1     -11.031  13.265  67.438  1.00  0.00    -0.263 OA 
HETATM   24  C   UNL     1     -11.839  14.209  65.436  1.00  0.00    -0.362 C  
HETATM   25  H   UNL     1     -13.239  12.580  63.841  1.00  0.00     0.000 HD 
HETATM   26  C   UNL     1     -11.832  12.681  65.273  1.00  0.00    -0.408 C  
HETATM   27  O   UNL     1     -13.071  12.250  64.717  1.00  0.00    -0.724 OA 
HETATM   28  F   UNL     1     -12.977  14.732  64.902  1.00  0.00    -0.306 F  
HETATM   29  C   UNL     1     -10.663  14.815  64.685  1.00  0.00    -0.279 C  
HETATM   30  C   UNL     1     -11.808  14.382  66.956  1.00  0.00    -0.412 C  
BRANCH  30  31
HETATM   31  N   UNL     1     -11.258  15.641  67.470  1.00  0.00    -0.290 N  
HETATM   32  C   UNL     1     -10.505  16.475  66.664  1.00  0.00    -0.266 C  
HETATM   33  C   UNL     1      -9.910  17.569  67.135  1.00  0.00    -0.297 C  
HETATM   34  C   UNL     1     -10.043  17.888  68.564  1.00  0.00    -0.391 C  
HETATM   35  O   UNL     1      -9.400  18.799  69.069  1.00  0.00    -0.282 OA 
HETATM   36  N   UNL     1     -10.906  17.099  69.266  1.00  0.00    -0.336 N  
HETATM   37  H   UNL     1     -11.138  17.394  70.214  1.00  0.00     0.000 HD 
HETATM   38  C   UNL     1     -11.489  15.943  68.809  1.00  0.00    -0.393 C  
HETATM   39  O   UNL     1     -12.140  15.241  69.573  1.00  0.00    -0.318 OA 
ENDBRANCH  30  31
ENDBRANCH  21  22
ENDBRANCH  12  21
ENDBRANCH   7   9
ENDBRANCH   5   7
ENDBRANCH   4   5
ENDBRANCH   2   4
TORSDOF 8
ENDMDL
MODEL       43
REMARK 921   NORMALIZED FREE ENERGY PREDICTED BY IDOCK:   -5.17 KCAL/MOL
REMARK 922        TOTAL FREE ENERGY PREDICTED BY IDOCK:  -10.13 KCAL/MOL
REMARK 923 INTER-LIGAND FREE ENERGY PREDICTED BY IDOCK:   -7.94 KCAL/MOL
REMARK 924 INTRA-LIGAND FREE ENERGY PREDICTED BY IDOCK:   -2.20 KCAL/MOL
REMARK 927      BINDING AFFINITY PREDICTED BY RF-SCORE:    0.00 PKD
ROOT
HETATM    1  C   UNL     1     -11.333  12.583  63.657  1.00  0.00    -0.555 C  
HETATM    2  C   UNL     1     -11.438  13.512  64.860  1.00  0.00    -0.334 C  
HETATM    3  C   UNL     1     -12.902  13.706  65.246  1.00  0.00    -0.421 C  
ENDROOT
BRANCH   2   4
HETATM    4  O   UNL     1     -10.758  12.928  65.989  1.00  0.00    -0.271 OA 
BRANCH   4   5
HETATM    5  C   UNL     1      -9.895  13.746  66.663  1.00  0.00    -0.284 C  
HETATM    6  O   UNL     1     -10.050  14.951  66.826  1.00  0.00    -0.244 OA 
BRANCH   5   7
HETATM    7  C   UNL     1      -8.741  12.925  67.245  1.00  0.00    -0.204 C  
HETATM    8  C   UNL     1      -7.535  13.849  67.409  1.00  0.00    -0.147 C  
BRANCH   7   9
HETATM    9  N   UNL     1      -8.465  11.739  66.397  1.00  0.00    -0.342 NA 
HETATM   10  P   UNL     1      -8.071  10.331  67.253  1.00  0.00    -0.121 P  
HETATM   11  H   UNL     1      -7.737  11.954  65.715  1.00  0.00     0.000 HD 
HETATM   12  O   UNL     1      -7.848   9.150  66.109  1.00  0.00    -0.101 OA 
HETATM   13  O   UNL     1      -9.756   9.945  67.285  1.00  0.00    -0.161 OA 
HETATM   14  O   UNL     1      -6.561  10.677  67.226  1.00  0.00    -0.069 OA 
BRANCH  13  15
HETATM   15  C   UNL     1     -10.451  10.169  68.446  1.00  0.00    -0.208 A  
HETATM   16  C   UNL     1     -11.816  10.427  70.859  1.00  0.00    -0.475 A  
HETATM   17  C   UNL     1      -9.950   9.562  69.596  1.00  0.00    -0.220 A  
HETATM   18  C   UNL     1     -11.614  10.936  68.503  1.00  0.00    -0.360 A  
HETATM   19  C   UNL     1     -10.636   9.686  70.803  1.00  0.00    -0.392 A  
HETATM   20  C   UNL     1     -12.300  11.057  69.714  1.00  0.00    -0.331 A  
ENDBRANCH  13  15
BRANCH  12  21
HETATM   21  C   UNL     1      -6.973   8.067  66.478  1.00  0.00    -0.071 C  
BRANCH  21  22
HETATM   22  C   UNL     1      -7.606   6.669  66.751  1.00  0.00    -0.091 C  
HETATM   23  O   UNL     1      -7.840   6.493  68.166  1.00  0.00    -0.103 OA 
HETATM   24  C   UNL     1      -9.788   5.654  67.139  1.00  0.00    -0.149 C  
HETATM   25  H   UNL     1      -9.720   5.442  64.473  1.00  0.00     0.000 HD 
HETATM   26  C   UNL     1      -8.969   6.400  66.072  1.00  0.00    -0.130 C  
HETATM   27  O   UNL     1      -8.882   5.607  64.891  1.00  0.00    -0.095 OA 
HETATM   28  F   UNL     1     -10.292   4.501  66.620  1.00  0.00    -0.243 F  
HETATM   29  C   UNL     1     -10.965   6.509  67.579  1.00  0.00    -0.444 C  
HETATM   30  C   UNL     1      -8.742   5.367  68.219  1.00  0.00    -0.101 C  
BRANCH  30  31
HETATM   31  N   UNL     1      -9.237   5.178  69.587  1.00  0.00    -0.114 N  
HETATM   32  C   UNL     1      -9.312   6.238  70.473  1.00  0.00    -0.162 C  
HETATM   33  C   UNL     1      -9.659   6.072  71.748  1.00  0.00    -0.168 C  
HETATM   34  C   UNL     1      -9.950   4.715  72.232  1.00  0.00    -0.177 C  
HETATM   35  O   UNL     1     -10.133   4.496  73.423  1.00  0.00    -0.147 OA 
HETATM   36  N   UNL     1      -9.986   3.744  71.276  1.00  0.00    -0.147 N  
HETATM   37  H   UNL     1     -10.341   2.829  71.556  1.00  0.00     0.000 HD 
HETATM   38  C   UNL     1      -9.588   3.887  69.971  1.00  0.00    -0.199 C  
HETATM   39  O   UNL     1      -9.534   2.910  69.234  1.00  0.00    -0.152 OA 
ENDBRANCH  30  31
ENDBRANCH  21  22
ENDBRANCH  12  21
ENDBRANCH   7   9
ENDBRANCH   5   7
ENDBRANCH   4   5
ENDBRANCH   2   4
TORSDOF 8
ENDMDL
MODEL       44
REMARK 921   NORMALIZED FREE ENERGY PREDICTED BY IDOCK:   -5.16 KCAL/MOL
REMARK 922        TOTAL FREE ENERGY PREDICTED BY IDOCK:  -10.13 KCAL/MOL
REMARK 923 INTER-LIGAND FREE ENERGY PREDICTED BY IDOCK:   -8.03 KCAL/MOL
REMARK 924 INTRA-LIGAND FREE ENERGY PREDICTED BY IDOCK:   -2.10 KCAL/MOL
REMARK 927      BINDING AFFINITY PREDICTED BY RF-SCORE:    0.00 PKD
ROOT
HETATM    1  C   UNL     1     -14.238  14.991  71.451  1.00  0.00    -0.587 C  
HETATM    2  C   UNL     1     -12.919  15.422  70.821  1.00  0.00    -0.453 C  
HETATM    3  C   UNL     1     -11.997  16.009  71.887  1.00  0.00    -0.606 C  
ENDROOT
BRANCH   2   4
HETATM    4  O   UNL     1     -12.257  14.278  70.246  1.00  0.00    -0.301 OA 
BRANCH   4   5
HETATM    5  C   UNL     1     -11.622  14.486  69.052  1.00  0.00    -0.298 C  
HETATM    6  O   UNL     1     -12.159  14.907  68.035  1.00  0.00    -0.252 OA 
BRANCH   5   7
HETATM    7  C   UNL     1     -10.129  14.179  69.192  1.00  0.00    -0.010 C  
HETATM    8  C   UNL     1      -9.411  15.475  69.569  1.00  0.00    -0.269 C  
BRANCH   7   9
HETATM    9  N   UNL     1      -9.606  13.553  67.953  1.00  0.00    -0.211 NA 
HETATM   10  P   UNL     1      -8.738  12.118  68.195  1.00  0.00    -0.165 P  
HETATM   11  H   UNL     1      -9.043  14.223  67.428  1.00  0.00     0.000 HD 
HETATM   12  O   UNL     1      -8.296  11.593  66.683  1.00  0.00    -0.170 OA 
HETATM   13  O   UNL     1     -10.228  11.255  68.030  1.00  0.00    -0.175 OA 
HETATM   14  O   UNL     1      -7.404  12.891  68.344  1.00  0.00    -0.104 OA 
BRANCH  13  15
HETATM   15  C   UNL     1     -10.839  10.794  69.167  1.00  0.00    -0.237 A  
HETATM   16  C   UNL     1     -11.962   9.688  71.463  1.00  0.00    -0.485 A  
HETATM   17  C   UNL     1     -10.040  10.076  70.055  1.00  0.00    -0.289 A  
HETATM   18  C   UNL     1     -12.193  10.994  69.440  1.00  0.00    -0.329 A  
HETATM   19  C   UNL     1     -10.603   9.518  71.202  1.00  0.00    -0.388 A  
HETATM   20  C   UNL     1     -12.753  10.432  70.589  1.00  0.00    -0.417 A  
ENDBRANCH  13  15
BRANCH  12  21
HETATM   21  C   UNL     1      -7.113  10.775  66.618  1.00  0.00    -0.133 C  
BRANCH  21  22
HETATM   22  C   UNL     1      -7.289   9.239  66.418  1.00  0.00    -0.092 C  
HETATM   23  O   UNL     1      -7.332   8.568  67.697  1.00  0.00    -0.086 OA 
HETATM   24  C   UNL     1      -9.043   7.546  66.440  1.00  0.00    -0.173 C  
HETATM   25  H   UNL     1      -9.162   8.206  63.850  1.00  0.00     0.000 HD 
HETATM   26  C   UNL     1      -8.574   8.797  65.678  1.00  0.00    -0.172 C  
HETATM   27  O   UNL     1      -8.373   8.477  64.305  1.00  0.00    -0.160 OA 
HETATM   28  F   UNL     1      -9.240   6.516  65.571  1.00  0.00    -0.092 F  
HETATM   29  C   UNL     1     -10.371   7.824  67.126  1.00  0.00    -0.389 C  
HETATM   30  C   UNL     1      -7.865   7.266  67.375  1.00  0.00    -0.112 C  
BRANCH  30  31
HETATM   31  N   UNL     1      -8.156   6.520  68.604  1.00  0.00    -0.117 N  
HETATM   32  C   UNL     1      -8.212   7.156  69.832  1.00  0.00    -0.133 C  
HETATM   33  C   UNL     1      -8.371   6.487  70.971  1.00  0.00    -0.126 C  
HETATM   34  C   UNL     1      -8.472   5.020  70.922  1.00  0.00    -0.120 C  
HETATM   35  O   UNL     1      -8.475   4.354  71.950  1.00  0.00    -0.107 OA 
HETATM   36  N   UNL     1      -8.543   4.476  69.675  1.00  0.00    -0.076 N  
HETATM   37  H   UNL     1      -8.773   3.483  69.613  1.00  0.00     0.000 HD 
HETATM   38  C   UNL     1      -8.334   5.144  68.494  1.00  0.00    -0.089 C  
HETATM   39  O   UNL     1      -8.288   4.525  67.438  1.00  0.00    -0.104 OA 
ENDBRANCH  30  31
ENDBRANCH  21  22
ENDBRANCH  12  21
ENDBRANCH   7   9
ENDBRANCH   5   7
ENDBRANCH   4   5
ENDBRANCH   2   4
TORSDOF 8
ENDMDL
MODEL       45
REMARK 921   NORMALIZED FREE ENERGY PREDICTED BY IDOCK:   -5.14 KCAL/MOL
REMARK 922        TOTAL FREE ENERGY PREDICTED BY IDOCK:  -10.10 KCAL/MOL
REMARK 923 INTER-LIGAND FREE ENERGY PREDICTED BY IDOCK:   -9.53 KCAL/MOL
REMARK 924 INTRA-LIGAND FREE ENERGY PREDICTED BY IDOCK:   -0.57 KCAL/MOL
REMARK 927      BINDING AFFINITY PREDICTED BY RF-SCORE:    0.00 PKD
ROOT
HETATM    1  C   UNL     1      -8.795   2.699  66.529  1.00  0.00    -0.140 C  
HETATM    2  C   UNL     1      -9.143   4.182  66.582  1.00  0.00    -0.135 C  
HETATM    3  C   UNL     1     -10.257   4.494  65.587  1.00  0.00    -0.275 C  
ENDROOT
BRANCH   2   4
HETATM    4  O   UNL     1      -9.619   4.524  67.899  1.00  0.00    -0.150 OA 
BRANCH   4   5
HETATM    5  C   UNL     1      -8.758   5.241  68.684  1.00  0.00    -0.093 C  
HETATM    6  O   UNL     1      -7.592   4.940  68.905  1.00  0.00    -0.067 OA 
BRANCH   5   7
HETATM    7  C   UNL     1      -9.446   6.512  69.190  1.00  0.00    -0.135 C  
HETATM    8  C   UNL     1     -10.887   6.508  68.680  1.00  0.00    -0.357 C  
BRANCH   7   9
HETATM    9  N   UNL     1      -8.680   7.716  68.786  1.00  0.00    -0.129 NA 
HETATM   10  P   UNL     1      -9.631   9.058  68.376  1.00  0.00    -0.159 P  
HETATM   11  H   UNL     1      -8.041   7.490  68.023  1.00  0.00     0.000 HD 
HETATM   12  O   UNL     1      -8.565  10.275  68.004  1.00  0.00    -0.117 OA 
HETATM   13  O   UNL     1      -9.562   9.542  70.035  1.00  0.00    -0.206 OA 
HETATM   14  O   UNL     1      -9.694   8.624  66.891  1.00  0.00    -0.176 OA 
BRANCH  13  15
HETATM   15  C   UNL     1     -10.658   9.308  70.825  1.00  0.00    -0.285 A  
HETATM   16  C   UNL     1     -12.819   8.637  72.449  1.00  0.00    -0.413 A  
HETATM   17  C   UNL     1     -10.479   8.430  71.892  1.00  0.00    -0.366 A  
HETATM   18  C   UNL     1     -11.907   9.882  70.586  1.00  0.00    -0.386 A  
HETATM   19  C   UNL     1     -11.562   8.089  72.702  1.00  0.00    -0.448 A  
HETATM   20  C   UNL     1     -12.989   9.538  71.399  1.00  0.00    -0.450 A  
ENDBRANCH  13  15
BRANCH  12  21
HETATM   21  C   UNL     1      -9.049  11.285  67.098  1.00  0.00    -0.157 C  
BRANCH  21  22
HETATM   22  C   UNL     1     -10.479  11.860  67.334  1.00  0.00    -0.217 C  
HETATM   23  O   UNL     1     -10.524  12.599  68.575  1.00  0.00    -0.235 OA 
HETATM   24  C   UNL     1     -11.722  13.937  67.049  1.00  0.00    -0.397 C  
HETATM   25  H   UNL     1     -12.224  12.845  64.659  1.00  0.00     0.000 HD 
HETATM   26  C   UNL     1     -11.001  12.837  66.253  1.00  0.00    -0.280 C  
HETATM   27  O   UNL     1     -11.903  12.245  65.323  1.00  0.00    -0.376 OA 
HETATM   28  F   UNL     1     -12.983  14.113  66.567  1.00  0.00    -0.347 F  
HETATM   29  C   UNL     1     -10.986  15.258  66.892  1.00  0.00    -0.315 C  
HETATM   30  C   UNL     1     -11.745  13.361  68.467  1.00  0.00    -0.357 C  
BRANCH  30  31
HETATM   31  N   UNL     1     -11.842  14.321  69.572  1.00  0.00    -0.308 N  
HETATM   32  C   UNL     1     -11.157  15.523  69.538  1.00  0.00    -0.286 C  
HETATM   33  C   UNL     1     -11.146  16.362  70.571  1.00  0.00    -0.214 C  
HETATM   34  C   UNL     1     -11.871  15.988  71.795  1.00  0.00    -0.519 C  
HETATM   35  O   UNL     1     -11.772  16.657  72.815  1.00  0.00    -0.472 OA 
HETATM   36  N   UNL     1     -12.629  14.858  71.708  1.00  0.00    -0.315 N  
HETATM   37  H   UNL     1     -13.264  14.664  72.483  1.00  0.00     0.000 HD 
HETATM   38  C   UNL     1     -12.616  13.960  70.671  1.00  0.00    -0.335 C  
HETATM   39  O   UNL     1     -13.237  12.908  70.761  1.00  0.00     0.091 OA 
ENDBRANCH  30  31
ENDBRANCH  21  22
ENDBRANCH  12  21
ENDBRANCH   7   9
ENDBRANCH   5   7
ENDBRANCH   4   5
ENDBRANCH   2   4
TORSDOF 8
ENDMDL
MODEL       46
REMARK 921   NORMALIZED FREE ENERGY PREDICTED BY IDOCK:   -5.13 KCAL/MOL
REMARK 922        TOTAL FREE ENERGY PREDICTED BY IDOCK:  -10.08 KCAL/MOL
REMARK 923 INTER-LIGAND FREE ENERGY PREDICTED BY IDOCK:   -8.49 KCAL/MOL
REMARK 924 INTRA-LIGAND FREE ENERGY PREDICTED BY IDOCK:   -1.59 KCAL/MOL
REMARK 927      BINDING AFFINITY PREDICTED BY RF-SCORE:    0.00 PKD
ROOT
HETATM    1  C   UNL     1     -14.029  15.150  71.764  1.00  0.00    -0.627 C  
HETATM    2  C   UNL     1     -12.668  15.747  72.105  1.00  0.00    -0.447 C  
HETATM    3  C   UNL     1     -12.368  15.553  73.589  1.00  0.00    -0.698 C  
ENDROOT
BRANCH   2   4
HETATM    4  O   UNL     1     -11.639  15.073  71.355  1.00  0.00    -0.334 OA 
BRANCH   4   5
HETATM    5  C   UNL     1     -11.125  15.755  70.286  1.00  0.00    -0.361 C  
HETATM    6  O   UNL     1     -10.759  16.924  70.309  1.00  0.00    -0.095 OA 
BRANCH   5   7
HETATM    7  C   UNL     1     -11.009  14.825  69.076  1.00  0.00    -0.248 C  
HETATM    8  C   UNL     1     -12.404  14.652  68.475  1.00  0.00     0.004 C  
BRANCH   7   9
HETATM    9  N   UNL     1     -10.370  13.543  69.463  1.00  0.00    -0.238 NA 
HETATM   10  P   UNL     1     -11.162  12.155  68.897  1.00  0.00    -0.286 P  
HETATM   11  H   UNL     1     -10.255  13.496  70.476  1.00  0.00     0.000 HD 
HETATM   12  O   UNL     1     -10.251  10.868  69.415  1.00  0.00    -0.206 OA 
HETATM   13  O   UNL     1     -10.180  12.244  67.476  1.00  0.00    -0.201 OA 
HETATM   14  O   UNL     1     -12.042  12.077  70.169  1.00  0.00    -0.322 OA 
BRANCH  13  15
HETATM   15  C   UNL     1     -10.743  12.741  66.329  1.00  0.00    -0.270 A  
HETATM   16  C   UNL     1     -11.939  13.556  63.949  1.00  0.00    -0.491 A  
HETATM   17  C   UNL     1     -11.908  12.117  65.887  1.00  0.00    -0.342 A  
HETATM   18  C   UNL     1     -10.191  13.797  65.604  1.00  0.00    -0.326 A  
HETATM   19  C   UNL     1     -12.504  12.521  64.693  1.00  0.00    -0.539 A  
HETATM   20  C   UNL     1     -10.790  14.199  64.408  1.00  0.00    -0.218 A  
ENDBRANCH  13  15
BRANCH  12  21
HETATM   21  C   UNL     1     -10.955   9.624  69.588  1.00  0.00    -0.229 C  
BRANCH  21  22
HETATM   22  C   UNL     1     -10.646   8.459  68.598  1.00  0.00    -0.113 C  
HETATM   23  O   UNL     1      -9.845   8.938  67.495  1.00  0.00    -0.164 OA 
HETATM   24  C   UNL     1      -8.867   6.876  68.081  1.00  0.00    -0.125 C  
HETATM   25  H   UNL     1     -10.198   5.404  69.876  1.00  0.00     0.000 HD 
HETATM   26  C   UNL     1      -9.863   7.262  69.187  1.00  0.00    -0.166 C  
HETATM   27  O   UNL     1     -10.679   6.140  69.514  1.00  0.00    -0.249 OA 
HETATM   28  F   UNL     1      -8.968   5.546  67.805  1.00  0.00    -0.111 F  
HETATM   29  C   UNL     1      -7.445   7.137  68.550  1.00  0.00    -0.106 C  
HETATM   30  C   UNL     1      -9.337   7.726  66.898  1.00  0.00    -0.169 C  
BRANCH  30  31
HETATM   31  N   UNL     1      -8.339   8.046  65.873  1.00  0.00    -0.126 N  
HETATM   32  C   UNL     1      -7.728   9.286  65.831  1.00  0.00    -0.098 C  
HETATM   33  C   UNL     1      -6.898   9.635  64.850  1.00  0.00    -0.109 C  
HETATM   34  C   UNL     1      -6.638   8.675  63.767  1.00  0.00    -0.084 C  
HETATM   35  O   UNL     1      -5.998   9.001  62.776  1.00  0.00    -0.089 OA 
HETATM   36  N   UNL     1      -7.165   7.430  63.945  1.00  0.00    -0.072 N  
HETATM   37  H   UNL     1      -6.869   6.703  63.293  1.00  0.00     0.000 HD 
HETATM   38  C   UNL     1      -8.059   7.069  64.922  1.00  0.00    -0.107 C  
HETATM   39  O   UNL     1      -8.573   5.957  64.903  1.00  0.00    -0.127 OA 
ENDBRANCH  30  31
ENDBRANCH  21  22
ENDBRANCH  12  21
ENDBRANCH   7   9
ENDBRANCH   5   7
ENDBRANCH   4   5
ENDBRANCH   2   4
TORSDOF 8
ENDMDL
MODEL       47
REMARK 921   NORMALIZED FREE ENERGY PREDICTED BY IDOCK:   -5.13 KCAL/MOL
REMARK 922        TOTAL FREE ENERGY PREDICTED BY IDOCK:  -10.08 KCAL/MOL
REMARK 923 INTER-LIGAND FREE ENERGY PREDICTED BY IDOCK:   -7.86 KCAL/MOL
REMARK 924 INTRA-LIGAND FREE ENERGY PREDICTED BY IDOCK:   -2.22 KCAL/MOL
REMARK 927      BINDING AFFINITY PREDICTED BY RF-SCORE:    0.00 PKD
ROOT
HETATM    1  C   UNL     1     -10.179   7.020  72.348  1.00  0.00    -0.210 C  
HETATM    2  C   UNL     1     -10.729   7.928  71.256  1.00  0.00    -0.228 C  
HETATM    3  C   UNL     1     -11.733   8.913  71.850  1.00  0.00    -0.439 C  
ENDROOT
BRANCH   2   4
HETATM    4  O   UNL     1      -9.657   8.691  70.669  1.00  0.00    -0.168 OA 
BRANCH   4   5
HETATM    5  C   UNL     1      -9.626   8.738  69.302  1.00  0.00    -0.162 C  
HETATM    6  O   UNL     1     -10.592   8.557  68.571  1.00  0.00    -0.193 OA 
BRANCH   5   7
HETATM    7  C   UNL     1      -8.222   9.118  68.823  1.00  0.00    -0.109 C  
HETATM    8  C   UNL     1      -7.307   7.910  69.025  1.00  0.00    -0.088 C  
BRANCH   7   9
HETATM    9  N   UNL     1      -7.748  10.341  69.516  1.00  0.00    -0.151 NA 
HETATM   10  P   UNL     1      -7.244  11.590  68.486  1.00  0.00    -0.108 P  
HETATM   11  H   UNL     1      -7.006  10.108  70.177  1.00  0.00     0.000 HD 
HETATM   12  O   UNL     1      -6.803  12.846  69.477  1.00  0.00    -0.028 OA 
HETATM   13  O   UNL     1      -8.869  12.182  68.504  1.00  0.00    -0.160 OA 
HETATM   14  O   UNL     1      -5.790  11.058  68.470  1.00  0.00    -0.043 OA 
BRANCH  13  15
HETATM   15  C   UNL     1      -9.663  11.929  67.415  1.00  0.00    -0.184 A  
HETATM   16  C   UNL     1     -11.124  11.494  65.084  1.00  0.00    -0.260 A  
HETATM   17  C   UNL     1      -9.012  11.521  66.252  1.00  0.00    -0.199 A  
HETATM   18  C   UNL     1     -11.049  12.086  67.428  1.00  0.00    -0.337 A  
HETATM   19  C   UNL     1      -9.742  11.309  65.084  1.00  0.00    -0.285 A  
HETATM   20  C   UNL     1     -11.777  11.873  66.256  1.00  0.00    -0.223 A  
ENDBRANCH  13  15
BRANCH  12  21
HETATM   21  C   UNL     1      -5.830  13.763  68.941  1.00  0.00    -0.083 C  
BRANCH  21  22
HETATM   22  C   UNL     1      -6.316  15.175  68.496  1.00  0.00    -0.092 C  
HETATM   23  O   UNL     1      -7.296  15.059  67.440  1.00  0.00    -0.189 OA 
HETATM   24  C   UNL     1      -8.169  16.713  68.873  1.00  0.00    -0.231 C  
HETATM   25  H   UNL     1      -6.554  17.552  70.834  1.00  0.00     0.000 HD 
HETATM   26  C   UNL     1      -6.992  16.034  69.592  1.00  0.00    -0.136 C  
HETATM   27  O   UNL     1      -6.139  17.024  70.161  1.00  0.00    -0.201 OA 
HETATM   28  F   UNL     1      -8.128  18.059  69.077  1.00  0.00    -0.269 F  
HETATM   29  C   UNL     1      -9.485  16.206  69.442  1.00  0.00    -0.198 C  
HETATM   30  C   UNL     1      -7.909  16.366  67.406  1.00  0.00    -0.154 C  
BRANCH  30  31
HETATM   31  N   UNL     1      -9.070  16.357  66.510  1.00  0.00    -0.252 N  
HETATM   32  C   UNL     1      -9.580  15.171  66.011  1.00  0.00    -0.330 C  
HETATM   33  C   UNL     1     -10.566  15.144  65.117  1.00  0.00    -0.447 C  
HETATM   34  C   UNL     1     -11.115  16.418  64.630  1.00  0.00    -0.189 C  
HETATM   35  O   UNL     1     -11.919  16.446  63.707  1.00  0.00    -0.964 OA 
HETATM   36  N   UNL     1     -10.658  17.537  65.262  1.00  0.00    -0.057 N  
HETATM   37  H   UNL     1     -11.136  18.414  65.056  1.00  0.00     0.000 HD 
HETATM   38  C   UNL     1      -9.613  17.587  66.149  1.00  0.00    -0.182 C  
HETATM   39  O   UNL     1      -9.200  18.667  66.551  1.00  0.00    -0.308 OA 
ENDBRANCH  30  31
ENDBRANCH  21  22
ENDBRANCH  12  21
ENDBRANCH   7   9
ENDBRANCH   5   7
ENDBRANCH   4   5
ENDBRANCH   2   4
TORSDOF 8
ENDMDL
MODEL       48
REMARK 921   NORMALIZED FREE ENERGY PREDICTED BY IDOCK:   -5.12 KCAL/MOL
REMARK 922        TOTAL FREE ENERGY PREDICTED BY IDOCK:  -10.06 KCAL/MOL
REMARK 923 INTER-LIGAND FREE ENERGY PREDICTED BY IDOCK:   -9.38 KCAL/MOL
REMARK 924 INTRA-LIGAND FREE ENERGY PREDICTED BY IDOCK:   -0.68 KCAL/MOL
REMARK 927      BINDING AFFINITY PREDICTED BY RF-SCORE:    0.00 PKD
ROOT
HETATM    1  C   UNL     1      -7.674   3.111  67.271  1.00  0.00    -0.074 C  
HETATM    2  C   UNL     1      -8.467   4.301  66.745  1.00  0.00    -0.104 C  
HETATM    3  C   UNL     1      -9.775   3.823  66.120  1.00  0.00    -0.136 C  
ENDROOT
BRANCH   2   4
HETATM    4  O   UNL     1      -8.796   5.188  67.833  1.00  0.00    -0.103 OA 
BRANCH   4   5
HETATM    5  C   UNL     1      -8.227   6.431  67.791  1.00  0.00    -0.118 C  
HETATM    6  O   UNL     1      -7.116   6.681  67.341  1.00  0.00    -0.075 OA 
BRANCH   5   7
HETATM    7  C   UNL     1      -9.211   7.475  68.326  1.00  0.00    -0.138 C  
HETATM    8  C   UNL     1     -10.627   7.015  67.981  1.00  0.00    -0.260 C  
BRANCH   7   9
HETATM    9  N   UNL     1      -8.882   8.822  67.796  1.00  0.00    -0.135 NA 
HETATM   10  P   UNL     1     -10.220   9.832  67.546  1.00  0.00    -0.252 P  
HETATM   11  H   UNL     1      -8.335   8.741  66.939  1.00  0.00     0.000 HD 
HETATM   12  O   UNL     1      -9.606  11.273  66.998  1.00  0.00    -0.176 OA 
HETATM   13  O   UNL     1     -10.026  10.397  69.169  1.00  0.00    -0.202 OA 
HETATM   14  O   UNL     1     -10.395   9.325  66.093  1.00  0.00    -0.229 OA 
BRANCH  13  15
HETATM   15  C   UNL     1     -10.875   9.912  70.130  1.00  0.00    -0.304 A  
HETATM   16  C   UNL     1     -12.691   9.114  72.085  1.00  0.00    -0.467 A  
HETATM   17  C   UNL     1     -12.192  10.363  70.080  1.00  0.00    -0.305 A  
HETATM   18  C   UNL     1     -10.468   9.033  71.134  1.00  0.00    -0.363 A  
HETATM   19  C   UNL     1     -13.101   9.969  71.062  1.00  0.00    -0.435 A  
HETATM   20  C   UNL     1     -11.380   8.641  72.116  1.00  0.00    -0.434 A  
ENDBRANCH  13  15
BRANCH  12  21
HETATM   21  C   UNL     1     -10.488  12.068  66.182  1.00  0.00    -0.236 C  
BRANCH  21  22
HETATM   22  C   UNL     1     -10.794  13.527  66.635  1.00  0.00    -0.283 C  
HETATM   23  O   UNL     1     -11.377  13.530  67.957  1.00  0.00    -0.257 OA 
HETATM   24  C   UNL     1      -9.822  15.300  67.997  1.00  0.00    -0.216 C  
HETATM   25  H   UNL     1      -8.697  15.938  65.654  1.00  0.00     0.000 HD 
HETATM   26  C   UNL     1      -9.577  14.479  66.720  1.00  0.00    -0.263 C  
HETATM   27  O   UNL     1      -9.445  15.353  65.603  1.00  0.00    -0.318 OA 
HETATM   28  F   UNL     1      -9.732  16.630  67.721  1.00  0.00    -0.229 F  
HETATM   29  C   UNL     1      -8.757  14.976  69.032  1.00  0.00    -0.203 C  
HETATM   30  C   UNL     1     -11.251  14.906  68.376  1.00  0.00    -0.292 C  
BRANCH  30  31
HETATM   31  N   UNL     1     -11.623  15.041  69.789  1.00  0.00    -0.284 N  
HETATM   32  C   UNL     1     -12.140  13.971  70.498  1.00  0.00    -0.353 C  
HETATM   33  C   UNL     1     -12.581  14.096  71.748  1.00  0.00    -0.400 C  
HETATM   34  C   UNL     1     -12.534  15.420  72.387  1.00  0.00    -0.379 C  
HETATM   35  O   UNL     1     -13.056  15.613  73.477  1.00  0.00    -0.514 OA 
HETATM   36  N   UNL     1     -11.891  16.392  71.679  1.00  0.00    -0.674 N  
HETATM   37  H   UNL     1     -11.704  17.272  72.163  1.00  0.00     0.000 HD 
HETATM   38  C   UNL     1     -11.474  16.294  70.376  1.00  0.00    -0.248 C  
HETATM   39  O   UNL     1     -11.030  17.278  69.797  1.00  0.00     0.077 OA 
ENDBRANCH  30  31
ENDBRANCH  21  22
ENDBRANCH  12  21
ENDBRANCH   7   9
ENDBRANCH   5   7
ENDBRANCH   4   5
ENDBRANCH   2   4
TORSDOF 8
ENDMDL
MODEL       49
REMARK 921   NORMALIZED FREE ENERGY PREDICTED BY IDOCK:   -5.01 KCAL/MOL
REMARK 922        TOTAL FREE ENERGY PREDICTED BY IDOCK:   -9.90 KCAL/MOL
REMARK 923 INTER-LIGAND FREE ENERGY PREDICTED BY IDOCK:   -9.21 KCAL/MOL
REMARK 924 INTRA-LIGAND FREE ENERGY PREDICTED BY IDOCK:   -0.69 KCAL/MOL
REMARK 927      BINDING AFFINITY PREDICTED BY RF-SCORE:    0.00 PKD
ROOT
HETATM    1  C   UNL     1     -10.909   3.443  73.522  1.00  0.00    -0.321 C  
HETATM    2  C   UNL     1     -11.121   4.930  73.264  1.00  0.00    -0.337 C  
HETATM    3  C   UNL     1     -10.161   5.751  74.122  1.00  0.00    -0.286 C  
ENDROOT
BRANCH   2   4
HETATM    4  O   UNL     1     -10.845   5.230  71.882  1.00  0.00    -0.218 OA 
BRANCH   4   5
HETATM    5  C   UNL     1     -11.414   6.371  71.387  1.00  0.00    -0.308 C  
HETATM    6  O   UNL     1     -12.517   6.801  71.703  1.00  0.00    -0.351 OA 
BRANCH   5   7
HETATM    7  C   UNL     1     -10.442   7.069  70.432  1.00  0.00    -0.206 C  
HETATM    8  C   UNL     1      -9.060   7.080  71.085  1.00  0.00    -0.153 C  
BRANCH   7   9
HETATM    9  N   UNL     1     -10.938   8.422  70.079  1.00  0.00    -0.334 NA 
HETATM   10  P   UNL     1      -9.969   9.269  68.976  1.00  0.00    -0.196 P  
HETATM   11  H   UNL     1     -11.081   8.978  70.923  1.00  0.00     0.000 HD 
HETATM   12  O   UNL     1     -10.738  10.715  68.710  1.00  0.00    -0.188 OA 
HETATM   13  O   UNL     1     -10.904   8.567  67.702  1.00  0.00    -0.169 OA 
HETATM   14  O   UNL     1      -9.130   9.896  70.118  1.00  0.00    -0.223 OA 
BRANCH  13  15
HETATM   15  C   UNL     1     -10.365   7.518  67.004  1.00  0.00    -0.324 A  
HETATM   16  C   UNL     1      -9.364   5.259  65.718  1.00  0.00    -0.151 A  
HETATM   17  C   UNL     1     -11.160   6.380  66.879  1.00  0.00    -0.346 A  
HETATM   18  C   UNL     1      -9.082   7.546  66.455  1.00  0.00    -0.201 A  
HETATM   19  C   UNL     1     -10.657   5.247  66.241  1.00  0.00    -0.308 A  
HETATM   20  C   UNL     1      -8.582   6.408  65.817  1.00  0.00    -0.152 A  
ENDBRANCH  13  15
BRANCH  12  21
HETATM   21  C   UNL     1      -9.898  11.815  68.310  1.00  0.00    -0.198 C  
BRANCH  21  22
HETATM   22  C   UNL     1     -10.548  13.225  68.172  1.00  0.00    -0.249 C  
HETATM   23  O   UNL     1      -9.635  14.246  68.630  1.00  0.00    -0.211 OA 
HETATM   24  C   UNL     1     -10.561  15.130  66.652  1.00  0.00    -0.304 C  
HETATM   25  H   UNL     1     -12.587  13.754  65.577  1.00  0.00     0.000 HD 
HETATM   26  C   UNL     1     -10.951  13.646  66.738  1.00  0.00    -0.292 C  
HETATM   27  O   UNL     1     -12.339  13.495  66.457  1.00  0.00    -0.392 OA 
HETATM   28  F   UNL     1     -11.622  15.869  66.224  1.00  0.00     0.004 F  
HETATM   29  C   UNL     1      -9.440  15.314  65.641  1.00  0.00    -0.240 C  
HETATM   30  C   UNL     1     -10.201  15.464  68.102  1.00  0.00    -0.230 C  
BRANCH  30  31
HETATM   31  N   UNL     1      -9.279  16.584  68.315  1.00  0.00    -0.208 N  
HETATM   32  C   UNL     1      -7.983  16.372  68.751  1.00  0.00    -0.233 C  
HETATM   33  C   UNL     1      -7.162  17.377  69.051  1.00  0.00    -0.224 C  
HETATM   34  C   UNL     1      -7.658  18.756  68.932  1.00  0.00    -0.278 C  
HETATM   35  O   UNL     1      -6.991  19.702  69.331  1.00  0.00    -0.348 OA 
HETATM   36  N   UNL     1      -8.893  18.892  68.371  1.00  0.00    -0.333 N  
HETATM   37  H   UNL     1      -9.193  19.837  68.131  1.00  0.00     0.000 HD 
HETATM   38  C   UNL     1      -9.769  17.870  68.101  1.00  0.00    -0.320 C  
HETATM   39  O   UNL     1     -10.907  18.120  67.723  1.00  0.00    -0.385 OA 
ENDBRANCH  30  31
ENDBRANCH  21  22
ENDBRANCH  12  21
ENDBRANCH   7   9
ENDBRANCH   5   7
ENDBRANCH   4   5
ENDBRANCH   2   4
TORSDOF 8
ENDMDL
MODEL       50
REMARK 921   NORMALIZED FREE ENERGY PREDICTED BY IDOCK:   -4.99 KCAL/MOL
REMARK 922        TOTAL FREE ENERGY PREDICTED BY IDOCK:   -9.87 KCAL/MOL
REMARK 923 INTER-LIGAND FREE ENERGY PREDICTED BY IDOCK:   -8.97 KCAL/MOL
REMARK 924 INTRA-LIGAND FREE ENERGY PREDICTED BY IDOCK:   -0.90 KCAL/MOL
REMARK 927      BINDING AFFINITY PREDICTED BY RF-SCORE:    0.00 PKD
ROOT
HETATM    1  C   UNL     1      -8.787   9.400  64.944  1.00  0.00    -0.240 C  
HETATM    2  C   UNL     1      -9.327  10.560  64.115  1.00  0.00    -0.267 C  
HETATM    3  C   UNL     1      -9.426  10.152  62.647  1.00  0.00    -0.277 C  
ENDROOT
BRANCH   2   4
HETATM    4  O   UNL     1     -10.651  10.907  64.566  1.00  0.00    -0.343 OA 
BRANCH   4   5
HETATM    5  C   UNL     1     -11.012  12.219  64.424  1.00  0.00    -0.329 C  
HETATM    6  O   UNL     1     -11.416  12.728  63.385  1.00  0.00    -0.490 OA 
BRANCH   5   7
HETATM    7  C   UNL     1     -10.905  12.941  65.769  1.00  0.00    -0.269 C  
HETATM    8  C   UNL     1      -9.427  13.015  66.152  1.00  0.00    -0.159 C  
BRANCH   7   9
HETATM    9  N   UNL     1     -11.746  12.269  66.791  1.00  0.00    -0.530 NA 
HETATM   10  P   UNL     1     -11.062  12.200  68.340  1.00  0.00    -0.292 P  
HETATM   11  H   UNL     1     -12.005  11.333  66.476  1.00  0.00     0.000 HD 
HETATM   12  O   UNL     1     -12.189  11.452  69.301  1.00  0.00    -0.305 OA 
HETATM   13  O   UNL     1     -11.818  13.717  68.680  1.00  0.00    -0.337 OA 
HETATM   14  O   UNL     1     -10.383  10.841  68.034  1.00  0.00    -0.170 OA 
BRANCH  13  15
HETATM   15  C   UNL     1     -11.044  14.849  68.651  1.00  0.00    -0.263 A  
HETATM   16  C   UNL     1      -9.563  17.195  68.410  1.00  0.00    -0.281 A  
HETATM   17  C   UNL     1     -11.637  15.993  68.119  1.00  0.00    -0.183 A  
HETATM   18  C   UNL     1      -9.723  14.881  69.097  1.00  0.00    -0.184 A  
HETATM   19  C   UNL     1     -10.894  17.166  67.993  1.00  0.00    -0.317 A  
HETATM   20  C   UNL     1      -8.982  16.058  68.969  1.00  0.00    -0.244 A  
ENDBRANCH  13  15
BRANCH  12  21
HETATM   21  C   UNL     1     -11.675  10.758  70.455  1.00  0.00    -0.351 C  
BRANCH  21  22
HETATM   22  C   UNL     1     -11.776   9.203  70.484  1.00  0.00    -0.152 C  
HETATM   23  O   UNL     1     -10.466   8.612  70.336  1.00  0.00    -0.198 OA 
HETATM   24  C   UNL     1     -11.494   7.345  72.036  1.00  0.00    -0.273 C  
HETATM   25  H   UNL     1     -14.090   7.827  72.464  1.00  0.00     0.000 HD 
HETATM   26  C   UNL     1     -12.362   8.587  71.777  1.00  0.00    -0.338 C  
HETATM   27  O   UNL     1     -13.730   8.205  71.670  1.00  0.00    -0.352 OA 
HETATM   28  F   UNL     1     -12.284   6.249  72.201  1.00  0.00    -0.363 F  
HETATM   29  C   UNL     1     -10.696   7.529  73.317  1.00  0.00    -0.437 C  
HETATM   30  C   UNL     1     -10.665   7.245  70.754  1.00  0.00    -0.231 C  
BRANCH  30  31
HETATM   31  N   UNL     1      -9.376   6.552  70.849  1.00  0.00    -0.161 N  
HETATM   32  C   UNL     1      -8.204   7.249  71.078  1.00  0.00    -0.107 C  
HETATM   33  C   UNL     1      -7.012   6.656  71.065  1.00  0.00    -0.067 C  
HETATM   34  C   UNL     1      -6.941   5.216  70.778  1.00  0.00    -0.055 C  
HETATM   35  O   UNL     1      -5.863   4.658  70.614  1.00  0.00    -0.015 OA 
HETATM   36  N   UNL     1      -8.139   4.572  70.695  1.00  0.00    -0.073 N  
HETATM   37  H   UNL     1      -8.117   3.552  70.656  1.00  0.00     0.000 HD 
HETATM   38  C   UNL     1      -9.373   5.173  70.659  1.00  0.00    -0.159 C  
HETATM   39  O   UNL     1     -10.376   4.504  70.445  1.00  0.00    -0.161 OA 
ENDBRANCH  30  31
ENDBRANCH  21  22
ENDBRANCH  12  21
ENDBRANCH   7   9
ENDBRANCH   5   7
ENDBRANCH   4   5
ENDBRANCH   2   4
TORSDOF 8
ENDMDL
MODEL       51
REMARK 921   NORMALIZED FREE ENERGY PREDICTED BY IDOCK:   -4.93 KCAL/MOL
REMARK 922        TOTAL FREE ENERGY PREDICTED BY IDOCK:   -9.78 KCAL/MOL
REMARK 923 INTER-LIGAND FREE ENERGY PREDICTED BY IDOCK:   -8.17 KCAL/MOL
REMARK 924 INTRA-LIGAND FREE ENERGY PREDICTED BY IDOCK:   -1.61 KCAL/MOL
REMARK 927      BINDING AFFINITY PREDICTED BY RF-SCORE:    0.00 PKD
ROOT
HETATM    1  C   UNL     1     -11.217   5.193  72.797  1.00  0.00    -0.323 C  
HETATM    2  C   UNL     1     -10.754   5.674  71.427  1.00  0.00    -0.244 C  
HETATM    3  C   UNL     1     -11.589   6.873  70.984  1.00  0.00    -0.374 C  
ENDROOT
BRANCH   2   4
HETATM    4  O   UNL     1      -9.378   6.098  71.499  1.00  0.00    -0.149 OA 
BRANCH   4   5
HETATM    5  C   UNL     1      -8.590   5.774  70.428  1.00  0.00    -0.133 C  
HETATM    6  O   UNL     1      -8.692   4.748  69.766  1.00  0.00    -0.080 OA 
BRANCH   5   7
HETATM    7  C   UNL     1      -7.609   6.911  70.136  1.00  0.00    -0.099 C  
HETATM    8  C   UNL     1      -6.457   6.815  71.137  1.00  0.00    -0.045 C  
BRANCH   7   9
HETATM    9  N   UNL     1      -8.305   8.221  70.163  1.00  0.00    -0.121 NA 
HETATM   10  P   UNL     1      -8.287   9.064  68.692  1.00  0.00    -0.125 P  
HETATM   11  H   UNL     1      -7.931   8.806  70.910  1.00  0.00     0.000 HD 
HETATM   12  O   UNL     1      -9.149  10.458  68.956  1.00  0.00    -0.169 OA 
HETATM   13  O   UNL     1      -9.762   8.262  68.279  1.00  0.00    -0.151 OA 
HETATM   14  O   UNL     1      -6.965   9.782  69.062  1.00  0.00    -0.056 OA 
BRANCH  13  15
HETATM   15  C   UNL     1      -9.704   7.210  67.401  1.00  0.00    -0.148 A  
HETATM   16  C   UNL     1      -9.688   4.960  65.759  1.00  0.00    -0.184 A  
HETATM   17  C   UNL     1     -10.808   6.360  67.376  1.00  0.00    -0.457 A  
HETATM   18  C   UNL     1      -8.604   6.961  66.581  1.00  0.00    -0.124 A  
HETATM   19  C   UNL     1     -10.798   5.231  66.558  1.00  0.00    -0.196 A  
HETATM   20  C   UNL     1      -8.597   5.828  65.764  1.00  0.00    -0.149 A  
ENDBRANCH  13  15
BRANCH  12  21
HETATM   21  C   UNL     1      -8.813  11.578  68.116  1.00  0.00    -0.165 C  
BRANCH  21  22
HETATM   22  C   UNL     1      -9.778  12.803  68.102  1.00  0.00    -0.223 C  
HETATM   23  O   UNL     1      -9.035  14.024  67.892  1.00  0.00    -0.172 OA 
HETATM   24  C   UNL     1     -10.935  14.247  66.516  1.00  0.00    -0.316 C  
HETATM   25  H   UNL     1     -12.825  12.374  66.797  1.00  0.00     0.000 HD 
HETATM   26  C   UNL     1     -10.870  12.791  67.006  1.00  0.00    -0.257 C  
HETATM   27  O   UNL     1     -12.154  12.381  67.470  1.00  0.00    -0.491 OA 
HETATM   28  F   UNL     1     -12.219  14.698  66.558  1.00  0.00    -0.391 F  
HETATM   29  C   UNL     1     -10.471  14.327  65.070  1.00  0.00    -0.458 C  
HETATM   30  C   UNL     1     -10.056  14.979  67.531  1.00  0.00    -0.228 C  
BRANCH  30  31
HETATM   31  N   UNL     1      -9.440  16.236  67.092  1.00  0.00    -0.221 N  
HETATM   32  C   UNL     1      -8.226  16.245  66.429  1.00  0.00    -0.319 C  
HETATM   33  C   UNL     1      -7.599  17.376  66.112  1.00  0.00    -0.321 C  
HETATM   34  C   UNL     1      -8.210  18.656  66.499  1.00  0.00    -0.286 C  
HETATM   35  O   UNL     1      -7.605  19.711  66.358  1.00  0.00    -0.259 OA 
HETATM   36  N   UNL     1      -9.464  18.575  67.027  1.00  0.00    -0.281 N  
HETATM   37  H   UNL     1      -9.972  19.450  67.156  1.00  0.00     0.000 HD 
HETATM   38  C   UNL     1     -10.104  17.420  67.402  1.00  0.00    -0.321 C  
HETATM   39  O   UNL     1     -11.175  17.475  67.993  1.00  0.00    -0.129 OA 
ENDBRANCH  30  31
ENDBRANCH  21  22
ENDBRANCH  12  21
ENDBRANCH   7   9
ENDBRANCH   5   7
ENDBRANCH   4   5
ENDBRANCH   2   4
TORSDOF 8
ENDMDL
MODEL       52
REMARK 921   NORMALIZED FREE ENERGY PREDICTED BY IDOCK:   -4.89 KCAL/MOL
REMARK 922        TOTAL FREE ENERGY PREDICTED BY IDOCK:   -9.73 KCAL/MOL
REMARK 923 INTER-LIGAND FREE ENERGY PREDICTED BY IDOCK:   -8.34 KCAL/MOL
REMARK 924 INTRA-LIGAND FREE ENERGY PREDICTED BY IDOCK:   -1.39 KCAL/MOL
REMARK 927      BINDING AFFINITY PREDICTED BY RF-SCORE:    0.00 PKD
ROOT
HETATM    1  C   UNL     1     -12.016   8.448  72.306  1.00  0.00    -0.455 C  
HETATM    2  C   UNL     1     -12.364   9.419  71.184  1.00  0.00    -0.308 C  
HETATM    3  C   UNL     1     -13.090  10.636  71.752  1.00  0.00    -0.571 C  
ENDROOT
BRANCH   2   4
HETATM    4  O   UNL     1     -11.156   9.883  70.548  1.00  0.00    -0.282 OA 
BRANCH   4   5
HETATM    5  C   UNL     1     -11.310  10.506  69.341  1.00  0.00    -0.269 C  
HETATM    6  O   UNL     1     -12.362  10.975  68.921  1.00  0.00    -0.516 OA 
BRANCH   5   7
HETATM    7  C   UNL     1      -9.962  10.595  68.621  1.00  0.00    -0.181 C  
HETATM    8  C   UNL     1      -9.240   9.260  68.797  1.00  0.00    -0.136 C  
BRANCH   7   9
HETATM    9  N   UNL     1      -9.183  11.757  69.114  1.00  0.00    -0.328 NA 
HETATM   10  P   UNL     1      -8.393  12.647  67.907  1.00  0.00    -0.195 P  
HETATM   11  H   UNL     1      -8.516  11.459  69.827  1.00  0.00     0.000 HD 
HETATM   12  O   UNL     1      -7.634  13.899  68.687  1.00  0.00    -0.127 OA 
HETATM   13  O   UNL     1      -9.814  13.625  67.778  1.00  0.00    -0.221 OA 
HETATM   14  O   UNL     1      -7.122  11.770  68.022  1.00  0.00    -0.073 OA 
BRANCH  13  15
HETATM   15  C   UNL     1     -10.661  13.401  66.723  1.00  0.00    -0.277 A  
HETATM   16  C   UNL     1     -12.222  12.986  64.454  1.00  0.00    -0.471 A  
HETATM   17  C   UNL     1     -10.111  12.776  65.606  1.00  0.00    -0.281 A  
HETATM   18  C   UNL     1     -12.001  13.788  66.726  1.00  0.00    -0.465 A  
HETATM   19  C   UNL     1     -10.891  12.573  64.467  1.00  0.00    -0.360 A  
HETATM   20  C   UNL     1     -12.779  13.584  65.584  1.00  0.00    -0.478 A  
ENDBRANCH  13  15
BRANCH  12  21
HETATM   21  C   UNL     1      -6.467  14.436  68.035  1.00  0.00    -0.151 C  
BRANCH  21  22
HETATM   22  C   UNL     1      -6.352  15.984  67.892  1.00  0.00    -0.138 C  
HETATM   23  O   UNL     1      -7.425  16.493  67.069  1.00  0.00    -0.160 OA 
HETATM   24  C   UNL     1      -7.279  18.020  68.858  1.00  0.00    -0.259 C  
HETATM   25  H   UNL     1      -5.197  17.711  70.510  1.00  0.00     0.000 HD 
HETATM   26  C   UNL     1      -6.423  16.793  69.209  1.00  0.00    -0.219 C  
HETATM   27  O   UNL     1      -5.154  17.215  69.701  1.00  0.00    -0.147 OA 
HETATM   28  F   UNL     1      -6.630  19.162  69.219  1.00  0.00    -0.285 F  
HETATM   29  C   UNL     1      -8.588  17.977  69.631  1.00  0.00     0.978 C  
HETATM   30  C   UNL     1      -7.409  17.912  67.337  1.00  0.00    -0.192 C  
BRANCH  30  31
HETATM   31  N   UNL     1      -8.574  18.556  66.723  1.00  0.00    -0.275 N  
HETATM   32  C   UNL     1      -9.742  17.851  66.490  1.00  0.00    -0.329 C  
HETATM   33  C   UNL     1     -10.775  18.385  65.841  1.00  0.00    -0.209 C  
HETATM   34  C   UNL     1     -10.661  19.763  65.339  1.00  0.00    -0.082 C  
HETATM   35  O   UNL     1     -11.524  20.244  64.617  1.00  0.00     0.307 OA 
HETATM   36  N   UNL     1      -9.539  20.437  65.721  1.00  0.00    -0.593 N  
HETATM   37  H   UNL     1      -9.509  21.438  65.523  1.00  0.00     0.000 HD 
HETATM   38  C   UNL     1      -8.448  19.891  66.348  1.00  0.00    -0.341 C  
HETATM   39  O   UNL     1      -7.438  20.563  66.521  1.00  0.00    -0.253 OA 
ENDBRANCH  30  31
ENDBRANCH  21  22
ENDBRANCH  12  21
ENDBRANCH   7   9
ENDBRANCH   5   7
ENDBRANCH   4   5
ENDBRANCH   2   4
TORSDOF 8
ENDMDL
MODEL       53
REMARK 921   NORMALIZED FREE ENERGY PREDICTED BY IDOCK:   -4.86 KCAL/MOL
REMARK 922        TOTAL FREE ENERGY PREDICTED BY IDOCK:   -9.68 KCAL/MOL
REMARK 923 INTER-LIGAND FREE ENERGY PREDICTED BY IDOCK:   -7.93 KCAL/MOL
REMARK 924 INTRA-LIGAND FREE ENERGY PREDICTED BY IDOCK:   -1.76 KCAL/MOL
REMARK 927      BINDING AFFINITY PREDICTED BY RF-SCORE:    0.00 PKD
ROOT
HETATM    1  C   UNL     1     -12.212  14.185  66.948  1.00  0.00    -0.400 C  
HETATM    2  C   UNL     1     -11.725  13.949  65.523  1.00  0.00    -0.349 C  
HETATM    3  C   UNL     1     -10.505  14.821  65.236  1.00  0.00    -0.427 C  
ENDROOT
BRANCH   2   4
HETATM    4  O   UNL     1     -11.329  12.572  65.365  1.00  0.00    -0.303 OA 
BRANCH   4   5
HETATM    5  C   UNL     1     -11.113  12.150  64.082  1.00  0.00    -0.364 C  
HETATM    6  O   UNL     1     -11.787  12.475  63.112  1.00  0.00    -0.437 OA 
BRANCH   5   7
HETATM    7  C   UNL     1      -9.863  11.268  64.024  1.00  0.00    -0.291 C  
HETATM    8  C   UNL     1      -9.406  11.185  62.568  1.00  0.00    -0.271 C  
BRANCH   7   9
HETATM    9  N   UNL     1     -10.130   9.943  64.635  1.00  0.00    -0.359 NA 
HETATM   10  P   UNL     1      -8.792   9.225  65.388  1.00  0.00    -0.204 P  
HETATM   11  H   UNL     1     -10.530   9.308  63.943  1.00  0.00     0.000 HD 
HETATM   12  O   UNL     1      -9.341   7.792  66.022  1.00  0.00    -0.140 OA 
HETATM   13  O   UNL     1      -9.259  10.020  66.851  1.00  0.00    -0.144 OA 
HETATM   14  O   UNL     1      -8.374   8.514  64.077  1.00  0.00    -0.161 OA 
BRANCH  13  15
HETATM   15  C   UNL     1      -8.567  11.141  67.228  1.00  0.00    -0.140 A  
HETATM   16  C   UNL     1      -7.324  13.532  67.935  1.00  0.00    -0.149 A  
HETATM   17  C   UNL     1      -9.315  12.174  67.791  1.00  0.00    -0.193 A  
HETATM   18  C   UNL     1      -7.190  11.284  67.051  1.00  0.00    -0.129 A  
HETATM   19  C   UNL     1      -8.695  13.373  68.140  1.00  0.00    -0.179 A  
HETATM   20  C   UNL     1      -6.572  12.487  67.400  1.00  0.00    -0.152 A  
ENDBRANCH  13  15
BRANCH  12  21
HETATM   21  C   UNL     1      -8.356   6.754  66.184  1.00  0.00    -0.130 C  
BRANCH  21  22
HETATM   22  C   UNL     1      -8.418   5.876  67.471  1.00  0.00    -0.103 C  
HETATM   23  O   UNL     1      -8.175   6.686  68.643  1.00  0.00    -0.117 OA 
HETATM   24  C   UNL     1      -9.972   5.290  69.255  1.00  0.00    -0.215 C  
HETATM   25  H   UNL     1     -10.600   3.345  67.529  1.00  0.00     0.000 HD 
HETATM   26  C   UNL     1      -9.764   5.160  67.737  1.00  0.00    -0.148 C  
HETATM   27  O   UNL     1      -9.773   3.785  67.365  1.00  0.00    -0.197 OA 
HETATM   28  F   UNL     1     -10.218   4.067  69.799  1.00  0.00    -0.241 F  
HETATM   29  C   UNL     1     -11.182   6.167  69.538  1.00  0.00    -0.482 C  
HETATM   30  C   UNL     1      -8.629   5.849  69.728  1.00  0.00    -0.129 C  
BRANCH  30  31
HETATM   31  N   UNL     1      -8.631   6.607  70.984  1.00  0.00    -0.136 N  
HETATM   32  C   UNL     1      -8.699   7.989  70.987  1.00  0.00    -0.135 C  
HETATM   33  C   UNL     1      -8.598   8.701  72.106  1.00  0.00    -0.190 C  
HETATM   34  C   UNL     1      -8.388   7.995  73.379  1.00  0.00    -0.220 C  
HETATM   35  O   UNL     1      -8.147   8.611  74.410  1.00  0.00    -0.333 OA 
HETATM   36  N   UNL     1      -8.465   6.636  73.318  1.00  0.00    -0.119 N  
HETATM   37  H   UNL     1      -8.483   6.131  74.205  1.00  0.00     0.000 HD 
HETATM   38  C   UNL     1      -8.522   5.886  72.170  1.00  0.00    -0.125 C  
HETATM   39  O   UNL     1      -8.450   4.664  72.230  1.00  0.00    -0.115 OA 
ENDBRANCH  30  31
ENDBRANCH  21  22
ENDBRANCH  12  21
ENDBRANCH   7   9
ENDBRANCH   5   7
ENDBRANCH   4   5
ENDBRANCH   2   4
TORSDOF 8
ENDMDL
MODEL       54
REMARK 921   NORMALIZED FREE ENERGY PREDICTED BY IDOCK:   -4.83 KCAL/MOL
REMARK 922        TOTAL FREE ENERGY PREDICTED BY IDOCK:   -9.64 KCAL/MOL
REMARK 923 INTER-LIGAND FREE ENERGY PREDICTED BY IDOCK:   -8.12 KCAL/MOL
REMARK 924 INTRA-LIGAND FREE ENERGY PREDICTED BY IDOCK:   -1.52 KCAL/MOL
REMARK 927      BINDING AFFINITY PREDICTED BY RF-SCORE:    0.00 PKD
ROOT
HETATM    1  C   UNL     1     -10.857   8.108  70.397  1.00  0.00    -0.237 C  
HETATM    2  C   UNL     1     -10.377   7.355  69.162  1.00  0.00    -0.208 C  
HETATM    3  C   UNL     1     -10.879   5.914  69.200  1.00  0.00    -0.406 C  
ENDROOT
BRANCH   2   4
HETATM    4  O   UNL     1     -10.909   7.976  67.975  1.00  0.00    -0.094 OA 
BRANCH   4   5
HETATM    5  C   UNL     1     -10.108   7.944  66.867  1.00  0.00    -0.291 C  
HETATM    6  O   UNL     1      -9.731   6.925  66.301  1.00  0.00    -0.110 OA 
BRANCH   5   7
HETATM    7  C   UNL     1      -9.809   9.370  66.396  1.00  0.00    -0.269 C  
HETATM    8  C   UNL     1      -9.284   9.297  64.962  1.00  0.00    -0.242 C  
BRANCH   7   9
HETATM    9  N   UNL     1      -8.876  10.044  67.332  1.00  0.00    -0.128 NA 
HETATM   10  P   UNL     1      -8.121  11.428  66.709  1.00  0.00    -0.129 P  
HETATM   11  H   UNL     1      -8.177   9.383  67.673  1.00  0.00     0.000 HD 
HETATM   12  O   UNL     1      -7.172  12.019  67.935  1.00  0.00    -0.087 OA 
HETATM   13  O   UNL     1      -9.445  12.357  67.322  1.00  0.00    -0.183 OA 
HETATM   14  O   UNL     1      -6.936  10.595  66.159  1.00  0.00    -0.124 OA 
BRANCH  13  15
HETATM   15  C   UNL     1     -10.406  12.776  66.439  1.00  0.00    -0.258 A  
HETATM   16  C   UNL     1     -12.502  13.561  64.780  1.00  0.00    -0.402 A  
HETATM   17  C   UNL     1     -11.568  13.310  66.993  1.00  0.00    -0.404 A  
HETATM   18  C   UNL     1     -10.271  12.666  65.055  1.00  0.00    -0.294 A  
HETATM   19  C   UNL     1     -12.620  13.698  66.163  1.00  0.00    -0.391 A  
HETATM   20  C   UNL     1     -11.327  13.055  64.227  1.00  0.00    -0.419 A  
ENDBRANCH  13  15
BRANCH  12  21
HETATM   21  C   UNL     1      -6.026  12.792  67.531  1.00  0.00    -0.143 C  
BRANCH  21  22
HETATM   22  C   UNL     1      -5.981  14.301  67.919  1.00  0.00    -0.136 C  
HETATM   23  O   UNL     1      -6.937  15.049  67.135  1.00  0.00    -0.234 OA 
HETATM   24  C   UNL     1      -7.172  15.902  69.320  1.00  0.00    -0.217 C  
HETATM   25  H   UNL     1      -5.368  15.073  71.113  1.00  0.00     0.000 HD 
HETATM   26  C   UNL     1      -6.312  14.630  69.395  1.00  0.00    -0.125 C  
HETATM   27  O   UNL     1      -5.166  14.871  70.206  1.00  0.00    -0.104 OA 
HETATM   28  F   UNL     1      -6.659  16.862  70.137  1.00  0.00    -0.139 F  
HETATM   29  C   UNL     1      -8.583  15.601  69.800  1.00  0.00     0.052 C  
HETATM   30  C   UNL     1      -7.049  16.300  67.847  1.00  0.00    -0.133 C  
BRANCH  30  31
HETATM   31  N   UNL     1      -8.137  17.107  67.285  1.00  0.00    -0.182 N  
HETATM   32  C   UNL     1      -9.168  16.521  66.572  1.00  0.00    -0.272 C  
HETATM   33  C   UNL     1     -10.109  17.241  65.965  1.00  0.00    -0.275 C  
HETATM   34  C   UNL     1     -10.037  18.708  66.040  1.00  0.00    -0.297 C  
HETATM   35  O   UNL     1     -10.794  19.411  65.382  1.00  0.00    -0.452 OA 
HETATM   36  N   UNL     1      -9.076  19.209  66.867  1.00  0.00    -0.296 N  
HETATM   37  H   UNL     1      -9.106  20.210  67.061  1.00  0.00     0.000 HD 
HETATM   38  C   UNL     1      -8.072  18.486  67.461  1.00  0.00    -0.251 C  
HETATM   39  O   UNL     1      -7.181  19.062  68.074  1.00  0.00    -0.236 OA 
ENDBRANCH  30  31
ENDBRANCH  21  22
ENDBRANCH  12  21
ENDBRANCH   7   9
ENDBRANCH   5   7
ENDBRANCH   4   5
ENDBRANCH   2   4
TORSDOF 8
ENDMDL
MODEL       55
REMARK 921   NORMALIZED FREE ENERGY PREDICTED BY IDOCK:   -4.79 KCAL/MOL
REMARK 922        TOTAL FREE ENERGY PREDICTED BY IDOCK:   -9.58 KCAL/MOL
REMARK 923 INTER-LIGAND FREE ENERGY PREDICTED BY IDOCK:   -9.82 KCAL/MOL
REMARK 924 INTRA-LIGAND FREE ENERGY PREDICTED BY IDOCK:    0.23 KCAL/MOL
REMARK 927      BINDING AFFINITY PREDICTED BY RF-SCORE:    0.00 PKD
ROOT
HETATM    1  C   UNL     1     -12.501  14.954  64.092  1.00  0.00    -0.093 C  
HETATM    2  C   UNL     1     -11.833  13.656  64.528  1.00  0.00    -0.412 C  
HETATM    3  C   UNL     1     -12.107  12.557  63.504  1.00  0.00    -0.653 C  
ENDROOT
BRANCH   2   4
HETATM    4  O   UNL     1     -10.405  13.843  64.603  1.00  0.00    -0.432 OA 
BRANCH   4   5
HETATM    5  C   UNL     1      -9.968  14.808  65.468  1.00  0.00    -0.356 C  
HETATM    6  O   UNL     1      -9.931  16.008  65.223  1.00  0.00    -0.458 OA 
BRANCH   5   7
HETATM    7  C   UNL     1      -9.597  14.177  66.812  1.00  0.00    -0.282 C  
HETATM    8  C   UNL     1      -8.170  14.600  67.159  1.00  0.00    -0.227 C  
BRANCH   7   9
HETATM    9  N   UNL     1      -9.781  12.705  66.767  1.00  0.00    -0.234 NA 
HETATM   10  P   UNL     1      -9.719  11.935  68.276  1.00  0.00    -0.174 P  
HETATM   11  H   UNL     1      -9.107  12.284  66.127  1.00  0.00     0.000 HD 
HETATM   12  O   UNL     1      -9.988  10.325  67.976  1.00  0.00    -0.148 OA 
HETATM   13  O   UNL     1     -11.428  12.169  68.402  1.00  0.00    -0.256 OA 
HETATM   14  O   UNL     1      -8.188  11.727  68.162  1.00  0.00    -0.138 OA 
BRANCH  13  15
HETATM   15  C   UNL     1     -11.886  13.181  69.206  1.00  0.00    -0.323 A  
HETATM   16  C   UNL     1     -12.670  15.357  70.757  1.00  0.00    -0.516 A  
HETATM   17  C   UNL     1     -11.856  14.465  68.666  1.00  0.00    -0.366 A  
HETATM   18  C   UNL     1     -12.341  12.974  70.508  1.00  0.00    -0.365 A  
HETATM   19  C   UNL     1     -12.243  15.556  69.444  1.00  0.00    -0.233 A  
HETATM   20  C   UNL     1     -12.727  14.068  71.285  1.00  0.00    -0.439 A  
ENDBRANCH  13  15
BRANCH  12  21
HETATM   21  C   UNL     1      -9.430   9.402  68.931  1.00  0.00    -0.154 C  
BRANCH  21  22
HETATM   22  C   UNL     1     -10.406   8.664  69.897  1.00  0.00    -0.209 C  
HETATM   23  O   UNL     1      -9.940   7.320  70.151  1.00  0.00    -0.183 OA 
HETATM   24  C   UNL     1     -10.628   8.113  72.260  1.00  0.00    -0.309 C  
HETATM   25  H   UNL     1     -11.901  10.466  72.281  1.00  0.00     0.000 HD 
HETATM   26  C   UNL     1     -10.592   9.307  71.292  1.00  0.00    -0.347 C  
HETATM   27  O   UNL     1     -11.787  10.071  71.424  1.00  0.00    -0.370 OA 
HETATM   28  F   UNL     1     -11.736   8.185  73.049  1.00  0.00    -0.456 F  
HETATM   29  C   UNL     1      -9.415   8.152  73.176  1.00  0.00    -0.316 C  
HETATM   30  C   UNL     1     -10.699   6.916  71.310  1.00  0.00    -0.223 C  
BRANCH  30  31
HETATM   31  N   UNL     1     -10.200   5.634  71.820  1.00  0.00    -0.195 N  
HETATM   32  C   UNL     1      -8.969   5.138  71.427  1.00  0.00    -0.137 C  
HETATM   33  C   UNL     1      -8.542   3.932  71.794  1.00  0.00    -0.114 C  
HETATM   34  C   UNL     1      -9.416   3.094  72.629  1.00  0.00    -0.106 C  
HETATM   35  O   UNL     1      -9.128   1.929  72.871  1.00  0.00    -0.068 OA 
HETATM   36  N   UNL     1     -10.549   3.698  73.086  1.00  0.00    -0.174 N  
HETATM   37  H   UNL     1     -11.090   3.197  73.792  1.00  0.00     0.000 HD 
HETATM   38  C   UNL     1     -11.027   4.919  72.681  1.00  0.00    -0.186 C  
HETATM   39  O   UNL     1     -12.128   5.303  73.057  1.00  0.00    -0.163 OA 
ENDBRANCH  30  31
ENDBRANCH  21  22
ENDBRANCH  12  21
ENDBRANCH   7   9
ENDBRANCH   5   7
ENDBRANCH   4   5
ENDBRANCH   2   4
TORSDOF 8
ENDMDL
MODEL       56
REMARK 921   NORMALIZED FREE ENERGY PREDICTED BY IDOCK:   -4.78 KCAL/MOL
REMARK 922        TOTAL FREE ENERGY PREDICTED BY IDOCK:   -9.57 KCAL/MOL
REMARK 923 INTER-LIGAND FREE ENERGY PREDICTED BY IDOCK:   -8.41 KCAL/MOL
REMARK 924 INTRA-LIGAND FREE ENERGY PREDICTED BY IDOCK:   -1.16 KCAL/MOL
REMARK 927      BINDING AFFINITY PREDICTED BY RF-SCORE:    0.00 PKD
ROOT
HETATM    1  C   UNL     1      -6.866  12.743  68.453  1.00  0.00    -0.091 C  
HETATM    2  C   UNL     1      -5.838  12.257  69.468  1.00  0.00    -0.101 C  
HETATM    3  C   UNL     1      -5.126  13.448  70.104  1.00  0.00    -0.088 C  
ENDROOT
BRANCH   2   4
HETATM    4  O   UNL     1      -6.500  11.526  70.520  1.00  0.00    -0.239 OA 
BRANCH   4   5
HETATM    5  C   UNL     1      -6.414  10.162  70.453  1.00  0.00    -0.131 C  
HETATM    6  O   UNL     1      -5.437   9.502  70.783  1.00  0.00    -0.039 OA 
BRANCH   5   7
HETATM    7  C   UNL     1      -7.745   9.578  69.972  1.00  0.00    -0.142 C  
HETATM    8  C   UNL     1      -7.484   8.804  68.680  1.00  0.00    -0.092 C  
BRANCH   7   9
HETATM    9  N   UNL     1      -8.762  10.648  69.823  1.00  0.00    -0.346 NA 
HETATM   10  P   UNL     1     -10.189  10.168  69.044  1.00  0.00    -0.236 P  
HETATM   11  H   UNL     1      -8.357  11.458  69.353  1.00  0.00     0.000 HD 
HETATM   12  O   UNL     1     -11.173  11.504  69.034  1.00  0.00    -0.222 OA 
HETATM   13  O   UNL     1     -10.826   9.744  70.595  1.00  0.00    -0.285 OA 
HETATM   14  O   UNL     1      -9.617  10.547  67.656  1.00  0.00    -0.155 OA 
BRANCH  13  15
HETATM   15  C   UNL     1     -10.855   8.418  70.944  1.00  0.00    -0.231 A  
HETATM   16  C   UNL     1     -11.027   5.691  71.481  1.00  0.00    -0.268 A  
HETATM   17  C   UNL     1     -10.805   7.499  69.897  1.00  0.00    -0.250 A  
HETATM   18  C   UNL     1     -10.954   7.978  72.264  1.00  0.00    -0.377 A  
HETATM   19  C   UNL     1     -10.896   6.134  70.165  1.00  0.00    -0.395 A  
HETATM   20  C   UNL     1     -11.047   6.610  72.529  1.00  0.00    -0.296 A  
ENDBRANCH  13  15
BRANCH  12  21
HETATM   21  C   UNL     1     -12.147  11.564  67.975  1.00  0.00     0.084 C  
BRANCH  21  22
HETATM   22  C   UNL     1     -12.191  12.845  67.087  1.00  0.00    -0.065 C  
HETATM   23  O   UNL     1     -11.157  13.771  67.491  1.00  0.00    -0.267 OA 
HETATM   24  C   UNL     1     -11.086  13.800  65.136  1.00  0.00    -0.328 C  
HETATM   25  H   UNL     1     -13.051  12.491  63.877  1.00  0.00     0.000 HD 
HETATM   26  C   UNL     1     -11.977  12.625  65.571  1.00  0.00    -0.456 C  
HETATM   27  O   UNL     1     -13.181  12.626  64.809  1.00  0.00    -0.846 OA 
HETATM   28  F   UNL     1     -11.645  14.442  64.073  1.00  0.00    -0.331 F  
HETATM   29  C   UNL     1      -9.727  13.283  64.693  1.00  0.00     0.176 C  
HETATM   30  C   UNL     1     -11.078  14.690  66.381  1.00  0.00    -0.334 C  
BRANCH  30  31
HETATM   31  N   UNL     1      -9.930  15.587  66.547  1.00  0.00    -0.257 N  
HETATM   32  C   UNL     1      -8.894  15.272  67.408  1.00  0.00    -0.179 C  
HETATM   33  C   UNL     1      -7.894  16.116  67.654  1.00  0.00    -0.165 C  
HETATM   34  C   UNL     1      -7.904  17.434  67.003  1.00  0.00    -0.210 C  
HETATM   35  O   UNL     1      -7.087  18.294  67.307  1.00  0.00    -0.196 OA 
HETATM   36  N   UNL     1      -8.880  17.623  66.069  1.00  0.00    -0.093 N  
HETATM   37  H   UNL     1      -8.815  18.461  65.492  1.00  0.00     0.000 HD 
HETATM   38  C   UNL     1      -9.942  16.785  65.838  1.00  0.00    -0.276 C  
HETATM   39  O   UNL     1     -10.834  17.122  65.069  1.00  0.00    -0.684 OA 
ENDBRANCH  30  31
ENDBRANCH  21  22
ENDBRANCH  12  21
ENDBRANCH   7   9
ENDBRANCH   5   7
ENDBRANCH   4   5
ENDBRANCH   2   4
TORSDOF 8
ENDMDL
MODEL       57
REMARK 921   NORMALIZED FREE ENERGY PREDICTED BY IDOCK:   -4.76 KCAL/MOL
REMARK 922        TOTAL FREE ENERGY PREDICTED BY IDOCK:   -9.53 KCAL/MOL
REMARK 923 INTER-LIGAND FREE ENERGY PREDICTED BY IDOCK:   -9.27 KCAL/MOL
REMARK 924 INTRA-LIGAND FREE ENERGY PREDICTED BY IDOCK:   -0.26 KCAL/MOL
REMARK 927      BINDING AFFINITY PREDICTED BY RF-SCORE:    0.00 PKD
ROOT
HETATM    1  C   UNL     1     -12.708  15.648  73.623  1.00  0.00    -0.725 C  
HETATM    2  C   UNL     1     -13.115  14.538  72.660  1.00  0.00    -0.467 C  
HETATM    3  C   UNL     1     -14.296  14.993  71.807  1.00  0.00    -0.674 C  
ENDROOT
BRANCH   2   4
HETATM    4  O   UNL     1     -12.020  14.237  71.772  1.00  0.00    -0.247 OA 
BRANCH   4   5
HETATM    5  C   UNL     1     -11.628  15.245  70.934  1.00  0.00    -0.343 C  
HETATM    6  O   UNL     1     -11.502  16.420  71.258  1.00  0.00    -0.396 OA 
BRANCH   5   7
HETATM    7  C   UNL     1     -11.302  14.678  69.550  1.00  0.00    -0.280 C  
HETATM    8  C   UNL     1     -12.599  14.613  68.745  1.00  0.00     0.323 C  
BRANCH   7   9
HETATM    9  N   UNL     1     -10.615  13.368  69.671  1.00  0.00    -0.260 NA 
HETATM   10  P   UNL     1     -11.205  12.160  68.640  1.00  0.00    -0.318 P  
HETATM   11  H   UNL     1     -10.634  13.047  70.640  1.00  0.00     0.000 HD 
HETATM   12  O   UNL     1     -10.268  10.820  68.926  1.00  0.00    -0.186 OA 
HETATM   13  O   UNL     1     -10.053  12.682  67.461  1.00  0.00    -0.208 OA 
HETATM   14  O   UNL     1     -12.238  11.693  69.696  1.00  0.00    -0.273 OA 
BRANCH  13  15
HETATM   15  C   UNL     1     -10.496  13.453  66.418  1.00  0.00    -0.286 A  
HETATM   16  C   UNL     1     -11.377  15.185  64.423  1.00  0.00    -0.211 A  
HETATM   17  C   UNL     1      -9.920  14.715  66.290  1.00  0.00    -0.306 A  
HETATM   18  C   UNL     1     -11.488  13.037  65.529  1.00  0.00    -0.352 A  
HETATM   19  C   UNL     1     -10.365  15.585  65.294  1.00  0.00    -0.416 A  
HETATM   20  C   UNL     1     -11.931  13.911  64.534  1.00  0.00    -0.464 A  
ENDBRANCH  13  15
BRANCH  12  21
HETATM   21  C   UNL     1     -10.883   9.547  68.649  1.00  0.00    -0.139 C  
BRANCH  21  22
HETATM   22  C   UNL     1     -11.196   8.605  69.852  1.00  0.00    -0.041 C  
HETATM   23  O   UNL     1     -10.414   7.394  69.756  1.00  0.00    -0.217 OA 
HETATM   24  C   UNL     1     -10.287   7.998  72.030  1.00  0.00    -0.236 C  
HETATM   25  H   UNL     1     -11.862  10.016  72.807  1.00  0.00     0.000 HD 
HETATM   26  C   UNL     1     -10.896   9.179  71.257  1.00  0.00    -0.332 C  
HETATM   27  O   UNL     1     -12.046   9.663  71.944  1.00  0.00    -0.376 OA 
HETATM   28  F   UNL     1     -10.948   7.818  73.206  1.00  0.00    -0.416 F  
HETATM   29  C   UNL     1      -8.833   8.293  72.365  1.00  0.00    -0.286 C  
HETATM   30  C   UNL     1     -10.518   6.823  71.078  1.00  0.00    -0.212 C  
BRANCH  30  31
HETATM   31  N   UNL     1      -9.611   5.677  71.206  1.00  0.00    -0.158 N  
HETATM   32  C   UNL     1      -8.512   5.537  70.379  1.00  0.00    -0.122 C  
HETATM   33  C   UNL     1      -7.736   4.456  70.407  1.00  0.00    -0.053 C  
HETATM   34  C   UNL     1      -8.072   3.367  71.336  1.00  0.00    -0.060 C  
HETATM   35  O   UNL     1      -7.475   2.298  71.298  1.00  0.00    -0.032 OA 
HETATM   36  N   UNL     1      -9.084   3.630  72.211  1.00  0.00    -0.107 N  
HETATM   37  H   UNL     1      -9.232   2.960  72.966  1.00  0.00     0.000 HD 
HETATM   38  C   UNL     1      -9.922   4.716  72.165  1.00  0.00    -0.181 C  
HETATM   39  O   UNL     1     -10.885   4.781  72.919  1.00  0.00    -0.216 OA 
ENDBRANCH  30  31
ENDBRANCH  21  22
ENDBRANCH  12  21
ENDBRANCH   7   9
ENDBRANCH   5   7
ENDBRANCH   4   5
ENDBRANCH   2   4
TORSDOF 8
ENDMDL
MODEL       58
REMARK 921   NORMALIZED FREE ENERGY PREDICTED BY IDOCK:   -4.65 KCAL/MOL
REMARK 922        TOTAL FREE ENERGY PREDICTED BY IDOCK:   -9.38 KCAL/MOL
REMARK 923 INTER-LIGAND FREE ENERGY PREDICTED BY IDOCK:   -8.78 KCAL/MOL
REMARK 924 INTRA-LIGAND FREE ENERGY PREDICTED BY IDOCK:   -0.60 KCAL/MOL
REMARK 927      BINDING AFFINITY PREDICTED BY RF-SCORE:    0.00 PKD
ROOT
HETATM    1  C   UNL     1      -6.536   3.105  70.092  1.00  0.00    -0.033 C  
HETATM    2  C   UNL     1      -7.913   3.712  69.854  1.00  0.00    -0.050 C  
HETATM    3  C   UNL     1      -8.744   2.793  68.962  1.00  0.00    -0.133 C  
ENDROOT
BRANCH   2   4
HETATM    4  O   UNL     1      -8.607   3.854  71.110  1.00  0.00    -0.074 OA 
BRANCH   4   5
HETATM    5  C   UNL     1      -8.502   5.072  71.723  1.00  0.00    -0.124 C  
HETATM    6  O   UNL     1      -7.623   5.386  72.516  1.00  0.00    -0.094 OA 
BRANCH   5   7
HETATM    7  C   UNL     1      -9.605   6.007  71.222  1.00  0.00    -0.167 C  
HETATM    8  C   UNL     1     -10.776   5.150  70.745  1.00  0.00    -0.132 C  
BRANCH   7   9
HETATM    9  N   UNL     1      -9.079   6.921  70.178  1.00  0.00    -0.152 NA 
HETATM   10  P   UNL     1     -10.206   7.369  68.993  1.00  0.00    -0.204 P  
HETATM   11  H   UNL     1      -8.248   6.520  69.742  1.00  0.00     0.000 HD 
HETATM   12  O   UNL     1      -9.407   8.409  67.976  1.00  0.00    -0.136 OA 
HETATM   13  O   UNL     1     -10.634   8.716  69.990  1.00  0.00    -0.219 OA 
HETATM   14  O   UNL     1      -9.823   6.162  68.101  1.00  0.00    -0.124 OA 
BRANCH  13  15
HETATM   15  C   UNL     1     -11.791   8.640  70.720  1.00  0.00    -0.171 A  
HETATM   16  C   UNL     1     -14.047   8.593  72.354  1.00  0.00    -0.449 A  
HETATM   17  C   UNL     1     -12.109   9.751  71.500  1.00  0.00    -0.493 A  
HETATM   18  C   UNL     1     -12.618   7.516  70.726  1.00  0.00    -0.032 A  
HETATM   19  C   UNL     1     -13.234   9.726  72.322  1.00  0.00    -0.468 A  
HETATM   20  C   UNL     1     -13.744   7.494  71.551  1.00  0.00    -0.460 A  
ENDBRANCH  13  15
BRANCH  12  21
HETATM   21  C   UNL     1      -9.900   8.475  66.624  1.00  0.00    -0.272 C  
BRANCH  21  22
HETATM   22  C   UNL     1     -10.509   9.822  66.128  1.00  0.00    -0.058 C  
HETATM   23  O   UNL     1     -11.047  10.570  67.241  1.00  0.00    -0.292 OA 
HETATM   24  C   UNL     1      -9.918  12.179  65.942  1.00  0.00    -0.245 C  
HETATM   25  H   UNL     1      -9.018  11.356  63.560  1.00  0.00     0.000 HD 
HETATM   26  C   UNL     1      -9.529  10.786  65.418  1.00  0.00    -0.214 C  
HETATM   27  O   UNL     1      -9.620  10.763  63.997  1.00  0.00    -0.240 OA 
HETATM   28  F   UNL     1     -10.130  13.028  64.899  1.00  0.00    -0.291 F  
HETATM   29  C   UNL     1      -8.783  12.754  66.774  1.00  0.00    -0.125 C  
HETATM   30  C   UNL     1     -11.215  11.898  66.702  1.00  0.00    -0.328 C  
BRANCH  30  31
HETATM   31  N   UNL     1     -11.574  12.836  67.771  1.00  0.00    -0.332 N  
HETATM   32  C   UNL     1     -11.526  12.458  69.101  1.00  0.00    -0.302 C  
HETATM   33  C   UNL     1     -11.945  13.256  70.081  1.00  0.00    -0.388 C  
HETATM   34  C   UNL     1     -12.494  14.575  69.734  1.00  0.00    -0.215 C  
HETATM   35  O   UNL     1     -13.021  15.283  70.583  1.00  0.00    -0.407 OA 
HETATM   36  N   UNL     1     -12.386  14.932  68.422  1.00  0.00    -0.578 N  
HETATM   37  H   UNL     1     -12.611  15.898  68.183  1.00  0.00     0.000 HD 
HETATM   38  C   UNL     1     -12.002  14.106  67.395  1.00  0.00    -0.404 C  
HETATM   39  O   UNL     1     -12.073  14.495  66.236  1.00  0.00    -0.377 OA 
ENDBRANCH  30  31
ENDBRANCH  21  22
ENDBRANCH  12  21
ENDBRANCH   7   9
ENDBRANCH   5   7
ENDBRANCH   4   5
ENDBRANCH   2   4
TORSDOF 8
ENDMDL
MODEL       59
REMARK 921   NORMALIZED FREE ENERGY PREDICTED BY IDOCK:   -4.63 KCAL/MOL
REMARK 922        TOTAL FREE ENERGY PREDICTED BY IDOCK:   -9.35 KCAL/MOL
REMARK 923 INTER-LIGAND FREE ENERGY PREDICTED BY IDOCK:   -8.86 KCAL/MOL
REMARK 924 INTRA-LIGAND FREE ENERGY PREDICTED BY IDOCK:   -0.49 KCAL/MOL
REMARK 927      BINDING AFFINITY PREDICTED BY RF-SCORE:    0.00 PKD
ROOT
HETATM    1  C   UNL     1     -10.426  17.518  67.459  1.00  0.00    -0.355 C  
HETATM    2  C   UNL     1     -10.506  16.231  66.646  1.00  0.00    -0.290 C  
HETATM    3  C   UNL     1      -9.129  15.574  66.570  1.00  0.00    -0.336 C  
ENDROOT
BRANCH   2   4
HETATM    4  O   UNL     1     -11.402  15.303  67.289  1.00  0.00    -0.332 OA 
BRANCH   4   5
HETATM    5  C   UNL     1     -10.896  14.618  68.360  1.00  0.00    -0.245 C  
HETATM    6  O   UNL     1     -10.662  15.106  69.459  1.00  0.00    -0.244 OA 
BRANCH   5   7
HETATM    7  C   UNL     1     -10.731  13.139  68.005  1.00  0.00    -0.233 C  
HETATM    8  C   UNL     1     -11.900  12.731  67.109  1.00  0.00    -0.415 C  
BRANCH   7   9
HETATM    9  N   UNL     1     -10.615  12.317  69.234  1.00  0.00    -0.440 NA 
HETATM   10  P   UNL     1     -11.014  10.681  69.036  1.00  0.00    -0.289 P  
HETATM   11  H   UNL     1     -11.167  12.727  69.988  1.00  0.00     0.000 HD 
HETATM   12  O   UNL     1     -10.772   9.971  70.516  1.00  0.00    -0.294 OA 
HETATM   13  O   UNL     1      -9.356  10.381  68.650  1.00  0.00    -0.152 OA 
HETATM   14  O   UNL     1     -12.500  10.951  69.380  1.00  0.00    -0.352 OA 
BRANCH  13  15
HETATM   15  C   UNL     1      -9.017  10.211  67.332  1.00  0.00    -0.134 A  
HETATM   16  C   UNL     1      -8.203  10.028  64.675  1.00  0.00    -0.163 A  
HETATM   17  C   UNL     1      -7.692  10.475  66.992  1.00  0.00    -0.110 A  
HETATM   18  C   UNL     1      -9.932   9.819  66.354  1.00  0.00    -0.314 A  
HETATM   19  C   UNL     1      -7.285  10.389  65.660  1.00  0.00    -0.146 A  
HETATM   20  C   UNL     1      -9.521   9.735  65.022  1.00  0.00    -0.337 A  
ENDBRANCH  13  15
BRANCH  12  21
HETATM   21  C   UNL     1     -11.554   8.792  70.787  1.00  0.00    -0.251 C  
BRANCH  21  22
HETATM   22  C   UNL     1     -10.839   7.407  70.736  1.00  0.00    -0.241 C  
HETATM   23  O   UNL     1     -11.109   6.749  69.479  1.00  0.00    -0.268 OA 
HETATM   24  C   UNL     1      -8.810   6.388  69.849  1.00  0.00    -0.142 C  
HETATM   25  H   UNL     1      -7.867   7.130  72.240  1.00  0.00     0.000 HD 
HETATM   26  C   UNL     1      -9.297   7.437  70.862  1.00  0.00    -0.155 C  
HETATM   27  O   UNL     1      -8.814   7.111  72.163  1.00  0.00    -0.128 OA 
HETATM   28  F   UNL     1      -7.966   5.508  70.456  1.00  0.00    -0.092 F  
HETATM   29  C   UNL     1      -8.034   7.067  68.732  1.00  0.00    -0.120 C  
HETATM   30  C   UNL     1     -10.113   5.706  69.425  1.00  0.00    -0.223 C  
BRANCH  30  31
HETATM   31  N   UNL     1     -10.126   5.060  68.108  1.00  0.00    -0.133 N  
HETATM   32  C   UNL     1      -9.473   3.859  67.893  1.00  0.00    -0.173 C  
HETATM   33  C   UNL     1      -9.384   3.308  66.685  1.00  0.00    -0.159 C  
HETATM   34  C   UNL     1      -9.982   4.010  65.540  1.00  0.00    -0.168 C  
HETATM   35  O   UNL     1      -9.802   3.616  64.394  1.00  0.00    -0.162 OA 
HETATM   36  N   UNL     1     -10.720   5.114  65.846  1.00  0.00    -0.641 N  
HETATM   37  H   UNL     1     -11.274   5.526  65.095  1.00  0.00     0.000 HD 
HETATM   38  C   UNL     1     -10.784   5.721  67.075  1.00  0.00    -0.289 C  
HETATM   39  O   UNL     1     -11.371   6.789  67.203  1.00  0.00    -0.330 OA 
ENDBRANCH  30  31
ENDBRANCH  21  22
ENDBRANCH  12  21
ENDBRANCH   7   9
ENDBRANCH   5   7
ENDBRANCH   4   5
ENDBRANCH   2   4
TORSDOF 8
ENDMDL
MODEL       60
REMARK 921   NORMALIZED FREE ENERGY PREDICTED BY IDOCK:   -4.63 KCAL/MOL
REMARK 922        TOTAL FREE ENERGY PREDICTED BY IDOCK:   -9.34 KCAL/MOL
REMARK 923 INTER-LIGAND FREE ENERGY PREDICTED BY IDOCK:   -8.42 KCAL/MOL
REMARK 924 INTRA-LIGAND FREE ENERGY PREDICTED BY IDOCK:   -0.92 KCAL/MOL
REMARK 927      BINDING AFFINITY PREDICTED BY RF-SCORE:    0.00 PKD
ROOT
HETATM    1  C   UNL     1     -12.316  15.628  64.184  1.00  0.00     0.134 C  
HETATM    2  C   UNL     1     -11.773  14.532  65.093  1.00  0.00    -0.376 C  
HETATM    3  C   UNL     1     -12.329  13.175  64.667  1.00  0.00    -0.463 C  
ENDROOT
BRANCH   2   4
HETATM    4  O   UNL     1     -10.337  14.474  64.984  1.00  0.00    -0.404 OA 
BRANCH   4   5
HETATM    5  C   UNL     1      -9.635  15.312  65.806  1.00  0.00    -0.324 C  
HETATM    6  O   UNL     1      -9.568  16.529  65.677  1.00  0.00    -0.511 OA 
BRANCH   5   7
HETATM    7  C   UNL     1      -9.002  14.516  66.950  1.00  0.00    -0.246 C  
HETATM    8  C   UNL     1      -7.667  15.169  67.303  1.00  0.00    -0.241 C  
BRANCH   7   9
HETATM    9  N   UNL     1      -8.879  13.083  66.582  1.00  0.00    -0.406 NA 
HETATM   10  P   UNL     1      -8.772  12.020  67.898  1.00  0.00    -0.185 P  
HETATM   11  H   UNL     1      -8.089  12.946  65.952  1.00  0.00     0.000 HD 
HETATM   12  O   UNL     1      -8.685  10.496  67.245  1.00  0.00    -0.126 OA 
HETATM   13  O   UNL     1     -10.497  11.903  67.871  1.00  0.00    -0.195 OA 
HETATM   14  O   UNL     1      -7.227  12.126  67.922  1.00  0.00    -0.086 OA 
BRANCH  13  15
HETATM   15  C   UNL     1     -11.209  12.608  68.807  1.00  0.00    -0.280 A  
HETATM   16  C   UNL     1     -12.776  13.871  70.733  1.00  0.00    -0.383 A  
HETATM   17  C   UNL     1     -11.684  11.885  69.900  1.00  0.00    -0.383 A  
HETATM   18  C   UNL     1     -11.483  13.970  68.691  1.00  0.00    -0.337 A  
HETATM   19  C   UNL     1     -12.473  12.516  70.862  1.00  0.00    -0.361 A  
HETATM   20  C   UNL     1     -12.274  14.599  69.655  1.00  0.00    -0.325 A  
ENDBRANCH  13  15
BRANCH  12  21
HETATM   21  C   UNL     1      -8.022   9.501  68.049  1.00  0.00    -0.091 C  
BRANCH  21  22
HETATM   22  C   UNL     1      -8.706   8.109  68.209  1.00  0.00    -0.133 C  
HETATM   23  O   UNL     1      -8.319   7.501  69.461  1.00  0.00    -0.128 OA 
HETATM   24  C   UNL     1     -10.635   7.095  69.300  1.00  0.00    -0.221 C  
HETATM   25  H   UNL     1     -11.789   7.736  66.974  1.00  0.00     0.000 HD 
HETATM   26  C   UNL     1     -10.254   8.113  68.214  1.00  0.00    -0.206 C  
HETATM   27  O   UNL     1     -10.839   7.734  66.971  1.00  0.00    -0.316 OA 
HETATM   28  F   UNL     1     -11.512   6.182  68.799  1.00  0.00    -0.434 F  
HETATM   29  C   UNL     1     -11.325   7.803  70.455  1.00  0.00    -0.219 C  
HETATM   30  C   UNL     1      -9.290   6.447  69.635  1.00  0.00    -0.145 C  
BRANCH  30  31
HETATM   31  N   UNL     1      -9.155   5.850  70.968  1.00  0.00    -0.145 N  
HETATM   32  C   UNL     1      -8.785   6.614  72.061  1.00  0.00    -0.127 C  
HETATM   33  C   UNL     1      -8.556   6.076  73.257  1.00  0.00    -0.117 C  
HETATM   34  C   UNL     1      -8.680   4.620  73.414  1.00  0.00    -0.100 C  
HETATM   35  O   UNL     1      -8.342   4.067  74.453  1.00  0.00    -0.089 OA 
HETATM   36  N   UNL     1      -9.176   3.951  72.335  1.00  0.00    -0.110 N  
HETATM   37  H   UNL     1      -9.421   2.969  72.469  1.00  0.00     0.000 HD 
HETATM   38  C   UNL     1      -9.372   4.480  71.084  1.00  0.00    -0.149 C  
HETATM   39  O   UNL     1      -9.693   3.751  70.152  1.00  0.00    -0.196 OA 
ENDBRANCH  30  31
ENDBRANCH  21  22
ENDBRANCH  12  21
ENDBRANCH   7   9
ENDBRANCH   5   7
ENDBRANCH   4   5
ENDBRANCH   2   4
TORSDOF 8
ENDMDL
MODEL       61
REMARK 921   NORMALIZED FREE ENERGY PREDICTED BY IDOCK:   -4.62 KCAL/MOL
REMARK 922        TOTAL FREE ENERGY PREDICTED BY IDOCK:   -9.34 KCAL/MOL
REMARK 923 INTER-LIGAND FREE ENERGY PREDICTED BY IDOCK:   -8.02 KCAL/MOL
REMARK 924 INTRA-LIGAND FREE ENERGY PREDICTED BY IDOCK:   -1.32 KCAL/MOL
REMARK 927      BINDING AFFINITY PREDICTED BY RF-SCORE:    0.00 PKD
ROOT
HETATM    1  C   UNL     1      -8.286   8.063  74.098  1.00  0.00    -0.311 C  
HETATM    2  C   UNL     1      -8.796   6.629  74.014  1.00  0.00    -0.152 C  
HETATM    3  C   UNL     1     -10.315   6.604  74.167  1.00  0.00    -0.347 C  
ENDROOT
BRANCH   2   4
HETATM    4  O   UNL     1      -8.473   6.072  72.724  1.00  0.00    -0.121 OA 
BRANCH   4   5
HETATM    5  C   UNL     1      -8.685   4.728  72.577  1.00  0.00    -0.116 C  
HETATM    6  O   UNL     1      -8.378   3.874  73.400  1.00  0.00    -0.087 OA 
BRANCH   5   7
HETATM    7  C   UNL     1      -9.426   4.456  71.265  1.00  0.00    -0.157 C  
HETATM    8  C   UNL     1      -9.653   2.949  71.152  1.00  0.00    -0.226 C  
BRANCH   7   9
HETATM    9  N   UNL     1      -8.681   5.029  70.117  1.00  0.00    -0.107 NA 
HETATM   10  P   UNL     1      -9.654   5.719  68.913  1.00  0.00    -0.145 P  
HETATM   11  H   UNL     1      -8.062   4.327  69.711  1.00  0.00     0.000 HD 
HETATM   12  O   UNL     1      -8.609   6.319  67.772  1.00  0.00    -0.116 OA 
HETATM   13  O   UNL     1      -9.544   7.220  69.764  1.00  0.00    -0.163 OA 
HETATM   14  O   UNL     1      -9.754   4.374  68.152  1.00  0.00    -0.159 OA 
BRANCH  13  15
HETATM   15  C   UNL     1     -10.616   7.617  70.522  1.00  0.00    -0.226 A  
HETATM   16  C   UNL     1     -12.917   8.337  71.916  1.00  0.00    -0.371 A  
HETATM   17  C   UNL     1     -11.711   6.756  70.546  1.00  0.00    -0.430 A  
HETATM   18  C   UNL     1     -10.651   8.823  71.222  1.00  0.00    -0.332 A  
HETATM   19  C   UNL     1     -12.866   7.119  71.239  1.00  0.00    -0.399 A  
HETATM   20  C   UNL     1     -11.809   9.183  71.915  1.00  0.00    -0.439 A  
ENDBRANCH  13  15
BRANCH  12  21
HETATM   21  C   UNL     1      -9.127   6.419  66.431  1.00  0.00    -0.154 C  
BRANCH  21  22
HETATM   22  C   UNL     1      -8.892   7.748  65.649  1.00  0.00    -0.065 C  
HETATM   23  O   UNL     1      -9.901   8.721  66.001  1.00  0.00    -0.258 OA 
HETATM   24  C   UNL     1      -7.888   9.945  65.968  1.00  0.00    -0.111 C  
HETATM   25  H   UNL     1      -5.736   8.658  65.033  1.00  0.00     0.000 HD 
HETATM   26  C   UNL     1      -7.537   8.450  65.901  1.00  0.00    -0.082 C  
HETATM   27  O   UNL     1      -6.569   8.227  64.879  1.00  0.00    -0.062 OA 
HETATM   28  F   UNL     1      -7.097  10.650  65.112  1.00  0.00    -0.129 F  
HETATM   29  C   UNL     1      -7.629  10.476  67.369  1.00  0.00    -0.094 C  
HETATM   30  C   UNL     1      -9.350   9.964  65.516  1.00  0.00    -0.223 C  
BRANCH  30  31
HETATM   31  N   UNL     1     -10.170  11.092  65.971  1.00  0.00    -0.242 N  
HETATM   32  C   UNL     1     -10.148  12.306  65.308  1.00  0.00    -0.271 C  
HETATM   33  C   UNL     1     -10.802  13.373  65.761  1.00  0.00    -0.283 C  
HETATM   34  C   UNL     1     -11.556  13.261  67.018  1.00  0.00    -0.359 C  
HETATM   35  O   UNL     1     -12.053  14.248  67.546  1.00  0.00    -0.385 OA 
HETATM   36  N   UNL     1     -11.643  12.005  67.542  1.00  0.00    -0.337 N  
HETATM   37  H   UNL     1     -12.289  11.871  68.321  1.00  0.00     0.000 HD 
HETATM   38  C   UNL     1     -10.939  10.907  67.116  1.00  0.00    -0.272 C  
HETATM   39  O   UNL     1     -10.992   9.860  67.749  1.00  0.00    -0.282 OA 
ENDBRANCH  30  31
ENDBRANCH  21  22
ENDBRANCH  12  21
ENDBRANCH   7   9
ENDBRANCH   5   7
ENDBRANCH   4   5
ENDBRANCH   2   4
TORSDOF 8
ENDMDL
MODEL       62
REMARK 921   NORMALIZED FREE ENERGY PREDICTED BY IDOCK:   -4.61 KCAL/MOL
REMARK 922        TOTAL FREE ENERGY PREDICTED BY IDOCK:   -9.31 KCAL/MOL
REMARK 923 INTER-LIGAND FREE ENERGY PREDICTED BY IDOCK:   -8.21 KCAL/MOL
REMARK 924 INTRA-LIGAND FREE ENERGY PREDICTED BY IDOCK:   -1.11 KCAL/MOL
REMARK 927      BINDING AFFINITY PREDICTED BY RF-SCORE:    0.00 PKD
ROOT
HETATM    1  C   UNL     1     -10.888   3.796  73.255  1.00  0.00    -0.293 C  
HETATM    2  C   UNL     1     -11.282   5.244  72.990  1.00  0.00    -0.324 C  
HETATM    3  C   UNL     1     -10.441   6.181  73.853  1.00  0.00    -0.287 C  
ENDROOT
BRANCH   2   4
HETATM    4  O   UNL     1     -11.033   5.573  71.609  1.00  0.00    -0.238 OA 
BRANCH   4   5
HETATM    5  C   UNL     1     -11.677   6.679  71.127  1.00  0.00    -0.346 C  
HETATM    6  O   UNL     1     -12.880   6.890  71.223  1.00  0.00    -0.359 OA 
BRANCH   5   7
HETATM    7  C   UNL     1     -10.664   7.647  70.511  1.00  0.00    -0.236 C  
HETATM    8  C   UNL     1     -10.163   8.577  71.616  1.00  0.00    -0.336 C  
BRANCH   7   9
HETATM    9  N   UNL     1     -11.263   8.368  69.361  1.00  0.00    -0.429 NA 
HETATM   10  P   UNL     1     -10.838  10.005  69.249  1.00  0.00    -0.218 P  
HETATM   11  H   UNL     1     -12.279   8.266  69.369  1.00  0.00     0.000 HD 
HETATM   12  O   UNL     1     -11.586  10.576  67.882  1.00  0.00    -0.461 OA 
HETATM   13  O   UNL     1      -9.488   9.529  68.278  1.00  0.00    -0.133 OA 
HETATM   14  O   UNL     1     -12.047  10.430  70.119  1.00  0.00    -0.275 OA 
BRANCH  13  15
HETATM   15  C   UNL     1      -8.249   9.495  68.864  1.00  0.00    -0.116 A  
HETATM   16  C   UNL     1      -5.707   9.625  69.996  1.00  0.00    -0.041 A  
HETATM   17  C   UNL     1      -7.832  10.661  69.504  1.00  0.00    -0.092 A  
HETATM   18  C   UNL     1      -7.414   8.379  68.818  1.00  0.00    -0.092 A  
HETATM   19  C   UNL     1      -6.557  10.728  70.066  1.00  0.00    -0.159 A  
HETATM   20  C   UNL     1      -6.138   8.450  69.382  1.00  0.00    -0.037 A  
ENDBRANCH  13  15
BRANCH  12  21
HETATM   21  C   UNL     1     -11.878  11.987  67.863  1.00  0.00    -0.250 C  
BRANCH  21  22
HETATM   22  C   UNL     1     -11.032  12.926  68.776  1.00  0.00    -0.254 C  
HETATM   23  O   UNL     1      -9.993  13.570  68.007  1.00  0.00    -0.233 OA 
HETATM   24  C   UNL     1     -10.858  15.281  69.376  1.00  0.00    -0.262 C  
HETATM   25  H   UNL     1     -12.605  14.523  71.255  1.00  0.00     0.000 HD 
HETATM   26  C   UNL     1     -11.806  14.074  69.467  1.00  0.00    -0.325 C  
HETATM   27  O   UNL     1     -12.130  13.818  70.831  1.00  0.00    -0.341 OA 
HETATM   28  F   UNL     1     -10.685  15.834  70.609  1.00  0.00    -0.308 F  
HETATM   29  C   UNL     1     -11.465  16.349  68.480  1.00  0.00    -0.209 C  
HETATM   30  C   UNL     1      -9.563  14.650  68.863  1.00  0.00    -0.184 C  
BRANCH  30  31
HETATM   31  N   UNL     1      -8.636  15.529  68.142  1.00  0.00    -0.151 N  
HETATM   32  C   UNL     1      -8.809  15.803  66.797  1.00  0.00    -0.267 C  
HETATM   33  C   UNL     1      -7.925  16.512  66.099  1.00  0.00    -0.191 C  
HETATM   34  C   UNL     1      -6.716  17.002  66.777  1.00  0.00    -0.230 C  
HETATM   35  O   UNL     1      -5.811  17.533  66.146  1.00  0.00    -0.196 OA 
HETATM   36  N   UNL     1      -6.679  16.810  68.126  1.00  0.00    -0.145 N  
HETATM   37  H   UNL     1      -5.933  17.278  68.641  1.00  0.00     0.000 HD 
HETATM   38  C   UNL     1      -7.555  16.044  68.852  1.00  0.00    -0.192 C  
HETATM   39  O   UNL     1      -7.345  15.830  70.040  1.00  0.00     0.005 OA 
ENDBRANCH  30  31
ENDBRANCH  21  22
ENDBRANCH  12  21
ENDBRANCH   7   9
ENDBRANCH   5   7
ENDBRANCH   4   5
ENDBRANCH   2   4
TORSDOF 8
ENDMDL
MODEL       63
REMARK 921   NORMALIZED FREE ENERGY PREDICTED BY IDOCK:   -4.59 KCAL/MOL
REMARK 922        TOTAL FREE ENERGY PREDICTED BY IDOCK:   -9.29 KCAL/MOL
REMARK 923 INTER-LIGAND FREE ENERGY PREDICTED BY IDOCK:   -8.85 KCAL/MOL
REMARK 924 INTRA-LIGAND FREE ENERGY PREDICTED BY IDOCK:   -0.44 KCAL/MOL
REMARK 927      BINDING AFFINITY PREDICTED BY RF-SCORE:    0.00 PKD
ROOT
HETATM    1  C   UNL     1     -10.455  12.896  64.323  1.00  0.00    -0.430 C  
HETATM    2  C   UNL     1     -10.575  11.422  63.956  1.00  0.00    -0.383 C  
HETATM    3  C   UNL     1      -9.526  11.056  62.909  1.00  0.00    -0.378 C  
ENDROOT
BRANCH   2   4
HETATM    4  O   UNL     1     -10.337  10.608  65.122  1.00  0.00    -0.299 OA 
BRANCH   4   5
HETATM    5  C   UNL     1      -9.310  11.005  65.935  1.00  0.00    -0.204 C  
HETATM    6  O   UNL     1      -8.122  10.950  65.644  1.00  0.00    -0.145 OA 
BRANCH   5   7
HETATM    7  C   UNL     1      -9.868  11.592  67.234  1.00  0.00    -0.187 C  
HETATM    8  C   UNL     1      -8.689  12.027  68.104  1.00  0.00    -0.177 C  
BRANCH   7   9
HETATM    9  N   UNL     1     -10.768  10.620  67.903  1.00  0.00    -0.227 NA 
HETATM   10  P   UNL     1     -10.912  10.823  69.579  1.00  0.00    -0.254 P  
HETATM   11  H   UNL     1     -10.481   9.665  67.685  1.00  0.00     0.000 HD 
HETATM   12  O   UNL     1     -11.984   9.662  70.087  1.00  0.00    -0.121 OA 
HETATM   13  O   UNL     1     -12.243  11.884  69.279  1.00  0.00    -0.235 OA 
HETATM   14  O   UNL     1      -9.718   9.873  69.847  1.00  0.00    -0.224 OA 
BRANCH  13  15
HETATM   15  C   UNL     1     -12.030  13.235  69.376  1.00  0.00    -0.301 A  
HETATM   16  C   UNL     1     -11.750  15.986  69.713  1.00  0.00    -0.267 A  
HETATM   17  C   UNL     1     -12.183  13.799  70.641  1.00  0.00    -0.434 A  
HETATM   18  C   UNL     1     -11.701  14.036  68.282  1.00  0.00    -0.392 A  
HETATM   19  C   UNL     1     -12.049  15.177  70.809  1.00  0.00    -0.387 A  
HETATM   20  C   UNL     1     -11.568  15.415  68.454  1.00  0.00    -0.368 A  
ENDBRANCH  13  15
BRANCH  12  21
HETATM   21  C   UNL     1     -11.849   9.232  71.455  1.00  0.00    -0.374 C  
BRANCH  21  22
HETATM   22  C   UNL     1     -11.405   7.761  71.723  1.00  0.00    -0.261 C  
HETATM   23  O   UNL     1     -11.184   7.069  70.474  1.00  0.00    -0.269 OA 
HETATM   24  C   UNL     1      -9.374   6.419  71.836  1.00  0.00    -0.152 C  
HETATM   25  H   UNL     1      -9.494   7.173  74.401  1.00  0.00     0.000 HD 
HETATM   26  C   UNL     1     -10.096   7.587  72.529  1.00  0.00    -0.211 C  
HETATM   27  O   UNL     1     -10.298   7.280  73.905  1.00  0.00    -0.352 OA 
HETATM   28  F   UNL     1      -9.032   5.472  72.753  1.00  0.00    -0.123 F  
HETATM   29  C   UNL     1      -8.089   6.914  71.191  1.00  0.00    -0.110 C  
HETATM   30  C   UNL     1     -10.438   5.897  70.869  1.00  0.00    -0.244 C  
BRANCH  30  31
HETATM   31  N   UNL     1      -9.961   5.179  69.683  1.00  0.00    -0.221 N  
HETATM   32  C   UNL     1      -9.986   5.767  68.430  1.00  0.00    -0.153 C  
HETATM   33  C   UNL     1      -9.656   5.099  67.327  1.00  0.00    -0.155 C  
HETATM   34  C   UNL     1      -9.271   3.685  67.443  1.00  0.00    -0.189 C  
HETATM   35  O   UNL     1      -9.099   2.995  66.446  1.00  0.00    -0.147 OA 
HETATM   36  N   UNL     1      -9.139   3.213  68.715  1.00  0.00    -0.135 N  
HETATM   37  H   UNL     1      -8.722   2.289  68.827  1.00  0.00     0.000 HD 
HETATM   38  C   UNL     1      -9.519   3.870  69.858  1.00  0.00    -0.197 C  
HETATM   39  O   UNL     1      -9.481   3.295  70.939  1.00  0.00    -0.142 OA 
ENDBRANCH  30  31
ENDBRANCH  21  22
ENDBRANCH  12  21
ENDBRANCH   7   9
ENDBRANCH   5   7
ENDBRANCH   4   5
ENDBRANCH   2   4
TORSDOF 8
ENDMDL
MODEL       64
REMARK 921   NORMALIZED FREE ENERGY PREDICTED BY IDOCK:   -4.59 KCAL/MOL
REMARK 922        TOTAL FREE ENERGY PREDICTED BY IDOCK:   -9.28 KCAL/MOL
REMARK 923 INTER-LIGAND FREE ENERGY PREDICTED BY IDOCK:   -8.34 KCAL/MOL
REMARK 924 INTRA-LIGAND FREE ENERGY PREDICTED BY IDOCK:   -0.94 KCAL/MOL
REMARK 927      BINDING AFFINITY PREDICTED BY RF-SCORE:    0.00 PKD
ROOT
HETATM    1  C   UNL     1     -10.659   8.698  70.008  1.00  0.00    -0.233 C  
HETATM    2  C   UNL     1     -10.572   7.176  69.999  1.00  0.00    -0.232 C  
HETATM    3  C   UNL     1     -11.783   6.579  70.713  1.00  0.00    -0.427 C  
ENDROOT
BRANCH   2   4
HETATM    4  O   UNL     1     -10.580   6.695  68.640  1.00  0.00    -0.196 OA 
BRANCH   4   5
HETATM    5  C   UNL     1      -9.500   5.948  68.259  1.00  0.00    -0.116 C  
HETATM    6  O   UNL     1      -9.154   4.895  68.780  1.00  0.00    -0.104 OA 
BRANCH   5   7
HETATM    7  C   UNL     1      -8.828   6.583  67.039  1.00  0.00    -0.116 C  
HETATM    8  C   UNL     1      -7.493   7.177  67.487  1.00  0.00    -0.101 C  
BRANCH   7   9
HETATM    9  N   UNL     1      -9.731   7.575  66.403  1.00  0.00    -0.394 NA 
HETATM   10  P   UNL     1      -8.955   8.953  65.793  1.00  0.00    -0.196 P  
HETATM   11  H   UNL     1     -10.472   7.844  67.051  1.00  0.00     0.000 HD 
HETATM   12  O   UNL     1     -10.148   9.880  65.106  1.00  0.00    -0.309 OA 
HETATM   13  O   UNL     1      -8.776   8.116  64.290  1.00  0.00     0.079 OA 
HETATM   14  O   UNL     1      -9.114   9.701  67.140  1.00  0.00    -0.133 OA 
BRANCH  13  15
HETATM   15  C   UNL     1      -7.550   7.585  63.985  1.00  0.00    -0.114 A  
HETATM   16  C   UNL     1      -5.126   6.324  63.445  1.00  0.00    -0.018 A  
HETATM   17  C   UNL     1      -7.536   6.258  63.558  1.00  0.00    -0.087 A  
HETATM   18  C   UNL     1      -6.357   8.298  64.109  1.00  0.00    -0.067 A  
HETATM   19  C   UNL     1      -6.323   5.625  63.293  1.00  0.00    -0.025 A  
HETATM   20  C   UNL     1      -5.143   7.660  63.844  1.00  0.00    -0.033 A  
ENDBRANCH  13  15
BRANCH  12  21
HETATM   21  C   UNL     1      -9.892  11.296  65.045  1.00  0.00    -0.261 C  
BRANCH  21  22
HETATM   22  C   UNL     1     -10.890  12.255  65.763  1.00  0.00    -0.278 C  
HETATM   23  O   UNL     1     -10.177  13.349  66.383  1.00  0.00    -0.280 OA 
HETATM   24  C   UNL     1     -12.053  14.363  65.379  1.00  0.00    -0.364 C  
HETATM   25  H   UNL     1     -13.895  12.705  64.371  1.00  0.00     0.000 HD 
HETATM   26  C   UNL     1     -11.958  12.918  64.860  1.00  0.00    -0.392 C  
HETATM   27  O   UNL     1     -13.239  12.298  64.925  1.00  0.00    -0.597 OA 
HETATM   28  F   UNL     1     -13.350  14.679  65.648  1.00  0.00    -0.287 F  
HETATM   29  C   UNL     1     -11.560  15.329  64.313  1.00  0.00    -0.204 C  
HETATM   30  C   UNL     1     -11.216  14.312  66.659  1.00  0.00    -0.334 C  
BRANCH  30  31
HETATM   31  N   UNL     1     -10.627  15.575  67.117  1.00  0.00    -0.296 N  
HETATM   32  C   UNL     1      -9.591  16.175  66.422  1.00  0.00    -0.287 C  
HETATM   33  C   UNL     1      -8.972  17.264  66.873  1.00  0.00    -0.256 C  
HETATM   34  C   UNL     1      -9.391  17.834  68.162  1.00  0.00    -0.281 C  
HETATM   35  O   UNL     1      -8.760  18.744  68.684  1.00  0.00    -0.337 OA 
HETATM   36  N   UNL     1     -10.500  17.272  68.722  1.00  0.00    -0.346 N  
HETATM   37  H   UNL     1     -10.904  17.747  69.530  1.00  0.00     0.000 HD 
HETATM   38  C   UNL     1     -11.120  16.124  68.297  1.00  0.00    -0.348 C  
HETATM   39  O   UNL     1     -12.027  15.635  68.959  1.00  0.00    -0.374 OA 
ENDBRANCH  30  31
ENDBRANCH  21  22
ENDBRANCH  12  21
ENDBRANCH   7   9
ENDBRANCH   5   7
ENDBRANCH   4   5
ENDBRANCH   2   4
TORSDOF 8
ENDMDL
MODEL       65
REMARK 921   NORMALIZED FREE ENERGY PREDICTED BY IDOCK:   -4.54 KCAL/MOL
REMARK 922        TOTAL FREE ENERGY PREDICTED BY IDOCK:   -9.22 KCAL/MOL
REMARK 923 INTER-LIGAND FREE ENERGY PREDICTED BY IDOCK:   -9.41 KCAL/MOL
REMARK 924 INTRA-LIGAND FREE ENERGY PREDICTED BY IDOCK:    0.19 KCAL/MOL
REMARK 927      BINDING AFFINITY PREDICTED BY RF-SCORE:    0.00 PKD
ROOT
HETATM    1  C   UNL     1      -8.546   9.997  64.760  1.00  0.00    -0.188 C  
HETATM    2  C   UNL     1      -9.454  10.877  63.910  1.00  0.00    -0.261 C  
HETATM    3  C   UNL     1      -9.609  10.276  62.514  1.00  0.00    -0.217 C  
ENDROOT
BRANCH   2   4
HETATM    4  O   UNL     1     -10.764  10.946  64.507  1.00  0.00    -0.327 OA 
BRANCH   4   5
HETATM    5  C   UNL     1     -11.396  12.158  64.437  1.00  0.00    -0.344 C  
HETATM    6  O   UNL     1     -11.994  12.583  63.456  1.00  0.00    -0.476 OA 
BRANCH   5   7
HETATM    7  C   UNL     1     -11.305  12.875  65.786  1.00  0.00    -0.315 C  
HETATM    8  C   UNL     1      -9.851  13.288  66.008  1.00  0.00    -0.271 C  
BRANCH   7   9
HETATM    9  N   UNL     1     -11.848  12.018  66.870  1.00  0.00    -0.616 NA 
HETATM   10  P   UNL     1     -10.845  11.872  68.228  1.00  0.00    -0.258 P  
HETATM   11  H   UNL     1     -12.087  11.096  66.505  1.00  0.00     0.000 HD 
HETATM   12  O   UNL     1     -11.672  10.914  69.302  1.00  0.00    -0.283 OA 
HETATM   13  O   UNL     1     -11.639  13.257  68.893  1.00  0.00    -0.270 OA 
HETATM   14  O   UNL     1     -10.134  10.632  67.631  1.00  0.00    -0.169 OA 
BRANCH  13  15
HETATM   15  C   UNL     1     -10.989  14.463  68.842  1.00  0.00    -0.255 A  
HETATM   16  C   UNL     1      -9.769  16.951  68.560  1.00  0.00    -0.264 A  
HETATM   17  C   UNL     1     -11.711  15.537  68.325  1.00  0.00    -0.287 A  
HETATM   18  C   UNL     1      -9.667  14.636  69.254  1.00  0.00    -0.050 A  
HETATM   19  C   UNL     1     -11.099  16.781  68.178  1.00  0.00    -0.254 A  
HETATM   20  C   UNL     1      -9.057  15.883  69.105  1.00  0.00    -0.255 A  
ENDBRANCH  13  15
BRANCH  12  21
HETATM   21  C   UNL     1     -10.866  10.171  70.237  1.00  0.00    -0.310 C  
BRANCH  21  22
HETATM   22  C   UNL     1     -11.278   8.702  70.558  1.00  0.00    -0.241 C  
HETATM   23  O   UNL     1     -10.922   7.830  69.462  1.00  0.00    -0.198 OA 
HETATM   24  C   UNL     1     -10.300   6.632  71.393  1.00  0.00    -0.200 C  
HETATM   25  H   UNL     1     -11.065   7.680  73.733  1.00  0.00     0.000 HD 
HETATM   26  C   UNL     1     -10.624   8.075  71.812  1.00  0.00    -0.238 C  
HETATM   27  O   UNL     1     -11.466   8.065  72.962  1.00  0.00    -0.370 OA 
HETATM   28  F   UNL     1     -10.813   5.755  72.300  1.00  0.00    -0.244 F  
HETATM   29  C   UNL     1      -8.794   6.427  71.364  1.00  0.00    -0.138 C  
HETATM   30  C   UNL     1     -11.007   6.511  70.041  1.00  0.00    -0.332 C  
BRANCH  30  31
HETATM   31  N   UNL     1     -10.482   5.512  69.105  1.00  0.00    -0.250 N  
HETATM   32  C   UNL     1      -9.810   4.390  69.557  1.00  0.00    -0.188 C  
HETATM   33  C   UNL     1      -9.236   3.524  68.725  1.00  0.00    -0.226 C  
HETATM   34  C   UNL     1      -9.302   3.781  67.279  1.00  0.00    -0.197 C  
HETATM   35  O   UNL     1      -8.670   3.094  66.486  1.00  0.00    -0.117 OA 
HETATM   36  N   UNL     1     -10.091   4.828  66.902  1.00  0.00    -0.216 N  
HETATM   37  H   UNL     1     -10.282   4.930  65.905  1.00  0.00     0.000 HD 
HETATM   38  C   UNL     1     -10.650   5.755  67.744  1.00  0.00    -0.237 C  
HETATM   39  O   UNL     1     -11.228   6.733  67.285  1.00  0.00    -0.348 OA 
ENDBRANCH  30  31
ENDBRANCH  21  22
ENDBRANCH  12  21
ENDBRANCH   7   9
ENDBRANCH   5   7
ENDBRANCH   4   5
ENDBRANCH   2   4
TORSDOF 8
ENDMDL
MODEL       66
REMARK 921   NORMALIZED FREE ENERGY PREDICTED BY IDOCK:   -4.52 KCAL/MOL
REMARK 922        TOTAL FREE ENERGY PREDICTED BY IDOCK:   -9.18 KCAL/MOL
REMARK 923 INTER-LIGAND FREE ENERGY PREDICTED BY IDOCK:   -7.15 KCAL/MOL
REMARK 924 INTRA-LIGAND FREE ENERGY PREDICTED BY IDOCK:   -2.03 KCAL/MOL
REMARK 927      BINDING AFFINITY PREDICTED BY RF-SCORE:    0.00 PKD
ROOT
HETATM    1  C   UNL     1     -11.723  15.253  69.672  1.00  0.00    -0.355 C  
HETATM    2  C   UNL     1     -11.492  15.424  68.176  1.00  0.00    -0.343 C  
HETATM    3  C   UNL     1     -10.754  16.733  67.907  1.00  0.00    -0.347 C  
ENDROOT
BRANCH   2   4
HETATM    4  O   UNL     1     -10.671  14.346  67.683  1.00  0.00    -0.258 OA 
BRANCH   4   5
HETATM    5  C   UNL     1     -11.337  13.238  67.233  1.00  0.00    -0.314 C  
HETATM    6  O   UNL     1     -12.280  13.254  66.451  1.00  0.00    -0.402 OA 
BRANCH   5   7
HETATM    7  C   UNL     1     -10.685  11.972  67.795  1.00  0.00    -0.210 C  
HETATM    8  C   UNL     1      -9.347  12.363  68.420  1.00  0.00    -0.158 C  
BRANCH   7   9
HETATM    9  N   UNL     1     -10.563  10.936  66.740  1.00  0.00    -0.255 NA 
HETATM   10  P   UNL     1      -9.214   9.921  66.894  1.00  0.00    -0.152 P  
HETATM   11  H   UNL     1     -10.577  11.368  65.815  1.00  0.00     0.000 HD 
HETATM   12  O   UNL     1      -9.316   8.837  65.641  1.00  0.00    -0.214 OA 
HETATM   13  O   UNL     1     -10.190   8.864  67.853  1.00  0.00    -0.198 OA 
HETATM   14  O   UNL     1      -8.341  10.870  66.035  1.00  0.00    -0.164 OA 
BRANCH  13  15
HETATM   15  C   UNL     1     -10.027   8.888  69.214  1.00  0.00    -0.192 A  
HETATM   16  C   UNL     1      -9.529   8.814  71.953  1.00  0.00    -0.362 A  
HETATM   17  C   UNL     1      -8.714   8.899  69.682  1.00  0.00    -0.140 A  
HETATM   18  C   UNL     1     -11.095   8.877  70.111  1.00  0.00    -0.217 A  
HETATM   19  C   UNL     1      -8.464   8.856  71.053  1.00  0.00    -0.244 A  
HETATM   20  C   UNL     1     -10.841   8.834  71.484  1.00  0.00    -0.374 A  
ENDBRANCH  13  15
BRANCH  12  21
HETATM   21  C   UNL     1      -8.069   8.271  65.193  1.00  0.00    -0.142 C  
BRANCH  21  22
HETATM   22  C   UNL     1      -7.788   6.769  65.506  1.00  0.00    -0.112 C  
HETATM   23  O   UNL     1      -8.204   6.451  66.852  1.00  0.00    -0.108 OA 
HETATM   24  C   UNL     1      -8.949   4.627  65.560  1.00  0.00    -0.142 C  
HETATM   25  H   UNL     1      -8.127   4.567  63.015  1.00  0.00     0.000 HD 
HETATM   26  C   UNL     1      -8.508   5.743  64.599  1.00  0.00    -0.061 C  
HETATM   27  O   UNL     1      -7.685   5.197  63.572  1.00  0.00    -0.067 OA 
HETATM   28  F   UNL     1      -8.524   3.418  65.099  1.00  0.00    -0.095 F  
HETATM   29  C   UNL     1     -10.467   4.578  65.634  1.00  0.00    -0.261 C  
HETATM   30  C   UNL     1      -8.239   5.008  66.860  1.00  0.00    -0.107 C  
BRANCH  30  31
HETATM   31  N   UNL     1      -8.835   4.523  68.109  1.00  0.00    -0.104 N  
HETATM   32  C   UNL     1      -9.603   5.354  68.906  1.00  0.00    -0.141 C  
HETATM   33  C   UNL     1     -10.068   4.968  70.092  1.00  0.00    -0.338 C  
HETATM   34  C   UNL     1      -9.737   3.620  70.578  1.00  0.00    -0.140 C  
HETATM   35  O   UNL     1     -10.020   3.274  71.718  1.00  0.00    -0.170 OA 
HETATM   36  N   UNL     1      -9.093   2.814  69.686  1.00  0.00    -0.112 N  
HETATM   37  H   UNL     1      -8.994   1.830  69.937  1.00  0.00     0.000 HD 
HETATM   38  C   UNL     1      -8.567   3.209  68.482  1.00  0.00    -0.090 C  
HETATM   39  O   UNL     1      -7.889   2.430  67.823  1.00  0.00    -0.059 OA 
ENDBRANCH  30  31
ENDBRANCH  21  22
ENDBRANCH  12  21
ENDBRANCH   7   9
ENDBRANCH   5   7
ENDBRANCH   4   5
ENDBRANCH   2   4
TORSDOF 8
ENDMDL
MODEL       67
REMARK 921   NORMALIZED FREE ENERGY PREDICTED BY IDOCK:   -4.48 KCAL/MOL
REMARK 922        TOTAL FREE ENERGY PREDICTED BY IDOCK:   -9.13 KCAL/MOL
REMARK 923 INTER-LIGAND FREE ENERGY PREDICTED BY IDOCK:   -7.87 KCAL/MOL
REMARK 924 INTRA-LIGAND FREE ENERGY PREDICTED BY IDOCK:   -1.26 KCAL/MOL
REMARK 927      BINDING AFFINITY PREDICTED BY RF-SCORE:    0.00 PKD
ROOT
HETATM    1  C   UNL     1      -9.051  19.851  66.902  1.00  0.00    -0.452 C  
HETATM    2  C   UNL     1      -7.657  19.252  67.049  1.00  0.00    -0.235 C  
HETATM    3  C   UNL     1      -6.831  20.084  68.027  1.00  0.00    -0.314 C  
ENDROOT
BRANCH   2   4
HETATM    4  O   UNL     1      -7.754  17.916  67.580  1.00  0.00    -0.207 OA 
BRANCH   4   5
HETATM    5  C   UNL     1      -7.186  16.925  66.826  1.00  0.00    -0.243 C  
HETATM    6  O   UNL     1      -6.041  16.940  66.392  1.00  0.00    -0.286 OA 
BRANCH   5   7
HETATM    7  C   UNL     1      -8.169  15.763  66.663  1.00  0.00    -0.270 C  
HETATM    8  C   UNL     1      -9.316  15.967  67.653  1.00  0.00    -0.214 C  
BRANCH   7   9
HETATM    9  N   UNL     1      -7.473  14.463  66.827  1.00  0.00    -0.202 NA 
HETATM   10  P   UNL     1      -8.320  13.313  67.740  1.00  0.00    -0.201 P  
HETATM   11  H   UNL     1      -6.541  14.607  67.217  1.00  0.00     0.000 HD 
HETATM   12  O   UNL     1      -7.373  11.951  67.749  1.00  0.00    -0.094 OA 
HETATM   13  O   UNL     1      -9.048  12.765  66.270  1.00  0.00    -0.155 OA 
HETATM   14  O   UNL     1      -7.669  13.806  69.057  1.00  0.00    -0.066 OA 
BRANCH  13  15
HETATM   15  C   UNL     1     -10.336  13.149  66.001  1.00  0.00    -0.287 A  
HETATM   16  C   UNL     1     -12.875  14.091  65.351  1.00  0.00    -0.442 A  
HETATM   17  C   UNL     1     -10.568  13.715  64.749  1.00  0.00    -0.436 A  
HETATM   18  C   UNL     1     -11.378  13.019  66.920  1.00  0.00    -0.352 A  
HETATM   19  C   UNL     1     -11.837  14.192  64.425  1.00  0.00    -0.447 A  
HETATM   20  C   UNL     1     -12.648  13.498  66.592  1.00  0.00    -0.114 A  
ENDBRANCH  13  15
BRANCH  12  21
HETATM   21  C   UNL     1      -7.543  11.069  68.875  1.00  0.00    -0.134 C  
BRANCH  21  22
HETATM   22  C   UNL     1      -8.747  10.078  68.857  1.00  0.00    -0.146 C  
HETATM   23  O   UNL     1      -8.273   8.713  68.886  1.00  0.00    -0.119 OA 
HETATM   24  C   UNL     1     -10.082   8.740  70.396  1.00  0.00    -0.192 C  
HETATM   25  H   UNL     1     -11.537  10.985  70.458  1.00  0.00     0.000 HD 
HETATM   26  C   UNL     1      -9.737  10.196  70.041  1.00  0.00    -0.093 C  
HETATM   27  O   UNL     1     -10.928  10.912  69.732  1.00  0.00    -0.255 OA 
HETATM   28  F   UNL     1     -11.434   8.574  70.424  1.00  0.00    -0.267 F  
HETATM   29  C   UNL     1      -9.553   8.406  71.781  1.00  0.00    -0.303 C  
HETATM   30  C   UNL     1      -9.451   7.958  69.243  1.00  0.00    -0.152 C  
BRANCH  30  31
HETATM   31  N   UNL     1      -9.094   6.560  69.507  1.00  0.00    -0.140 N  
HETATM   32  C   UNL     1      -7.772   6.168  69.627  1.00  0.00    -0.098 C  
HETATM   33  C   UNL     1      -7.420   4.892  69.763  1.00  0.00    -0.056 C  
HETATM   34  C   UNL     1      -8.471   3.864  69.765  1.00  0.00    -0.060 C  
HETATM   35  O   UNL     1      -8.188   2.673  69.744  1.00  0.00    -0.041 OA 
HETATM   36  N   UNL     1      -9.752   4.331  69.778  1.00  0.00    -0.214 N  
HETATM   37  H   UNL     1     -10.494   3.649  69.941  1.00  0.00     0.000 HD 
HETATM   38  C   UNL     1     -10.132   5.636  69.592  1.00  0.00    -0.222 C  
HETATM   39  O   UNL     1     -11.319   5.922  69.486  1.00  0.00    -0.361 OA 
ENDBRANCH  30  31
ENDBRANCH  21  22
ENDBRANCH  12  21
ENDBRANCH   7   9
ENDBRANCH   5   7
ENDBRANCH   4   5
ENDBRANCH   2   4
TORSDOF 8
ENDMDL
MODEL       68
REMARK 921   NORMALIZED FREE ENERGY PREDICTED BY IDOCK:   -4.48 KCAL/MOL
REMARK 922        TOTAL FREE ENERGY PREDICTED BY IDOCK:   -9.12 KCAL/MOL
REMARK 923 INTER-LIGAND FREE ENERGY PREDICTED BY IDOCK:   -7.89 KCAL/MOL
REMARK 924 INTRA-LIGAND FREE ENERGY PREDICTED BY IDOCK:   -1.24 KCAL/MOL
REMARK 927      BINDING AFFINITY PREDICTED BY RF-SCORE:    0.00 PKD
ROOT
HETATM    1  C   UNL     1     -10.812  13.699  64.542  1.00  0.00    -0.416 C  
HETATM    2  C   UNL     1     -12.008  12.771  64.715  1.00  0.00    -0.402 C  
HETATM    3  C   UNL     1     -12.601  12.423  63.351  1.00  0.00    -0.481 C  
ENDROOT
BRANCH   2   4
HETATM    4  O   UNL     1     -11.587  11.543  65.339  1.00  0.00    -0.122 OA 
BRANCH   4   5
HETATM    5  C   UNL     1     -10.391  11.031  64.918  1.00  0.00    -0.313 C  
HETATM    6  O   UNL     1     -10.055  10.902  63.747  1.00  0.00    -0.307 OA 
BRANCH   5   7
HETATM    7  C   UNL     1      -9.505  10.707  66.124  1.00  0.00    -0.179 C  
HETATM    8  C   UNL     1      -8.298   9.912  65.628  1.00  0.00    -0.140 C  
BRANCH   7   9
HETATM    9  N   UNL     1     -10.286  10.002  67.170  1.00  0.00    -0.227 NA 
HETATM   10  P   UNL     1      -9.950  10.492  68.758  1.00  0.00    -0.210 P  
HETATM   11  H   UNL     1     -10.169   8.992  67.079  1.00  0.00     0.000 HD 
HETATM   12  O   UNL     1     -10.960   9.604  69.731  1.00  0.00    -0.234 OA 
HETATM   13  O   UNL     1     -11.197  11.680  68.594  1.00  0.00    -0.209 OA 
HETATM   14  O   UNL     1      -8.834   9.428  68.903  1.00  0.00    -0.131 OA 
BRANCH  13  15
HETATM   15  C   UNL     1     -10.827  12.981  68.370  1.00  0.00    -0.258 A  
HETATM   16  C   UNL     1     -10.245  15.643  67.795  1.00  0.00    -0.252 A  
HETATM   17  C   UNL     1     -11.859  13.911  68.267  1.00  0.00    -0.412 A  
HETATM   18  C   UNL     1      -9.499  13.382  68.223  1.00  0.00    -0.209 A  
HETATM   19  C   UNL     1     -11.569  15.243  67.973  1.00  0.00    -0.325 A  
HETATM   20  C   UNL     1      -9.212  14.717  67.928  1.00  0.00    -0.197 A  
ENDBRANCH  13  15
BRANCH  12  21
HETATM   21  C   UNL     1     -10.506   9.384  71.080  1.00  0.00    -0.322 C  
BRANCH  21  22
HETATM   22  C   UNL     1     -10.361   7.913  71.577  1.00  0.00    -0.201 C  
HETATM   23  O   UNL     1     -10.324   7.005  70.454  1.00  0.00    -0.199 OA 
HETATM   24  C   UNL     1      -8.642   6.216  71.903  1.00  0.00    -0.132 C  
HETATM   25  H   UNL     1      -8.525   7.366  74.316  1.00  0.00     0.000 HD 
HETATM   26  C   UNL     1      -9.089   7.600  72.401  1.00  0.00    -0.143 C  
HETATM   27  O   UNL     1      -9.306   7.558  73.809  1.00  0.00    -0.247 OA 
HETATM   28  F   UNL     1      -8.471   5.372  72.957  1.00  0.00    -0.116 F  
HETATM   29  C   UNL     1      -7.304   6.331  71.189  1.00  0.00    -0.080 C  
HETATM   30  C   UNL     1      -9.820   5.781  71.028  1.00  0.00    -0.178 C  
BRANCH  30  31
HETATM   31  N   UNL     1      -9.536   4.805  69.971  1.00  0.00    -0.170 N  
HETATM   32  C   UNL     1      -9.323   5.207  68.664  1.00  0.00    -0.125 C  
HETATM   33  C   UNL     1      -9.167   4.334  67.671  1.00  0.00    -0.178 C  
HETATM   34  C   UNL     1      -9.244   2.897  67.972  1.00  0.00    -0.198 C  
HETATM   35  O   UNL     1      -9.249   2.064  67.074  1.00  0.00    -0.114 OA 
HETATM   36  N   UNL     1      -9.321   2.576  69.295  1.00  0.00    -0.132 N  
HETATM   37  H   UNL     1      -9.214   1.591  69.541  1.00  0.00     0.000 HD 
HETATM   38  C   UNL     1      -9.529   3.458  70.324  1.00  0.00    -0.177 C  
HETATM   39  O   UNL     1      -9.719   3.043  71.461  1.00  0.00    -0.148 OA 
ENDBRANCH  30  31
ENDBRANCH  21  22
ENDBRANCH  12  21
ENDBRANCH   7   9
ENDBRANCH   5   7
ENDBRANCH   4   5
ENDBRANCH   2   4
TORSDOF 8
ENDMDL
MODEL       69
REMARK 921   NORMALIZED FREE ENERGY PREDICTED BY IDOCK:   -4.48 KCAL/MOL
REMARK 922        TOTAL FREE ENERGY PREDICTED BY IDOCK:   -9.12 KCAL/MOL
REMARK 923 INTER-LIGAND FREE ENERGY PREDICTED BY IDOCK:   -8.85 KCAL/MOL
REMARK 924 INTRA-LIGAND FREE ENERGY PREDICTED BY IDOCK:   -0.27 KCAL/MOL
REMARK 927      BINDING AFFINITY PREDICTED BY RF-SCORE:    0.00 PKD
ROOT
HETATM    1  C   UNL     1      -8.328   8.578  64.912  1.00  0.00    -0.171 C  
HETATM    2  C   UNL     1      -6.924   8.885  65.417  1.00  0.00    -0.080 C  
HETATM    3  C   UNL     1      -6.469  10.249  64.903  1.00  0.00    -0.113 C  
ENDROOT
BRANCH   2   4
HETATM    4  O   UNL     1      -6.923   8.935  66.857  1.00  0.00    -0.076 OA 
BRANCH   4   5
HETATM    5  C   UNL     1      -7.214   7.763  67.501  1.00  0.00    -0.091 C  
HETATM    6  O   UNL     1      -6.690   6.682  67.264  1.00  0.00    -0.058 OA 
BRANCH   5   7
HETATM    7  C   UNL     1      -8.239   8.016  68.610  1.00  0.00    -0.126 C  
HETATM    8  C   UNL     1      -9.392   7.029  68.425  1.00  0.00    -0.130 C  
BRANCH   7   9
HETATM    9  N   UNL     1      -8.671   9.435  68.607  1.00  0.00    -0.130 NA 
HETATM   10  P   UNL     1     -10.262   9.694  69.133  1.00  0.00    -0.225 P  
HETATM   11  H   UNL     1      -8.533   9.846  67.684  1.00  0.00     0.000 HD 
HETATM   12  O   UNL     1     -10.496  11.336  69.081  1.00  0.00    -0.212 OA 
HETATM   13  O   UNL     1      -9.644   9.860  70.739  1.00  0.00    -0.065 OA 
HETATM   14  O   UNL     1     -10.815   9.544  67.693  1.00  0.00    -0.279 OA 
BRANCH  13  15
HETATM   15  C   UNL     1      -9.787   8.803  71.601  1.00  0.00    -0.308 A  
HETATM   16  C   UNL     1     -10.276   6.710  73.373  1.00  0.00    -0.275 A  
HETATM   17  C   UNL     1     -11.004   8.125  71.557  1.00  0.00    -0.294 A  
HETATM   18  C   UNL     1      -8.797   8.415  72.504  1.00  0.00    -0.296 A  
HETATM   19  C   UNL     1     -11.251   7.081  72.447  1.00  0.00    -0.305 A  
HETATM   20  C   UNL     1      -9.048   7.370  73.395  1.00  0.00    -0.234 A  
ENDBRANCH  13  15
BRANCH  12  21
HETATM   21  C   UNL     1     -11.857  11.776  68.907  1.00  0.00    -0.320 C  
BRANCH  21  22
HETATM   22  C   UNL     1     -12.125  12.979  67.952  1.00  0.00    -0.186 C  
HETATM   23  O   UNL     1     -11.653  14.207  68.548  1.00  0.00    -0.278 OA 
HETATM   24  C   UNL     1     -10.963  14.342  66.299  1.00  0.00    -0.318 C  
HETATM   25  H   UNL     1     -11.891  12.441  64.662  1.00  0.00     0.000 HD 
HETATM   26  C   UNL     1     -11.444  12.906  66.565  1.00  0.00    -0.341 C  
HETATM   27  O   UNL     1     -12.309  12.486  65.514  1.00  0.00    -0.600 OA 
HETATM   28  F   UNL     1     -11.407  14.767  65.084  1.00  0.00    -0.325 F  
HETATM   29  C   UNL     1      -9.443  14.382  66.268  1.00  0.00    -0.297 C  
HETATM   30  C   UNL     1     -11.618  15.128  67.437  1.00  0.00    -0.240 C  
BRANCH  30  31
HETATM   31  N   UNL     1     -10.970  16.381  67.838  1.00  0.00    -0.328 N  
HETATM   32  C   UNL     1     -10.326  17.182  66.911  1.00  0.00    -0.308 C  
HETATM   33  C   UNL     1      -9.643  18.268  67.266  1.00  0.00    -0.281 C  
HETATM   34  C   UNL     1      -9.555  18.614  68.693  1.00  0.00    -0.368 C  
HETATM   35  O   UNL     1      -8.823  19.518  69.078  1.00  0.00    -0.340 OA 
HETATM   36  N   UNL     1     -10.322  17.860  69.530  1.00  0.00    -0.249 N  
HETATM   37  H   UNL     1     -10.404  18.177  70.497  1.00  0.00     0.000 HD 
HETATM   38  C   UNL     1     -10.992  16.713  69.189  1.00  0.00    -0.276 C  
HETATM   39  O   UNL     1     -11.538  16.040  70.055  1.00  0.00    -0.332 OA 
ENDBRANCH  30  31
ENDBRANCH  21  22
ENDBRANCH  12  21
ENDBRANCH   7   9
ENDBRANCH   5   7
ENDBRANCH   4   5
ENDBRANCH   2   4
TORSDOF 8
ENDMDL
MODEL       70
REMARK 921   NORMALIZED FREE ENERGY PREDICTED BY IDOCK:   -4.47 KCAL/MOL
REMARK 922        TOTAL FREE ENERGY PREDICTED BY IDOCK:   -9.11 KCAL/MOL
REMARK 923 INTER-LIGAND FREE ENERGY PREDICTED BY IDOCK:   -8.27 KCAL/MOL
REMARK 924 INTRA-LIGAND FREE ENERGY PREDICTED BY IDOCK:   -0.83 KCAL/MOL
REMARK 927      BINDING AFFINITY PREDICTED BY RF-SCORE:    0.00 PKD
ROOT
HETATM    1  C   UNL     1     -13.922   9.817  71.108  1.00  0.00     0.082 C  
HETATM    2  C   UNL     1     -13.859   8.761  72.205  1.00  0.00    -0.457 C  
HETATM    3  C   UNL     1     -14.268   7.401  71.645  1.00  0.00    -0.583 C  
ENDROOT
BRANCH   2   4
HETATM    4  O   UNL     1     -12.508   8.648  72.696  1.00  0.00    -0.375 OA 
BRANCH   4   5
HETATM    5  C   UNL     1     -11.518   9.034  71.834  1.00  0.00    -0.370 C  
HETATM    6  O   UNL     1     -11.309  10.186  71.475  1.00  0.00    -0.233 OA 
BRANCH   5   7
HETATM    7  C   UNL     1     -10.667   7.825  71.438  1.00  0.00    -0.222 C  
HETATM    8  C   UNL     1      -9.251   8.046  71.969  1.00  0.00    -0.229 C  
BRANCH   7   9
HETATM    9  N   UNL     1     -10.721   7.606  69.972  1.00  0.00    -0.239 NA 
HETATM   10  P   UNL     1      -9.278   7.042  69.285  1.00  0.00    -0.136 P  
HETATM   11  H   UNL     1     -11.029   8.456  69.498  1.00  0.00     0.000 HD 
HETATM   12  O   UNL     1      -9.592   6.838  67.668  1.00  0.00    -0.125 OA 
HETATM   13  O   UNL     1      -9.839   5.431  69.570  1.00  0.00    -0.162 OA 
HETATM   14  O   UNL     1      -8.775   8.485  69.031  1.00  0.00    -0.132 OA 
BRANCH  13  15
HETATM   15  C   UNL     1      -9.320   4.742  70.636  1.00  0.00    -0.154 A  
HETATM   16  C   UNL     1      -8.099   3.302  72.684  1.00  0.00    -0.072 A  
HETATM   17  C   UNL     1      -7.940   4.823  70.815  1.00  0.00    -0.081 A  
HETATM   18  C   UNL     1     -10.099   3.972  71.499  1.00  0.00    -0.166 A  
HETATM   19  C   UNL     1      -7.327   4.098  71.837  1.00  0.00    -0.064 A  
HETATM   20  C   UNL     1      -9.482   3.246  72.521  1.00  0.00    -0.174 A  
ENDBRANCH  13  15
BRANCH  12  21
HETATM   21  C   UNL     1      -8.458   6.937  66.786  1.00  0.00    -0.118 C  
BRANCH  21  22
HETATM   22  C   UNL     1      -8.523   7.969  65.619  1.00  0.00    -0.149 C  
HETATM   23  O   UNL     1      -9.603   8.904  65.835  1.00  0.00    -0.253 OA 
HETATM   24  C   UNL     1      -7.808  10.240  65.097  1.00  0.00    -0.138 C  
HETATM   25  H   UNL     1      -5.640   8.934  64.230  1.00  0.00     0.000 HD 
HETATM   26  C   UNL     1      -7.260   8.840  65.415  1.00  0.00    -0.084 C  
HETATM   27  O   UNL     1      -6.416   8.400  64.355  1.00  0.00    -0.065 OA 
HETATM   28  F   UNL     1      -7.248  10.712  63.949  1.00  0.00    -0.071 F  
HETATM   29  C   UNL     1      -7.441  11.206  66.213  1.00  0.00    -0.064 C  
HETATM   30  C   UNL     1      -9.305   9.979  64.918  1.00  0.00    -0.266 C  
BRANCH  30  31
HETATM   31  N   UNL     1     -10.209  11.110  65.153  1.00  0.00    -0.273 N  
HETATM   32  C   UNL     1     -10.796  11.312  66.389  1.00  0.00    -0.251 C  
HETATM   33  C   UNL     1     -11.698  12.268  66.598  1.00  0.00    -0.417 C  
HETATM   34  C   UNL     1     -12.097  13.124  65.470  1.00  0.00    -0.442 C  
HETATM   35  O   UNL     1     -13.022  13.919  65.578  1.00  0.00    -0.673 OA 
HETATM   36  N   UNL     1     -11.382  12.955  64.322  1.00  0.00    -0.350 N  
HETATM   37  H   UNL     1     -11.527  13.640  63.579  1.00  0.00     0.000 HD 
HETATM   38  C   UNL     1     -10.484  11.947  64.076  1.00  0.00    -0.373 C  
HETATM   39  O   UNL     1     -10.001  11.813  62.958  1.00  0.00    -0.396 OA 
ENDBRANCH  30  31
ENDBRANCH  21  22
ENDBRANCH  12  21
ENDBRANCH   7   9
ENDBRANCH   5   7
ENDBRANCH   4   5
ENDBRANCH   2   4
TORSDOF 8
ENDMDL
MODEL       71
REMARK 921   NORMALIZED FREE ENERGY PREDICTED BY IDOCK:   -4.46 KCAL/MOL
REMARK 922        TOTAL FREE ENERGY PREDICTED BY IDOCK:   -9.10 KCAL/MOL
REMARK 923 INTER-LIGAND FREE ENERGY PREDICTED BY IDOCK:   -9.08 KCAL/MOL
REMARK 924 INTRA-LIGAND FREE ENERGY PREDICTED BY IDOCK:   -0.02 KCAL/MOL
REMARK 927      BINDING AFFINITY PREDICTED BY RF-SCORE:    0.00 PKD
ROOT
HETATM    1  C   UNL     1      -8.800   4.113  65.146  1.00  0.00    -0.130 C  
HETATM    2  C   UNL     1      -8.201   5.142  66.098  1.00  0.00    -0.109 C  
HETATM    3  C   UNL     1      -7.614   6.308  65.307  1.00  0.00    -0.090 C  
ENDROOT
BRANCH   2   4
HETATM    4  O   UNL     1      -9.231   5.667  66.959  1.00  0.00    -0.115 OA 
BRANCH   4   5
HETATM    5  C   UNL     1      -8.808   6.450  67.998  1.00  0.00    -0.113 C  
HETATM    6  O   UNL     1      -7.773   6.278  68.632  1.00  0.00    -0.097 OA 
BRANCH   5   7
HETATM    7  C   UNL     1      -9.781   7.612  68.209  1.00  0.00    -0.157 C  
HETATM    8  C   UNL     1     -10.894   7.495  67.168  1.00  0.00    -0.298 C  
BRANCH   7   9
HETATM    9  N   UNL     1      -9.062   8.910  68.161  1.00  0.00    -0.140 NA 
HETATM   10  P   UNL     1     -10.056  10.277  68.293  1.00  0.00    -0.172 P  
HETATM   11  H   UNL     1      -8.492   8.967  67.316  1.00  0.00     0.000 HD 
HETATM   12  O   UNL     1      -9.036  11.586  68.254  1.00  0.00    -0.173 OA 
HETATM   13  O   UNL     1      -9.843  10.196  70.007  1.00  0.00    -0.228 OA 
HETATM   14  O   UNL     1     -10.247  10.348  66.757  1.00  0.00    -0.209 OA 
BRANCH  13  15
HETATM   15  C   UNL     1     -10.863   9.678  70.763  1.00  0.00    -0.330 A  
HETATM   16  C   UNL     1     -13.012   8.819  72.313  1.00  0.00    -0.462 A  
HETATM   17  C   UNL     1     -12.120  10.254  70.588  1.00  0.00    -0.433 A  
HETATM   18  C   UNL     1     -10.682   8.648  71.686  1.00  0.00    -0.374 A  
HETATM   19  C   UNL     1     -13.195   9.828  71.368  1.00  0.00    -0.482 A  
HETATM   20  C   UNL     1     -11.760   8.224  72.466  1.00  0.00    -0.451 A  
ENDBRANCH  13  15
BRANCH  12  21
HETATM   21  C   UNL     1      -9.606  12.818  67.772  1.00  0.00    -0.204 C  
BRANCH  21  22
HETATM   22  C   UNL     1      -8.660  13.843  67.076  1.00  0.00    -0.172 C  
HETATM   23  O   UNL     1      -9.313  15.127  66.957  1.00  0.00    -0.213 OA 
HETATM   24  C   UNL     1      -7.119  15.643  67.646  1.00  0.00    -0.168 C  
HETATM   25  H   UNL     1      -5.383  13.607  67.687  1.00  0.00     0.000 HD 
HETATM   26  C   UNL     1      -7.321  14.126  67.797  1.00  0.00    -0.167 C  
HETATM   27  O   UNL     1      -6.206  13.434  67.244  1.00  0.00    -0.313 OA 
HETATM   28  F   UNL     1      -5.886  15.901  67.130  1.00  0.00    -0.158 F  
HETATM   29  C   UNL     1      -7.192  16.313  69.009  1.00  0.00    -0.204 C  
HETATM   30  C   UNL     1      -8.225  16.029  66.662  1.00  0.00    -0.289 C  
BRANCH  30  31
HETATM   31  N   UNL     1      -8.695  17.418  66.704  1.00  0.00    -0.248 N  
HETATM   32  C   UNL     1      -7.859  18.467  66.364  1.00  0.00    -0.271 C  
HETATM   33  C   UNL     1      -8.230  19.739  66.493  1.00  0.00    -0.363 C  
HETATM   34  C   UNL     1      -9.564  20.037  67.035  1.00  0.00    -0.411 C  
HETATM   35  O   UNL     1      -9.893  21.185  67.305  1.00  0.00    -0.298 OA 
HETATM   36  N   UNL     1     -10.378  18.959  67.221  1.00  0.00    -0.393 N  
HETATM   37  H   UNL     1     -11.356  19.149  67.443  1.00  0.00     0.000 HD 
HETATM   38  C   UNL     1      -9.999  17.643  67.138  1.00  0.00    -0.316 C  
HETATM   39  O   UNL     1     -10.781  16.757  67.460  1.00  0.00    -0.328 OA 
ENDBRANCH  30  31
ENDBRANCH  21  22
ENDBRANCH  12  21
ENDBRANCH   7   9
ENDBRANCH   5   7
ENDBRANCH   4   5
ENDBRANCH   2   4
TORSDOF 8
ENDMDL
MODEL       72
REMARK 921   NORMALIZED FREE ENERGY PREDICTED BY IDOCK:   -4.42 KCAL/MOL
REMARK 922        TOTAL FREE ENERGY PREDICTED BY IDOCK:   -9.04 KCAL/MOL
REMARK 923 INTER-LIGAND FREE ENERGY PREDICTED BY IDOCK:   -7.32 KCAL/MOL
REMARK 924 INTRA-LIGAND FREE ENERGY PREDICTED BY IDOCK:   -1.73 KCAL/MOL
REMARK 927      BINDING AFFINITY PREDICTED BY RF-SCORE:    0.00 PKD
ROOT
HETATM    1  C   UNL     1      -7.848   4.480  68.989  1.00  0.00    -0.070 C  
HETATM    2  C   UNL     1      -9.107   3.655  68.747  1.00  0.00    -0.142 C  
HETATM    3  C   UNL     1      -9.155   2.478  69.718  1.00  0.00    -0.183 C  
ENDROOT
BRANCH   2   4
HETATM    4  O   UNL     1     -10.275   4.468  68.980  1.00  0.00    -0.079 OA 
BRANCH   4   5
HETATM    5  C   UNL     1     -10.424   5.557  68.167  1.00  0.00    -0.163 C  
HETATM    6  O   UNL     1     -10.613   5.511  66.957  1.00  0.00    -0.254 OA 
BRANCH   5   7
HETATM    7  C   UNL     1     -10.390   6.841  69.000  1.00  0.00    -0.195 C  
HETATM    8  C   UNL     1     -11.107   6.569  70.322  1.00  0.00    -0.392 C  
BRANCH   7   9
HETATM    9  N   UNL     1     -10.970   7.974  68.237  1.00  0.00    -0.428 NA 
HETATM   10  P   UNL     1     -10.184   9.458  68.463  1.00  0.00    -0.210 P  
HETATM   11  H   UNL     1     -11.965   8.066  68.442  1.00  0.00     0.000 HD 
HETATM   12  O   UNL     1     -10.976  10.545  67.491  1.00  0.00    -0.284 OA 
HETATM   13  O   UNL     1      -9.159   9.054  67.130  1.00  0.00    -0.134 OA 
HETATM   14  O   UNL     1     -11.101   9.819  69.658  1.00  0.00    -0.237 OA 
BRANCH  13  15
HETATM   15  C   UNL     1      -7.889   8.614  67.399  1.00  0.00    -0.098 A  
HETATM   16  C   UNL     1      -5.279   7.894  68.053  1.00  0.00    -0.032 A  
HETATM   17  C   UNL     1      -7.377   8.924  68.658  1.00  0.00    -0.077 A  
HETATM   18  C   UNL     1      -7.113   7.911  66.477  1.00  0.00    -0.075 A  
HETATM   19  C   UNL     1      -6.068   8.570  68.983  1.00  0.00    -0.043 A  
HETATM   20  C   UNL     1      -5.803   7.558  66.806  1.00  0.00    -0.039 A  
ENDBRANCH  13  15
BRANCH  12  21
HETATM   21  C   UNL     1     -10.917  11.924  67.904  1.00  0.00    -0.222 C  
BRANCH  21  22
HETATM   22  C   UNL     1      -9.929  12.874  67.160  1.00  0.00    -0.240 C  
HETATM   23  O   UNL     1     -10.405  14.237  67.217  1.00  0.00    -0.258 OA 
HETATM   24  C   UNL     1      -8.093  14.403  67.642  1.00  0.00    -0.177 C  
HETATM   25  H   UNL     1      -6.667  12.163  67.313  1.00  0.00     0.000 HD 
HETATM   26  C   UNL     1      -8.486  12.918  67.715  1.00  0.00    -0.185 C  
HETATM   27  O   UNL     1      -7.554  12.136  66.973  1.00  0.00    -0.148 OA 
HETATM   28  F   UNL     1      -6.909  14.541  66.985  1.00  0.00    -0.122 F  
HETATM   29  C   UNL     1      -7.904  14.958  69.045  1.00  0.00    -0.165 C  
HETATM   30  C   UNL     1      -9.247  15.012  66.842  1.00  0.00    -0.246 C  
BRANCH  30  31
HETATM   31  N   UNL     1      -9.509  16.442  67.041  1.00  0.00    -0.225 N  
HETATM   32  C   UNL     1     -10.579  16.874  67.804  1.00  0.00    -0.340 C  
HETATM   33  C   UNL     1     -10.897  18.162  67.913  1.00  0.00    -0.225 C  
HETATM   34  C   UNL     1     -10.095  19.154  67.181  1.00  0.00    -0.373 C  
HETATM   35  O   UNL     1     -10.435  20.330  67.136  1.00  0.00    -0.352 OA 
HETATM   36  N   UNL     1      -8.982  18.670  66.561  1.00  0.00    -0.303 N  
HETATM   37  H   UNL     1      -8.325  19.355  66.184  1.00  0.00     0.000 HD 
HETATM   38  C   UNL     1      -8.665  17.345  66.400  1.00  0.00    -0.242 C  
HETATM   39  O   UNL     1      -7.709  17.022  65.706  1.00  0.00    -0.357 OA 
ENDBRANCH  30  31
ENDBRANCH  21  22
ENDBRANCH  12  21
ENDBRANCH   7   9
ENDBRANCH   5   7
ENDBRANCH   4   5
ENDBRANCH   2   4
TORSDOF 8
ENDMDL
MODEL       73
REMARK 921   NORMALIZED FREE ENERGY PREDICTED BY IDOCK:   -4.40 KCAL/MOL
REMARK 922        TOTAL FREE ENERGY PREDICTED BY IDOCK:   -9.01 KCAL/MOL
REMARK 923 INTER-LIGAND FREE ENERGY PREDICTED BY IDOCK:   -8.90 KCAL/MOL
REMARK 924 INTRA-LIGAND FREE ENERGY PREDICTED BY IDOCK:   -0.11 KCAL/MOL
REMARK 927      BINDING AFFINITY PREDICTED BY RF-SCORE:    0.00 PKD
ROOT
HETATM    1  C   UNL     1     -10.995   3.905  73.511  1.00  0.00    -0.343 C  
HETATM    2  C   UNL     1     -11.276   5.250  72.851  1.00  0.00    -0.312 C  
HETATM    3  C   UNL     1     -10.563   6.365  73.612  1.00  0.00    -0.288 C  
ENDROOT
BRANCH   2   4
HETATM    4  O   UNL     1     -10.773   5.246  71.501  1.00  0.00    -0.221 OA 
BRANCH   4   5
HETATM    5  C   UNL     1     -11.353   6.134  70.638  1.00  0.00    -0.298 C  
HETATM    6  O   UNL     1     -12.395   6.743  70.851  1.00  0.00    -0.381 OA 
BRANCH   5   7
HETATM    7  C   UNL     1     -10.475   6.308  69.396  1.00  0.00    -0.243 C  
HETATM    8  C   UNL     1      -9.074   6.709  69.856  1.00  0.00    -0.143 C  
BRANCH   7   9
HETATM    9  N   UNL     1     -11.088   7.279  68.455  1.00  0.00    -0.455 NA 
HETATM   10  P   UNL     1     -10.010   7.962  67.340  1.00  0.00    -0.248 P  
HETATM   11  H   UNL     1     -11.575   8.012  68.971  1.00  0.00     0.000 HD 
HETATM   12  O   UNL     1     -10.922   8.968  66.385  1.00  0.00     0.269 OA 
HETATM   13  O   UNL     1     -10.379   6.656  66.268  1.00  0.00     0.007 OA 
HETATM   14  O   UNL     1      -9.679   9.132  68.300  1.00  0.00    -0.149 OA 
BRANCH  13  15
HETATM   15  C   UNL     1      -9.472   5.634  66.155  1.00  0.00    -0.139 A  
HETATM   16  C   UNL     1      -7.560   3.649  65.751  1.00  0.00    -0.078 A  
HETATM   17  C   UNL     1      -8.218   5.970  65.648  1.00  0.00    -0.139 A  
HETATM   18  C   UNL     1      -9.763   4.313  66.497  1.00  0.00    -0.236 A  
HETATM   19  C   UNL     1      -7.263   4.976  65.440  1.00  0.00    -0.068 A  
HETATM   20  C   UNL     1      -8.804   3.320  66.287  1.00  0.00    -0.140 A  
ENDBRANCH  13  15
BRANCH  12  21
HETATM   21  C   UNL     1     -10.221  10.070  65.777  1.00  0.00    -0.200 C  
BRANCH  21  22
HETATM   22  C   UNL     1     -10.878  11.483  65.836  1.00  0.00    -0.260 C  
HETATM   23  O   UNL     1     -11.326  11.772  67.179  1.00  0.00    -0.302 OA 
HETATM   24  C   UNL     1     -10.320  13.774  66.450  1.00  0.00    -0.290 C  
HETATM   25  H   UNL     1      -9.616  13.873  63.871  1.00  0.00     0.000 HD 
HETATM   26  C   UNL     1      -9.967  12.669  65.441  1.00  0.00    -0.214 C  
HETATM   27  O   UNL     1     -10.175  13.144  64.114  1.00  0.00    -0.391 OA 
HETATM   28  F   UNL     1     -10.624  14.928  65.794  1.00  0.00    -0.279 F  
HETATM   29  C   UNL     1      -9.124  14.060  67.344  1.00  0.00    -0.209 C  
HETATM   30  C   UNL     1     -11.548  13.198  67.158  1.00  0.00    -0.361 C  
BRANCH  30  31
HETATM   31  N   UNL     1     -11.823  13.687  68.513  1.00  0.00    -0.356 N  
HETATM   32  C   UNL     1     -11.988  15.037  68.768  1.00  0.00    -0.249 C  
HETATM   33  C   UNL     1     -12.135  15.513  70.002  1.00  0.00    -0.391 C  
HETATM   34  C   UNL     1     -12.100  14.573  71.133  1.00  0.00    -0.344 C  
HETATM   35  O   UNL     1     -12.087  14.977  72.288  1.00  0.00    -0.345 OA 
HETATM   36  N   UNL     1     -12.069  13.252  70.799  1.00  0.00    -0.502 N  
HETATM   37  H   UNL     1     -12.206  12.579  71.554  1.00  0.00     0.000 HD 
HETATM   38  C   UNL     1     -11.872  12.746  69.539  1.00  0.00    -0.316 C  
HETATM   39  O   UNL     1     -11.725  11.541  69.376  1.00  0.00    -0.286 OA 
ENDBRANCH  30  31
ENDBRANCH  21  22
ENDBRANCH  12  21
ENDBRANCH   7   9
ENDBRANCH   5   7
ENDBRANCH   4   5
ENDBRANCH   2   4
TORSDOF 8
ENDMDL
MODEL       74
REMARK 921   NORMALIZED FREE ENERGY PREDICTED BY IDOCK:   -4.36 KCAL/MOL
REMARK 922        TOTAL FREE ENERGY PREDICTED BY IDOCK:   -8.95 KCAL/MOL
REMARK 923 INTER-LIGAND FREE ENERGY PREDICTED BY IDOCK:   -6.57 KCAL/MOL
REMARK 924 INTRA-LIGAND FREE ENERGY PREDICTED BY IDOCK:   -2.38 KCAL/MOL
REMARK 927      BINDING AFFINITY PREDICTED BY RF-SCORE:    0.00 PKD
ROOT
HETATM    1  C   UNL     1      -6.439   5.928  63.846  1.00  0.00    -0.029 C  
HETATM    2  C   UNL     1      -7.956   6.075  63.886  1.00  0.00    -0.114 C  
HETATM    3  C   UNL     1      -8.473   6.530  62.524  1.00  0.00     0.095 C  
ENDROOT
BRANCH   2   4
HETATM    4  O   UNL     1      -8.561   4.802  64.186  1.00  0.00    -0.130 OA 
BRANCH   4   5
HETATM    5  C   UNL     1      -9.420   4.778  65.251  1.00  0.00    -0.132 C  
HETATM    6  O   UNL     1     -10.603   4.466  65.193  1.00  0.00    -0.246 OA 
BRANCH   5   7
HETATM    7  C   UNL     1      -8.669   5.129  66.537  1.00  0.00    -0.111 C  
HETATM    8  C   UNL     1      -7.762   3.953  66.895  1.00  0.00    -0.085 C  
BRANCH   7   9
HETATM    9  N   UNL     1      -9.621   5.490  67.616  1.00  0.00    -0.118 NA 
HETATM   10  P   UNL     1      -9.117   6.766  68.611  1.00  0.00    -0.124 P  
HETATM   11  H   UNL     1      -9.845   4.669  68.179  1.00  0.00     0.000 HD 
HETATM   12  O   UNL     1     -10.347   7.007  69.699  1.00  0.00    -0.196 OA 
HETATM   13  O   UNL     1      -9.904   7.853  67.521  1.00  0.00    -0.150 OA 
HETATM   14  O   UNL     1      -8.411   5.792  69.587  1.00  0.00    -0.109 OA 
BRANCH  13  15
HETATM   15  C   UNL     1      -9.130   8.556  66.634  1.00  0.00    -0.165 A  
HETATM   16  C   UNL     1      -7.696   9.938  64.687  1.00  0.00    -0.142 A  
HETATM   17  C   UNL     1      -9.808   9.279  65.655  1.00  0.00    -0.237 A  
HETATM   18  C   UNL     1      -7.735   8.549  66.667  1.00  0.00    -0.090 A  
HETATM   19  C   UNL     1      -9.091   9.966  64.676  1.00  0.00    -0.288 A  
HETATM   20  C   UNL     1      -7.020   9.238  65.685  1.00  0.00    -0.082 A  
ENDBRANCH  13  15
BRANCH  12  21
HETATM   21  C   UNL     1      -9.969   7.586  70.963  1.00  0.00    -0.186 C  
BRANCH  21  22
HETATM   22  C   UNL     1     -10.638   8.928  71.388  1.00  0.00    -0.303 C  
HETATM   23  O   UNL     1     -10.588   9.880  70.302  1.00  0.00    -0.265 OA 
HETATM   24  C   UNL     1     -12.765  10.099  71.175  1.00  0.00    -0.396 C  
HETATM   25  H   UNL     1     -13.267   8.777  73.446  1.00  0.00     0.000 HD 
HETATM   26  C   UNL     1     -12.130   8.842  71.791  1.00  0.00    -0.350 C  
HETATM   27  O   UNL     1     -12.351   8.830  73.198  1.00  0.00    -0.015 OA 
HETATM   28  F   UNL     1     -13.454  10.789  72.127  1.00  0.00    -0.530 F  
HETATM   29  C   UNL     1     -13.756   9.702  70.093  1.00  0.00     1.120 C  
HETATM   30  C   UNL     1     -11.545  10.887  70.694  1.00  0.00    -0.242 C  
BRANCH  30  31
HETATM   31  N   UNL     1     -11.759  11.836  69.596  1.00  0.00    -0.321 N  
HETATM   32  C   UNL     1     -11.545  11.468  68.279  1.00  0.00    -0.308 C  
HETATM   33  C   UNL     1     -11.632  12.339  67.277  1.00  0.00    -0.427 C  
HETATM   34  C   UNL     1     -11.946  13.743  67.583  1.00  0.00    -0.356 C  
HETATM   35  O   UNL     1     -11.896  14.604  66.714  1.00  0.00    -0.377 OA 
HETATM   36  N   UNL     1     -12.275  14.003  68.881  1.00  0.00    -0.513 N  
HETATM   37  H   UNL     1     -12.650  14.929  69.088  1.00  0.00     0.000 HD 
HETATM   38  C   UNL     1     -12.145  13.130  69.932  1.00  0.00    -0.287 C  
HETATM   39  O   UNL     1     -12.341  13.516  71.078  1.00  0.00    -0.362 OA 
ENDBRANCH  30  31
ENDBRANCH  21  22
ENDBRANCH  12  21
ENDBRANCH   7   9
ENDBRANCH   5   7
ENDBRANCH   4   5
ENDBRANCH   2   4
TORSDOF 8
ENDMDL
MODEL       75
REMARK 921   NORMALIZED FREE ENERGY PREDICTED BY IDOCK:   -4.31 KCAL/MOL
REMARK 922        TOTAL FREE ENERGY PREDICTED BY IDOCK:   -8.88 KCAL/MOL
REMARK 923 INTER-LIGAND FREE ENERGY PREDICTED BY IDOCK:   -8.46 KCAL/MOL
REMARK 924 INTRA-LIGAND FREE ENERGY PREDICTED BY IDOCK:   -0.42 KCAL/MOL
REMARK 927      BINDING AFFINITY PREDICTED BY RF-SCORE:    0.00 PKD
ROOT
HETATM    1  C   UNL     1      -8.215   2.540  68.289  1.00  0.00    -0.072 C  
HETATM    2  C   UNL     1      -9.349   3.494  67.935  1.00  0.00    -0.187 C  
HETATM    3  C   UNL     1      -9.767   4.290  69.169  1.00  0.00    -0.226 C  
ENDROOT
BRANCH   2   4
HETATM    4  O   UNL     1      -8.903   4.432  66.935  1.00  0.00    -0.111 OA 
BRANCH   4   5
HETATM    5  C   UNL     1      -9.872   5.208  66.360  1.00  0.00    -0.193 C  
HETATM    6  O   UNL     1     -11.028   4.854  66.158  1.00  0.00    -0.220 OA 
BRANCH   5   7
HETATM    7  C   UNL     1      -9.320   6.606  66.070  1.00  0.00     0.008 C  
HETATM    8  C   UNL     1      -8.008   6.767  66.835  1.00  0.00    -0.109 C  
BRANCH   7   9
HETATM    9  N   UNL     1     -10.328   7.644  66.401  1.00  0.00    -0.467 NA 
HETATM   10  P   UNL     1      -9.681   9.154  66.818  1.00  0.00    -0.253 P  
HETATM   11  H   UNL     1     -10.951   7.310  67.137  1.00  0.00     0.000 HD 
HETATM   12  O   UNL     1     -10.982  10.144  67.102  1.00  0.00    -0.235 OA 
HETATM   13  O   UNL     1      -9.753   9.583  65.144  1.00  0.00    -0.277 OA 
HETATM   14  O   UNL     1      -9.615   8.768  68.317  1.00  0.00    -0.143 OA 
BRANCH  13  15
HETATM   15  C   UNL     1      -8.591   9.555  64.417  1.00  0.00    -0.195 A  
HETATM   16  C   UNL     1      -6.177   9.674  63.034  1.00  0.00    -0.105 A  
HETATM   17  C   UNL     1      -7.445  10.019  65.059  1.00  0.00    -0.139 A  
HETATM   18  C   UNL     1      -8.529   9.115  63.095  1.00  0.00    -0.199 A  
HETATM   19  C   UNL     1      -6.237  10.084  64.365  1.00  0.00    -0.131 A  
HETATM   20  C   UNL     1      -7.318   9.182  62.402  1.00  0.00    -0.099 A  
ENDBRANCH  13  15
BRANCH  12  21
HETATM   21  C   UNL     1     -10.755  11.246  68.001  1.00  0.00    -0.203 C  
BRANCH  21  22
HETATM   22  C   UNL     1     -11.426  12.614  67.672  1.00  0.00    -0.334 C  
HETATM   23  O   UNL     1     -10.715  13.690  68.323  1.00  0.00    -0.240 OA 
HETATM   24  C   UNL     1     -11.160  14.505  66.157  1.00  0.00    -0.334 C  
HETATM   25  H   UNL     1     -12.771  13.003  64.638  1.00  0.00     0.000 HD 
HETATM   26  C   UNL     1     -11.477  13.000  66.175  1.00  0.00    -0.340 C  
HETATM   27  O   UNL     1     -12.739  12.766  65.558  1.00  0.00    -0.595 OA 
HETATM   28  F   UNL     1     -12.118  15.176  65.460  1.00  0.00    -0.192 F  
HETATM   29  C   UNL     1      -9.833  14.746  65.456  1.00  0.00    -0.336 C  
HETATM   30  C   UNL     1     -11.196  14.869  67.643  1.00  0.00    -0.323 C  
BRANCH  30  31
HETATM   31  N   UNL     1     -10.421  16.044  68.056  1.00  0.00    -0.266 N  
HETATM   32  C   UNL     1     -10.895  17.326  67.843  1.00  0.00    -0.283 C  
HETATM   33  C   UNL     1     -10.165  18.406  68.115  1.00  0.00    -0.410 C  
HETATM   34  C   UNL     1      -8.804  18.227  68.640  1.00  0.00    -0.275 C  
HETATM   35  O   UNL     1      -8.047  19.181  68.770  1.00  0.00    -0.353 OA 
HETATM   36  N   UNL     1      -8.456  16.946  68.950  1.00  0.00    -0.235 N  
HETATM   37  H   UNL     1      -7.583  16.812  69.462  1.00  0.00     0.000 HD 
HETATM   38  C   UNL     1      -9.174  15.820  68.635  1.00  0.00    -0.207 C  
HETATM   39  O   UNL     1      -8.699  14.710  68.841  1.00  0.00    -0.177 OA 
ENDBRANCH  30  31
ENDBRANCH  21  22
ENDBRANCH  12  21
ENDBRANCH   7   9
ENDBRANCH   5   7
ENDBRANCH   4   5
ENDBRANCH   2   4
TORSDOF 8
ENDMDL
MODEL       76
REMARK 921   NORMALIZED FREE ENERGY PREDICTED BY IDOCK:   -4.31 KCAL/MOL
REMARK 922        TOTAL FREE ENERGY PREDICTED BY IDOCK:   -8.87 KCAL/MOL
REMARK 923 INTER-LIGAND FREE ENERGY PREDICTED BY IDOCK:   -6.36 KCAL/MOL
REMARK 924 INTRA-LIGAND FREE ENERGY PREDICTED BY IDOCK:   -2.52 KCAL/MOL
REMARK 927      BINDING AFFINITY PREDICTED BY RF-SCORE:    0.00 PKD
ROOT
HETATM    1  C   UNL     1      -5.514   5.390  63.690  1.00  0.00    -0.013 C  
HETATM    2  C   UNL     1      -6.953   5.149  64.130  1.00  0.00    -0.049 C  
HETATM    3  C   UNL     1      -7.896   5.290  62.937  1.00  0.00    -0.082 C  
ENDROOT
BRANCH   2   4
HETATM    4  O   UNL     1      -7.088   3.808  64.643  1.00  0.00    -0.058 OA 
BRANCH   4   5
HETATM    5  C   UNL     1      -7.908   3.656  65.727  1.00  0.00    -0.092 C  
HETATM    6  O   UNL     1      -9.121   3.493  65.674  1.00  0.00    -0.137 OA 
BRANCH   5   7
HETATM    7  C   UNL     1      -7.079   3.650  67.014  1.00  0.00    -0.063 C  
HETATM    8  C   UNL     1      -6.195   2.404  67.005  1.00  0.00    -0.024 C  
BRANCH   7   9
HETATM    9  N   UNL     1      -7.961   3.740  68.204  1.00  0.00    -0.072 NA 
HETATM   10  P   UNL     1      -7.696   5.099  69.182  1.00  0.00    -0.082 P  
HETATM   11  H   UNL     1      -7.894   2.887  68.759  1.00  0.00     0.000 HD 
HETATM   12  O   UNL     1      -8.812   5.001  70.407  1.00  0.00    -0.108 OA 
HETATM   13  O   UNL     1      -8.862   5.945  68.225  1.00  0.00    -0.112 OA 
HETATM   14  O   UNL     1      -6.651   4.342  70.038  1.00  0.00    -0.031 OA 
BRANCH  13  15
HETATM   15  C   UNL     1      -8.408   6.832  67.284  1.00  0.00    -0.121 A  
HETATM   16  C   UNL     1      -7.391   8.739  65.527  1.00  0.00    -0.085 A  
HETATM   17  C   UNL     1      -7.134   7.358  67.491  1.00  0.00    -0.088 A  
HETATM   18  C   UNL     1      -9.164   7.228  66.180  1.00  0.00    -0.136 A  
HETATM   19  C   UNL     1      -6.627   8.318  66.614  1.00  0.00    -0.056 A  
HETATM   20  C   UNL     1      -8.653   8.190  65.305  1.00  0.00    -0.132 A  
ENDBRANCH  13  15
BRANCH  12  21
HETATM   21  C   UNL     1      -8.454   5.652  71.641  1.00  0.00    -0.131 C  
BRANCH  21  22
HETATM   22  C   UNL     1      -9.274   6.905  72.077  1.00  0.00    -0.140 C  
HETATM   23  O   UNL     1      -9.491   7.779  70.947  1.00  0.00    -0.159 OA 
HETATM   24  C   UNL     1     -11.567   7.730  72.061  1.00  0.00    -0.300 C  
HETATM   25  H   UNL     1     -11.605   6.502  74.437  1.00  0.00     0.000 HD 
HETATM   26  C   UNL     1     -10.680   6.625  72.657  1.00  0.00    -0.235 C  
HETATM   27  O   UNL     1     -10.741   6.674  74.080  1.00  0.00    -0.262 OA 
HETATM   28  F   UNL     1     -12.246   8.371  73.052  1.00  0.00    -0.410 F  
HETATM   29  C   UNL     1     -12.597   7.119  71.125  1.00  0.00    -0.384 C  
HETATM   30  C   UNL     1     -10.544   8.657  71.400  1.00  0.00    -0.264 C  
BRANCH  30  31
HETATM   31  N   UNL     1     -11.022   9.488  70.290  1.00  0.00    -0.252 N  
HETATM   32  C   UNL     1     -10.597   9.265  68.993  1.00  0.00    -0.205 C  
HETATM   33  C   UNL     1     -10.935  10.069  67.987  1.00  0.00    -0.296 C  
HETATM   34  C   UNL     1     -11.772  11.244  68.271  1.00  0.00    -0.274 C  
HETATM   35  O   UNL     1     -11.988  12.086  67.409  1.00  0.00    -0.583 OA 
HETATM   36  N   UNL     1     -12.261  11.326  69.541  1.00  0.00    -0.291 N  
HETATM   37  H   UNL     1     -12.969  12.039  69.721  1.00  0.00     0.000 HD 
HETATM   38  C   UNL     1     -11.887  10.535  70.598  1.00  0.00    -0.360 C  
HETATM   39  O   UNL     1     -12.291  10.787  71.726  1.00  0.00    -0.269 OA 
ENDBRANCH  30  31
ENDBRANCH  21  22
ENDBRANCH  12  21
ENDBRANCH   7   9
ENDBRANCH   5   7
ENDBRANCH   4   5
ENDBRANCH   2   4
TORSDOF 8
ENDMDL
MODEL       77
REMARK 921   NORMALIZED FREE ENERGY PREDICTED BY IDOCK:   -4.28 KCAL/MOL
REMARK 922        TOTAL FREE ENERGY PREDICTED BY IDOCK:   -8.84 KCAL/MOL
REMARK 923 INTER-LIGAND FREE ENERGY PREDICTED BY IDOCK:  -10.23 KCAL/MOL
REMARK 924 INTRA-LIGAND FREE ENERGY PREDICTED BY IDOCK:    1.39 KCAL/MOL
REMARK 927      BINDING AFFINITY PREDICTED BY RF-SCORE:    0.00 PKD
ROOT
HETATM    1  C   UNL     1     -11.840  13.244  63.564  1.00  0.00    -0.477 C  
HETATM    2  C   UNL     1     -10.754  13.798  64.478  1.00  0.00    -0.390 C  
HETATM    3  C   UNL     1     -11.188  15.145  65.051  1.00  0.00    -0.414 C  
ENDROOT
BRANCH   2   4
HETATM    4  O   UNL     1     -10.540  12.897  65.583  1.00  0.00    -0.269 OA 
BRANCH   4   5
HETATM    5  C   UNL     1     -11.665  12.426  66.203  1.00  0.00    -0.400 C  
HETATM    6  O   UNL     1     -12.657  11.995  65.628  1.00  0.00    -0.252 OA 
BRANCH   5   7
HETATM    7  C   UNL     1     -11.474  12.451  67.722  1.00  0.00    -0.324 C  
HETATM    8  C   UNL     1     -10.090  13.026  68.019  1.00  0.00    -0.235 C  
BRANCH   7   9
HETATM    9  N   UNL     1     -11.688  11.099  68.297  1.00  0.00    -0.515 NA 
HETATM   10  P   UNL     1     -11.092  10.895  69.871  1.00  0.00    -0.124 P  
HETATM   11  H   UNL     1     -11.302  10.386  67.678  1.00  0.00     0.000 HD 
HETATM   12  O   UNL     1     -11.479   9.341  70.306  1.00  0.00    -0.243 OA 
HETATM   13  O   UNL     1     -12.632  11.415  70.460  1.00  0.00    -0.281 OA 
HETATM   14  O   UNL     1      -9.712  10.431  69.342  1.00  0.00    -0.217 OA 
BRANCH  13  15
HETATM   15  C   UNL     1     -12.748  12.699  70.928  1.00  0.00    -0.188 A  
HETATM   16  C   UNL     1     -13.174  15.257  71.943  1.00  0.00    -0.506 A  
HETATM   17  C   UNL     1     -13.460  12.866  72.114  1.00  0.00    -0.619 A  
HETATM   18  C   UNL     1     -12.215  13.804  70.264  1.00  0.00    -0.429 A  
HETATM   19  C   UNL     1     -13.679  14.147  72.620  1.00  0.00    -0.568 A  
HETATM   20  C   UNL     1     -12.436  15.085  70.773  1.00  0.00    -0.411 A  
ENDBRANCH  13  15
BRANCH  12  21
HETATM   21  C   UNL     1     -10.626   8.730  71.293  1.00  0.00    -0.262 C  
BRANCH  21  22
HETATM   22  C   UNL     1      -9.917   7.391  70.926  1.00  0.00    -0.184 C  
HETATM   23  O   UNL     1     -10.521   6.810  69.749  1.00  0.00    -0.193 OA 
HETATM   24  C   UNL     1      -8.203   6.544  69.414  1.00  0.00    -0.119 C  
HETATM   25  H   UNL     1      -6.630   7.164  71.487  1.00  0.00     0.000 HD 
HETATM   26  C   UNL     1      -8.406   7.493  70.606  1.00  0.00    -0.126 C  
HETATM   27  O   UNL     1      -7.558   7.102  71.682  1.00  0.00    -0.086 OA 
HETATM   28  F   UNL     1      -7.194   5.669  69.678  1.00  0.00    -0.058 F  
HETATM   29  C   UNL     1      -7.805   7.340  68.181  1.00  0.00    -0.118 C  
HETATM   30  C   UNL     1      -9.552   5.827  69.326  1.00  0.00    -0.139 C  
BRANCH  30  31
HETATM   31  N   UNL     1      -9.927   5.276  68.020  1.00  0.00    -0.150 N  
HETATM   32  C   UNL     1      -9.469   4.037  67.606  1.00  0.00    -0.183 C  
HETATM   33  C   UNL     1      -9.711   3.563  66.386  1.00  0.00    -0.041 C  
HETATM   34  C   UNL     1     -10.473   4.394  65.442  1.00  0.00    -0.193 C  
HETATM   35  O   UNL     1     -10.597   4.063  64.269  1.00  0.00    -0.242 OA 
HETATM   36  N   UNL     1     -11.004   5.538  65.959  1.00  0.00    -0.736 N  
HETATM   37  H   UNL     1     -11.666   6.048  65.374  1.00  0.00     0.000 HD 
HETATM   38  C   UNL     1     -10.728   6.063  67.196  1.00  0.00    -0.330 C  
HETATM   39  O   UNL     1     -11.156   7.169  67.504  1.00  0.00    -0.208 OA 
ENDBRANCH  30  31
ENDBRANCH  21  22
ENDBRANCH  12  21
ENDBRANCH   7   9
ENDBRANCH   5   7
ENDBRANCH   4   5
ENDBRANCH   2   4
TORSDOF 8
ENDMDL
MODEL       78
REMARK 921   NORMALIZED FREE ENERGY PREDICTED BY IDOCK:   -4.23 KCAL/MOL
REMARK 922        TOTAL FREE ENERGY PREDICTED BY IDOCK:   -8.75 KCAL/MOL
REMARK 923 INTER-LIGAND FREE ENERGY PREDICTED BY IDOCK:   -7.69 KCAL/MOL
REMARK 924 INTRA-LIGAND FREE ENERGY PREDICTED BY IDOCK:   -1.07 KCAL/MOL
REMARK 927      BINDING AFFINITY PREDICTED BY RF-SCORE:    0.00 PKD
ROOT
HETATM    1  C   UNL     1      -9.716  10.643  63.275  1.00  0.00    -0.385 C  
HETATM    2  C   UNL     1      -8.770   9.562  63.784  1.00  0.00    -0.217 C  
HETATM    3  C   UNL     1      -7.329   9.916  63.424  1.00  0.00    -0.134 C  
ENDROOT
BRANCH   2   4
HETATM    4  O   UNL     1      -8.857   9.475  65.220  1.00  0.00    -0.159 OA 
BRANCH   4   5
HETATM    5  C   UNL     1      -8.404   8.313  65.783  1.00  0.00    -0.137 C  
HETATM    6  O   UNL     1      -8.438   7.212  65.246  1.00  0.00    -0.129 OA 
BRANCH   5   7
HETATM    7  C   UNL     1      -7.787   8.601  67.153  1.00  0.00    -0.097 C  
HETATM    8  C   UNL     1      -8.891   8.495  68.204  1.00  0.00    -0.142 C  
BRANCH   7   9
HETATM    9  N   UNL     1      -7.099   9.916  67.150  1.00  0.00    -0.085 NA 
HETATM   10  P   UNL     1      -7.309  10.831  68.561  1.00  0.00    -0.110 P  
HETATM   11  H   UNL     1      -7.377  10.458  66.332  1.00  0.00     0.000 HD 
HETATM   12  O   UNL     1      -6.427  12.219  68.339  1.00  0.00    -0.051 OA 
HETATM   13  O   UNL     1      -5.896  10.066  69.200  1.00  0.00    -0.038 OA 
HETATM   14  O   UNL     1      -8.576  11.514  67.988  1.00  0.00    -0.137 OA 
BRANCH  13  15
HETATM   15  C   UNL     1      -6.061   9.059  70.116  1.00  0.00    -0.037 A  
HETATM   16  C   UNL     1      -6.440   7.160  72.118  1.00  0.00    -0.048 A  
HETATM   17  C   UNL     1      -7.057   9.247  71.073  1.00  0.00    -0.090 A  
HETATM   18  C   UNL     1      -5.276   7.907  70.133  1.00  0.00    -0.023 A  
HETATM   19  C   UNL     1      -7.243   8.300  72.079  1.00  0.00    -0.106 A  
HETATM   20  C   UNL     1      -5.464   6.960  71.142  1.00  0.00    -0.027 A  
ENDBRANCH  13  15
BRANCH  12  21
HETATM   21  C   UNL     1      -6.873  13.376  69.071  1.00  0.00    -0.103 C  
BRANCH  21  22
HETATM   22  C   UNL     1      -7.520  14.548  68.272  1.00  0.00    -0.120 C  
HETATM   23  O   UNL     1      -8.375  14.031  67.228  1.00  0.00    -0.191 OA 
HETATM   24  C   UNL     1      -9.604  15.808  68.170  1.00  0.00    -0.199 C  
HETATM   25  H   UNL     1      -8.308  17.330  69.947  1.00  0.00     0.000 HD 
HETATM   26  C   UNL     1      -8.408  15.516  69.090  1.00  0.00    -0.253 C  
HETATM   27  O   UNL     1      -7.763  16.736  69.445  1.00  0.00    -0.157 OA 
HETATM   28  F   UNL     1      -9.778  17.152  68.042  1.00  0.00    -0.249 F  
HETATM   29  C   UNL     1     -10.876  15.239  68.777  1.00  0.00    -0.254 C  
HETATM   30  C   UNL     1      -9.167  15.176  66.846  1.00  0.00    -0.238 C  
BRANCH  30  31
HETATM   31  N   UNL     1     -10.230  14.770  65.922  1.00  0.00    -0.295 N  
HETATM   32  C   UNL     1     -10.713  13.474  65.910  1.00  0.00    -0.277 C  
HETATM   33  C   UNL     1     -11.602  13.056  65.012  1.00  0.00    -0.359 C  
HETATM   34  C   UNL     1     -12.072  14.000  63.988  1.00  0.00    -0.376 C  
HETATM   35  O   UNL     1     -12.777  13.625  63.060  1.00  0.00    -0.681 OA 
HETATM   36  N   UNL     1     -11.658  15.290  64.142  1.00  0.00    -0.768 N  
HETATM   37  H   UNL     1     -12.093  15.993  63.544  1.00  0.00     0.000 HD 
HETATM   38  C   UNL     1     -10.708  15.727  65.030  1.00  0.00    -0.421 C  
HETATM   39  O   UNL     1     -10.314  16.887  64.988  1.00  0.00    -0.596 OA 
ENDBRANCH  30  31
ENDBRANCH  21  22
ENDBRANCH  12  21
ENDBRANCH   7   9
ENDBRANCH   5   7
ENDBRANCH   4   5
ENDBRANCH   2   4
TORSDOF 8
ENDMDL
MODEL       79
REMARK 921   NORMALIZED FREE ENERGY PREDICTED BY IDOCK:   -4.21 KCAL/MOL
REMARK 922        TOTAL FREE ENERGY PREDICTED BY IDOCK:   -8.73 KCAL/MOL
REMARK 923 INTER-LIGAND FREE ENERGY PREDICTED BY IDOCK:   -8.51 KCAL/MOL
REMARK 924 INTRA-LIGAND FREE ENERGY PREDICTED BY IDOCK:   -0.22 KCAL/MOL
REMARK 927      BINDING AFFINITY PREDICTED BY RF-SCORE:    0.00 PKD
ROOT
HETATM    1  C   UNL     1      -8.212   7.859  74.020  1.00  0.00    -0.294 C  
HETATM    2  C   UNL     1      -8.807   6.471  73.821  1.00  0.00    -0.127 C  
HETATM    3  C   UNL     1     -10.319   6.514  74.033  1.00  0.00    -0.362 C  
ENDROOT
BRANCH   2   4
HETATM    4  O   UNL     1      -8.563   6.024  72.472  1.00  0.00    -0.120 OA 
BRANCH   4   5
HETATM    5  C   UNL     1      -9.075   4.800  72.140  1.00  0.00    -0.127 C  
HETATM    6  O   UNL     1      -9.258   3.877  72.925  1.00  0.00    -0.105 OA 
BRANCH   5   7
HETATM    7  C   UNL     1      -9.452   4.775  70.657  1.00  0.00    -0.171 C  
HETATM    8  C   UNL     1      -9.431   3.322  70.184  1.00  0.00    -0.233 C  
BRANCH   7   9
HETATM    9  N   UNL     1      -8.555   5.663  69.875  1.00  0.00    -0.123 NA 
HETATM   10  P   UNL     1      -9.341   6.639  68.734  1.00  0.00    -0.128 P  
HETATM   11  H   UNL     1      -7.820   5.116  69.427  1.00  0.00     0.000 HD 
HETATM   12  O   UNL     1      -8.153   7.557  68.026  1.00  0.00    -0.120 OA 
HETATM   13  O   UNL     1      -9.504   7.846  69.962  1.00  0.00    -0.157 OA 
HETATM   14  O   UNL     1      -9.195   5.557  67.635  1.00  0.00    -0.111 OA 
BRANCH  13  15
HETATM   15  C   UNL     1     -10.724   7.991  70.570  1.00  0.00    -0.229 A  
HETATM   16  C   UNL     1     -13.110   8.410  71.945  1.00  0.00    -0.383 A  
HETATM   17  C   UNL     1     -11.003   9.244  71.111  1.00  0.00    -0.409 A  
HETATM   18  C   UNL     1     -11.649   6.953  70.682  1.00  0.00    -0.402 A  
HETATM   19  C   UNL     1     -12.195   9.453  71.804  1.00  0.00    -0.465 A  
HETATM   20  C   UNL     1     -12.842   7.165  71.377  1.00  0.00    -0.431 A  
ENDBRANCH  13  15
BRANCH  12  21
HETATM   21  C   UNL     1      -8.421   8.015  66.687  1.00  0.00    -0.133 C  
BRANCH  21  22
HETATM   22  C   UNL     1      -8.022   9.476  66.316  1.00  0.00    -0.107 C  
HETATM   23  O   UNL     1      -9.179  10.210  65.856  1.00  0.00    -0.149 OA 
HETATM   24  C   UNL     1      -8.052  11.717  67.274  1.00  0.00    -0.160 C  
HETATM   25  H   UNL     1      -5.636  10.951  68.131  1.00  0.00     0.000 HD 
HETATM   26  C   UNL     1      -7.424  10.326  67.462  1.00  0.00    -0.090 C  
HETATM   27  O   UNL     1      -6.004  10.429  67.427  1.00  0.00    -0.052 OA 
HETATM   28  F   UNL     1      -7.078  12.668  67.239  1.00  0.00    -0.131 F  
HETATM   29  C   UNL     1      -8.961  12.038  68.449  1.00  0.00    -0.153 C  
HETATM   30  C   UNL     1      -8.749  11.586  65.918  1.00  0.00    -0.058 C  
BRANCH  30  31
HETATM   31  N   UNL     1      -9.883  12.482  65.666  1.00  0.00    -0.248 N  
HETATM   32  C   UNL     1     -10.451  13.223  66.688  1.00  0.00    -0.279 C  
HETATM   33  C   UNL     1     -11.542  13.962  66.505  1.00  0.00    -0.385 C  
HETATM   34  C   UNL     1     -12.176  13.974  65.178  1.00  0.00    -0.436 C  
HETATM   35  O   UNL     1     -13.256  14.522  65.000  1.00  0.00    -0.469 OA 
HETATM   36  N   UNL     1     -11.488  13.331  64.192  1.00  0.00    -0.398 N  
HETATM   37  H   UNL     1     -11.820  13.459  63.235  1.00  0.00     0.000 HD 
HETATM   38  C   UNL     1     -10.390  12.528  64.371  1.00  0.00    -0.352 C  
HETATM   39  O   UNL     1      -9.935  11.890  63.429  1.00  0.00    -0.409 OA 
ENDBRANCH  30  31
ENDBRANCH  21  22
ENDBRANCH  12  21
ENDBRANCH   7   9
ENDBRANCH   5   7
ENDBRANCH   4   5
ENDBRANCH   2   4
TORSDOF 8
ENDMDL
MODEL       80
REMARK 921   NORMALIZED FREE ENERGY PREDICTED BY IDOCK:   -4.20 KCAL/MOL
REMARK 922        TOTAL FREE ENERGY PREDICTED BY IDOCK:   -8.71 KCAL/MOL
REMARK 923 INTER-LIGAND FREE ENERGY PREDICTED BY IDOCK:   -8.61 KCAL/MOL
REMARK 924 INTRA-LIGAND FREE ENERGY PREDICTED BY IDOCK:   -0.10 KCAL/MOL
REMARK 927      BINDING AFFINITY PREDICTED BY RF-SCORE:    0.00 PKD
ROOT
HETATM    1  C   UNL     1     -11.615   7.100  71.701  1.00  0.00    -0.309 C  
HETATM    2  C   UNL     1     -11.533   8.280  70.740  1.00  0.00    -0.252 C  
HETATM    3  C   UNL     1     -10.773   9.433  71.391  1.00  0.00    -0.407 C  
ENDROOT
BRANCH   2   4
HETATM    4  O   UNL     1     -10.813   7.892  69.552  1.00  0.00    -0.221 OA 
BRANCH   4   5
HETATM    5  C   UNL     1      -9.451   7.830  69.665  1.00  0.00    -0.156 C  
HETATM    6  O   UNL     1      -8.845   7.190  70.516  1.00  0.00    -0.151 OA 
BRANCH   5   7
HETATM    7  C   UNL     1      -8.795   8.621  68.531  1.00  0.00    -0.142 C  
HETATM    8  C   UNL     1      -7.643   9.434  69.122  1.00  0.00    -0.074 C  
BRANCH   7   9
HETATM    9  N   UNL     1      -9.801   9.452  67.824  1.00  0.00    -0.162 NA 
HETATM   10  P   UNL     1      -9.163  10.495  66.651  1.00  0.00    -0.162 P  
HETATM   11  H   UNL     1     -10.362   9.976  68.496  1.00  0.00     0.000 HD 
HETATM   12  O   UNL     1     -10.464  11.276  65.980  1.00  0.00    -0.245 OA 
HETATM   13  O   UNL     1      -9.363   9.225  65.494  1.00  0.00    -0.227 OA 
HETATM   14  O   UNL     1      -8.982  11.632  67.687  1.00  0.00    -0.158 OA 
BRANCH  13  15
HETATM   15  C   UNL     1      -8.255   8.511  65.117  1.00  0.00    -0.152 A  
HETATM   16  C   UNL     1      -6.047   6.927  64.503  1.00  0.00    -0.036 A  
HETATM   17  C   UNL     1      -8.345   7.124  65.218  1.00  0.00    -0.101 A  
HETATM   18  C   UNL     1      -7.075   9.111  64.674  1.00  0.00    -0.090 A  
HETATM   19  C   UNL     1      -7.238   6.331  64.916  1.00  0.00    -0.067 A  
HETATM   20  C   UNL     1      -5.969   8.313  64.374  1.00  0.00    -0.064 A  
ENDBRANCH  13  15
BRANCH  12  21
HETATM   21  C   UNL     1     -10.200  12.575  65.415  1.00  0.00    -0.283 C  
BRANCH  21  22
HETATM   22  C   UNL     1     -10.851  13.819  66.093  1.00  0.00    -0.279 C  
HETATM   23  O   UNL     1     -11.515  13.433  67.316  1.00  0.00    -0.307 OA 
HETATM   24  C   UNL     1     -10.392  15.431  67.862  1.00  0.00    -0.247 C  
HETATM   25  H   UNL     1      -9.267  16.749  65.823  1.00  0.00     0.000 HD 
HETATM   26  C   UNL     1      -9.881  14.956  66.491  1.00  0.00    -0.266 C  
HETATM   27  O   UNL     1      -9.863  16.050  65.579  1.00  0.00    -0.411 OA 
HETATM   28  F   UNL     1     -10.576  16.780  67.850  1.00  0.00    -0.299 F  
HETATM   29  C   UNL     1      -9.360  15.121  68.935  1.00  0.00    -0.207 C  
HETATM   30  C   UNL     1     -11.724  14.689  67.995  1.00  0.00    -0.342 C  
BRANCH  30  31
HETATM   31  N   UNL     1     -12.218  14.454  69.356  1.00  0.00    -0.300 N  
HETATM   32  C   UNL     1     -12.698  15.493  70.133  1.00  0.00    -0.192 C  
HETATM   33  C   UNL     1     -13.055  15.321  71.404  1.00  0.00    -0.529 C  
HETATM   34  C   UNL     1     -12.914  13.986  72.005  1.00  0.00    -0.363 C  
HETATM   35  O   UNL     1     -13.093  13.813  73.204  1.00  0.00    -0.481 OA 
HETATM   36  N   UNL     1     -12.564  12.987  71.146  1.00  0.00    -0.353 N  
HETATM   37  H   UNL     1     -12.615  12.031  71.499  1.00  0.00     0.000 HD 
HETATM   38  C   UNL     1     -12.149  13.153  69.848  1.00  0.00    -0.287 C  
HETATM   39  O   UNL     1     -11.727  12.196  69.211  1.00  0.00    -0.289 OA 
ENDBRANCH  30  31
ENDBRANCH  21  22
ENDBRANCH  12  21
ENDBRANCH   7   9
ENDBRANCH   5   7
ENDBRANCH   4   5
ENDBRANCH   2   4
TORSDOF 8
ENDMDL
MODEL       81
REMARK 921   NORMALIZED FREE ENERGY PREDICTED BY IDOCK:   -4.20 KCAL/MOL
REMARK 922        TOTAL FREE ENERGY PREDICTED BY IDOCK:   -8.71 KCAL/MOL
REMARK 923 INTER-LIGAND FREE ENERGY PREDICTED BY IDOCK:   -7.88 KCAL/MOL
REMARK 924 INTRA-LIGAND FREE ENERGY PREDICTED BY IDOCK:   -0.83 KCAL/MOL
REMARK 927      BINDING AFFINITY PREDICTED BY RF-SCORE:    0.00 PKD
ROOT
HETATM    1  C   UNL     1      -8.413   5.651  72.218  1.00  0.00    -0.119 C  
HETATM    2  C   UNL     1      -8.764   6.484  73.444  1.00  0.00    -0.123 C  
HETATM    3  C   UNL     1      -7.706   6.290  74.528  1.00  0.00    -0.102 C  
ENDROOT
BRANCH   2   4
HETATM    4  O   UNL     1      -8.785   7.882  73.094  1.00  0.00    -0.172 OA 
BRANCH   4   5
HETATM    5  C   UNL     1      -7.570   8.463  72.855  1.00  0.00    -0.064 C  
HETATM    6  O   UNL     1      -6.792   8.847  73.719  1.00  0.00    -0.346 OA 
BRANCH   5   7
HETATM    7  C   UNL     1      -7.295   8.499  71.349  1.00  0.00    -0.095 C  
HETATM    8  C   UNL     1      -5.866   8.009  71.115  1.00  0.00    -0.034 C  
BRANCH   7   9
HETATM    9  N   UNL     1      -7.550   9.856  70.804  1.00  0.00    -0.382 NA 
HETATM   10  P   UNL     1      -8.359   9.882  69.315  1.00  0.00    -0.179 P  
HETATM   11  H   UNL     1      -6.678  10.382  70.743  1.00  0.00     0.000 HD 
HETATM   12  O   UNL     1      -8.562  11.485  68.936  1.00  0.00    -0.093 OA 
HETATM   13  O   UNL     1      -9.850   9.927  70.189  1.00  0.00    -0.247 OA 
HETATM   14  O   UNL     1      -7.023   9.840  68.532  1.00  0.00    -0.063 OA 
BRANCH  13  15
HETATM   15  C   UNL     1     -10.577   8.768  70.291  1.00  0.00    -0.216 A  
HETATM   16  C   UNL     1     -12.020   6.422  70.704  1.00  0.00    -0.240 A  
HETATM   17  C   UNL     1     -11.376   8.634  71.425  1.00  0.00    -0.350 A  
HETATM   18  C   UNL     1     -10.523   7.748  69.342  1.00  0.00    -0.221 A  
HETATM   19  C   UNL     1     -12.094   7.457  71.635  1.00  0.00    -0.349 A  
HETATM   20  C   UNL     1     -11.243   6.570  69.555  1.00  0.00    -0.434 A  
ENDBRANCH  13  15
BRANCH  12  21
HETATM   21  C   UNL     1      -8.673  11.794  67.534  1.00  0.00    -0.159 C  
BRANCH  21  22
HETATM   22  C   UNL     1      -7.982  13.090  67.009  1.00  0.00    -0.004 C  
HETATM   23  O   UNL     1      -8.859  14.226  67.170  1.00  0.00    -0.208 OA 
HETATM   24  C   UNL     1      -6.745  15.014  67.851  1.00  0.00    -0.156 C  
HETATM   25  H   UNL     1      -4.678  13.371  67.422  1.00  0.00     0.000 HD 
HETATM   26  C   UNL     1      -6.662  13.485  67.714  1.00  0.00    -0.168 C  
HETATM   27  O   UNL     1      -5.488  13.129  66.990  1.00  0.00    -0.292 OA 
HETATM   28  F   UNL     1      -5.622  15.590  67.341  1.00  0.00    -0.139 F  
HETATM   29  C   UNL     1      -6.829  15.399  69.319  1.00  0.00    -0.157 C  
HETATM   30  C   UNL     1      -7.976  15.357  67.008  1.00  0.00    -0.224 C  
BRANCH  30  31
HETATM   31  N   UNL     1      -8.680  16.600  67.339  1.00  0.00    -0.189 N  
HETATM   32  C   UNL     1      -9.579  16.657  68.389  1.00  0.00    -0.233 C  
HETATM   33  C   UNL     1     -10.306  17.743  68.642  1.00  0.00    -0.351 C  
HETATM   34  C   UNL     1     -10.162  18.913  67.763  1.00  0.00    -0.393 C  
HETATM   35  O   UNL     1     -10.908  19.877  67.870  1.00  0.00    -0.286 OA 
HETATM   36  N   UNL     1      -9.166  18.833  66.836  1.00  0.00    -0.297 N  
HETATM   37  H   UNL     1      -8.939  19.686  66.323  1.00  0.00     0.000 HD 
HETATM   38  C   UNL     1      -8.441  17.708  66.531  1.00  0.00    -0.264 C  
HETATM   39  O   UNL     1      -7.664  17.716  65.583  1.00  0.00    -0.527 OA 
ENDBRANCH  30  31
ENDBRANCH  21  22
ENDBRANCH  12  21
ENDBRANCH   7   9
ENDBRANCH   5   7
ENDBRANCH   4   5
ENDBRANCH   2   4
TORSDOF 8
ENDMDL
MODEL       82
REMARK 921   NORMALIZED FREE ENERGY PREDICTED BY IDOCK:   -4.18 KCAL/MOL
REMARK 922        TOTAL FREE ENERGY PREDICTED BY IDOCK:   -8.68 KCAL/MOL
REMARK 923 INTER-LIGAND FREE ENERGY PREDICTED BY IDOCK:   -7.98 KCAL/MOL
REMARK 924 INTRA-LIGAND FREE ENERGY PREDICTED BY IDOCK:   -0.70 KCAL/MOL
REMARK 927      BINDING AFFINITY PREDICTED BY RF-SCORE:    0.00 PKD
ROOT
HETATM    1  C   UNL     1     -12.393  14.335  64.086  1.00  0.00    -0.361 C  
HETATM    2  C   UNL     1     -12.562  12.933  64.659  1.00  0.00    -0.391 C  
HETATM    3  C   UNL     1     -12.719  11.921  63.526  1.00  0.00    -0.530 C  
ENDROOT
BRANCH   2   4
HETATM    4  O   UNL     1     -11.390  12.570  65.415  1.00  0.00    -0.303 OA 
BRANCH   4   5
HETATM    5  C   UNL     1     -10.341  12.063  64.698  1.00  0.00    -0.287 C  
HETATM    6  O   UNL     1      -9.973  12.475  63.605  1.00  0.00    -0.355 OA 
BRANCH   5   7
HETATM    7  C   UNL     1      -9.654  10.949  65.492  1.00  0.00    -0.221 C  
HETATM    8  C   UNL     1      -9.357   9.796  64.534  1.00  0.00    -0.298 C  
BRANCH   7   9
HETATM    9  N   UNL     1     -10.482  10.551  66.657  1.00  0.00    -0.242 NA 
HETATM   10  P   UNL     1      -9.663  10.549  68.141  1.00  0.00    -0.163 P  
HETATM   11  H   UNL     1     -10.914   9.642  66.490  1.00  0.00     0.000 HD 
HETATM   12  O   UNL     1     -10.790  10.117  69.281  1.00  0.00    -0.212 OA 
HETATM   13  O   UNL     1     -10.136  12.200  68.340  1.00  0.00    -0.206 OA 
HETATM   14  O   UNL     1      -9.240   9.070  67.962  1.00  0.00    -0.135 OA 
BRANCH  13  15
HETATM   15  C   UNL     1      -9.202  13.175  68.100  1.00  0.00    -0.215 A  
HETATM   16  C   UNL     1      -7.441  15.242  67.481  1.00  0.00    -0.216 A  
HETATM   17  C   UNL     1      -9.689  14.465  67.895  1.00  0.00    -0.223 A  
HETATM   18  C   UNL     1      -7.832  12.920  68.033  1.00  0.00    -0.149 A  
HETATM   19  C   UNL     1      -8.808  15.499  67.580  1.00  0.00    -0.191 A  
HETATM   20  C   UNL     1      -6.953  13.957  67.716  1.00  0.00    -0.181 A  
ENDBRANCH  13  15
BRANCH  12  21
HETATM   21  C   UNL     1     -10.277   9.486  70.470  1.00  0.00    -0.287 C  
BRANCH  21  22
HETATM   22  C   UNL     1     -10.648   7.994  70.730  1.00  0.00    -0.214 C  
HETATM   23  O   UNL     1      -9.452   7.205  70.914  1.00  0.00    -0.160 OA 
HETATM   24  C   UNL     1     -10.925   6.439  72.586  1.00  0.00    -0.253 C  
HETATM   25  H   UNL     1     -13.434   7.359  72.462  1.00  0.00     0.000 HD 
HETATM   26  C   UNL     1     -11.518   7.722  71.981  1.00  0.00    -0.289 C  
HETATM   27  O   UNL     1     -12.900   7.526  71.695  1.00  0.00    -0.336 OA 
HETATM   28  F   UNL     1     -11.908   5.517  72.782  1.00  0.00    -0.342 F  
HETATM   29  C   UNL     1     -10.309   6.743  73.942  1.00  0.00    -0.397 C  
HETATM   30  C   UNL     1      -9.944   5.983  71.504  1.00  0.00    -0.177 C  
BRANCH  30  31
HETATM   31  N   UNL     1      -8.823   5.142  71.937  1.00  0.00    -0.133 N  
HETATM   32  C   UNL     1      -7.581   5.688  72.207  1.00  0.00    -0.101 C  
HETATM   33  C   UNL     1      -6.523   4.935  72.500  1.00  0.00    -0.046 C  
HETATM   34  C   UNL     1      -6.678   3.473  72.517  1.00  0.00    -0.029 C  
HETATM   35  O   UNL     1      -5.707   2.737  72.640  1.00  0.00    -0.007 OA 
HETATM   36  N   UNL     1      -7.954   3.014  72.375  1.00  0.00    -0.058 N  
HETATM   37  H   UNL     1      -8.112   2.020  72.541  1.00  0.00     0.000 HD 
HETATM   38  C   UNL     1      -9.045   3.770  72.026  1.00  0.00    -0.116 C  
HETATM   39  O   UNL     1     -10.118   3.229  71.792  1.00  0.00    -0.154 OA 
ENDBRANCH  30  31
ENDBRANCH  21  22
ENDBRANCH  12  21
ENDBRANCH   7   9
ENDBRANCH   5   7
ENDBRANCH   4   5
ENDBRANCH   2   4
TORSDOF 8
ENDMDL
MODEL       83
REMARK 921   NORMALIZED FREE ENERGY PREDICTED BY IDOCK:   -4.11 KCAL/MOL
REMARK 922        TOTAL FREE ENERGY PREDICTED BY IDOCK:   -8.58 KCAL/MOL
REMARK 923 INTER-LIGAND FREE ENERGY PREDICTED BY IDOCK:   -6.29 KCAL/MOL
REMARK 924 INTRA-LIGAND FREE ENERGY PREDICTED BY IDOCK:   -2.29 KCAL/MOL
REMARK 927      BINDING AFFINITY PREDICTED BY RF-SCORE:    0.00 PKD
ROOT
HETATM    1  C   UNL     1      -6.429   5.485  63.528  1.00  0.00    -0.026 C  
HETATM    2  C   UNL     1      -7.935   5.710  63.476  1.00  0.00    -0.108 C  
HETATM    3  C   UNL     1      -8.271   6.760  62.419  1.00  0.00    -0.049 C  
ENDROOT
BRANCH   2   4
HETATM    4  O   UNL     1      -8.599   4.485  63.108  1.00  0.00    -0.102 OA 
BRANCH   4   5
HETATM    5  C   UNL     1      -9.388   3.915  64.069  1.00  0.00    -0.149 C  
HETATM    6  O   UNL     1     -10.612   3.957  64.091  1.00  0.00    -0.257 OA 
BRANCH   5   7
HETATM    7  C   UNL     1      -8.520   3.155  65.076  1.00  0.00    -0.096 C  
HETATM    8  C   UNL     1      -7.888   1.964  64.356  1.00  0.00    -0.069 C  
BRANCH   7   9
HETATM    9  N   UNL     1      -9.318   2.770  66.266  1.00  0.00    -0.353 NA 
HETATM   10  P   UNL     1      -8.747   3.394  67.735  1.00  0.00    -0.137 P  
HETATM   11  H   UNL     1      -9.402   1.754  66.322  1.00  0.00     0.000 HD 
HETATM   12  O   UNL     1      -9.809   2.867  68.896  1.00  0.00     0.058 OA 
HETATM   13  O   UNL     1      -9.757   4.774  67.476  1.00  0.00    -0.156 OA 
HETATM   14  O   UNL     1      -7.842   2.158  67.966  1.00  0.00    -0.058 OA 
BRANCH  13  15
HETATM   15  C   UNL     1      -9.171   5.931  67.033  1.00  0.00    -0.119 A  
HETATM   16  C   UNL     1      -7.849   8.268  66.292  1.00  0.00    -0.098 A  
HETATM   17  C   UNL     1      -7.787   6.020  67.171  1.00  0.00    -0.102 A  
HETATM   18  C   UNL     1      -9.895   6.994  66.491  1.00  0.00    -0.175 A  
HETATM   19  C   UNL     1      -7.125   7.192  66.805  1.00  0.00    -0.078 A  
HETATM   20  C   UNL     1      -9.229   8.166  66.127  1.00  0.00    -0.230 A  
ENDBRANCH  13  15
BRANCH  12  21
HETATM   21  C   UNL     1      -9.279   2.746  70.230  1.00  0.00    -0.137 C  
BRANCH  21  22
HETATM   22  C   UNL     1      -8.978   4.053  71.024  1.00  0.00    -0.107 C  
HETATM   23  O   UNL     1     -10.004   5.039  70.774  1.00  0.00    -0.192 OA 
HETATM   24  C   UNL     1      -9.619   5.167  73.095  1.00  0.00    -0.141 C  
HETATM   25  H   UNL     1      -7.544   3.759  74.029  1.00  0.00     0.000 HD 
HETATM   26  C   UNL     1      -8.911   3.910  72.563  1.00  0.00    -0.105 C  
HETATM   27  O   UNL     1      -7.586   3.847  73.083  1.00  0.00    -0.071 OA 
HETATM   28  F   UNL     1      -8.825   5.805  73.998  1.00  0.00    -0.122 F  
HETATM   29  C   UNL     1     -10.900   4.774  73.814  1.00  0.00    -0.379 C  
HETATM   30  C   UNL     1      -9.805   6.005  71.829  1.00  0.00    -0.165 C  
BRANCH  30  31
HETATM   31  N   UNL     1     -10.900   6.981  71.834  1.00  0.00    -0.222 N  
HETATM   32  C   UNL     1     -12.205   6.594  71.585  1.00  0.00    -0.352 C  
HETATM   33  C   UNL     1     -13.198   7.475  71.483  1.00  0.00    -0.404 C  
HETATM   34  C   UNL     1     -12.892   8.907  71.619  1.00  0.00    -0.349 C  
HETATM   35  O   UNL     1     -13.742   9.758  71.391  1.00  0.00    -0.299 OA 
HETATM   36  N   UNL     1     -11.615   9.203  71.994  1.00  0.00    -0.349 N  
HETATM   37  H   UNL     1     -11.419  10.171  72.250  1.00  0.00     0.000 HD 
HETATM   38  C   UNL     1     -10.571   8.315  72.059  1.00  0.00    -0.296 C  
HETATM   39  O   UNL     1      -9.435   8.717  72.276  1.00  0.00    -0.293 OA 
ENDBRANCH  30  31
ENDBRANCH  21  22
ENDBRANCH  12  21
ENDBRANCH   7   9
ENDBRANCH   5   7
ENDBRANCH   4   5
ENDBRANCH   2   4
TORSDOF 8
ENDMDL
MODEL       84
REMARK 921   NORMALIZED FREE ENERGY PREDICTED BY IDOCK:   -4.11 KCAL/MOL
REMARK 922        TOTAL FREE ENERGY PREDICTED BY IDOCK:   -8.58 KCAL/MOL
REMARK 923 INTER-LIGAND FREE ENERGY PREDICTED BY IDOCK:   -6.94 KCAL/MOL
REMARK 924 INTRA-LIGAND FREE ENERGY PREDICTED BY IDOCK:   -1.64 KCAL/MOL
REMARK 927      BINDING AFFINITY PREDICTED BY RF-SCORE:    0.00 PKD
ROOT
HETATM    1  C   UNL     1     -11.795  15.588  69.451  1.00  0.00    -0.392 C  
HETATM    2  C   UNL     1     -11.938  15.518  67.935  1.00  0.00     0.138 C  
HETATM    3  C   UNL     1     -10.839  16.341  67.267  1.00  0.00    -0.216 C  
ENDROOT
BRANCH   2   4
HETATM    4  O   UNL     1     -11.797  14.153  67.494  1.00  0.00    -0.366 OA 
BRANCH   4   5
HETATM    5  C   UNL     1     -11.896  13.941  66.146  1.00  0.00    -0.400 C  
HETATM    6  O   UNL     1     -12.816  14.333  65.439  1.00  0.00    -0.588 OA 
BRANCH   5   7
HETATM    7  C   UNL     1     -10.655  13.202  65.640  1.00  0.00    -0.277 C  
HETATM    8  C   UNL     1     -10.802  13.004  64.131  1.00  0.00    -0.433 C  
BRANCH   7   9
HETATM    9  N   UNL     1     -10.462  11.933  66.385  1.00  0.00    -0.217 NA 
HETATM   10  P   UNL     1      -8.846  11.544  66.717  1.00  0.00    -0.189 P  
HETATM   11  H   UNL     1     -10.919  11.163  65.897  1.00  0.00     0.000 HD 
HETATM   12  O   UNL     1      -8.888  10.127  67.580  1.00  0.00    -0.125 OA 
HETATM   13  O   UNL     1      -8.998  12.420  68.200  1.00  0.00    -0.187 OA 
HETATM   14  O   UNL     1      -8.710  10.760  65.388  1.00  0.00    -0.185 OA 
BRANCH  13  15
HETATM   15  C   UNL     1      -8.458  13.678  68.268  1.00  0.00    -0.170 A  
HETATM   16  C   UNL     1      -7.203  16.165  68.287  1.00  0.00    -0.136 A  
HETATM   17  C   UNL     1      -7.809  14.138  67.123  1.00  0.00    -0.063 A  
HETATM   18  C   UNL     1      -8.514  14.472  69.413  1.00  0.00     0.182 A  
HETATM   19  C   UNL     1      -7.176  15.381  67.134  1.00  0.00    -0.179 A  
HETATM   20  C   UNL     1      -7.878  15.716  69.421  1.00  0.00    -0.222 A  
ENDBRANCH  13  15
BRANCH  12  21
HETATM   21  C   UNL     1      -7.716   9.294  67.486  1.00  0.00    -0.092 C  
BRANCH  21  22
HETATM   22  C   UNL     1      -7.859   7.781  67.834  1.00  0.00    -0.127 C  
HETATM   23  O   UNL     1      -8.349   7.622  69.184  1.00  0.00    -0.128 OA 
HETATM   24  C   UNL     1      -9.564   6.042  67.927  1.00  0.00    -0.116 C  
HETATM   25  H   UNL     1      -8.786   5.698  65.391  1.00  0.00     0.000 HD 
HETATM   26  C   UNL     1      -8.832   6.971  66.945  1.00  0.00    -0.124 C  
HETATM   27  O   UNL     1      -8.188   6.196  65.937  1.00  0.00    -0.118 OA 
HETATM   28  F   UNL     1      -9.487   4.753  67.497  1.00  0.00    -0.128 F  
HETATM   29  C   UNL     1     -11.037   6.413  67.990  1.00  0.00    -0.365 C  
HETATM   30  C   UNL     1      -8.778   6.244  69.224  1.00  0.00    -0.124 C  
BRANCH  30  31
HETATM   31  N   UNL     1      -9.487   5.972  70.479  1.00  0.00    -0.166 N  
HETATM   32  C   UNL     1     -10.044   6.996  71.224  1.00  0.00    -0.190 C  
HETATM   33  C   UNL     1     -10.601   6.785  72.415  1.00  0.00    -0.242 C  
HETATM   34  C   UNL     1     -10.605   5.421  72.963  1.00  0.00    -0.235 C  
HETATM   35  O   UNL     1     -10.975   5.203  74.110  1.00  0.00    -0.285 OA 
HETATM   36  N   UNL     1     -10.162   4.446  72.119  1.00  0.00    -0.189 N  
HETATM   37  H   UNL     1     -10.303   3.478  72.412  1.00  0.00     0.000 HD 
HETATM   38  C   UNL     1      -9.544   4.649  70.911  1.00  0.00    -0.179 C  
HETATM   39  O   UNL     1      -9.064   3.703  70.300  1.00  0.00    -0.102 OA 
ENDBRANCH  30  31
ENDBRANCH  21  22
ENDBRANCH  12  21
ENDBRANCH   7   9
ENDBRANCH   5   7
ENDBRANCH   4   5
ENDBRANCH   2   4
TORSDOF 8
ENDMDL
MODEL       85
REMARK 921   NORMALIZED FREE ENERGY PREDICTED BY IDOCK:   -4.09 KCAL/MOL
REMARK 922        TOTAL FREE ENERGY PREDICTED BY IDOCK:   -8.55 KCAL/MOL
REMARK 923 INTER-LIGAND FREE ENERGY PREDICTED BY IDOCK:   -7.72 KCAL/MOL
REMARK 924 INTRA-LIGAND FREE ENERGY PREDICTED BY IDOCK:   -0.83 KCAL/MOL
REMARK 927      BINDING AFFINITY PREDICTED BY RF-SCORE:    0.00 PKD
ROOT
HETATM    1  C   UNL     1     -10.302   5.627  70.759  1.00  0.00    -0.310 C  
HETATM    2  C   UNL     1     -11.644   6.346  70.841  1.00  0.00    -0.331 C  
HETATM    3  C   UNL     1     -12.273   6.127  72.214  1.00  0.00    -0.175 C  
ENDROOT
BRANCH   2   4
HETATM    4  O   UNL     1     -11.448   7.764  70.667  1.00  0.00    -0.279 OA 
BRANCH   4   5
HETATM    5  C   UNL     1     -10.407   8.319  71.360  1.00  0.00    -0.213 C  
HETATM    6  O   UNL     1     -10.372   8.470  72.575  1.00  0.00    -0.315 OA 
BRANCH   5   7
HETATM    7  C   UNL     1      -9.263   8.659  70.402  1.00  0.00    -0.170 C  
HETATM    8  C   UNL     1      -7.952   8.602  71.186  1.00  0.00    -0.164 C  
BRANCH   7   9
HETATM    9  N   UNL     1      -9.502   9.970  69.748  1.00  0.00    -0.293 NA 
HETATM   10  P   UNL     1      -8.664  10.201  68.293  1.00  0.00    -0.126 P  
HETATM   11  H   UNL     1      -9.300  10.731  70.397  1.00  0.00     0.000 HD 
HETATM   12  O   UNL     1      -9.117  11.698  67.740  1.00  0.00    -0.164 OA 
HETATM   13  O   UNL     1     -10.021   9.515  67.468  1.00  0.00    -0.166 OA 
HETATM   14  O   UNL     1      -7.449  10.814  69.032  1.00  0.00    -0.098 OA 
BRANCH  13  15
HETATM   15  C   UNL     1      -9.928   8.217  67.037  1.00  0.00    -0.259 A  
HETATM   16  C   UNL     1      -9.648   5.652  65.988  1.00  0.00    -0.104 A  
HETATM   17  C   UNL     1      -8.780   7.879  66.323  1.00  0.00    -0.174 A  
HETATM   18  C   UNL     1     -10.924   7.266  67.261  1.00  0.00    -0.284 A  
HETATM   19  C   UNL     1      -8.642   6.597  65.793  1.00  0.00    -0.147 A  
HETATM   20  C   UNL     1     -10.783   5.982  66.728  1.00  0.00    -0.374 A  
ENDBRANCH  13  15
BRANCH  12  21
HETATM   21  C   UNL     1      -8.169  12.372  66.890  1.00  0.00    -0.089 C  
BRANCH  21  22
HETATM   22  C   UNL     1      -7.628  13.761  67.348  1.00  0.00    -0.137 C  
HETATM   23  O   UNL     1      -8.339  14.823  66.675  1.00  0.00    -0.156 OA 
HETATM   24  C   UNL     1      -8.172  15.551  68.910  1.00  0.00    -0.201 C  
HETATM   25  H   UNL     1      -6.628  14.076  70.521  1.00  0.00     0.000 HD 
HETATM   26  C   UNL     1      -7.756  14.072  68.858  1.00  0.00    -0.069 C  
HETATM   27  O   UNL     1      -6.550  13.885  69.593  1.00  0.00    -0.123 OA 
HETATM   28  F   UNL     1      -7.337  16.243  69.733  1.00  0.00    -0.211 F  
HETATM   29  C   UNL     1      -9.577  15.674  69.478  1.00  0.00    -0.279 C  
HETATM   30  C   UNL     1      -8.010  15.993  67.454  1.00  0.00    -0.159 C  
BRANCH  30  31
HETATM   31  N   UNL     1      -8.816  17.137  67.014  1.00  0.00    -0.222 N  
HETATM   32  C   UNL     1     -10.028  16.955  66.373  1.00  0.00    -0.309 C  
HETATM   33  C   UNL     1     -10.726  17.972  65.873  1.00  0.00    -0.124 C  
HETATM   34  C   UNL     1     -10.179  19.332  65.992  1.00  0.00    -0.435 C  
HETATM   35  O   UNL     1     -10.713  20.278  65.425  1.00  0.00    -0.271 OA 
HETATM   36  N   UNL     1      -9.052  19.450  66.750  1.00  0.00    -0.317 N  
HETATM   37  H   UNL     1      -8.744  20.395  66.980  1.00  0.00     0.000 HD 
HETATM   38  C   UNL     1      -8.296  18.410  67.231  1.00  0.00    -0.249 C  
HETATM   39  O   UNL     1      -7.227  18.633  67.785  1.00  0.00    -0.223 OA 
ENDBRANCH  30  31
ENDBRANCH  21  22
ENDBRANCH  12  21
ENDBRANCH   7   9
ENDBRANCH   5   7
ENDBRANCH   4   5
ENDBRANCH   2   4
TORSDOF 8
ENDMDL
MODEL       86
REMARK 921   NORMALIZED FREE ENERGY PREDICTED BY IDOCK:   -4.08 KCAL/MOL
REMARK 922        TOTAL FREE ENERGY PREDICTED BY IDOCK:   -8.55 KCAL/MOL
REMARK 923 INTER-LIGAND FREE ENERGY PREDICTED BY IDOCK:   -7.08 KCAL/MOL
REMARK 924 INTRA-LIGAND FREE ENERGY PREDICTED BY IDOCK:   -1.47 KCAL/MOL
REMARK 927      BINDING AFFINITY PREDICTED BY RF-SCORE:    0.00 PKD
ROOT
HETATM    1  C   UNL     1      -5.814  19.292  67.968  1.00  0.00    -0.215 C  
HETATM    2  C   UNL     1      -6.430  18.730  66.692  1.00  0.00    -0.189 C  
HETATM    3  C   UNL     1      -5.360  18.586  65.613  1.00  0.00    -0.202 C  
ENDROOT
BRANCH   2   4
HETATM    4  O   UNL     1      -6.975  17.420  66.950  1.00  0.00    -0.160 OA 
BRANCH   4   5
HETATM    5  C   UNL     1      -7.647  17.268  68.132  1.00  0.00    -0.211 C  
HETATM    6  O   UNL     1      -8.661  17.879  68.448  1.00  0.00    -0.280 OA 
BRANCH   5   7
HETATM    7  C   UNL     1      -6.987  16.172  68.972  1.00  0.00    -0.178 C  
HETATM    8  C   UNL     1      -5.926  16.825  69.857  1.00  0.00    -0.217 C  
BRANCH   7   9
HETATM    9  N   UNL     1      -6.448  15.098  68.100  1.00  0.00    -0.116 NA 
HETATM   10  P   UNL     1      -7.091  13.557  68.392  1.00  0.00    -0.134 P  
HETATM   11  H   UNL     1      -5.430  15.074  68.157  1.00  0.00     0.000 HD 
HETATM   12  O   UNL     1      -6.376  12.549  67.284  1.00  0.00    -0.156 OA 
HETATM   13  O   UNL     1      -8.323  13.914  67.232  1.00  0.00    -0.187 OA 
HETATM   14  O   UNL     1      -5.987  13.239  69.431  1.00  0.00    -0.088 OA 
BRANCH  13  15
HETATM   15  C   UNL     1      -9.568  14.257  67.694  1.00  0.00    -0.219 A  
HETATM   16  C   UNL     1     -12.085  15.125  68.513  1.00  0.00    -0.146 A  
HETATM   17  C   UNL     1     -10.418  14.883  66.783  1.00  0.00    -0.284 A  
HETATM   18  C   UNL     1      -9.985  14.030  69.006  1.00  0.00    -0.028 A  
HETATM   19  C   UNL     1     -11.675  15.322  67.194  1.00  0.00    -0.061 A  
HETATM   20  C   UNL     1     -11.245  14.472  69.414  1.00  0.00    -0.312 A  
ENDBRANCH  13  15
BRANCH  12  21
HETATM   21  C   UNL     1      -6.281  11.162  67.660  1.00  0.00    -0.053 C  
BRANCH  21  22
HETATM   22  C   UNL     1      -7.296  10.159  67.033  1.00  0.00    -0.091 C  
HETATM   23  O   UNL     1      -7.972   9.414  68.071  1.00  0.00    -0.092 OA 
HETATM   24  C   UNL     1      -9.677   9.976  66.545  1.00  0.00    -0.200 C  
HETATM   25  H   UNL     1      -8.886  11.086  64.243  1.00  0.00     0.000 HD 
HETATM   26  C   UNL     1      -8.422  10.783  66.174  1.00  0.00    -0.167 C  
HETATM   27  O   UNL     1      -8.194  10.703  64.770  1.00  0.00    -0.139 OA 
HETATM   28  F   UNL     1     -10.280   9.505  65.418  1.00  0.00    -0.363 F  
HETATM   29  C   UNL     1     -10.678  10.872  67.256  1.00  0.00    -0.317 C  
HETATM   30  C   UNL     1      -9.102   8.834  67.385  1.00  0.00    -0.133 C  
BRANCH  30  31
HETATM   31  N   UNL     1     -10.007   8.199  68.350  1.00  0.00    -0.184 N  
HETATM   32  C   UNL     1     -10.116   8.670  69.646  1.00  0.00    -0.201 C  
HETATM   33  C   UNL     1     -10.851   8.048  70.566  1.00  0.00    -0.241 C  
HETATM   34  C   UNL     1     -11.552   6.810  70.195  1.00  0.00    -0.341 C  
HETATM   35  O   UNL     1     -12.120   6.130  71.040  1.00  0.00    -0.091 OA 
HETATM   36  N   UNL     1     -11.507   6.481  68.873  1.00  0.00    -0.608 N  
HETATM   37  H   UNL     1     -12.113   5.721  68.562  1.00  0.00     0.000 HD 
HETATM   38  C   UNL     1     -10.719   7.082  67.923  1.00  0.00    -0.210 C  
HETATM   39  O   UNL     1     -10.657   6.615  66.792  1.00  0.00    -0.263 OA 
ENDBRANCH  30  31
ENDBRANCH  21  22
ENDBRANCH  12  21
ENDBRANCH   7   9
ENDBRANCH   5   7
ENDBRANCH   4   5
ENDBRANCH   2   4
TORSDOF 8
ENDMDL
MODEL       87
REMARK 921   NORMALIZED FREE ENERGY PREDICTED BY IDOCK:   -4.07 KCAL/MOL
REMARK 922        TOTAL FREE ENERGY PREDICTED BY IDOCK:   -8.53 KCAL/MOL
REMARK 923 INTER-LIGAND FREE ENERGY PREDICTED BY IDOCK:   -6.25 KCAL/MOL
REMARK 924 INTRA-LIGAND FREE ENERGY PREDICTED BY IDOCK:   -2.27 KCAL/MOL
REMARK 927      BINDING AFFINITY PREDICTED BY RF-SCORE:    0.00 PKD
ROOT
HETATM    1  C   UNL     1      -6.829   9.890  64.718  1.00  0.00    -0.129 C  
HETATM    2  C   UNL     1      -7.914   8.941  64.222  1.00  0.00    -0.146 C  
HETATM    3  C   UNL     1      -8.865   9.679  63.283  1.00  0.00    -0.254 C  
ENDROOT
BRANCH   2   4
HETATM    4  O   UNL     1      -7.315   7.859  63.481  1.00  0.00    -0.091 OA 
BRANCH   4   5
HETATM    5  C   UNL     1      -7.720   6.598  63.821  1.00  0.00    -0.111 C  
HETATM    6  O   UNL     1      -8.463   5.893  63.148  1.00  0.00    -0.055 OA 
BRANCH   5   7
HETATM    7  C   UNL     1      -7.056   6.169  65.131  1.00  0.00    -0.064 C  
HETATM    8  C   UNL     1      -5.591   5.844  64.838  1.00  0.00    -0.017 C  
BRANCH   7   9
HETATM    9  N   UNL     1      -7.798   5.042  65.749  1.00  0.00    -0.091 NA 
HETATM   10  P   UNL     1      -7.929   5.118  67.437  1.00  0.00    -0.099 P  
HETATM   11  H   UNL     1      -7.388   4.151  65.466  1.00  0.00     0.000 HD 
HETATM   12  O   UNL     1      -8.820   3.792  67.884  1.00  0.00    -0.099 OA 
HETATM   13  O   UNL     1      -9.400   6.003  67.226  1.00  0.00    -0.113 OA 
HETATM   14  O   UNL     1      -6.610   4.327  67.625  1.00  0.00    -0.044 OA 
BRANCH  13  15
HETATM   15  C   UNL     1      -9.371   7.361  67.407  1.00  0.00    -0.132 A  
HETATM   16  C   UNL     1      -9.391  10.141  67.582  1.00  0.00    -0.162 A  
HETATM   17  C   UNL     1     -10.417   8.086  66.839  1.00  0.00    -0.387 A  
HETATM   18  C   UNL     1      -8.351   8.018  68.095  1.00  0.00    -0.127 A  
HETATM   19  C   UNL     1     -10.425   9.478  66.921  1.00  0.00    -0.279 A  
HETATM   20  C   UNL     1      -8.361   9.412  68.176  1.00  0.00    -0.119 A  
ENDBRANCH  13  15
BRANCH  12  21
HETATM   21  C   UNL     1      -8.596   3.300  69.219  1.00  0.00    -0.067 C  
BRANCH  21  22
HETATM   22  C   UNL     1      -8.532   4.334  70.384  1.00  0.00    -0.073 C  
HETATM   23  O   UNL     1      -9.685   5.204  70.346  1.00  0.00    -0.172 OA 
HETATM   24  C   UNL     1      -9.423   4.673  72.627  1.00  0.00    -0.134 C  
HETATM   25  H   UNL     1      -7.199   3.339  73.283  1.00  0.00     0.000 HD 
HETATM   26  C   UNL     1      -8.509   3.742  71.813  1.00  0.00    -0.089 C  
HETATM   27  O   UNL     1      -7.213   3.703  72.404  1.00  0.00    -0.045 OA 
HETATM   28  F   UNL     1      -8.774   5.108  73.742  1.00  0.00    -0.115 F  
HETATM   29  C   UNL     1     -10.658   3.915  73.086  1.00  0.00    -0.267 C  
HETATM   30  C   UNL     1      -9.681   5.823  71.650  1.00  0.00    -0.161 C  
BRANCH  30  31
HETATM   31  N   UNL     1     -10.911   6.597  71.847  1.00  0.00    -0.236 N  
HETATM   32  C   UNL     1     -12.032   6.370  71.068  1.00  0.00    -0.201 C  
HETATM   33  C   UNL     1     -13.123   7.127  71.158  1.00  0.00    -0.294 C  
HETATM   34  C   UNL     1     -13.127   8.254  72.102  1.00  0.00    -0.287 C  
HETATM   35  O   UNL     1     -14.048   9.061  72.117  1.00  0.00    -0.425 OA 
HETATM   36  N   UNL     1     -12.045   8.335  72.927  1.00  0.00    -0.513 N  
HETATM   37  H   UNL     1     -12.094   9.006  73.694  1.00  0.00     0.000 HD 
HETATM   38  C   UNL     1     -10.895   7.594  72.818  1.00  0.00    -0.360 C  
HETATM   39  O   UNL     1      -9.931   7.846  73.531  1.00  0.00    -0.296 OA 
ENDBRANCH  30  31
ENDBRANCH  21  22
ENDBRANCH  12  21
ENDBRANCH   7   9
ENDBRANCH   5   7
ENDBRANCH   4   5
ENDBRANCH   2   4
TORSDOF 8
ENDMDL
MODEL       88
REMARK 921   NORMALIZED FREE ENERGY PREDICTED BY IDOCK:   -4.04 KCAL/MOL
REMARK 922        TOTAL FREE ENERGY PREDICTED BY IDOCK:   -8.48 KCAL/MOL
REMARK 923 INTER-LIGAND FREE ENERGY PREDICTED BY IDOCK:   -8.45 KCAL/MOL
REMARK 924 INTRA-LIGAND FREE ENERGY PREDICTED BY IDOCK:   -0.03 KCAL/MOL
REMARK 927      BINDING AFFINITY PREDICTED BY RF-SCORE:    0.00 PKD
ROOT
HETATM    1  C   UNL     1     -12.643  12.154  64.282  1.00  0.00    -0.432 C  
HETATM    2  C   UNL     1     -12.005  12.961  65.406  1.00  0.00    -0.426 C  
HETATM    3  C   UNL     1     -12.835  14.211  65.689  1.00  0.00    -0.402 C  
ENDROOT
BRANCH   2   4
HETATM    4  O   UNL     1     -11.969  12.173  66.613  1.00  0.00    -0.616 OA 
BRANCH   4   5
HETATM    5  C   UNL     1     -10.759  11.627  66.941  1.00  0.00    -0.257 C  
HETATM    6  O   UNL     1     -10.242  10.671  66.376  1.00  0.00    -0.221 OA 
BRANCH   5   7
HETATM    7  C   UNL     1     -10.112  12.430  68.073  1.00  0.00    -0.214 C  
HETATM    8  C   UNL     1      -8.595  12.314  67.933  1.00  0.00    -0.169 C  
BRANCH   7   9
HETATM    9  N   UNL     1     -10.619  11.974  69.392  1.00  0.00    -0.439 NA 
HETATM   10  P   UNL     1     -11.034  10.333  69.464  1.00  0.00    -0.282 P  
HETATM   11  H   UNL     1     -11.407  12.552  69.686  1.00  0.00     0.000 HD 
HETATM   12  O   UNL     1     -11.528  10.057  71.024  1.00  0.00    -0.348 OA 
HETATM   13  O   UNL     1      -9.408  10.001  69.948  1.00  0.00    -0.220 OA 
HETATM   14  O   UNL     1     -12.491  10.631  69.029  1.00  0.00    -0.311 OA 
BRANCH  13  15
HETATM   15  C   UNL     1      -8.543   9.494  69.013  1.00  0.00    -0.133 A  
HETATM   16  C   UNL     1      -6.899   8.288  67.115  1.00  0.00    -0.070 A  
HETATM   17  C   UNL     1      -9.096   8.657  68.045  1.00  0.00    -0.144 A  
HETATM   18  C   UNL     1      -7.174   9.761  69.015  1.00  0.00    -0.076 A  
HETATM   19  C   UNL     1      -8.272   8.049  67.098  1.00  0.00    -0.117 A  
HETATM   20  C   UNL     1      -6.352   9.149  68.066  1.00  0.00    -0.055 A  
ENDBRANCH  13  15
BRANCH  12  21
HETATM   21  C   UNL     1     -12.451   8.967  71.213  1.00  0.00    -0.272 C  
BRANCH  21  22
HETATM   22  C   UNL     1     -11.884   7.600  71.703  1.00  0.00    -0.291 C  
HETATM   23  O   UNL     1     -11.582   6.748  70.576  1.00  0.00    -0.332 OA 
HETATM   24  C   UNL     1      -9.745   6.476  72.026  1.00  0.00    -0.149 C  
HETATM   25  H   UNL     1      -9.973   7.597  74.445  1.00  0.00     0.000 HD 
HETATM   26  C   UNL     1     -10.578   7.667  72.530  1.00  0.00    -0.281 C  
HETATM   27  O   UNL     1     -10.775   7.556  73.937  1.00  0.00    -0.285 OA 
HETATM   28  F   UNL     1      -9.337   5.713  73.078  1.00  0.00    -0.140 F  
HETATM   29  C   UNL     1      -8.498   6.979  71.317  1.00  0.00    -0.118 C  
HETATM   30  C   UNL     1     -10.744   5.721  71.147  1.00  0.00    -0.261 C  
BRANCH  30  31
HETATM   31  N   UNL     1     -10.186   4.875  70.086  1.00  0.00    -0.262 N  
HETATM   32  C   UNL     1     -10.151   5.306  68.771  1.00  0.00    -0.177 C  
HETATM   33  C   UNL     1      -9.746   4.518  67.778  1.00  0.00    -0.199 C  
HETATM   34  C   UNL     1      -9.342   3.138  68.088  1.00  0.00    -0.191 C  
HETATM   35  O   UNL     1      -9.100   2.336  67.194  1.00  0.00    -0.140 OA 
HETATM   36  N   UNL     1      -9.275   2.828  69.413  1.00  0.00    -0.132 N  
HETATM   37  H   UNL     1      -8.848   1.935  69.660  1.00  0.00     0.000 HD 
HETATM   38  C   UNL     1      -9.732   3.609  70.445  1.00  0.00    -0.131 C  
HETATM   39  O   UNL     1      -9.746   3.171  71.588  1.00  0.00    -0.152 OA 
ENDBRANCH  30  31
ENDBRANCH  21  22
ENDBRANCH  12  21
ENDBRANCH   7   9
ENDBRANCH   5   7
ENDBRANCH   4   5
ENDBRANCH   2   4
TORSDOF 8
ENDMDL
MODEL       89
REMARK 921   NORMALIZED FREE ENERGY PREDICTED BY IDOCK:   -4.02 KCAL/MOL
REMARK 922        TOTAL FREE ENERGY PREDICTED BY IDOCK:   -8.45 KCAL/MOL
REMARK 923 INTER-LIGAND FREE ENERGY PREDICTED BY IDOCK:   -7.25 KCAL/MOL
REMARK 924 INTRA-LIGAND FREE ENERGY PREDICTED BY IDOCK:   -1.20 KCAL/MOL
REMARK 927      BINDING AFFINITY PREDICTED BY RF-SCORE:    0.00 PKD
ROOT
HETATM    1  C   UNL     1     -10.243  18.274  67.237  1.00  0.00    -0.387 C  
HETATM    2  C   UNL     1      -9.643  17.447  68.368  1.00  0.00    -0.292 C  
HETATM    3  C   UNL     1     -10.659  16.419  68.861  1.00  0.00    -0.307 C  
ENDROOT
BRANCH   2   4
HETATM    4  O   UNL     1      -8.488  16.729  67.887  1.00  0.00    -0.194 OA 
BRANCH   4   5
HETATM    5  C   UNL     1      -8.739  15.577  67.194  1.00  0.00    -0.211 C  
HETATM    6  O   UNL     1      -9.250  15.524  66.081  1.00  0.00    -0.303 OA 
BRANCH   5   7
HETATM    7  C   UNL     1      -8.226  14.369  67.981  1.00  0.00    -0.149 C  
HETATM    8  C   UNL     1      -7.117  14.848  68.918  1.00  0.00    -0.117 C  
BRANCH   7   9
HETATM    9  N   UNL     1      -7.794  13.290  67.059  1.00  0.00    -0.399 NA 
HETATM   10  P   UNL     1      -7.604  11.770  67.784  1.00  0.00    -0.151 P  
HETATM   11  H   UNL     1      -6.937  13.560  66.575  1.00  0.00     0.000 HD 
HETATM   12  O   UNL     1      -7.163  10.736  66.563  1.00  0.00    -0.124 OA 
HETATM   13  O   UNL     1      -9.264  11.451  67.418  1.00  0.00    -0.161 OA 
HETATM   14  O   UNL     1      -6.118  12.057  68.113  1.00  0.00    -0.050 OA 
BRANCH  13  15
HETATM   15  C   UNL     1     -10.182  11.553  68.430  1.00  0.00    -0.205 A  
HETATM   16  C   UNL     1     -12.073  11.553  70.476  1.00  0.00    -0.472 A  
HETATM   17  C   UNL     1     -10.209  10.508  69.353  1.00  0.00    -0.245 A  
HETATM   18  C   UNL     1     -11.075  12.618  68.547  1.00  0.00    -0.300 A  
HETATM   19  C   UNL     1     -11.159  10.505  70.373  1.00  0.00    -0.321 A  
HETATM   20  C   UNL     1     -12.026  12.611  69.570  1.00  0.00    -0.332 A  
ENDBRANCH  13  15
BRANCH  12  21
HETATM   21  C   UNL     1      -6.397   9.581  66.958  1.00  0.00    -0.066 C  
BRANCH  21  22
HETATM   22  C   UNL     1      -7.027   8.172  66.744  1.00  0.00    -0.073 C  
HETATM   23  O   UNL     1      -7.450   7.614  68.008  1.00  0.00    -0.099 OA 
HETATM   24  C   UNL     1      -9.216   7.122  66.527  1.00  0.00    -0.162 C  
HETATM   25  H   UNL     1      -8.774   7.653  63.942  1.00  0.00     0.000 HD 
HETATM   26  C   UNL     1      -8.276   8.121  65.832  1.00  0.00    -0.122 C  
HETATM   27  O   UNL     1      -8.007   7.685  64.503  1.00  0.00    -0.135 OA 
HETATM   28  F   UNL     1      -9.615   6.164  65.645  1.00  0.00    -0.072 F  
HETATM   29  C   UNL     1     -10.464   7.839  67.016  1.00  0.00    -0.419 C  
HETATM   30  C   UNL     1      -8.324   6.532  67.621  1.00  0.00    -0.121 C  
BRANCH  30  31
HETATM   31  N   UNL     1      -8.998   5.979  68.801  1.00  0.00    -0.119 N  
HETATM   32  C   UNL     1      -9.205   6.748  69.933  1.00  0.00    -0.147 C  
HETATM   33  C   UNL     1      -9.720   6.240  71.050  1.00  0.00    -0.196 C  
HETATM   34  C   UNL     1     -10.061   4.810  71.087  1.00  0.00    -0.191 C  
HETATM   35  O   UNL     1     -10.402   4.269  72.131  1.00  0.00    -0.181 OA 
HETATM   36  N   UNL     1      -9.957   4.149  69.899  1.00  0.00    -0.154 N  
HETATM   37  H   UNL     1     -10.337   3.203  69.858  1.00  0.00     0.000 HD 
HETATM   38  C   UNL     1      -9.385   4.643  68.753  1.00  0.00    -0.140 C  
HETATM   39  O   UNL     1      -9.222   3.912  67.784  1.00  0.00    -0.139 OA 
ENDBRANCH  30  31
ENDBRANCH  21  22
ENDBRANCH  12  21
ENDBRANCH   7   9
ENDBRANCH   5   7
ENDBRANCH   4   5
ENDBRANCH   2   4
TORSDOF 8
ENDMDL
MODEL       90
REMARK 921   NORMALIZED FREE ENERGY PREDICTED BY IDOCK:   -4.01 KCAL/MOL
REMARK 922        TOTAL FREE ENERGY PREDICTED BY IDOCK:   -8.44 KCAL/MOL
REMARK 923 INTER-LIGAND FREE ENERGY PREDICTED BY IDOCK:   -6.84 KCAL/MOL
REMARK 924 INTRA-LIGAND FREE ENERGY PREDICTED BY IDOCK:   -1.60 KCAL/MOL
REMARK 927      BINDING AFFINITY PREDICTED BY RF-SCORE:    0.00 PKD
ROOT
HETATM    1  C   UNL     1      -8.470  20.057  68.129  1.00  0.00    -0.217 C  
HETATM    2  C   UNL     1      -7.061  19.665  67.701  1.00  0.00    -0.240 C  
HETATM    3  C   UNL     1      -6.039  20.597  68.347  1.00  0.00    -0.373 C  
ENDROOT
BRANCH   2   4
HETATM    4  O   UNL     1      -6.774  18.322  68.140  1.00  0.00    -0.203 OA 
BRANCH   4   5
HETATM    5  C   UNL     1      -6.547  17.401  67.154  1.00  0.00    -0.163 C  
HETATM    6  O   UNL     1      -5.727  17.523  66.253  1.00  0.00    -0.186 OA 
BRANCH   5   7
HETATM    7  C   UNL     1      -7.418  16.164  67.384  1.00  0.00    -0.169 C  
HETATM    8  C   UNL     1      -8.196  16.364  68.684  1.00  0.00    -0.223 C  
BRANCH   7   9
HETATM    9  N   UNL     1      -6.590  14.933  67.376  1.00  0.00    -0.300 NA 
HETATM   10  P   UNL     1      -7.173  13.678  68.355  1.00  0.00    -0.133 P  
HETATM   11  H   UNL     1      -5.625  15.154  67.622  1.00  0.00     0.000 HD 
HETATM   12  O   UNL     1      -6.117  12.414  68.152  1.00  0.00    -0.055 OA 
HETATM   13  O   UNL     1      -8.073  13.109  66.993  1.00  0.00    -0.132 OA 
HETATM   14  O   UNL     1      -6.367  14.189  69.576  1.00  0.00    -0.107 OA 
BRANCH  13  15
HETATM   15  C   UNL     1      -9.418  13.375  66.947  1.00  0.00    -0.253 A  
HETATM   16  C   UNL     1     -12.175  13.762  66.993  1.00  0.00    -0.381 A  
HETATM   17  C   UNL     1     -10.119  13.237  68.144  1.00  0.00    -0.241 A  
HETATM   18  C   UNL     1     -10.084  13.742  65.778  1.00  0.00    -0.322 A  
HETATM   19  C   UNL     1     -11.501  13.425  68.166  1.00  0.00    -0.339 A  
HETATM   20  C   UNL     1     -11.468  13.928  65.803  1.00  0.00    -0.324 A  
ENDBRANCH  13  15
BRANCH  12  21
HETATM   21  C   UNL     1      -6.025  11.484  69.249  1.00  0.00    -0.065 C  
BRANCH  21  22
HETATM   22  C   UNL     1      -6.466  10.009  69.002  1.00  0.00    -0.044 C  
HETATM   23  O   UNL     1      -7.160   9.493  70.159  1.00  0.00    -0.070 OA 
HETATM   24  C   UNL     1      -8.433   8.741  68.324  1.00  0.00    -0.130 C  
HETATM   25  H   UNL     1      -7.374   9.151  65.902  1.00  0.00     0.000 HD 
HETATM   26  C   UNL     1      -7.425   9.781  67.809  1.00  0.00    -0.090 C  
HETATM   27  O   UNL     1      -6.785   9.292  66.635  1.00  0.00    -0.074 OA 
HETATM   28  F   UNL     1      -8.512   7.696  67.454  1.00  0.00    -0.117 F  
HETATM   29  C   UNL     1      -9.818   9.363  68.416  1.00  0.00    -0.177 C  
HETATM   30  C   UNL     1      -7.815   8.309  69.656  1.00  0.00    -0.102 C  
BRANCH  30  31
HETATM   31  N   UNL     1      -8.730   7.769  70.667  1.00  0.00    -0.138 N  
HETATM   32  C   UNL     1      -9.329   8.592  71.603  1.00  0.00    -0.241 C  
HETATM   33  C   UNL     1     -10.080   8.112  72.593  1.00  0.00    -0.379 C  
HETATM   34  C   UNL     1     -10.259   6.657  72.703  1.00  0.00    -0.186 C  
HETATM   35  O   UNL     1     -10.819   6.162  73.674  1.00  0.00    -0.245 OA 
HETATM   36  N   UNL     1      -9.753   5.921  71.673  1.00  0.00    -0.159 N  
HETATM   37  H   UNL     1     -10.000   4.931  71.644  1.00  0.00     0.000 HD 
HETATM   38  C   UNL     1      -8.940   6.392  70.674  1.00  0.00    -0.144 C  
HETATM   39  O   UNL     1      -8.431   5.614  69.877  1.00  0.00    -0.117 OA 
ENDBRANCH  30  31
ENDBRANCH  21  22
ENDBRANCH  12  21
ENDBRANCH   7   9
ENDBRANCH   5   7
ENDBRANCH   4   5
ENDBRANCH   2   4
TORSDOF 8
ENDMDL
MODEL       91
REMARK 921   NORMALIZED FREE ENERGY PREDICTED BY IDOCK:   -3.96 KCAL/MOL
REMARK 922        TOTAL FREE ENERGY PREDICTED BY IDOCK:   -8.36 KCAL/MOL
REMARK 923 INTER-LIGAND FREE ENERGY PREDICTED BY IDOCK:   -7.98 KCAL/MOL
REMARK 924 INTRA-LIGAND FREE ENERGY PREDICTED BY IDOCK:   -0.38 KCAL/MOL
REMARK 927      BINDING AFFINITY PREDICTED BY RF-SCORE:    0.00 PKD
ROOT
HETATM    1  C   UNL     1     -13.040  15.684  73.566  1.00  0.00    -0.638 C  
HETATM    2  C   UNL     1     -13.362  14.584  72.562  1.00  0.00    -0.472 C  
HETATM    3  C   UNL     1     -14.407  15.076  71.564  1.00  0.00    -0.651 C  
ENDROOT
BRANCH   2   4
HETATM    4  O   UNL     1     -12.175  14.235  71.823  1.00  0.00    -0.319 OA 
BRANCH   4   5
HETATM    5  C   UNL     1     -11.689  15.192  70.976  1.00  0.00    -0.340 C  
HETATM    6  O   UNL     1     -11.543  16.375  71.261  1.00  0.00    -0.414 OA 
BRANCH   5   7
HETATM    7  C   UNL     1     -11.289  14.557  69.642  1.00  0.00    -0.273 C  
HETATM    8  C   UNL     1     -12.524  14.518  68.744  1.00  0.00     0.103 C  
BRANCH   7   9
HETATM    9  N   UNL     1     -10.677  13.223  69.862  1.00  0.00    -0.048 NA 
HETATM   10  P   UNL     1     -11.322  11.980  68.907  1.00  0.00    -0.322 P  
HETATM   11  H   UNL     1     -10.723  12.971  70.849  1.00  0.00     0.000 HD 
HETATM   12  O   UNL     1     -10.463  10.615  69.297  1.00  0.00    -0.207 OA 
HETATM   13  O   UNL     1     -10.130  12.356  67.712  1.00  0.00    -0.195 OA 
HETATM   14  O   UNL     1     -12.391  11.645  69.977  1.00  0.00    -0.255 OA 
BRANCH  13  15
HETATM   15  C   UNL     1     -10.519  13.076  66.612  1.00  0.00    -0.264 A  
HETATM   16  C   UNL     1     -11.268  14.713  64.486  1.00  0.00    -0.290 A  
HETATM   17  C   UNL     1      -9.815  14.252  66.359  1.00  0.00    -0.309 A  
HETATM   18  C   UNL     1     -11.576  12.695  65.785  1.00  0.00    -0.431 A  
HETATM   19  C   UNL     1     -10.193  15.074  65.298  1.00  0.00    -0.409 A  
HETATM   20  C   UNL     1     -11.952  13.521  64.724  1.00  0.00    -0.424 A  
ENDBRANCH  13  15
BRANCH  12  21
HETATM   21  C   UNL     1     -11.145   9.361  69.100  1.00  0.00    -0.013 C  
BRANCH  21  22
HETATM   22  C   UNL     1     -10.338   8.044  69.313  1.00  0.00    -0.220 C  
HETATM   23  O   UNL     1     -10.040   7.426  68.041  1.00  0.00    -0.165 OA 
HETATM   24  C   UNL     1      -8.039   7.238  69.270  1.00  0.00    -0.124 C  
HETATM   25  H   UNL     1      -8.164   7.939  71.849  1.00  0.00     0.000 HD 
HETATM   26  C   UNL     1      -8.974   8.194  70.028  1.00  0.00    -0.143 C  
HETATM   27  O   UNL     1      -9.002   7.847  71.410  1.00  0.00    -0.129 OA 
HETATM   28  F   UNL     1      -7.415   6.403  70.146  1.00  0.00    -0.083 F  
HETATM   29  C   UNL     1      -6.960   8.032  68.551  1.00  0.00    -0.072 C  
HETATM   30  C   UNL     1      -9.007   6.472  68.366  1.00  0.00    -0.125 C  
BRANCH  30  31
HETATM   31  N   UNL     1      -8.450   5.892  67.139  1.00  0.00    -0.108 N  
HETATM   32  C   UNL     1      -8.608   6.518  65.915  1.00  0.00    -0.149 C  
HETATM   33  C   UNL     1      -8.203   5.961  64.776  1.00  0.00    -0.129 C  
HETATM   34  C   UNL     1      -7.586   4.627  64.821  1.00  0.00    -0.076 C  
HETATM   35  O   UNL     1      -7.329   4.016  63.791  1.00  0.00    -0.050 OA 
HETATM   36  N   UNL     1      -7.342   4.132  66.068  1.00  0.00    -0.078 N  
HETATM   37  H   UNL     1      -6.774   3.286  66.129  1.00  0.00     0.000 HD 
HETATM   38  C   UNL     1      -7.793   4.669  67.247  1.00  0.00    -0.090 C  
HETATM   39  O   UNL     1      -7.631   4.065  68.300  1.00  0.00    -0.065 OA 
ENDBRANCH  30  31
ENDBRANCH  21  22
ENDBRANCH  12  21
ENDBRANCH   7   9
ENDBRANCH   5   7
ENDBRANCH   4   5
ENDBRANCH   2   4
TORSDOF 8
ENDMDL
MODEL       92
REMARK 921   NORMALIZED FREE ENERGY PREDICTED BY IDOCK:   -3.89 KCAL/MOL
REMARK 922        TOTAL FREE ENERGY PREDICTED BY IDOCK:   -8.26 KCAL/MOL
REMARK 923 INTER-LIGAND FREE ENERGY PREDICTED BY IDOCK:   -7.96 KCAL/MOL
REMARK 924 INTRA-LIGAND FREE ENERGY PREDICTED BY IDOCK:   -0.31 KCAL/MOL
REMARK 927      BINDING AFFINITY PREDICTED BY RF-SCORE:    0.00 PKD
ROOT
HETATM    1  C   UNL     1      -9.713   4.434  68.936  1.00  0.00    -0.211 C  
HETATM    2  C   UNL     1      -9.796   5.687  69.799  1.00  0.00    -0.185 C  
HETATM    3  C   UNL     1      -8.394   6.217  70.090  1.00  0.00    -0.128 C  
ENDROOT
BRANCH   2   4
HETATM    4  O   UNL     1     -10.519   6.717  69.095  1.00  0.00    -0.193 OA 
BRANCH   4   5
HETATM    5  C   UNL     1     -11.407   7.446  69.838  1.00  0.00    -0.076 C  
HETATM    6  O   UNL     1     -12.386   6.987  70.414  1.00  0.00    -0.208 OA 
BRANCH   5   7
HETATM    7  C   UNL     1     -10.958   8.909  69.902  1.00  0.00    -0.182 C  
HETATM    8  C   UNL     1     -11.364   9.471  71.264  1.00  0.00    -0.446 C  
BRANCH   7   9
HETATM    9  N   UNL     1     -11.511   9.675  68.758  1.00  0.00    -0.434 NA 
HETATM   10  P   UNL     1     -10.981  11.281  68.657  1.00  0.00    -0.265 P  
HETATM   11  H   UNL     1     -12.531   9.639  68.769  1.00  0.00     0.000 HD 
HETATM   12  O   UNL     1     -11.692  11.910  67.296  1.00  0.00    -0.518 OA 
HETATM   13  O   UNL     1      -9.666  10.726  67.680  1.00  0.00    -0.163 OA 
HETATM   14  O   UNL     1     -12.157  11.778  69.533  1.00  0.00    -0.295 OA 
BRANCH  13  15
HETATM   15  C   UNL     1      -8.431  10.607  68.262  1.00  0.00    -0.127 A  
HETATM   16  C   UNL     1      -5.878  10.556  69.374  1.00  0.00    -0.038 A  
HETATM   17  C   UNL     1      -7.891  11.766  68.817  1.00  0.00    -0.076 A  
HETATM   18  C   UNL     1      -7.714   9.411  68.293  1.00  0.00    -0.083 A  
HETATM   19  C   UNL     1      -6.611  11.742  69.369  1.00  0.00    -0.113 A  
HETATM   20  C   UNL     1      -6.431   9.391  68.846  1.00  0.00    -0.047 A  
ENDBRANCH  13  15
BRANCH  12  21
HETATM   21  C   UNL     1     -11.892  13.337  67.288  1.00  0.00    -0.372 C  
BRANCH  21  22
HETATM   22  C   UNL     1     -11.077  14.200  68.299  1.00  0.00    -0.254 C  
HETATM   23  O   UNL     1      -9.844  14.650  67.694  1.00  0.00    -0.216 OA 
HETATM   24  C   UNL     1     -10.660  16.539  68.842  1.00  0.00    -0.326 C  
HETATM   25  H   UNL     1     -12.778  16.136  70.426  1.00  0.00     0.000 HD 
HETATM   26  C   UNL     1     -11.775  15.481  68.812  1.00  0.00    -0.357 C  
HETATM   27  O   UNL     1     -12.349  15.349  70.110  1.00  0.00    -0.356 OA 
HETATM   28  F   UNL     1     -10.609  17.130  70.067  1.00  0.00    -0.227 F  
HETATM   29  C   UNL     1     -10.952  17.628  67.822  1.00  0.00    -0.111 C  
HETATM   30  C   UNL     1      -9.405  15.706  68.574  1.00  0.00    -0.197 C  
BRANCH  30  31
HETATM   31  N   UNL     1      -8.256  16.406  67.990  1.00  0.00    -0.166 N  
HETATM   32  C   UNL     1      -7.333  17.058  68.789  1.00  0.00    -0.236 C  
HETATM   33  C   UNL     1      -6.342  17.786  68.278  1.00  0.00    -0.188 C  
HETATM   34  C   UNL     1      -6.239  17.916  66.817  1.00  0.00    -0.168 C  
HETATM   35  O   UNL     1      -5.436  18.687  66.308  1.00  0.00    -0.142 OA 
HETATM   36  N   UNL     1      -7.098  17.142  66.095  1.00  0.00    -0.246 N  
HETATM   37  H   UNL     1      -6.943  17.091  65.087  1.00  0.00     0.000 HD 
HETATM   38  C   UNL     1      -8.152  16.424  66.602  1.00  0.00    -0.286 C  
HETATM   39  O   UNL     1      -8.941  15.873  65.844  1.00  0.00    -0.323 OA 
ENDBRANCH  30  31
ENDBRANCH  21  22
ENDBRANCH  12  21
ENDBRANCH   7   9
ENDBRANCH   5   7
ENDBRANCH   4   5
ENDBRANCH   2   4
TORSDOF 8
ENDMDL
MODEL       93
REMARK 921   NORMALIZED FREE ENERGY PREDICTED BY IDOCK:   -3.89 KCAL/MOL
REMARK 922        TOTAL FREE ENERGY PREDICTED BY IDOCK:   -8.26 KCAL/MOL
REMARK 923 INTER-LIGAND FREE ENERGY PREDICTED BY IDOCK:   -7.62 KCAL/MOL
REMARK 924 INTRA-LIGAND FREE ENERGY PREDICTED BY IDOCK:   -0.63 KCAL/MOL
REMARK 927      BINDING AFFINITY PREDICTED BY RF-SCORE:    0.00 PKD
ROOT
HETATM    1  C   UNL     1     -11.150   5.333  72.928  1.00  0.00    -0.365 C  
HETATM    2  C   UNL     1     -10.150   4.626  72.023  1.00  0.00    -0.197 C  
HETATM    3  C   UNL     1     -10.186   3.121  72.278  1.00  0.00    -0.173 C  
ENDROOT
BRANCH   2   4
HETATM    4  O   UNL     1     -10.500   4.847  70.642  1.00  0.00    -0.202 OA 
BRANCH   4   5
HETATM    5  C   UNL     1      -9.559   4.490  69.716  1.00  0.00    -0.199 C  
HETATM    6  O   UNL     1      -9.442   3.372  69.228  1.00  0.00    -0.167 OA 
BRANCH   5   7
HETATM    7  C   UNL     1      -8.718   5.708  69.326  1.00  0.00    -0.108 C  
HETATM    8  C   UNL     1      -7.800   6.048  70.499  1.00  0.00    -0.102 C  
BRANCH   7   9
HETATM    9  N   UNL     1      -9.592   6.835  68.914  1.00  0.00    -0.138 NA 
HETATM   10  P   UNL     1      -8.847   7.983  67.915  1.00  0.00    -0.129 P  
HETATM   11  H   UNL     1      -9.994   7.288  69.735  1.00  0.00     0.000 HD 
HETATM   12  O   UNL     1     -10.016   9.105  67.561  1.00  0.00    -0.180 OA 
HETATM   13  O   UNL     1      -9.367   7.051  66.553  1.00  0.00    -0.160 OA 
HETATM   14  O   UNL     1      -8.380   8.816  69.134  1.00  0.00    -0.121 OA 
BRANCH  13  15
HETATM   15  C   UNL     1      -8.445   6.256  65.922  1.00  0.00    -0.146 A  
HETATM   16  C   UNL     1      -6.660   4.478  64.735  1.00  0.00    -0.044 A  
HETATM   17  C   UNL     1      -8.883   4.995  65.523  1.00  0.00    -0.146 A  
HETATM   18  C   UNL     1      -7.126   6.649  65.696  1.00  0.00    -0.061 A  
HETATM   19  C   UNL     1      -7.988   4.102  64.934  1.00  0.00    -0.093 A  
HETATM   20  C   UNL     1      -6.232   5.752  65.107  1.00  0.00    -0.036 A  
ENDBRANCH  13  15
BRANCH  12  21
HETATM   21  C   UNL     1      -9.547  10.430  67.245  1.00  0.00    -0.156 C  
BRANCH  21  22
HETATM   22  C   UNL     1     -10.099  11.625  68.080  1.00  0.00    -0.189 C  
HETATM   23  O   UNL     1      -9.432  12.851  67.704  1.00  0.00    -0.185 OA 
HETATM   24  C   UNL     1     -11.703  13.450  67.888  1.00  0.00    -0.361 C  
HETATM   25  H   UNL     1     -13.338  11.590  68.901  1.00  0.00     0.000 HD 
HETATM   26  C   UNL     1     -11.611  11.915  67.928  1.00  0.00    -0.323 C  
HETATM   27  O   UNL     1     -12.409  11.412  68.995  1.00  0.00    -0.407 OA 
HETATM   28  F   UNL     1     -12.606  13.887  68.809  1.00  0.00    -0.301 F  
HETATM   29  C   UNL     1     -12.190  13.904  66.522  1.00  0.00    -0.482 C  
HETATM   30  C   UNL     1     -10.281  13.878  68.257  1.00  0.00    -0.247 C  
BRANCH  30  31
HETATM   31  N   UNL     1      -9.845  15.199  67.793  1.00  0.00    -0.222 N  
HETATM   32  C   UNL     1      -9.087  15.341  66.645  1.00  0.00    -0.282 C  
HETATM   33  C   UNL     1      -8.593  16.516  66.262  1.00  0.00    -0.367 C  
HETATM   34  C   UNL     1      -8.847  17.698  67.099  1.00  0.00    -0.244 C  
HETATM   35  O   UNL     1      -8.296  18.766  66.864  1.00  0.00    -0.255 OA 
HETATM   36  N   UNL     1      -9.709  17.510  68.138  1.00  0.00    -0.289 N  
HETATM   37  H   UNL     1     -10.026  18.342  68.635  1.00  0.00     0.000 HD 
HETATM   38  C   UNL     1     -10.189  16.300  68.574  1.00  0.00    -0.247 C  
HETATM   39  O   UNL     1     -10.850  16.236  69.603  1.00  0.00    -0.303 OA 
ENDBRANCH  30  31
ENDBRANCH  21  22
ENDBRANCH  12  21
ENDBRANCH   7   9
ENDBRANCH   5   7
ENDBRANCH   4   5
ENDBRANCH   2   4
TORSDOF 8
ENDMDL
MODEL       94
REMARK 921   NORMALIZED FREE ENERGY PREDICTED BY IDOCK:   -3.88 KCAL/MOL
REMARK 922        TOTAL FREE ENERGY PREDICTED BY IDOCK:   -8.24 KCAL/MOL
REMARK 923 INTER-LIGAND FREE ENERGY PREDICTED BY IDOCK:   -6.97 KCAL/MOL
REMARK 924 INTRA-LIGAND FREE ENERGY PREDICTED BY IDOCK:   -1.28 KCAL/MOL
REMARK 927      BINDING AFFINITY PREDICTED BY RF-SCORE:    0.00 PKD
ROOT
HETATM    1  C   UNL     1     -13.601  13.157  72.119  1.00  0.00    -0.637 C  
HETATM    2  C   UNL     1     -12.778  13.481  70.879  1.00  0.00    -0.291 C  
HETATM    3  C   UNL     1     -11.962  14.751  71.109  1.00  0.00    -0.392 C  
ENDROOT
BRANCH   2   4
HETATM    4  O   UNL     1     -11.854  12.407  70.613  1.00  0.00    -0.219 OA 
BRANCH   4   5
HETATM    5  C   UNL     1     -11.885  11.883  69.349  1.00  0.00    -0.327 C  
HETATM    6  O   UNL     1     -12.111  12.522  68.329  1.00  0.00    -0.284 OA 
BRANCH   5   7
HETATM    7  C   UNL     1     -11.528  10.395  69.390  1.00  0.00    -0.227 C  
HETATM    8  C   UNL     1     -10.350  10.215  70.346  1.00  0.00    -0.178 C  
BRANCH   7   9
HETATM    9  N   UNL     1     -11.263   9.884  68.022  1.00  0.00    -0.521 NA 
HETATM   10  P   UNL     1      -9.797   9.051  67.848  1.00  0.00    -0.191 P  
HETATM   11  H   UNL     1     -11.321  10.644  67.343  1.00  0.00     0.000 HD 
HETATM   12  O   UNL     1      -9.744   8.549  66.267  1.00  0.00    -0.241 OA 
HETATM   13  O   UNL     1     -10.641   7.597  68.253  1.00  0.00    -0.190 OA 
HETATM   14  O   UNL     1      -9.042  10.354  67.487  1.00  0.00    -0.135 OA 
BRANCH  13  15
HETATM   15  C   UNL     1     -10.498   7.096  69.521  1.00  0.00    -0.225 A  
HETATM   16  C   UNL     1     -10.396   6.156  72.141  1.00  0.00    -0.227 A  
HETATM   17  C   UNL     1     -11.651   6.601  70.127  1.00  0.00    -0.446 A  
HETATM   18  C   UNL     1      -9.283   7.090  70.207  1.00  0.00    -0.156 A  
HETATM   19  C   UNL     1     -11.602   6.136  71.441  1.00  0.00    -0.283 A  
HETATM   20  C   UNL     1      -9.237   6.624  71.523  1.00  0.00    -0.146 A  
ENDBRANCH  13  15
BRANCH  12  21
HETATM   21  C   UNL     1      -8.431   8.353  65.709  1.00  0.00    -0.156 C  
BRANCH  21  22
HETATM   22  C   UNL     1      -7.905   6.892  65.562  1.00  0.00    -0.112 C  
HETATM   23  O   UNL     1      -8.102   6.162  66.793  1.00  0.00    -0.107 OA 
HETATM   24  C   UNL     1      -8.738   4.649  65.102  1.00  0.00    -0.140 C  
HETATM   25  H   UNL     1      -8.236   5.408  62.586  1.00  0.00     0.000 HD 
HETATM   26  C   UNL     1      -8.580   6.038  64.463  1.00  0.00     0.113 C  
HETATM   27  O   UNL     1      -7.822   5.932  63.262  1.00  0.00    -0.091 OA 
HETATM   28  F   UNL     1      -8.207   3.696  64.287  1.00  0.00    -0.087 F  
HETATM   29  C   UNL     1     -10.213   4.325  65.281  1.00  0.00    -0.234 C  
HETATM   30  C   UNL     1      -7.933   4.784  66.396  1.00  0.00    -0.103 C  
BRANCH  30  31
HETATM   31  N   UNL     1      -8.296   3.891  67.501  1.00  0.00    -0.094 N  
HETATM   32  C   UNL     1      -9.148   4.308  68.508  1.00  0.00    -0.128 C  
HETATM   33  C   UNL     1      -9.410   3.553  69.573  1.00  0.00    -0.243 C  
HETATM   34  C   UNL     1      -8.756   2.241  69.690  1.00  0.00    -0.068 C  
HETATM   35  O   UNL     1      -8.854   1.577  70.713  1.00  0.00    -0.051 OA 
HETATM   36  N   UNL     1      -8.039   1.842  68.601  1.00  0.00    -0.048 N  
HETATM   37  H   UNL     1      -7.710   0.876  68.590  1.00  0.00     0.000 HD 
HETATM   38  C   UNL     1      -7.721   2.623  67.519  1.00  0.00    -0.061 C  
HETATM   39  O   UNL     1      -6.955   2.202  66.661  1.00  0.00    -0.042 OA 
ENDBRANCH  30  31
ENDBRANCH  21  22
ENDBRANCH  12  21
ENDBRANCH   7   9
ENDBRANCH   5   7
ENDBRANCH   4   5
ENDBRANCH   2   4
TORSDOF 8
ENDMDL
MODEL       95
REMARK 921   NORMALIZED FREE ENERGY PREDICTED BY IDOCK:   -3.87 KCAL/MOL
REMARK 922        TOTAL FREE ENERGY PREDICTED BY IDOCK:   -8.23 KCAL/MOL
REMARK 923 INTER-LIGAND FREE ENERGY PREDICTED BY IDOCK:   -7.19 KCAL/MOL
REMARK 924 INTRA-LIGAND FREE ENERGY PREDICTED BY IDOCK:   -1.04 KCAL/MOL
REMARK 927      BINDING AFFINITY PREDICTED BY RF-SCORE:    0.00 PKD
ROOT
HETATM    1  C   UNL     1      -7.509   4.202  68.221  1.00  0.00    -0.063 C  
HETATM    2  C   UNL     1      -8.822   4.608  67.564  1.00  0.00    -0.105 C  
HETATM    3  C   UNL     1      -9.569   3.368  67.078  1.00  0.00    -0.117 C  
ENDROOT
BRANCH   2   4
HETATM    4  O   UNL     1      -9.661   5.279  68.524  1.00  0.00    -0.128 OA 
BRANCH   4   5
HETATM    5  C   UNL     1     -10.047   6.552  68.203  1.00  0.00    -0.155 C  
HETATM    6  O   UNL     1     -10.388   6.923  67.086  1.00  0.00    -0.209 OA 
BRANCH   5   7
HETATM    7  C   UNL     1     -10.057   7.428  69.458  1.00  0.00    -0.187 C  
HETATM    8  C   UNL     1      -9.880   6.520  70.674  1.00  0.00    -0.201 C  
BRANCH   7   9
HETATM    9  N   UNL     1     -11.291   8.251  69.510  1.00  0.00    -0.413 NA 
HETATM   10  P   UNL     1     -11.041   9.882  69.901  1.00  0.00    -0.264 P  
HETATM   11  H   UNL     1     -11.967   7.834  70.150  1.00  0.00     0.000 HD 
HETATM   12  O   UNL     1     -12.539  10.594  69.858  1.00  0.00    -0.277 OA 
HETATM   13  O   UNL     1     -10.871  10.202  68.210  1.00  0.00    -0.226 OA 
HETATM   14  O   UNL     1     -11.192   9.594  71.415  1.00  0.00    -0.365 OA 
BRANCH  13  15
HETATM   15  C   UNL     1      -9.607  10.377  67.707  1.00  0.00    -0.152 A  
HETATM   16  C   UNL     1      -7.084  10.586  66.545  1.00  0.00    -0.120 A  
HETATM   17  C   UNL     1      -9.467  10.263  66.325  1.00  0.00    -0.223 A  
HETATM   18  C   UNL     1      -8.495  10.632  68.510  1.00  0.00    -0.136 A  
HETATM   19  C   UNL     1      -8.203  10.361  65.744  1.00  0.00    -0.156 A  
HETATM   20  C   UNL     1      -7.231  10.730  67.924  1.00  0.00    -0.087 A  
ENDBRANCH  13  15
BRANCH  12  21
HETATM   21  C   UNL     1     -12.707  11.764  70.682  1.00  0.00    -0.107 C  
BRANCH  21  22
HETATM   22  C   UNL     1     -11.753  12.974  70.445  1.00  0.00    -0.035 C  
HETATM   23  O   UNL     1     -11.572  13.200  69.029  1.00  0.00    -0.271 OA 
HETATM   24  C   UNL     1     -11.855  15.356  69.937  1.00  0.00    -0.350 C  
HETATM   25  H   UNL     1     -11.894  15.519  72.607  1.00  0.00     0.000 HD 
HETATM   26  C   UNL     1     -12.225  14.330  71.021  1.00  0.00    -0.356 C  
HETATM   27  O   UNL     1     -11.604  14.686  72.253  1.00  0.00    -0.150 OA 
HETATM   28  F   UNL     1     -11.132  16.372  70.482  1.00  0.00    -0.341 F  
HETATM   29  C   UNL     1     -13.117  15.961  69.344  1.00  0.00     1.412 C  
HETATM   30  C   UNL     1     -11.006  14.526  68.971  1.00  0.00    -0.257 C  
BRANCH  30  31
HETATM   31  N   UNL     1     -10.941  14.988  67.580  1.00  0.00    -0.295 N  
HETATM   32  C   UNL     1     -10.139  16.055  67.217  1.00  0.00    -0.266 C  
HETATM   33  C   UNL     1     -10.142  16.557  65.984  1.00  0.00    -0.368 C  
HETATM   34  C   UNL     1     -11.044  15.969  64.982  1.00  0.00    -0.336 C  
HETATM   35  O   UNL     1     -11.186  16.486  63.881  1.00  0.00    -0.908 OA 
HETATM   36  N   UNL     1     -11.703  14.841  65.373  1.00  0.00    -0.324 N  
HETATM   37  H   UNL     1     -12.208  14.325  64.652  1.00  0.00     0.000 HD 
HETATM   38  C   UNL     1     -11.747  14.339  66.649  1.00  0.00    -0.400 C  
HETATM   39  O   UNL     1     -12.483  13.396  66.913  1.00  0.00    -0.254 OA 
ENDBRANCH  30  31
ENDBRANCH  21  22
ENDBRANCH  12  21
ENDBRANCH   7   9
ENDBRANCH   5   7
ENDBRANCH   4   5
ENDBRANCH   2   4
TORSDOF 8
ENDMDL
MODEL       96
REMARK 921   NORMALIZED FREE ENERGY PREDICTED BY IDOCK:   -3.87 KCAL/MOL
REMARK 922        TOTAL FREE ENERGY PREDICTED BY IDOCK:   -8.23 KCAL/MOL
REMARK 923 INTER-LIGAND FREE ENERGY PREDICTED BY IDOCK:   -8.75 KCAL/MOL
REMARK 924 INTRA-LIGAND FREE ENERGY PREDICTED BY IDOCK:    0.53 KCAL/MOL
REMARK 927      BINDING AFFINITY PREDICTED BY RF-SCORE:    0.00 PKD
ROOT
HETATM    1  C   UNL     1     -11.969  12.768  64.990  1.00  0.00    -0.456 C  
HETATM    2  C   UNL     1     -11.502  14.218  64.935  1.00  0.00    -0.378 C  
HETATM    3  C   UNL     1     -12.401  15.021  63.998  1.00  0.00    -0.051 C  
ENDROOT
BRANCH   2   4
HETATM    4  O   UNL     1     -11.591  14.809  66.246  1.00  0.00    -0.358 OA 
BRANCH   4   5
HETATM    5  C   UNL     1     -10.685  15.795  66.526  1.00  0.00    -0.283 C  
HETATM    6  O   UNL     1      -9.999  16.377  65.694  1.00  0.00    -0.469 OA 
BRANCH   5   7
HETATM    7  C   UNL     1     -10.704  16.115  68.023  1.00  0.00    -0.321 C  
HETATM    8  C   UNL     1     -10.172  17.534  68.214  1.00  0.00    -0.365 C  
BRANCH   7   9
HETATM    9  N   UNL     1      -9.945  15.092  68.784  1.00  0.00    -0.221 NA 
HETATM   10  P   UNL     1      -8.570  14.495  67.994  1.00  0.00    -0.184 P  
HETATM   11  H   UNL     1     -10.559  14.323  69.054  1.00  0.00     0.000 HD 
HETATM   12  O   UNL     1      -7.876  13.413  69.044  1.00  0.00     0.019 OA 
HETATM   13  O   UNL     1      -7.660  15.762  68.742  1.00  0.00    -0.150 OA 
HETATM   14  O   UNL     1      -9.385  13.361  67.324  1.00  0.00    -0.216 OA 
BRANCH  13  15
HETATM   15  C   UNL     1      -7.326  16.854  67.984  1.00  0.00    -0.171 A  
HETATM   16  C   UNL     1      -6.777  19.186  66.563  1.00  0.00    -0.206 A  
HETATM   17  C   UNL     1      -7.243  18.073  68.654  1.00  0.00    -0.276 A  
HETATM   18  C   UNL     1      -7.100  16.789  66.609  1.00  0.00    -0.275 A  
HETATM   19  C   UNL     1      -6.974  19.242  67.942  1.00  0.00    -0.265 A  
HETATM   20  C   UNL     1      -6.832  17.961  65.899  1.00  0.00    -0.315 A  
ENDBRANCH  13  15
BRANCH  12  21
HETATM   21  C   UNL     1      -7.083  12.370  68.445  1.00  0.00    -0.106 C  
BRANCH  21  22
HETATM   22  C   UNL     1      -7.550  10.893  68.628  1.00  0.00    -0.114 C  
HETATM   23  O   UNL     1      -8.709  10.837  69.489  1.00  0.00    -0.041 OA 
HETATM   24  C   UNL     1      -9.201   9.336  67.741  1.00  0.00    -0.129 C  
HETATM   25  H   UNL     1      -7.208   8.815  66.033  1.00  0.00     0.000 HD 
HETATM   26  C   UNL     1      -7.959  10.148  67.336  1.00  0.00    -0.110 C  
HETATM   27  O   UNL     1      -6.956   9.274  66.827  1.00  0.00    -0.079 OA 
HETATM   28  F   UNL     1      -9.037   8.029  67.397  1.00  0.00    -0.130 F  
HETATM   29  C   UNL     1     -10.422   9.853  66.997  1.00  0.00    -0.296 C  
HETATM   30  C   UNL     1      -9.232   9.511  69.260  1.00  0.00    -0.169 C  
BRANCH  30  31
HETATM   31  N   UNL     1     -10.534   9.360  69.919  1.00  0.00    -0.218 N  
HETATM   32  C   UNL     1     -11.324  10.459  70.203  1.00  0.00    -0.323 C  
HETATM   33  C   UNL     1     -12.459  10.358  70.891  1.00  0.00    -0.478 C  
HETATM   34  C   UNL     1     -12.874   9.035  71.382  1.00  0.00    -0.300 C  
HETATM   35  O   UNL     1     -13.830   8.914  72.138  1.00  0.00    -0.421 OA 
HETATM   36  N   UNL     1     -12.119   7.984  70.952  1.00  0.00    -0.469 N  
HETATM   37  H   UNL     1     -12.475   7.047  71.145  1.00  0.00     0.000 HD 
HETATM   38  C   UNL     1     -10.924   8.075  70.284  1.00  0.00    -0.242 C  
HETATM   39  O   UNL     1     -10.264   7.066  70.067  1.00  0.00    -0.189 OA 
ENDBRANCH  30  31
ENDBRANCH  21  22
ENDBRANCH  12  21
ENDBRANCH   7   9
ENDBRANCH   5   7
ENDBRANCH   4   5
ENDBRANCH   2   4
TORSDOF 8
ENDMDL
MODEL       97
REMARK 921   NORMALIZED FREE ENERGY PREDICTED BY IDOCK:   -3.86 KCAL/MOL
REMARK 922        TOTAL FREE ENERGY PREDICTED BY IDOCK:   -8.22 KCAL/MOL
REMARK 923 INTER-LIGAND FREE ENERGY PREDICTED BY IDOCK:   -6.84 KCAL/MOL
REMARK 924 INTRA-LIGAND FREE ENERGY PREDICTED BY IDOCK:   -1.38 KCAL/MOL
REMARK 927      BINDING AFFINITY PREDICTED BY RF-SCORE:    0.00 PKD
ROOT
HETATM    1  C   UNL     1      -6.208   7.634  64.569  1.00  0.00    -0.044 C  
HETATM    2  C   UNL     1      -6.493   9.129  64.653  1.00  0.00    -0.075 C  
HETATM    3  C   UNL     1      -7.634   9.498  63.708  1.00  0.00    -0.121 C  
ENDROOT
BRANCH   2   4
HETATM    4  O   UNL     1      -6.900   9.474  65.992  1.00  0.00    -0.086 OA 
BRANCH   4   5
HETATM    5  C   UNL     1      -6.836  10.801  66.319  1.00  0.00    -0.135 C  
HETATM    6  O   UNL     1      -5.878  11.533  66.103  1.00  0.00    -0.163 OA 
BRANCH   5   7
HETATM    7  C   UNL     1      -8.164  11.253  66.930  1.00  0.00    -0.153 C  
HETATM    8  C   UNL     1      -7.861  12.281  68.020  1.00  0.00    -0.147 C  
BRANCH   7   9
HETATM    9  N   UNL     1      -8.938  10.086  67.420  1.00  0.00    -0.131 NA 
HETATM   10  P   UNL     1     -10.009  10.426  68.689  1.00  0.00    -0.197 P  
HETATM   11  H   UNL     1      -8.307   9.328  67.683  1.00  0.00     0.000 HD 
HETATM   12  O   UNL     1     -10.777   8.995  69.032  1.00  0.00    -0.215 OA 
HETATM   13  O   UNL     1     -11.221  10.760  67.502  1.00  0.00    -0.310 OA 
HETATM   14  O   UNL     1      -8.923  10.127  69.753  1.00  0.00    -0.199 OA 
BRANCH  13  15
HETATM   15  C   UNL     1     -11.512  12.071  67.224  1.00  0.00    -0.335 A  
HETATM   16  C   UNL     1     -12.003  14.710  66.480  1.00  0.00    -0.284 A  
HETATM   17  C   UNL     1     -11.789  12.378  65.893  1.00  0.00    -0.467 A  
HETATM   18  C   UNL     1     -11.516  13.074  68.194  1.00  0.00    -0.356 A  
HETATM   19  C   UNL     1     -12.029  13.700  65.519  1.00  0.00    -0.409 A  
HETATM   20  C   UNL     1     -11.756  14.397  67.816  1.00  0.00    -0.407 A  
ENDBRANCH  13  15
BRANCH  12  21
HETATM   21  C   UNL     1     -11.271   8.849  70.377  1.00  0.00    -0.230 C  
BRANCH  21  22
HETATM   22  C   UNL     1     -11.221   7.434  71.030  1.00  0.00    -0.264 C  
HETATM   23  O   UNL     1     -10.672   6.472  70.101  1.00  0.00    -0.217 OA 
HETATM   24  C   UNL     1      -9.644   5.957  72.158  1.00  0.00    -0.148 C  
HETATM   25  H   UNL     1     -10.581   7.249  74.305  1.00  0.00     0.000 HD 
HETATM   26  C   UNL     1     -10.359   7.310  72.309  1.00  0.00    -0.210 C  
HETATM   27  O   UNL     1     -11.110   7.325  73.519  1.00  0.00    -0.280 OA 
HETATM   28  F   UNL     1      -9.838   5.199  73.272  1.00  0.00    -0.151 F  
HETATM   29  C   UNL     1      -8.146   6.176  72.012  1.00  0.00    -0.110 C  
HETATM   30  C   UNL     1     -10.342   5.346  70.941  1.00  0.00    -0.242 C  
BRANCH  30  31
HETATM   31  N   UNL     1      -9.587   4.348  70.176  1.00  0.00    -0.176 N  
HETATM   32  C   UNL     1      -8.883   4.700  69.039  1.00  0.00    -0.091 C  
HETATM   33  C   UNL     1      -8.278   3.796  68.271  1.00  0.00    -0.090 C  
HETATM   34  C   UNL     1      -8.379   2.375  68.635  1.00  0.00    -0.057 C  
HETATM   35  O   UNL     1      -7.963   1.501  67.886  1.00  0.00    -0.057 OA 
HETATM   36  N   UNL     1      -8.972   2.116  69.835  1.00  0.00    -0.080 N  
HETATM   37  H   UNL     1      -8.913   1.159  70.185  1.00  0.00     0.000 HD 
HETATM   38  C   UNL     1      -9.640   3.027  70.614  1.00  0.00    -0.131 C  
HETATM   39  O   UNL     1     -10.253   2.654  71.607  1.00  0.00    -0.075 OA 
ENDBRANCH  30  31
ENDBRANCH  21  22
ENDBRANCH  12  21
ENDBRANCH   7   9
ENDBRANCH   5   7
ENDBRANCH   4   5
ENDBRANCH   2   4
TORSDOF 8
ENDMDL
MODEL       98
REMARK 921   NORMALIZED FREE ENERGY PREDICTED BY IDOCK:   -3.86 KCAL/MOL
REMARK 922        TOTAL FREE ENERGY PREDICTED BY IDOCK:   -8.22 KCAL/MOL
REMARK 923 INTER-LIGAND FREE ENERGY PREDICTED BY IDOCK:   -7.41 KCAL/MOL
REMARK 924 INTRA-LIGAND FREE ENERGY PREDICTED BY IDOCK:   -0.81 KCAL/MOL
REMARK 927      BINDING AFFINITY PREDICTED BY RF-SCORE:    0.00 PKD
ROOT
HETATM    1  C   UNL     1     -12.086   5.403  72.932  1.00  0.00     0.042 C  
HETATM    2  C   UNL     1     -10.703   5.601  72.321  1.00  0.00    -0.230 C  
HETATM    3  C   UNL     1      -9.778   4.462  72.743  1.00  0.00    -0.185 C  
ENDROOT
BRANCH   2   4
HETATM    4  O   UNL     1     -10.798   5.583  70.883  1.00  0.00    -0.246 OA 
BRANCH   4   5
HETATM    5  C   UNL     1     -11.116   6.771  70.284  1.00  0.00    -0.310 C  
HETATM    6  O   UNL     1     -11.939   7.574  70.707  1.00  0.00    -0.277 OA 
BRANCH   5   7
HETATM    7  C   UNL     1     -10.241   6.983  69.046  1.00  0.00    -0.187 C  
HETATM    8  C   UNL     1      -8.780   6.808  69.459  1.00  0.00    -0.133 C  
BRANCH   7   9
HETATM    9  N   UNL     1     -10.525   8.301  68.426  1.00  0.00    -0.319 NA 
HETATM   10  P   UNL     1      -9.150   9.205  68.019  1.00  0.00    -0.130 P  
HETATM   11  H   UNL     1     -11.143   8.848  69.026  1.00  0.00     0.000 HD 
HETATM   12  O   UNL     1      -9.714  10.599  67.316  1.00  0.00    -0.164 OA 
HETATM   13  O   UNL     1      -9.178   8.443  66.467  1.00  0.00    -0.163 OA 
HETATM   14  O   UNL     1      -9.125   9.887  69.410  1.00  0.00    -0.178 OA 
BRANCH  13  15
HETATM   15  C   UNL     1      -8.287   7.429  66.227  1.00  0.00    -0.132 A  
HETATM   16  C   UNL     1      -6.351   5.510  65.656  1.00  0.00    -0.039 A  
HETATM   17  C   UNL     1      -6.936   7.743  66.362  1.00  0.00    -0.063 A  
HETATM   18  C   UNL     1      -8.677   6.146  65.841  1.00  0.00    -0.158 A  
HETATM   19  C   UNL     1      -5.966   6.785  66.071  1.00  0.00    -0.034 A  
HETATM   20  C   UNL     1      -7.703   5.189  65.549  1.00  0.00    -0.087 A  
ENDBRANCH  13  15
BRANCH  12  21
HETATM   21  C   UNL     1      -8.852  11.749  67.411  1.00  0.00    -0.164 C  
BRANCH  21  22
HETATM   22  C   UNL     1      -9.455  13.078  67.958  1.00  0.00    -0.217 C  
HETATM   23  O   UNL     1      -8.592  14.191  67.636  1.00  0.00    -0.166 OA 
HETATM   24  C   UNL     1     -10.765  14.985  67.192  1.00  0.00    -0.303 C  
HETATM   25  H   UNL     1     -12.782  13.400  67.952  1.00  0.00     0.000 HD 
HETATM   26  C   UNL     1     -10.849  13.465  67.408  1.00  0.00    -0.268 C  
HETATM   27  O   UNL     1     -11.926  13.162  68.290  1.00  0.00    -0.343 OA 
HETATM   28  F   UNL     1     -11.808  15.603  67.812  1.00  0.00    -0.284 F  
HETATM   29  C   UNL     1     -10.863  15.304  65.709  1.00  0.00    -0.363 C  
HETATM   30  C   UNL     1      -9.434  15.343  67.856  1.00  0.00    -0.197 C  
BRANCH  30  31
HETATM   31  N   UNL     1      -8.762  16.558  67.383  1.00  0.00    -0.181 N  
HETATM   32  C   UNL     1      -7.661  16.489  66.547  1.00  0.00    -0.288 C  
HETATM   33  C   UNL     1      -6.974  17.571  66.190  1.00  0.00    -0.323 C  
HETATM   34  C   UNL     1      -7.387  18.880  66.717  1.00  0.00    -0.213 C  
HETATM   35  O   UNL     1      -6.704  19.879  66.533  1.00  0.00    -0.198 OA 
HETATM   36  N   UNL     1      -8.554  18.888  67.423  1.00  0.00    -0.272 N  
HETATM   37  H   UNL     1      -8.946  19.799  67.662  1.00  0.00     0.000 HD 
HETATM   38  C   UNL     1      -9.249  17.780  67.839  1.00  0.00    -0.265 C  
HETATM   39  O   UNL     1     -10.212  17.903  68.585  1.00  0.00    -0.372 OA 
ENDBRANCH  30  31
ENDBRANCH  21  22
ENDBRANCH  12  21
ENDBRANCH   7   9
ENDBRANCH   5   7
ENDBRANCH   4   5
ENDBRANCH   2   4
TORSDOF 8
ENDMDL
MODEL       99
REMARK 921   NORMALIZED FREE ENERGY PREDICTED BY IDOCK:   -3.84 KCAL/MOL
REMARK 922        TOTAL FREE ENERGY PREDICTED BY IDOCK:   -8.19 KCAL/MOL
REMARK 923 INTER-LIGAND FREE ENERGY PREDICTED BY IDOCK:   -7.24 KCAL/MOL
REMARK 924 INTRA-LIGAND FREE ENERGY PREDICTED BY IDOCK:   -0.95 KCAL/MOL
REMARK 927      BINDING AFFINITY PREDICTED BY RF-SCORE:    0.00 PKD
ROOT
HETATM    1  C   UNL     1      -6.923   2.073  70.550  1.00  0.00    -0.033 C  
HETATM    2  C   UNL     1      -8.257   2.532  69.975  1.00  0.00    -0.041 C  
HETATM    3  C   UNL     1      -9.009   3.373  71.004  1.00  0.00    -0.161 C  
ENDROOT
BRANCH   2   4
HETATM    4  O   UNL     1      -8.031   3.356  68.814  1.00  0.00    -0.061 OA 
BRANCH   4   5
HETATM    5  C   UNL     1      -7.741   4.671  69.054  1.00  0.00    -0.071 C  
HETATM    6  O   UNL     1      -6.820   5.071  69.755  1.00  0.00    -0.048 OA 
BRANCH   5   7
HETATM    7  C   UNL     1      -8.694   5.570  68.263  1.00  0.00    -0.098 C  
HETATM    8  C   UNL     1      -9.107   4.826  66.994  1.00  0.00    -0.121 C  
BRANCH   7   9
HETATM    9  N   UNL     1      -8.067   6.889  67.996  1.00  0.00    -0.114 NA 
HETATM   10  P   UNL     1      -9.148   8.194  67.955  1.00  0.00    -0.131 P  
HETATM   11  H   UNL     1      -7.522   6.853  67.134  1.00  0.00     0.000 HD 
HETATM   12  O   UNL     1      -8.221   9.544  67.686  1.00  0.00    -0.119 OA 
HETATM   13  O   UNL     1      -8.889   8.388  69.654  1.00  0.00    -0.139 OA 
HETATM   14  O   UNL     1      -9.380   8.018  66.433  1.00  0.00    -0.185 OA 
BRANCH  13  15
HETATM   15  C   UNL     1      -9.853   7.927  70.513  1.00  0.00    -0.186 A  
HETATM   16  C   UNL     1     -11.944   7.125  72.169  1.00  0.00    -0.304 A  
HETATM   17  C   UNL     1     -11.148   7.841  70.005  1.00  0.00    -0.182 A  
HETATM   18  C   UNL     1      -9.591   7.580  71.838  1.00  0.00    -0.178 A  
HETATM   19  C   UNL     1     -12.196   7.445  70.836  1.00  0.00    -0.265 A  
HETATM   20  C   UNL     1     -10.643   7.184  72.667  1.00  0.00    -0.290 A  
ENDBRANCH  13  15
BRANCH  12  21
HETATM   21  C   UNL     1      -8.885  10.649  67.043  1.00  0.00    -0.137 C  
BRANCH  21  22
HETATM   22  C   UNL     1      -9.499  11.763  67.945  1.00  0.00    -0.191 C  
HETATM   23  O   UNL     1      -9.308  13.061  67.339  1.00  0.00    -0.195 OA 
HETATM   24  C   UNL     1     -11.527  13.102  68.132  1.00  0.00    -0.314 C  
HETATM   25  H   UNL     1     -12.278  11.032  69.651  1.00  0.00     0.000 HD 
HETATM   26  C   UNL     1     -11.019  11.653  68.214  1.00  0.00    -0.226 C  
HETATM   27  O   UNL     1     -11.345  11.099  69.485  1.00  0.00    -0.244 OA 
HETATM   28  F   UNL     1     -12.240  13.411  69.250  1.00  0.00    -0.338 F  
HETATM   29  C   UNL     1     -12.457  13.258  66.940  1.00  0.00    -0.045 C  
HETATM   30  C   UNL     1     -10.227  13.907  68.063  1.00  0.00    -0.246 C  
BRANCH  30  31
HETATM   31  N   UNL     1     -10.298  15.230  67.435  1.00  0.00    -0.252 N  
HETATM   32  C   UNL     1     -10.239  15.374  66.060  1.00  0.00    -0.324 C  
HETATM   33  C   UNL     1     -10.198  16.568  65.473  1.00  0.00    -0.261 C  
HETATM   34  C   UNL     1     -10.195  17.772  66.317  1.00  0.00    -0.364 C  
HETATM   35  O   UNL     1     -10.015  18.882  65.832  1.00  0.00    -0.493 OA 
HETATM   36  N   UNL     1     -10.390  17.558  67.649  1.00  0.00    -0.346 N  
HETATM   37  H   UNL     1     -10.552  18.379  68.233  1.00  0.00     0.000 HD 
HETATM   38  C   UNL     1     -10.388  16.336  68.274  1.00  0.00    -0.272 C  
HETATM   39  O   UNL     1     -10.435  16.272  69.497  1.00  0.00    -0.265 OA 
ENDBRANCH  30  31
ENDBRANCH  21  22
ENDBRANCH  12  21
ENDBRANCH   7   9
ENDBRANCH   5   7
ENDBRANCH   4   5
ENDBRANCH   2   4
TORSDOF 8
ENDMDL
MODEL      100
REMARK 921   NORMALIZED FREE ENERGY PREDICTED BY IDOCK:   -3.84 KCAL/MOL
REMARK 922        TOTAL FREE ENERGY PREDICTED BY IDOCK:   -8.18 KCAL/MOL
REMARK 923 INTER-LIGAND FREE ENERGY PREDICTED BY IDOCK:   -7.13 KCAL/MOL
REMARK 924 INTRA-LIGAND FREE ENERGY PREDICTED BY IDOCK:   -1.05 KCAL/MOL
REMARK 927      BINDING AFFINITY PREDICTED BY RF-SCORE:    0.00 PKD
ROOT
HETATM    1  C   UNL     1     -10.468  15.230  65.131  1.00  0.00    -0.438 C  
HETATM    2  C   UNL     1     -10.586  15.651  66.591  1.00  0.00    -0.307 C  
HETATM    3  C   UNL     1     -10.529  17.172  66.703  1.00  0.00    -0.259 C  
ENDROOT
BRANCH   2   4
HETATM    4  O   UNL     1     -11.854  15.216  67.122  1.00  0.00    -0.233 OA 
BRANCH   4   5
HETATM    5  C   UNL     1     -11.900  15.001  68.472  1.00  0.00    -0.291 C  
HETATM    6  O   UNL     1     -11.894  15.880  69.325  1.00  0.00    -0.371 OA 
BRANCH   5   7
HETATM    7  C   UNL     1     -12.032  13.503  68.758  1.00  0.00    -0.339 C  
HETATM    8  C   UNL     1     -11.455  13.231  70.147  1.00  0.00    -0.038 C  
BRANCH   7   9
HETATM    9  N   UNL     1     -11.387  12.707  67.685  1.00  0.00    -0.289 NA 
HETATM   10  P   UNL     1     -10.159  11.665  68.214  1.00  0.00    -0.208 P  
HETATM   11  H   UNL     1     -11.037  13.323  66.950  1.00  0.00     0.000 HD 
HETATM   12  O   UNL     1      -9.626  10.866  66.860  1.00  0.00    -0.174 OA 
HETATM   13  O   UNL     1     -11.365  10.444  68.427  1.00  0.00    -0.276 OA 
HETATM   14  O   UNL     1      -9.080  12.760  68.024  1.00  0.00    -0.194 OA 
BRANCH  13  15
HETATM   15  C   UNL     1     -11.805  10.182  69.699  1.00  0.00    -0.045 A  
HETATM   16  C   UNL     1     -12.572   9.485  72.284  1.00  0.00    -0.344 A  
HETATM   17  C   UNL     1     -10.863   9.667  70.588  1.00  0.00    -0.386 A  
HETATM   18  C   UNL     1     -13.123  10.385  70.107  1.00  0.00     0.094 A  
HETATM   19  C   UNL     1     -11.248   9.312  71.880  1.00  0.00    -0.331 A  
HETATM   20  C   UNL     1     -13.505  10.028  71.402  1.00  0.00    -0.355 A  
ENDBRANCH  13  15
BRANCH  12  21
HETATM   21  C   UNL     1      -8.268  10.390  66.901  1.00  0.00    -0.124 C  
BRANCH  21  22
HETATM   22  C   UNL     1      -8.020   8.859  66.741  1.00  0.00    -0.107 C  
HETATM   23  O   UNL     1      -8.170   8.190  68.013  1.00  0.00    -0.126 OA 
HETATM   24  C   UNL     1      -9.273   6.785  66.475  1.00  0.00    -0.162 C  
HETATM   25  H   UNL     1      -8.992   7.412  63.889  1.00  0.00     0.000 HD 
HETATM   26  C   UNL     1      -8.970   8.118  65.770  1.00  0.00    -0.119 C  
HETATM   27  O   UNL     1      -8.408   7.867  64.486  1.00  0.00    -0.117 OA 
HETATM   28  F   UNL     1      -9.024   5.744  65.634  1.00  0.00    -0.155 F  
HETATM   29  C   UNL     1     -10.744   6.722  66.855  1.00  0.00    -0.394 C  
HETATM   30  C   UNL     1      -8.290   6.799  67.648  1.00  0.00    -0.123 C  
BRANCH  30  31
HETATM   31  N   UNL     1      -8.647   5.997  68.822  1.00  0.00    -0.112 N  
HETATM   32  C   UNL     1      -9.193   6.583  69.951  1.00  0.00    -0.149 C  
HETATM   33  C   UNL     1      -9.428   5.893  71.065  1.00  0.00    -0.189 C  
HETATM   34  C   UNL     1      -9.078   4.465  71.101  1.00  0.00    -0.126 C  
HETATM   35  O   UNL     1      -9.143   3.827  72.144  1.00  0.00    -0.109 OA 
HETATM   36  N   UNL     1      -8.672   3.928  69.916  1.00  0.00    -0.071 N  
HETATM   37  H   UNL     1      -8.577   2.913  69.874  1.00  0.00     0.000 HD 
HETATM   38  C   UNL     1      -8.380   4.631  68.774  1.00  0.00    -0.081 C  
HETATM   39  O   UNL     1      -7.891   4.058  67.808  1.00  0.00    -0.084 OA 
ENDBRANCH  30  31
ENDBRANCH  21  22
ENDBRANCH  12  21
ENDBRANCH   7   9
ENDBRANCH   5   7
ENDBRANCH   4   5
ENDBRANCH   2   4
TORSDOF 8
ENDMDL
MODEL      101
REMARK 921   NORMALIZED FREE ENERGY PREDICTED BY IDOCK:   -3.83 KCAL/MOL
REMARK 922        TOTAL FREE ENERGY PREDICTED BY IDOCK:   -8.17 KCAL/MOL
REMARK 923 INTER-LIGAND FREE ENERGY PREDICTED BY IDOCK:   -6.94 KCAL/MOL
REMARK 924 INTRA-LIGAND FREE ENERGY PREDICTED BY IDOCK:   -1.22 KCAL/MOL
REMARK 927      BINDING AFFINITY PREDICTED BY RF-SCORE:    0.00 PKD
ROOT
HETATM    1  C   UNL     1     -10.368   4.489  65.473  1.00  0.00    -0.254 C  
HETATM    2  C   UNL     1      -8.965   4.146  65.961  1.00  0.00    -0.126 C  
HETATM    3  C   UNL     1      -7.975   4.222  64.800  1.00  0.00    -0.090 C  
ENDROOT
BRANCH   2   4
HETATM    4  O   UNL     1      -8.549   5.100  66.958  1.00  0.00    -0.107 OA 
BRANCH   4   5
HETATM    5  C   UNL     1      -8.052   4.579  68.121  1.00  0.00    -0.087 C  
HETATM    6  O   UNL     1      -7.206   3.696  68.191  1.00  0.00    -0.051 OA 
BRANCH   5   7
HETATM    7  C   UNL     1      -8.657   5.310  69.323  1.00  0.00    -0.101 C  
HETATM    8  C   UNL     1     -10.048   4.732  69.579  1.00  0.00    -0.260 C  
BRANCH   7   9
HETATM    9  N   UNL     1      -8.659   6.776  69.095  1.00  0.00    -0.131 NA 
HETATM   10  P   UNL     1      -9.965   7.601  69.794  1.00  0.00    -0.191 P  
HETATM   11  H   UNL     1      -8.606   6.979  68.096  1.00  0.00     0.000 HD 
HETATM   12  O   UNL     1      -9.729   9.205  69.442  1.00  0.00    -0.163 OA 
HETATM   13  O   UNL     1      -9.003   7.799  71.218  1.00  0.00    -0.131 OA 
HETATM   14  O   UNL     1     -10.826   7.421  68.519  1.00  0.00    -0.143 OA 
BRANCH  13  15
HETATM   15  C   UNL     1      -9.256   6.983  72.290  1.00  0.00    -0.133 A  
HETATM   16  C   UNL     1      -9.856   5.488  74.562  1.00  0.00    -0.238 A  
HETATM   17  C   UNL     1     -10.450   7.206  72.973  1.00  0.00    -0.331 A  
HETATM   18  C   UNL     1      -8.375   5.989  72.716  1.00  0.00    -0.118 A  
HETATM   19  C   UNL     1     -10.748   6.461  74.114  1.00  0.00     0.024 A  
HETATM   20  C   UNL     1      -8.676   5.246  73.860  1.00  0.00    -0.118 A  
ENDBRANCH  13  15
BRANCH  12  21
HETATM   21  C   UNL     1     -10.915  10.023  69.393  1.00  0.00    -0.244 C  
BRANCH  21  22
HETATM   22  C   UNL     1     -11.130  10.932  68.145  1.00  0.00    -0.280 C  
HETATM   23  O   UNL     1     -11.062  12.325  68.522  1.00  0.00    -0.218 OA 
HETATM   24  C   UNL     1      -9.833  12.198  66.515  1.00  0.00    -0.218 C  
HETATM   25  H   UNL     1      -9.936   9.864  65.212  1.00  0.00     0.000 HD 
HETATM   26  C   UNL     1     -10.102  10.764  67.001  1.00  0.00    -0.208 C  
HETATM   27  O   UNL     1     -10.567   9.967  65.915  1.00  0.00    -0.100 OA 
HETATM   28  F   UNL     1     -10.007  12.275  65.167  1.00  0.00    -0.263 F  
HETATM   29  C   UNL     1      -8.393  12.584  66.812  1.00  0.00    -0.034 C  
HETATM   30  C   UNL     1     -10.898  13.006  67.260  1.00  0.00    -0.252 C  
BRANCH  30  31
HETATM   31  N   UNL     1     -10.615  14.428  67.485  1.00  0.00    -0.263 N  
HETATM   32  C   UNL     1     -10.199  14.888  68.721  1.00  0.00    -0.243 C  
HETATM   33  C   UNL     1     -10.037  16.184  68.977  1.00  0.00    -0.247 C  
HETATM   34  C   UNL     1     -10.329  17.158  67.915  1.00  0.00    -0.350 C  
HETATM   35  O   UNL     1     -10.332  18.361  68.146  1.00  0.00    -0.365 OA 
HETATM   36  N   UNL     1     -10.603  16.628  66.690  1.00  0.00    -0.252 N  
HETATM   37  H   UNL     1     -10.652  17.277  65.903  1.00  0.00     0.000 HD 
HETATM   38  C   UNL     1     -10.820  15.300  66.419  1.00  0.00    -0.317 C  
HETATM   39  O   UNL     1     -11.195  14.953  65.306  1.00  0.00    -0.340 OA 
ENDBRANCH  30  31
ENDBRANCH  21  22
ENDBRANCH  12  21
ENDBRANCH   7   9
ENDBRANCH   5   7
ENDBRANCH   4   5
ENDBRANCH   2   4
TORSDOF 8
ENDMDL
MODEL      102
REMARK 921   NORMALIZED FREE ENERGY PREDICTED BY IDOCK:   -3.77 KCAL/MOL
REMARK 922        TOTAL FREE ENERGY PREDICTED BY IDOCK:   -8.08 KCAL/MOL
REMARK 923 INTER-LIGAND FREE ENERGY PREDICTED BY IDOCK:   -8.22 KCAL/MOL
REMARK 924 INTRA-LIGAND FREE ENERGY PREDICTED BY IDOCK:    0.14 KCAL/MOL
REMARK 927      BINDING AFFINITY PREDICTED BY RF-SCORE:    0.00 PKD
ROOT
HETATM    1  C   UNL     1      -5.940   2.674  71.308  1.00  0.00    -0.014 C  
HETATM    2  C   UNL     1      -7.384   3.135  71.143  1.00  0.00    -0.033 C  
HETATM    3  C   UNL     1      -8.079   3.174  72.502  1.00  0.00    -0.064 C  
ENDROOT
BRANCH   2   4
HETATM    4  O   UNL     1      -7.411   4.468  70.595  1.00  0.00    -0.047 OA 
BRANCH   4   5
HETATM    5  C   UNL     1      -7.470   5.492  71.501  1.00  0.00    -0.095 C  
HETATM    6  O   UNL     1      -6.805   5.561  72.528  1.00  0.00    -0.072 OA 
BRANCH   5   7
HETATM    7  C   UNL     1      -8.438   6.571  71.009  1.00  0.00    -0.127 C  
HETATM    8  C   UNL     1      -9.304   5.965  69.905  1.00  0.00    -0.173 C  
BRANCH   7   9
HETATM    9  N   UNL     1      -7.696   7.782  70.580  1.00  0.00    -0.089 NA 
HETATM   10  P   UNL     1      -8.525   8.770  69.482  1.00  0.00    -0.135 P  
HETATM   11  H   UNL     1      -6.783   7.523  70.204  1.00  0.00     0.000 HD 
HETATM   12  O   UNL     1      -7.524  10.061  69.187  1.00  0.00    -0.078 OA 
HETATM   13  O   UNL     1      -9.183   9.624  70.834  1.00  0.00    -0.167 OA 
HETATM   14  O   UNL     1      -7.936   8.005  68.271  1.00  0.00    -0.123 OA 
BRANCH  13  15
HETATM   15  C   UNL     1     -10.477   9.358  71.201  1.00  0.00    -0.322 A  
HETATM   16  C   UNL     1     -13.155   9.008  71.883  1.00  0.00    -0.459 A  
HETATM   17  C   UNL     1     -11.476   9.901  70.395  1.00  0.00    -0.372 A  
HETATM   18  C   UNL     1     -10.811   8.608  72.329  1.00  0.00    -0.392 A  
HETATM   19  C   UNL     1     -12.817   9.731  70.739  1.00  0.00    -0.230 A  
HETATM   20  C   UNL     1     -12.155   8.440  72.671  1.00  0.00    -0.324 A  
ENDBRANCH  13  15
BRANCH  12  21
HETATM   21  C   UNL     1      -7.695  10.716  67.915  1.00  0.00    -0.100 C  
BRANCH  21  22
HETATM   22  C   UNL     1      -9.147  10.981  67.412  1.00  0.00    -0.141 C  
HETATM   23  O   UNL     1      -9.296  12.361  67.014  1.00  0.00    -0.192 OA 
HETATM   24  C   UNL     1     -10.397  11.139  65.326  1.00  0.00    -0.277 C  
HETATM   25  H   UNL     1     -10.701   8.519  65.771  1.00  0.00     0.000 HD 
HETATM   26  C   UNL     1      -9.601  10.147  66.190  1.00  0.00    -0.203 C  
HETATM   27  O   UNL     1     -10.422   9.031  66.522  1.00  0.00    -0.234 OA 
HETATM   28  F   UNL     1     -11.621  10.622  65.028  1.00  0.00     0.289 F  
HETATM   29  C   UNL     1      -9.671  11.379  64.012  1.00  0.00    -0.275 C  
HETATM   30  C   UNL     1     -10.517  12.358  66.244  1.00  0.00    -0.245 C  
BRANCH  30  31
HETATM   31  N   UNL     1     -10.712  13.659  65.597  1.00  0.00    -0.278 N  
HETATM   32  C   UNL     1      -9.759  14.658  65.697  1.00  0.00    -0.266 C  
HETATM   33  C   UNL     1      -9.958  15.879  65.207  1.00  0.00    -0.121 C  
HETATM   34  C   UNL     1     -11.242  16.181  64.555  1.00  0.00    -0.264 C  
HETATM   35  O   UNL     1     -11.525  17.323  64.218  1.00  0.00    -0.929 OA 
HETATM   36  N   UNL     1     -12.074  15.116  64.375  1.00  0.00    -0.578 N  
HETATM   37  H   UNL     1     -12.896  15.264  63.787  1.00  0.00     0.000 HD 
HETATM   38  C   UNL     1     -11.906  13.865  64.913  1.00  0.00    -0.387 C  
HETATM   39  O   UNL     1     -12.789  13.023  64.798  1.00  0.00    -0.708 OA 
ENDBRANCH  30  31
ENDBRANCH  21  22
ENDBRANCH  12  21
ENDBRANCH   7   9
ENDBRANCH   5   7
ENDBRANCH   4   5
ENDBRANCH   2   4
TORSDOF 8
ENDMDL
MODEL      103
REMARK 921   NORMALIZED FREE ENERGY PREDICTED BY IDOCK:   -3.76 KCAL/MOL
REMARK 922        TOTAL FREE ENERGY PREDICTED BY IDOCK:   -8.08 KCAL/MOL
REMARK 923 INTER-LIGAND FREE ENERGY PREDICTED BY IDOCK:   -9.20 KCAL/MOL
REMARK 924 INTRA-LIGAND FREE ENERGY PREDICTED BY IDOCK:    1.12 KCAL/MOL
REMARK 927      BINDING AFFINITY PREDICTED BY RF-SCORE:    0.00 PKD
ROOT
HETATM    1  C   UNL     1      -9.902   9.943  65.048  1.00  0.00    -0.323 C  
HETATM    2  C   UNL     1      -9.745  11.130  64.105  1.00  0.00    -0.276 C  
HETATM    3  C   UNL     1      -9.641  10.642  62.662  1.00  0.00    -0.293 C  
ENDROOT
BRANCH   2   4
HETATM    4  O   UNL     1     -10.903  11.983  64.200  1.00  0.00    -0.297 OA 
BRANCH   4   5
HETATM    5  C   UNL     1     -10.661  13.299  64.484  1.00  0.00    -0.411 C  
HETATM    6  O   UNL     1      -9.557  13.829  64.475  1.00  0.00     0.160 OA 
BRANCH   5   7
HETATM    7  C   UNL     1     -11.981  14.029  64.747  1.00  0.00    -0.417 C  
HETATM    8  C   UNL     1     -11.742  15.527  64.558  1.00  0.00    -0.253 C  
BRANCH   7   9
HETATM    9  N   UNL     1     -12.512  13.681  66.088  1.00  0.00    -0.423 NA 
HETATM   10  P   UNL     1     -11.332  13.482  67.289  1.00  0.00    -0.350 P  
HETATM   11  H   UNL     1     -13.101  12.850  66.031  1.00  0.00     0.000 HD 
HETATM   12  O   UNL     1     -12.159  13.142  68.687  1.00  0.00    -0.315 OA 
HETATM   13  O   UNL     1     -11.486  15.168  67.640  1.00  0.00    -0.332 OA 
HETATM   14  O   UNL     1     -11.193  11.972  66.973  1.00  0.00    -0.282 OA 
BRANCH  13  15
HETATM   15  C   UNL     1     -10.519  16.019  67.169  1.00  0.00    -0.308 A  
HETATM   16  C   UNL     1      -8.421  17.650  66.336  1.00  0.00    -0.279 A  
HETATM   17  C   UNL     1      -9.246  15.480  66.998  1.00  0.00    -0.242 A  
HETATM   18  C   UNL     1     -10.758  17.365  66.891  1.00  0.00    -0.125 A  
HETATM   19  C   UNL     1      -8.194  16.297  66.586  1.00  0.00    -0.316 A  
HETATM   20  C   UNL     1      -9.701  18.181  66.479  1.00  0.00    -0.344 A  
ENDBRANCH  13  15
BRANCH  12  21
HETATM   21  C   UNL     1     -11.441  12.380  69.677  1.00  0.00    -0.194 C  
BRANCH  21  22
HETATM   22  C   UNL     1     -11.857  10.895  69.907  1.00  0.00    -0.349 C  
HETATM   23  O   UNL     1     -10.955  10.008  69.210  1.00  0.00    -0.223 OA 
HETATM   24  C   UNL     1     -11.272   8.991  71.311  1.00  0.00    -0.315 C  
HETATM   25  H   UNL     1     -13.148  10.079  72.879  1.00  0.00     0.000 HD 
HETATM   26  C   UNL     1     -11.856  10.412  71.377  1.00  0.00    -0.222 C  
HETATM   27  O   UNL     1     -13.148  10.375  71.976  1.00  0.00    -0.455 OA 
HETATM   28  F   UNL     1     -12.102   8.116  71.944  1.00  0.00    -0.286 F  
HETATM   29  C   UNL     1      -9.932   8.949  72.029  1.00  0.00    -0.338 C  
HETATM   30  C   UNL     1     -11.223   8.721  69.806  1.00  0.00     0.007 C  
BRANCH  30  31
HETATM   31  N   UNL     1     -10.242   7.734  69.342  1.00  0.00    -0.203 N  
HETATM   32  C   UNL     1      -9.036   8.128  68.789  1.00  0.00    -0.144 C  
HETATM   33  C   UNL     1      -8.177   7.255  68.267  1.00  0.00    -0.125 C  
HETATM   34  C   UNL     1      -8.532   5.829  68.260  1.00  0.00    -0.113 C  
HETATM   35  O   UNL     1      -7.843   5.010  67.666  1.00  0.00    -0.093 OA 
HETATM   36  N   UNL     1      -9.669   5.502  68.939  1.00  0.00    -0.135 N  
HETATM   37  H   UNL     1      -9.853   4.509  69.086  1.00  0.00     0.000 HD 
HETATM   38  C   UNL     1     -10.588   6.389  69.441  1.00  0.00    -0.257 C  
HETATM   39  O   UNL     1     -11.642   5.981  69.912  1.00  0.00    -0.326 OA 
ENDBRANCH  30  31
ENDBRANCH  21  22
ENDBRANCH  12  21
ENDBRANCH   7   9
ENDBRANCH   5   7
ENDBRANCH   4   5
ENDBRANCH   2   4
TORSDOF 8
ENDMDL
MODEL      104
REMARK 921   NORMALIZED FREE ENERGY PREDICTED BY IDOCK:   -3.76 KCAL/MOL
REMARK 922        TOTAL FREE ENERGY PREDICTED BY IDOCK:   -8.08 KCAL/MOL
REMARK 923 INTER-LIGAND FREE ENERGY PREDICTED BY IDOCK:   -6.81 KCAL/MOL
REMARK 924 INTRA-LIGAND FREE ENERGY PREDICTED BY IDOCK:   -1.26 KCAL/MOL
REMARK 927      BINDING AFFINITY PREDICTED BY RF-SCORE:    0.00 PKD
ROOT
HETATM    1  C   UNL     1     -11.552  12.748  69.085  1.00  0.00    -0.373 C  
HETATM    2  C   UNL     1     -11.486  13.134  67.612  1.00  0.00    -0.324 C  
HETATM    3  C   UNL     1     -11.451  14.653  67.470  1.00  0.00    -0.378 C  
ENDROOT
BRANCH   2   4
HETATM    4  O   UNL     1     -10.280  12.608  67.024  1.00  0.00    -0.224 OA 
BRANCH   4   5
HETATM    5  C   UNL     1     -10.423  11.488  66.251  1.00  0.00    -0.251 C  
HETATM    6  O   UNL     1     -11.493  11.036  65.860  1.00  0.00     0.018 OA 
BRANCH   5   7
HETATM    7  C   UNL     1      -9.048  10.923  65.888  1.00  0.00    -0.193 C  
HETATM    8  C   UNL     1      -9.242   9.856  64.811  1.00  0.00    -0.309 C  
BRANCH   7   9
HETATM    9  N   UNL     1      -8.354  10.420  67.099  1.00  0.00    -0.125 NA 
HETATM   10  P   UNL     1      -7.696   8.865  66.946  1.00  0.00    -0.098 P  
HETATM   11  H   UNL     1      -8.976  10.463  67.907  1.00  0.00     0.000 HD 
HETATM   12  O   UNL     1      -6.949   8.543  68.392  1.00  0.00    -0.064 OA 
HETATM   13  O   UNL     1      -6.235   9.600  66.385  1.00  0.00    -0.065 OA 
HETATM   14  O   UNL     1      -9.006   8.207  67.447  1.00  0.00    -0.135 OA 
BRANCH  13  15
HETATM   15  C   UNL     1      -5.975   9.581  65.039  1.00  0.00    -0.068 A  
HETATM   16  C   UNL     1      -5.344   9.366  62.335  1.00  0.00    -0.084 A  
HETATM   17  C   UNL     1      -5.967   8.330  64.425  1.00  0.00    -0.064 A  
HETATM   18  C   UNL     1      -5.704  10.732  64.298  1.00  0.00     0.054 A  
HETATM   19  C   UNL     1      -5.645   8.221  63.072  1.00  0.00    -0.072 A  
HETATM   20  C   UNL     1      -5.382  10.619  62.944  1.00  0.00    -0.172 A  
ENDBRANCH  13  15
BRANCH  12  21
HETATM   21  C   UNL     1      -6.830   7.152  68.747  1.00  0.00    -0.076 C  
BRANCH  21  22
HETATM   22  C   UNL     1      -7.764   6.595  69.864  1.00  0.00    -0.109 C  
HETATM   23  O   UNL     1      -8.734   7.594  70.251  1.00  0.00    -0.141 OA 
HETATM   24  C   UNL     1      -9.971   5.592  70.120  1.00  0.00    -0.207 C  
HETATM   25  H   UNL     1      -8.557   3.350  69.760  1.00  0.00     0.000 HD 
HETATM   26  C   UNL     1      -8.591   5.341  69.491  1.00  0.00    -0.097 C  
HETATM   27  O   UNL     1      -8.049   4.120  69.989  1.00  0.00    -0.058 OA 
HETATM   28  F   UNL     1     -10.336   4.528  70.887  1.00  0.00    -0.275 F  
HETATM   29  C   UNL     1     -11.017   5.747  69.028  1.00  0.00    -0.280 C  
HETATM   30  C   UNL     1      -9.724   6.835  70.978  1.00  0.00    -0.174 C  
BRANCH  30  31
HETATM   31  N   UNL     1     -10.888   7.677  71.275  1.00  0.00    -0.230 N  
HETATM   32  C   UNL     1     -11.229   8.742  70.461  1.00  0.00    -0.247 C  
HETATM   33  C   UNL     1     -12.216   9.581  70.766  1.00  0.00    -0.269 C  
HETATM   34  C   UNL     1     -12.954   9.379  72.022  1.00  0.00    -0.423 C  
HETATM   35  O   UNL     1     -13.771  10.204  72.413  1.00  0.00    -0.252 OA 
HETATM   36  N   UNL     1     -12.654   8.237  72.704  1.00  0.00    -0.607 N  
HETATM   37  H   UNL     1     -13.259   7.993  73.489  1.00  0.00     0.000 HD 
HETATM   38  C   UNL     1     -11.611   7.389  72.430  1.00  0.00    -0.284 C  
HETATM   39  O   UNL     1     -11.353   6.466  73.193  1.00  0.00    -0.155 OA 
ENDBRANCH  30  31
ENDBRANCH  21  22
ENDBRANCH  12  21
ENDBRANCH   7   9
ENDBRANCH   5   7
ENDBRANCH   4   5
ENDBRANCH   2   4
TORSDOF 8
ENDMDL
MODEL      105
REMARK 921   NORMALIZED FREE ENERGY PREDICTED BY IDOCK:   -3.71 KCAL/MOL
REMARK 922        TOTAL FREE ENERGY PREDICTED BY IDOCK:   -7.99 KCAL/MOL
REMARK 923 INTER-LIGAND FREE ENERGY PREDICTED BY IDOCK:   -8.36 KCAL/MOL
REMARK 924 INTRA-LIGAND FREE ENERGY PREDICTED BY IDOCK:    0.37 KCAL/MOL
REMARK 927      BINDING AFFINITY PREDICTED BY RF-SCORE:    0.00 PKD
ROOT
HETATM    1  C   UNL     1     -13.160  11.195  71.830  1.00  0.00    -0.536 C  
HETATM    2  C   UNL     1     -12.722   9.737  71.880  1.00  0.00    -0.410 C  
HETATM    3  C   UNL     1     -13.946   8.824  71.900  1.00  0.00    -0.493 C  
ENDROOT
BRANCH   2   4
HETATM    4  O   UNL     1     -11.953   9.417  70.704  1.00  0.00    -0.256 OA 
BRANCH   4   5
HETATM    5  C   UNL     1     -10.998   8.449  70.853  1.00  0.00    -0.243 C  
HETATM    6  O   UNL     1     -10.499   8.111  71.919  1.00  0.00    -0.216 OA 
BRANCH   5   7
HETATM    7  C   UNL     1     -10.693   7.802  69.499  1.00  0.00    -0.198 C  
HETATM    8  C   UNL     1     -10.130   6.405  69.756  1.00  0.00    -0.211 C  
BRANCH   7   9
HETATM    9  N   UNL     1      -9.789   8.665  68.699  1.00  0.00    -0.165 NA 
HETATM   10  P   UNL     1      -8.722   9.614  69.613  1.00  0.00    -0.225 P  
HETATM   11  H   UNL     1     -10.330   9.253  68.065  1.00  0.00     0.000 HD 
HETATM   12  O   UNL     1      -7.800  10.448  68.513  1.00  0.00    -0.098 OA 
HETATM   13  O   UNL     1      -7.587   8.312  69.535  1.00  0.00    -0.090 OA 
HETATM   14  O   UNL     1      -9.740  10.779  69.683  1.00  0.00    -0.080 OA 
BRANCH  13  15
HETATM   15  C   UNL     1      -7.441   7.512  70.639  1.00  0.00    -0.077 A  
HETATM   16  C   UNL     1      -7.035   6.041  72.969  1.00  0.00    -0.080 A  
HETATM   17  C   UNL     1      -7.455   8.153  71.877  1.00  0.00    -0.105 A  
HETATM   18  C   UNL     1      -7.260   6.131  70.563  1.00  0.00    -0.083 A  
HETATM   19  C   UNL     1      -7.246   7.418  73.043  1.00  0.00    -0.081 A  
HETATM   20  C   UNL     1      -7.050   5.398  71.733  1.00  0.00    -0.076 A  
ENDBRANCH  13  15
BRANCH  12  21
HETATM   21  C   UNL     1      -7.254  11.702  68.968  1.00  0.00    -0.094 C  
BRANCH  21  22
HETATM   22  C   UNL     1      -7.676  13.003  68.219  1.00  0.00    -0.141 C  
HETATM   23  O   UNL     1      -8.567  12.686  67.126  1.00  0.00    -0.189 OA 
HETATM   24  C   UNL     1      -9.525  14.588  68.134  1.00  0.00    -0.208 C  
HETATM   25  H   UNL     1      -8.062  15.787  70.026  1.00  0.00     0.000 HD 
HETATM   26  C   UNL     1      -8.424  14.059  69.067  1.00  0.00     0.148 C  
HETATM   27  O   UNL     1      -7.603  15.138  69.505  1.00  0.00    -0.201 OA 
HETATM   28  F   UNL     1      -9.476  15.948  68.078  1.00  0.00    -0.201 F  
HETATM   29  C   UNL     1     -10.893  14.204  68.676  1.00  0.00    -0.268 C  
HETATM   30  C   UNL     1      -9.150  13.963  66.789  1.00  0.00    -0.223 C  
BRANCH  30  31
HETATM   31  N   UNL     1     -10.234  13.783  65.816  1.00  0.00    -0.303 N  
HETATM   32  C   UNL     1     -10.848  12.555  65.648  1.00  0.00    -0.277 C  
HETATM   33  C   UNL     1     -11.760  12.342  64.702  1.00  0.00    -0.420 C  
HETATM   34  C   UNL     1     -12.109  13.444  63.794  1.00  0.00    -0.456 C  
HETATM   35  O   UNL     1     -12.832  13.257  62.823  1.00  0.00    -0.245 OA 
HETATM   36  N   UNL     1     -11.565  14.656  64.102  1.00  0.00    -0.650 N  
HETATM   37  H   UNL     1     -11.914  15.466  63.589  1.00  0.00     0.000 HD 
HETATM   38  C   UNL     1     -10.591  14.883  65.042  1.00  0.00    -0.422 C  
HETATM   39  O   UNL     1     -10.078  15.991  65.139  1.00  0.00    -0.485 OA 
ENDBRANCH  30  31
ENDBRANCH  21  22
ENDBRANCH  12  21
ENDBRANCH   7   9
ENDBRANCH   5   7
ENDBRANCH   4   5
ENDBRANCH   2   4
TORSDOF 8
ENDMDL
MODEL      106
REMARK 921   NORMALIZED FREE ENERGY PREDICTED BY IDOCK:   -3.69 KCAL/MOL
REMARK 922        TOTAL FREE ENERGY PREDICTED BY IDOCK:   -7.97 KCAL/MOL
REMARK 923 INTER-LIGAND FREE ENERGY PREDICTED BY IDOCK:   -8.90 KCAL/MOL
REMARK 924 INTRA-LIGAND FREE ENERGY PREDICTED BY IDOCK:    0.93 KCAL/MOL
REMARK 927      BINDING AFFINITY PREDICTED BY RF-SCORE:    0.00 PKD
ROOT
HETATM    1  C   UNL     1     -11.222   6.324  68.859  1.00  0.00    -0.387 C  
HETATM    2  C   UNL     1     -10.154   7.289  68.359  1.00  0.00    -0.171 C  
HETATM    3  C   UNL     1      -8.779   6.854  68.859  1.00  0.00    -0.130 C  
ENDROOT
BRANCH   2   4
HETATM    4  O   UNL     1     -10.123   7.278  66.918  1.00  0.00    -0.213 OA 
BRANCH   4   5
HETATM    5  C   UNL     1      -8.918   7.569  66.338  1.00  0.00    -0.167 C  
HETATM    6  O   UNL     1      -8.046   6.748  66.082  1.00  0.00    -0.105 OA 
BRANCH   5   7
HETATM    7  C   UNL     1      -8.849   9.058  65.993  1.00  0.00    -0.175 C  
HETATM    8  C   UNL     1      -7.734   9.258  64.967  1.00  0.00    -0.109 C  
BRANCH   7   9
HETATM    9  N   UNL     1      -8.672   9.871  67.222  1.00  0.00    -0.128 NA 
HETATM   10  P   UNL     1      -8.413  11.524  66.949  1.00  0.00    -0.167 P  
HETATM   11  H   UNL     1      -7.921   9.486  67.796  1.00  0.00     0.000 HD 
HETATM   12  O   UNL     1      -8.287  12.218  68.451  1.00  0.00    -0.167 OA 
HETATM   13  O   UNL     1     -10.127  11.746  67.021  1.00  0.00    -0.206 OA 
HETATM   14  O   UNL     1      -6.879  11.324  66.884  1.00  0.00    -0.115 OA 
BRANCH  13  15
HETATM   15  C   UNL     1     -10.810  11.903  65.843  1.00  0.00    -0.297 A  
HETATM   16  C   UNL     1     -12.374  12.197  63.557  1.00  0.00    -0.682 A  
HETATM   17  C   UNL     1     -12.030  12.574  65.917  1.00  0.00    -0.472 A  
HETATM   18  C   UNL     1     -10.350  11.410  64.622  1.00  0.00    -0.362 A  
HETATM   19  C   UNL     1     -12.816  12.716  64.774  1.00  0.00    -0.349 A  
HETATM   20  C   UNL     1     -11.140  11.554  63.479  1.00  0.00    -0.434 A  
ENDBRANCH  13  15
BRANCH  12  21
HETATM   21  C   UNL     1      -7.515  13.432  68.524  1.00  0.00    -0.118 C  
BRANCH  21  22
HETATM   22  C   UNL     1      -8.281  14.788  68.605  1.00  0.00    -0.159 C  
HETATM   23  O   UNL     1      -7.498  15.844  68.006  1.00  0.00    -0.120 OA 
HETATM   24  C   UNL     1      -9.688  16.219  67.223  1.00  0.00    -0.237 C  
HETATM   25  H   UNL     1     -11.611  14.717  68.321  1.00  0.00     0.000 HD 
HETATM   26  C   UNL     1      -9.652  14.834  67.888  1.00  0.00    -0.210 C  
HETATM   27  O   UNL     1     -10.768  14.688  68.761  1.00  0.00    -0.234 OA 
HETATM   28  F   UNL     1     -10.833  16.873  67.567  1.00  0.00    -0.331 F  
HETATM   29  C   UNL     1      -9.687  16.068  65.710  1.00  0.00    -0.340 C  
HETATM   30  C   UNL     1      -8.457  16.906  67.817  1.00  0.00    -0.196 C  
BRANCH  30  31
HETATM   31  N   UNL     1      -7.860  17.992  67.033  1.00  0.00    -0.213 N  
HETATM   32  C   UNL     1      -8.472  19.230  66.942  1.00  0.00    -0.289 C  
HETATM   33  C   UNL     1      -8.005  20.196  66.155  1.00  0.00    -0.256 C  
HETATM   34  C   UNL     1      -6.810  19.930  65.340  1.00  0.00    -0.299 C  
HETATM   35  O   UNL     1      -6.429  20.734  64.499  1.00  0.00    -0.316 OA 
HETATM   36  N   UNL     1      -6.186  18.742  65.581  1.00  0.00    -0.224 N  
HETATM   37  H   UNL     1      -5.272  18.602  65.149  1.00  0.00     0.000 HD 
HETATM   38  C   UNL     1      -6.677  17.719  66.351  1.00  0.00    -0.246 C  
HETATM   39  O   UNL     1      -6.095  16.642  66.387  1.00  0.00    -0.278 OA 
ENDBRANCH  30  31
ENDBRANCH  21  22
ENDBRANCH  12  21
ENDBRANCH   7   9
ENDBRANCH   5   7
ENDBRANCH   4   5
ENDBRANCH   2   4
TORSDOF 8
ENDMDL
MODEL      107
REMARK 921   NORMALIZED FREE ENERGY PREDICTED BY IDOCK:   -3.67 KCAL/MOL
REMARK 922        TOTAL FREE ENERGY PREDICTED BY IDOCK:   -7.94 KCAL/MOL
REMARK 923 INTER-LIGAND FREE ENERGY PREDICTED BY IDOCK:   -7.11 KCAL/MOL
REMARK 924 INTRA-LIGAND FREE ENERGY PREDICTED BY IDOCK:   -0.82 KCAL/MOL
REMARK 927      BINDING AFFINITY PREDICTED BY RF-SCORE:    0.00 PKD
ROOT
HETATM    1  C   UNL     1     -11.581  16.270  68.866  1.00  0.00    -0.230 C  
HETATM    2  C   UNL     1     -10.799  16.842  67.691  1.00  0.00    -0.244 C  
HETATM    3  C   UNL     1     -10.642  18.352  67.851  1.00  0.00    -0.379 C  
ENDROOT
BRANCH   2   4
HETATM    4  O   UNL     1      -9.479  16.264  67.656  1.00  0.00    -0.219 OA 
BRANCH   4   5
HETATM    5  C   UNL     1      -9.026  15.868  66.427  1.00  0.00    -0.326 C  
HETATM    6  O   UNL     1      -8.103  16.392  65.815  1.00  0.00    -0.094 OA 
BRANCH   5   7
HETATM    7  C   UNL     1      -9.795  14.629  65.960  1.00  0.00    -0.322 C  
HETATM    8  C   UNL     1     -10.656  15.027  64.762  1.00  0.00    -0.319 C  
BRANCH   7   9
HETATM    9  N   UNL     1     -10.575  14.046  67.079  1.00  0.00    -0.278 NA 
HETATM   10  P   UNL     1     -10.300  12.395  67.351  1.00  0.00    -0.210 P  
HETATM   11  H   UNL     1     -11.571  14.221  66.946  1.00  0.00     0.000 HD 
HETATM   12  O   UNL     1     -11.239  11.987  68.657  1.00  0.00    -0.218 OA 
HETATM   13  O   UNL     1      -9.031  12.843  68.437  1.00  0.00    -0.187 OA 
HETATM   14  O   UNL     1     -11.437  11.995  66.377  1.00  0.00    -0.351 OA 
BRANCH  13  15
HETATM   15  C   UNL     1      -7.736  12.740  67.999  1.00  0.00    -0.137 A  
HETATM   16  C   UNL     1      -5.139  12.327  67.082  1.00  0.00    -0.041 A  
HETATM   17  C   UNL     1      -7.498  11.825  66.975  1.00  0.00    -0.137 A  
HETATM   18  C   UNL     1      -6.685  13.478  68.543  1.00  0.00    -0.095 A  
HETATM   19  C   UNL     1      -6.197  11.613  66.519  1.00  0.00    -0.011 A  
HETATM   20  C   UNL     1      -5.384  13.263  68.085  1.00  0.00    -0.102 A  
ENDBRANCH  13  15
BRANCH  12  21
HETATM   21  C   UNL     1     -11.647  10.608  68.737  1.00  0.00    -0.239 C  
BRANCH  21  22
HETATM   22  C   UNL     1     -10.555   9.533  69.025  1.00  0.00    -0.219 C  
HETATM   23  O   UNL     1     -10.927   8.733  70.169  1.00  0.00    -0.239 OA 
HETATM   24  C   UNL     1     -10.103   7.176  68.604  1.00  0.00    -0.173 C  
HETATM   25  H   UNL     1      -8.958   8.195  66.412  1.00  0.00     0.000 HD 
HETATM   26  C   UNL     1     -10.284   8.522  67.885  1.00  0.00    -0.218 C  
HETATM   27  O   UNL     1      -9.124   8.816  67.112  1.00  0.00    -0.129 OA 
HETATM   28  F   UNL     1      -8.937   6.590  68.214  1.00  0.00    -0.123 F  
HETATM   29  C   UNL     1     -11.235   6.232  68.229  1.00  0.00    -0.251 C  
HETATM   30  C   UNL     1     -10.052   7.589  70.077  1.00  0.00    -0.199 C  
BRANCH  30  31
HETATM   31  N   UNL     1     -10.438   6.576  71.064  1.00  0.00    -0.217 N  
HETATM   32  C   UNL     1     -11.748   6.457  71.494  1.00  0.00    -0.313 C  
HETATM   33  C   UNL     1     -12.103   5.617  72.463  1.00  0.00    -0.048 C  
HETATM   34  C   UNL     1     -11.063   4.802  73.110  1.00  0.00    -0.310 C  
HETATM   35  O   UNL     1     -11.318   4.124  74.098  1.00  0.00    -0.111 OA 
HETATM   36  N   UNL     1      -9.824   4.873  72.547  1.00  0.00    -0.153 N  
HETATM   37  H   UNL     1      -9.127   4.202  72.872  1.00  0.00     0.000 HD 
HETATM   38  C   UNL     1      -9.431   5.765  71.581  1.00  0.00    -0.152 C  
HETATM   39  O   UNL     1      -8.255   5.829  71.246  1.00  0.00    -0.118 OA 
ENDBRANCH  30  31
ENDBRANCH  21  22
ENDBRANCH  12  21
ENDBRANCH   7   9
ENDBRANCH   5   7
ENDBRANCH   4   5
ENDBRANCH   2   4
TORSDOF 8
ENDMDL
MODEL      108
REMARK 921   NORMALIZED FREE ENERGY PREDICTED BY IDOCK:   -3.66 KCAL/MOL
REMARK 922        TOTAL FREE ENERGY PREDICTED BY IDOCK:   -7.92 KCAL/MOL
REMARK 923 INTER-LIGAND FREE ENERGY PREDICTED BY IDOCK:   -8.35 KCAL/MOL
REMARK 924 INTRA-LIGAND FREE ENERGY PREDICTED BY IDOCK:    0.43 KCAL/MOL
REMARK 927      BINDING AFFINITY PREDICTED BY RF-SCORE:    0.00 PKD
ROOT
HETATM    1  C   UNL     1     -11.807  15.645  64.321  1.00  0.00    -0.151 C  
HETATM    2  C   UNL     1     -10.633  14.775  64.757  1.00  0.00    -0.328 C  
HETATM    3  C   UNL     1      -9.672  15.589  65.621  1.00  0.00    -0.355 C  
ENDROOT
BRANCH   2   4
HETATM    4  O   UNL     1     -11.113  13.672  65.551  1.00  0.00    -0.292 OA 
BRANCH   4   5
HETATM    5  C   UNL     1     -12.390  13.782  66.028  1.00  0.00    -0.457 C  
HETATM    6  O   UNL     1     -13.395  13.873  65.333  1.00  0.00    -0.710 OA 
BRANCH   5   7
HETATM    7  C   UNL     1     -12.387  13.704  67.557  1.00  0.00    -0.065 C  
HETATM    8  C   UNL     1     -11.354  14.701  68.081  1.00  0.00    -0.321 C  
BRANCH   7   9
HETATM    9  N   UNL     1     -12.146  12.311  68.008  1.00  0.00    -0.409 NA 
HETATM   10  P   UNL     1     -11.095  12.166  69.330  1.00  0.00    -0.051 P  
HETATM   11  H   UNL     1     -11.817  11.739  67.230  1.00  0.00     0.000 HD 
HETATM   12  O   UNL     1     -11.015  10.543  69.671  1.00  0.00    -0.245 OA 
HETATM   13  O   UNL     1     -12.473  12.288  70.367  1.00  0.00    -0.241 OA 
HETATM   14  O   UNL     1      -9.861  12.057  68.401  1.00  0.00    -0.207 OA 
BRANCH  13  15
HETATM   15  C   UNL     1     -12.709  13.485  70.993  1.00  0.00    -0.322 A  
HETATM   16  C   UNL     1     -12.998  15.900  72.350  1.00  0.00    -0.511 A  
HETATM   17  C   UNL     1     -11.617  14.341  71.129  1.00  0.00    -0.017 A  
HETATM   18  C   UNL     1     -13.956  13.848  71.502  1.00  0.00    -0.238 A  
HETATM   19  C   UNL     1     -11.760  15.547  71.813  1.00  0.00    -0.509 A  
HETATM   20  C   UNL     1     -14.096  15.057  72.187  1.00  0.00    -0.629 A  
ENDBRANCH  13  15
BRANCH  12  21
HETATM   21  C   UNL     1      -9.810  10.091  70.317  1.00  0.00    -0.085 C  
BRANCH  21  22
HETATM   22  C   UNL     1      -9.071   8.857  69.715  1.00  0.00    -0.150 C  
HETATM   23  O   UNL     1      -9.046   7.773  70.670  1.00  0.00    -0.151 OA 
HETATM   24  C   UNL     1      -9.570   6.738  68.619  1.00  0.00    -0.131 C  
HETATM   25  H   UNL     1      -9.408   8.282  66.440  1.00  0.00     0.000 HD 
HETATM   26  C   UNL     1      -9.691   8.259  68.429  1.00  0.00    -0.158 C  
HETATM   27  O   UNL     1      -9.028   8.649  67.230  1.00  0.00    -0.131 OA 
HETATM   28  F   UNL     1      -8.964   6.178  67.535  1.00  0.00    -0.116 F  
HETATM   29  C   UNL     1     -10.954   6.119  68.736  1.00  0.00    -0.421 C  
HETATM   30  C   UNL     1      -8.692   6.627  69.866  1.00  0.00    -0.141 C  
BRANCH  30  31
HETATM   31  N   UNL     1      -8.814   5.397  70.657  1.00  0.00    -0.130 N  
HETATM   32  C   UNL     1      -9.720   5.303  71.699  1.00  0.00    -0.160 C  
HETATM   33  C   UNL     1      -9.777   4.238  72.494  1.00  0.00    -0.200 C  
HETATM   34  C   UNL     1      -8.832   3.134  72.269  1.00  0.00    -0.086 C  
HETATM   35  O   UNL     1      -8.751   2.202  73.059  1.00  0.00    -0.065 OA 
HETATM   36  N   UNL     1      -8.063   3.237  71.148  1.00  0.00    -0.061 N  
HETATM   37  H   UNL     1      -7.517   2.416  70.882  1.00  0.00     0.000 HD 
HETATM   38  C   UNL     1      -7.958   4.345  70.345  1.00  0.00    -0.056 C  
HETATM   39  O   UNL     1      -7.132   4.373  69.441  1.00  0.00    -0.049 OA 
ENDBRANCH  30  31
ENDBRANCH  21  22
ENDBRANCH  12  21
ENDBRANCH   7   9
ENDBRANCH   5   7
ENDBRANCH   4   5
ENDBRANCH   2   4
TORSDOF 8
ENDMDL
MODEL      109
REMARK 921   NORMALIZED FREE ENERGY PREDICTED BY IDOCK:   -3.65 KCAL/MOL
REMARK 922        TOTAL FREE ENERGY PREDICTED BY IDOCK:   -7.91 KCAL/MOL
REMARK 923 INTER-LIGAND FREE ENERGY PREDICTED BY IDOCK:   -6.66 KCAL/MOL
REMARK 924 INTRA-LIGAND FREE ENERGY PREDICTED BY IDOCK:   -1.25 KCAL/MOL
REMARK 927      BINDING AFFINITY PREDICTED BY RF-SCORE:    0.00 PKD
ROOT
HETATM    1  C   UNL     1     -13.042  13.428  71.988  1.00  0.00    -0.473 C  
HETATM    2  C   UNL     1     -12.554  14.301  70.839  1.00  0.00    -0.356 C  
HETATM    3  C   UNL     1     -12.117  15.665  71.367  1.00  0.00    -0.476 C  
ENDROOT
BRANCH   2   4
HETATM    4  O   UNL     1     -11.412  13.685  70.209  1.00  0.00    -0.145 OA 
BRANCH   4   5
HETATM    5  C   UNL     1     -11.588  13.266  68.919  1.00  0.00    -0.314 C  
HETATM    6  O   UNL     1     -12.033  13.956  68.010  1.00  0.00    -0.361 OA 
BRANCH   5   7
HETATM    7  C   UNL     1     -11.081  11.830  68.762  1.00  0.00    -0.241 C  
HETATM    8  C   UNL     1     -12.193  11.001  68.119  1.00  0.00     0.420 C  
BRANCH   7   9
HETATM    9  N   UNL     1     -10.624  11.292  70.067  1.00  0.00    -0.300 NA 
HETATM   10  P   UNL     1     -10.919   9.639  70.296  1.00  0.00    -0.323 P  
HETATM   11  H   UNL     1     -11.026  11.833  70.833  1.00  0.00     0.000 HD 
HETATM   12  O   UNL     1     -10.292   9.268  71.788  1.00  0.00    -0.328 OA 
HETATM   13  O   UNL     1      -9.369   9.323  69.596  1.00  0.00    -0.161 OA 
HETATM   14  O   UNL     1     -12.307   9.922  70.922  1.00  0.00    -0.297 OA 
BRANCH  13  15
HETATM   15  C   UNL     1      -9.321   8.889  68.297  1.00  0.00    -0.143 A  
HETATM   16  C   UNL     1      -9.130   8.187  65.608  1.00  0.00    -0.092 A  
HETATM   17  C   UNL     1      -8.189   9.243  67.565  1.00  0.00    -0.114 A  
HETATM   18  C   UNL     1     -10.345   8.153  67.700  1.00  0.00    -0.313 A  
HETATM   19  C   UNL     1      -8.095   8.896  66.217  1.00  0.00    -0.110 A  
HETATM   20  C   UNL     1     -10.248   7.808  66.350  1.00  0.00    -0.053 A  
ENDBRANCH  13  15
BRANCH  12  21
HETATM   21  C   UNL     1     -10.891   8.146  72.464  1.00  0.00    -0.361 C  
BRANCH  21  22
HETATM   22  C   UNL     1     -10.904   6.768  71.735  1.00  0.00    -0.229 C  
HETATM   23  O   UNL     1      -9.891   6.736  70.704  1.00  0.00    -0.179 OA 
HETATM   24  C   UNL     1      -9.724   4.635  71.758  1.00  0.00    -0.169 C  
HETATM   25  H   UNL     1     -11.629   4.053  73.543  1.00  0.00     0.000 HD 
HETATM   26  C   UNL     1     -10.627   5.531  72.622  1.00  0.00    -0.226 C  
HETATM   27  O   UNL     1     -11.799   4.813  72.998  1.00  0.00    -0.211 OA 
HETATM   28  F   UNL     1     -10.241   3.378  71.688  1.00  0.00    -0.241 F  
HETATM   29  C   UNL     1      -8.345   4.527  72.390  1.00  0.00    -0.110 C  
HETATM   30  C   UNL     1      -9.770   5.331  70.396  1.00  0.00    -0.195 C  
BRANCH  30  31
HETATM   31  N   UNL     1      -8.634   5.106  69.497  1.00  0.00    -0.092 N  
HETATM   32  C   UNL     1      -7.524   5.933  69.525  1.00  0.00    -0.076 C  
HETATM   33  C   UNL     1      -6.528   5.812  68.650  1.00  0.00    -0.042 C  
HETATM   34  C   UNL     1      -6.621   4.778  67.609  1.00  0.00    -0.047 C  
HETATM   35  O   UNL     1      -5.802   4.723  66.700  1.00  0.00    -0.021 OA 
HETATM   36  N   UNL     1      -7.673   3.919  67.725  1.00  0.00    -0.070 N  
HETATM   37  H   UNL     1      -7.674   3.101  67.115  1.00  0.00     0.000 HD 
HETATM   38  C   UNL     1      -8.731   4.056  68.588  1.00  0.00    -0.098 C  
HETATM   39  O   UNL     1      -9.690   3.298  68.511  1.00  0.00    -0.112 OA 
ENDBRANCH  30  31
ENDBRANCH  21  22
ENDBRANCH  12  21
ENDBRANCH   7   9
ENDBRANCH   5   7
ENDBRANCH   4   5
ENDBRANCH   2   4
TORSDOF 8
ENDMDL
MODEL      110
REMARK 921   NORMALIZED FREE ENERGY PREDICTED BY IDOCK:   -3.63 KCAL/MOL
REMARK 922        TOTAL FREE ENERGY PREDICTED BY IDOCK:   -7.88 KCAL/MOL
REMARK 923 INTER-LIGAND FREE ENERGY PREDICTED BY IDOCK:   -7.12 KCAL/MOL
REMARK 924 INTRA-LIGAND FREE ENERGY PREDICTED BY IDOCK:   -0.76 KCAL/MOL
REMARK 927      BINDING AFFINITY PREDICTED BY RF-SCORE:    0.00 PKD
ROOT
HETATM    1  C   UNL     1      -6.634   7.630  64.249  1.00  0.00    -0.052 C  
HETATM    2  C   UNL     1      -7.078   9.086  64.327  1.00  0.00    -0.090 C  
HETATM    3  C   UNL     1      -8.422   9.261  63.623  1.00  0.00    -0.200 C  
ENDROOT
BRANCH   2   4
HETATM    4  O   UNL     1      -7.250   9.470  65.706  1.00  0.00    -0.092 OA 
BRANCH   4   5
HETATM    5  C   UNL     1      -6.784  10.709  66.049  1.00  0.00    -0.128 C  
HETATM    6  O   UNL     1      -5.624  11.083  65.926  1.00  0.00    -0.138 OA 
BRANCH   5   7
HETATM    7  C   UNL     1      -7.938  11.584  66.546  1.00  0.00    -0.095 C  
HETATM    8  C   UNL     1      -7.403  12.498  67.647  1.00  0.00    -0.134 C  
BRANCH   7   9
HETATM    9  N   UNL     1      -9.081  10.742  66.980  1.00  0.00    -0.144 NA 
HETATM   10  P   UNL     1      -9.996  11.390  68.251  1.00  0.00    -0.208 P  
HETATM   11  H   UNL     1      -8.759   9.804  67.219  1.00  0.00     0.000 HD 
HETATM   12  O   UNL     1     -11.221  10.305  68.528  1.00  0.00    -0.252 OA 
HETATM   13  O   UNL     1     -10.988  12.166  67.066  1.00  0.00    -0.246 OA 
HETATM   14  O   UNL     1      -9.107  10.696  69.312  1.00  0.00    -0.175 OA 
BRANCH  13  15
HETATM   15  C   UNL     1     -10.799  13.505  66.839  1.00  0.00    -0.282 A  
HETATM   16  C   UNL     1     -10.299  16.173  66.212  1.00  0.00    -0.337 A  
HETATM   17  C   UNL     1     -10.740  13.907  65.505  1.00  0.00    -0.306 A  
HETATM   18  C   UNL     1     -10.645  14.439  67.863  1.00  0.00    -0.240 A  
HETATM   19  C   UNL     1     -10.484  15.241  65.191  1.00  0.00    -0.438 A  
HETATM   20  C   UNL     1     -10.388  15.774  67.545  1.00  0.00    -0.280 A  
ENDBRANCH  13  15
BRANCH  12  21
HETATM   21  C   UNL     1     -11.767  10.294  69.861  1.00  0.00    -0.225 C  
BRANCH  21  22
HETATM   22  C   UNL     1     -11.911   8.921  70.586  1.00  0.00    -0.128 C  
HETATM   23  O   UNL     1     -11.038   7.941  69.982  1.00  0.00    -0.241 OA 
HETATM   24  C   UNL     1     -10.799   7.592  72.300  1.00  0.00    -0.267 C  
HETATM   25  H   UNL     1     -12.479   8.948  73.879  1.00  0.00     0.000 HD 
HETATM   26  C   UNL     1     -11.560   8.912  72.093  1.00  0.00    -0.330 C  
HETATM   27  O   UNL     1     -12.694   8.954  72.954  1.00  0.00    -0.301 OA 
HETATM   28  F   UNL     1     -11.356   6.887  73.322  1.00  0.00    -0.243 F  
HETATM   29  C   UNL     1      -9.355   7.881  72.679  1.00  0.00    -0.275 C  
HETATM   30  C   UNL     1     -10.997   6.880  70.960  1.00  0.00    -0.252 C  
BRANCH  30  31
HETATM   31  N   UNL     1      -9.990   5.883  70.583  1.00  0.00    -0.182 N  
HETATM   32  C   UNL     1     -10.028   4.598  71.096  1.00  0.00    -0.195 C  
HETATM   33  C   UNL     1      -9.069   3.709  70.850  1.00  0.00    -0.180 C  
HETATM   34  C   UNL     1      -7.922   4.113  70.022  1.00  0.00    -0.055 C  
HETATM   35  O   UNL     1      -6.951   3.379  69.888  1.00  0.00    -0.040 OA 
HETATM   36  N   UNL     1      -8.019   5.344  69.444  1.00  0.00    -0.088 N  
HETATM   37  H   UNL     1      -7.318   5.584  68.742  1.00  0.00     0.000 HD 
HETATM   38  C   UNL     1      -8.974   6.289  69.723  1.00  0.00    -0.140 C  
HETATM   39  O   UNL     1      -8.884   7.413  69.244  1.00  0.00    -0.136 OA 
ENDBRANCH  30  31
ENDBRANCH  21  22
ENDBRANCH  12  21
ENDBRANCH   7   9
ENDBRANCH   5   7
ENDBRANCH   4   5
ENDBRANCH   2   4
TORSDOF 8
ENDMDL
MODEL      111
REMARK 921   NORMALIZED FREE ENERGY PREDICTED BY IDOCK:   -3.63 KCAL/MOL
REMARK 922        TOTAL FREE ENERGY PREDICTED BY IDOCK:   -7.87 KCAL/MOL
REMARK 923 INTER-LIGAND FREE ENERGY PREDICTED BY IDOCK:   -7.83 KCAL/MOL
REMARK 924 INTRA-LIGAND FREE ENERGY PREDICTED BY IDOCK:   -0.05 KCAL/MOL
REMARK 927      BINDING AFFINITY PREDICTED BY RF-SCORE:    0.00 PKD
ROOT
HETATM    1  C   UNL     1     -10.803   8.435  72.037  1.00  0.00    -0.390 C  
HETATM    2  C   UNL     1     -10.376   7.270  71.152  1.00  0.00    -0.198 C  
HETATM    3  C   UNL     1     -10.429   5.965  71.943  1.00  0.00    -0.267 C  
ENDROOT
BRANCH   2   4
HETATM    4  O   UNL     1     -11.283   7.148  70.038  1.00  0.00    -0.270 OA 
BRANCH   4   5
HETATM    5  C   UNL     1     -10.814   6.460  68.952  1.00  0.00    -0.325 C  
HETATM    6  O   UNL     1     -10.975   5.262  68.755  1.00  0.00     0.043 OA 
BRANCH   5   7
HETATM    7  C   UNL     1     -10.119   7.421  67.984  1.00  0.00    -0.179 C  
HETATM    8  C   UNL     1      -8.777   7.824  68.595  1.00  0.00    -0.128 C  
BRANCH   7   9
HETATM    9  N   UNL     1     -10.997   8.577  67.675  1.00  0.00    -0.481 NA 
HETATM   10  P   UNL     1     -10.204  10.073  67.608  1.00  0.00    -0.235 P  
HETATM   11  H   UNL     1     -11.774   8.618  68.336  1.00  0.00     0.000 HD 
HETATM   12  O   UNL     1     -11.368  11.188  67.214  1.00  0.00    -0.397 OA 
HETATM   13  O   UNL     1      -9.940   9.794  65.922  1.00  0.00    -0.269 OA 
HETATM   14  O   UNL     1     -10.440  10.323  69.119  1.00  0.00    -0.196 OA 
BRANCH  13  15
HETATM   15  C   UNL     1      -8.694   9.386  65.520  1.00  0.00    -0.163 A  
HETATM   16  C   UNL     1      -6.127   8.754  64.642  1.00  0.00    -0.065 A  
HETATM   17  C   UNL     1      -7.655  10.298  65.695  1.00  0.00    -0.148 A  
HETATM   18  C   UNL     1      -8.449   8.142  64.939  1.00  0.00    -0.094 A  
HETATM   19  C   UNL     1      -6.371   9.985  65.251  1.00  0.00    -0.107 A  
HETATM   20  C   UNL     1      -7.162   7.831  64.495  1.00  0.00    -0.073 A  
ENDBRANCH  13  15
BRANCH  12  21
HETATM   21  C   UNL     1     -11.124  12.539  67.650  1.00  0.00    -0.258 C  
BRANCH  21  22
HETATM   22  C   UNL     1      -9.765  13.201  67.267  1.00  0.00    -0.230 C  
HETATM   23  O   UNL     1      -9.978  14.553  66.803  1.00  0.00    -0.252 OA 
HETATM   24  C   UNL     1      -8.093  14.704  68.208  1.00  0.00    -0.143 C  
HETATM   25  H   UNL     1      -7.071  12.387  69.069  1.00  0.00     0.000 HD 
HETATM   26  C   UNL     1      -8.724  13.316  68.406  1.00  0.00    -0.126 C  
HETATM   27  O   UNL     1      -7.710  12.316  68.370  1.00  0.00    -0.130 OA 
HETATM   28  F   UNL     1      -6.736  14.599  68.166  1.00  0.00    -0.090 F  
HETATM   29  C   UNL     1      -8.444  15.605  69.382  1.00  0.00    -0.244 C  
HETATM   30  C   UNL     1      -8.659  15.137  66.854  1.00  0.00    -0.257 C  
BRANCH  30  31
HETATM   31  N   UNL     1      -8.734  16.579  66.597  1.00  0.00    -0.225 N  
HETATM   32  C   UNL     1      -7.599  17.314  66.306  1.00  0.00    -0.325 C  
HETATM   33  C   UNL     1      -7.627  18.638  66.171  1.00  0.00    -0.276 C  
HETATM   34  C   UNL     1      -8.904  19.342  66.358  1.00  0.00    -0.359 C  
HETATM   35  O   UNL     1      -8.952  20.566  66.385  1.00  0.00    -0.137 OA 
HETATM   36  N   UNL     1     -10.000  18.545  66.509  1.00  0.00    -0.359 N  
HETATM   37  H   UNL     1     -10.913  19.000  66.481  1.00  0.00     0.000 HD 
HETATM   38  C   UNL     1      -9.983  17.186  66.697  1.00  0.00    -0.295 C  
HETATM   39  O   UNL     1     -11.021  16.589  66.959  1.00  0.00    -0.177 OA 
ENDBRANCH  30  31
ENDBRANCH  21  22
ENDBRANCH  12  21
ENDBRANCH   7   9
ENDBRANCH   5   7
ENDBRANCH   4   5
ENDBRANCH   2   4
TORSDOF 8
ENDMDL
MODEL      112
REMARK 921   NORMALIZED FREE ENERGY PREDICTED BY IDOCK:   -3.61 KCAL/MOL
REMARK 922        TOTAL FREE ENERGY PREDICTED BY IDOCK:   -7.85 KCAL/MOL
REMARK 923 INTER-LIGAND FREE ENERGY PREDICTED BY IDOCK:   -7.27 KCAL/MOL
REMARK 924 INTRA-LIGAND FREE ENERGY PREDICTED BY IDOCK:   -0.59 KCAL/MOL
REMARK 927      BINDING AFFINITY PREDICTED BY RF-SCORE:    0.00 PKD
ROOT
HETATM    1  C   UNL     1      -7.754  20.357  67.426  1.00  0.00    -0.364 C  
HETATM    2  C   UNL     1      -8.031  19.891  66.001  1.00  0.00    -0.314 C  
HETATM    3  C   UNL     1      -6.754  19.971  65.167  1.00  0.00    -0.323 C  
ENDROOT
BRANCH   2   4
HETATM    4  O   UNL     1      -8.465  18.516  66.014  1.00  0.00    -0.489 OA 
BRANCH   4   5
HETATM    5  C   UNL     1      -9.743  18.291  66.445  1.00  0.00    -0.334 C  
HETATM    6  O   UNL     1     -10.725  18.940  66.104  1.00  0.00    -0.405 OA 
BRANCH   5   7
HETATM    7  C   UNL     1      -9.778  17.064  67.360  1.00  0.00    -0.252 C  
HETATM    8  C   UNL     1     -10.231  17.519  68.747  1.00  0.00    -0.373 C  
BRANCH   7   9
HETATM    9  N   UNL     1      -8.463  16.378  67.364  1.00  0.00    -0.174 NA 
HETATM   10  P   UNL     1      -8.493  14.789  67.952  1.00  0.00    -0.178 P  
HETATM   11  H   UNL     1      -7.776  16.932  67.878  1.00  0.00     0.000 HD 
HETATM   12  O   UNL     1      -6.937  14.226  67.822  1.00  0.00    -0.146 OA 
HETATM   13  O   UNL     1      -8.792  14.256  66.334  1.00  0.00    -0.139 OA 
HETATM   14  O   UNL     1      -8.226  15.266  69.401  1.00  0.00    -0.227 OA 
BRANCH  13  15
HETATM   15  C   UNL     1     -10.072  13.900  65.994  1.00  0.00    -0.313 A  
HETATM   16  C   UNL     1     -12.654  13.301  65.139  1.00  0.00    -0.512 A  
HETATM   17  C   UNL     1     -10.340  13.768  64.633  1.00  0.00    -0.393 A  
HETATM   18  C   UNL     1     -11.082  13.698  66.935  1.00  0.00    -0.314 A  
HETATM   19  C   UNL     1     -11.634  13.474  64.204  1.00  0.00    -0.415 A  
HETATM   20  C   UNL     1     -12.377  13.403  66.501  1.00  0.00    -0.354 A  
ENDBRANCH  13  15
BRANCH  12  21
HETATM   21  C   UNL     1      -6.562  13.184  68.743  1.00  0.00    -0.096 C  
BRANCH  21  22
HETATM   22  C   UNL     1      -6.385  11.738  68.186  1.00  0.00    -0.051 C  
HETATM   23  O   UNL     1      -6.429  10.777  69.264  1.00  0.00    -0.053 OA 
HETATM   24  C   UNL     1      -7.730   9.806  67.556  1.00  0.00    -0.095 C  
HETATM   25  H   UNL     1      -7.693  11.050  65.189  1.00  0.00     0.000 HD 
HETATM   26  C   UNL     1      -7.455  11.269  67.172  1.00  0.00    -0.130 C  
HETATM   27  O   UNL     1      -7.036  11.339  65.812  1.00  0.00     0.103 OA 
HETATM   28  F   UNL     1      -7.605   9.004  66.463  1.00  0.00    -0.085 F  
HETATM   29  C   UNL     1      -9.156   9.663  68.065  1.00  0.00    -0.128 C  
HETATM   30  C   UNL     1      -6.633   9.520  68.584  1.00  0.00    -0.052 C  
BRANCH  30  31
HETATM   31  N   UNL     1      -6.896   8.455  69.557  1.00  0.00    -0.041 N  
HETATM   32  C   UNL     1      -6.766   7.121  69.212  1.00  0.00    -0.049 C  
HETATM   33  C   UNL     1      -7.099   6.138  70.045  1.00  0.00    -0.072 C  
HETATM   34  C   UNL     1      -7.641   6.483  71.368  1.00  0.00    -0.094 C  
HETATM   35  O   UNL     1      -8.093   5.619  72.109  1.00  0.00    -0.106 OA 
HETATM   36  N   UNL     1      -7.616   7.808  71.687  1.00  0.00    -0.082 N  
HETATM   37  H   UNL     1      -7.836   8.057  72.652  1.00  0.00     0.000 HD 
HETATM   38  C   UNL     1      -7.321   8.836  70.827  1.00  0.00    -0.080 C  
HETATM   39  O   UNL     1      -7.463   9.998  71.187  1.00  0.00    -0.137 OA 
ENDBRANCH  30  31
ENDBRANCH  21  22
ENDBRANCH  12  21
ENDBRANCH   7   9
ENDBRANCH   5   7
ENDBRANCH   4   5
ENDBRANCH   2   4
TORSDOF 8
ENDMDL
MODEL      113
REMARK 921   NORMALIZED FREE ENERGY PREDICTED BY IDOCK:   -3.61 KCAL/MOL
REMARK 922        TOTAL FREE ENERGY PREDICTED BY IDOCK:   -7.85 KCAL/MOL
REMARK 923 INTER-LIGAND FREE ENERGY PREDICTED BY IDOCK:   -7.16 KCAL/MOL
REMARK 924 INTRA-LIGAND FREE ENERGY PREDICTED BY IDOCK:   -0.69 KCAL/MOL
REMARK 927      BINDING AFFINITY PREDICTED BY RF-SCORE:    0.00 PKD
ROOT
HETATM    1  C   UNL     1      -7.409  10.986  62.380  1.00  0.00    -0.017 C  
HETATM    2  C   UNL     1      -7.156   9.973  63.490  1.00  0.00    -0.130 C  
HETATM    3  C   UNL     1      -5.655   9.767  63.679  1.00  0.00    -0.094 C  
ENDROOT
BRANCH   2   4
HETATM    4  O   UNL     1      -7.694  10.467  64.733  1.00  0.00    -0.109 OA 
BRANCH   4   5
HETATM    5  C   UNL     1      -9.016  10.204  64.966  1.00  0.00    -0.195 C  
HETATM    6  O   UNL     1      -9.600   9.183  64.623  1.00  0.00     0.111 OA 
BRANCH   5   7
HETATM    7  C   UNL     1      -9.640  11.340  65.780  1.00  0.00    -0.227 C  
HETATM    8  C   UNL     1      -8.558  11.929  66.684  1.00  0.00    -0.163 C  
BRANCH   7   9
HETATM    9  N   UNL     1     -10.831  10.857  66.522  1.00  0.00    -0.214 NA 
HETATM   10  P   UNL     1     -11.006  11.503  68.079  1.00  0.00    -0.278 P  
HETATM   11  H   UNL     1     -10.835   9.837  66.560  1.00  0.00     0.000 HD 
HETATM   12  O   UNL     1     -12.409  10.854  68.685  1.00  0.00    -0.501 OA 
HETATM   13  O   UNL     1     -11.933  12.786  67.382  1.00  0.00    -0.360 OA 
HETATM   14  O   UNL     1     -10.176  10.354  68.704  1.00  0.00    -0.166 OA 
BRANCH  13  15
HETATM   15  C   UNL     1     -11.326  14.002  67.206  1.00  0.00    -0.330 A  
HETATM   16  C   UNL     1     -10.194  16.540  67.018  1.00  0.00    -0.288 A  
HETATM   17  C   UNL     1     -10.966  14.690  68.363  1.00  0.00    -0.260 A  
HETATM   18  C   UNL     1     -11.089  14.563  65.951  1.00  0.00    -0.327 A  
HETATM   19  C   UNL     1     -10.404  15.963  68.270  1.00  0.00    -0.242 A  
HETATM   20  C   UNL     1     -10.527  15.838  65.861  1.00  0.00    -0.366 A  
ENDBRANCH  13  15
BRANCH  12  21
HETATM   21  C   UNL     1     -12.493  10.758  70.120  1.00  0.00    -0.285 C  
BRANCH  21  22
HETATM   22  C   UNL     1     -12.387   9.344  70.770  1.00  0.00    -0.120 C  
HETATM   23  O   UNL     1     -11.441   8.528  70.044  1.00  0.00    -0.098 OA 
HETATM   24  C   UNL     1     -10.966   8.103  72.312  1.00  0.00    -0.332 C  
HETATM   25  H   UNL     1     -12.680   9.128  74.092  1.00  0.00     0.000 HD 
HETATM   26  C   UNL     1     -11.915   9.311  72.243  1.00  0.00    -0.134 C  
HETATM   27  O   UNL     1     -12.970   9.149  73.187  1.00  0.00    -0.088 OA 
HETATM   28  F   UNL     1     -11.335   7.276  73.329  1.00  0.00    -0.320 F  
HETATM   29  C   UNL     1      -9.549   8.574  72.599  1.00  0.00    -0.294 C  
HETATM   30  C   UNL     1     -11.175   7.437  70.951  1.00  0.00    -0.270 C  
BRANCH  30  31
HETATM   31  N   UNL     1     -10.075   6.612  70.440  1.00  0.00    -0.182 N  
HETATM   32  C   UNL     1      -9.250   7.066  69.426  1.00  0.00    -0.147 C  
HETATM   33  C   UNL     1      -8.314   6.296  68.876  1.00  0.00    -0.120 C  
HETATM   34  C   UNL     1      -8.165   4.912  69.350  1.00  0.00    -0.081 C  
HETATM   35  O   UNL     1      -7.419   4.127  68.780  1.00  0.00    -0.055 OA 
HETATM   36  N   UNL     1      -8.917   4.579  70.438  1.00  0.00    -0.090 N  
HETATM   37  H   UNL     1      -8.718   3.682  70.883  1.00  0.00     0.000 HD 
HETATM   38  C   UNL     1      -9.918   5.341  70.986  1.00  0.00    -0.201 C  
HETATM   39  O   UNL     1     -10.621   4.882  71.878  1.00  0.00    -0.191 OA 
ENDBRANCH  30  31
ENDBRANCH  21  22
ENDBRANCH  12  21
ENDBRANCH   7   9
ENDBRANCH   5   7
ENDBRANCH   4   5
ENDBRANCH   2   4
TORSDOF 8
ENDMDL
MODEL      114
REMARK 921   NORMALIZED FREE ENERGY PREDICTED BY IDOCK:   -3.61 KCAL/MOL
REMARK 922        TOTAL FREE ENERGY PREDICTED BY IDOCK:   -7.84 KCAL/MOL
REMARK 923 INTER-LIGAND FREE ENERGY PREDICTED BY IDOCK:   -7.06 KCAL/MOL
REMARK 924 INTRA-LIGAND FREE ENERGY PREDICTED BY IDOCK:   -0.78 KCAL/MOL
REMARK 927      BINDING AFFINITY PREDICTED BY RF-SCORE:    0.00 PKD
ROOT
HETATM    1  C   UNL     1      -6.216   5.356  68.311  1.00  0.00    -0.034 C  
HETATM    2  C   UNL     1      -7.011   6.142  67.275  1.00  0.00    -0.069 C  
HETATM    3  C   UNL     1      -6.780   5.557  65.884  1.00  0.00    -0.056 C  
ENDROOT
BRANCH   2   4
HETATM    4  O   UNL     1      -8.420   6.045  67.566  1.00  0.00    -0.108 OA 
BRANCH   4   5
HETATM    5  C   UNL     1      -9.100   7.229  67.656  1.00  0.00    -0.124 C  
HETATM    6  O   UNL     1      -9.136   8.087  66.783  1.00  0.00    -0.140 OA 
BRANCH   5   7
HETATM    7  C   UNL     1      -9.865   7.293  68.980  1.00  0.00    -0.165 C  
HETATM    8  C   UNL     1     -10.289   5.873  69.354  1.00  0.00    -0.313 C  
BRANCH   7   9
HETATM    9  N   UNL     1     -11.003   8.241  68.880  1.00  0.00    -0.427 NA 
HETATM   10  P   UNL     1     -11.053   9.420  70.097  1.00  0.00    -0.196 P  
HETATM   11  H   UNL     1     -11.886   7.732  68.844  1.00  0.00     0.000 HD 
HETATM   12  O   UNL     1     -12.369  10.372  69.754  1.00  0.00    -0.192 OA 
HETATM   13  O   UNL     1     -10.089  10.432  69.079  1.00  0.00    -0.192 OA 
HETATM   14  O   UNL     1     -11.916   8.512  71.009  1.00  0.00    -0.284 OA 
BRANCH  13  15
HETATM   15  C   UNL     1      -8.752  10.546  69.358  1.00  0.00    -0.078 A  
HETATM   16  C   UNL     1      -6.004  10.822  69.724  1.00  0.00    -0.071 A  
HETATM   17  C   UNL     1      -8.054  11.533  68.665  1.00  0.00    -0.132 A  
HETATM   18  C   UNL     1      -8.088   9.718  70.264  1.00  0.00    -0.181 A  
HETATM   19  C   UNL     1      -6.678  11.668  68.843  1.00  0.00    -0.088 A  
HETATM   20  C   UNL     1      -6.709   9.855  70.439  1.00  0.00    -0.136 A  
ENDBRANCH  13  15
BRANCH  12  21
HETATM   21  C   UNL     1     -12.975  11.042  70.876  1.00  0.00    -0.224 C  
BRANCH  21  22
HETATM   22  C   UNL     1     -12.385  12.415  71.319  1.00  0.00    -0.048 C  
HETATM   23  O   UNL     1     -11.762  13.079  70.196  1.00  0.00    -0.271 OA 
HETATM   24  C   UNL     1     -12.958  14.784  71.298  1.00  0.00    -0.346 C  
HETATM   25  H   UNL     1     -14.032  14.138  73.661  1.00  0.00     0.000 HD 
HETATM   26  C   UNL     1     -13.400  13.435  71.888  1.00  0.00    -0.451 C  
HETATM   27  O   UNL     1     -13.409  13.512  73.311  1.00  0.00    -0.335 OA 
HETATM   28  F   UNL     1     -12.809  15.703  72.291  1.00  0.00    -0.378 F  
HETATM   29  C   UNL     1     -14.025  15.308  70.349  1.00  0.00     0.576 C  
HETATM   30  C   UNL     1     -11.614  14.441  70.652  1.00  0.00    -0.184 C  
BRANCH  30  31
HETATM   31  N   UNL     1     -11.170  15.298  69.548  1.00  0.00    -0.261 N  
HETATM   32  C   UNL     1     -10.504  16.487  69.788  1.00  0.00    -0.215 C  
HETATM   33  C   UNL     1     -10.184  17.330  68.809  1.00  0.00    -0.353 C  
HETATM   34  C   UNL     1     -10.569  16.994  67.430  1.00  0.00    -0.289 C  
HETATM   35  O   UNL     1     -10.424  17.801  66.521  1.00  0.00    -0.345 OA 
HETATM   36  N   UNL     1     -11.100  15.751  67.254  1.00  0.00    -0.264 N  
HETATM   37  H   UNL     1     -11.227  15.432  66.293  1.00  0.00     0.000 HD 
HETATM   38  C   UNL     1     -11.479  14.890  68.253  1.00  0.00    -0.324 C  
HETATM   39  O   UNL     1     -12.072  13.854  67.980  1.00  0.00    -0.367 OA 
ENDBRANCH  30  31
ENDBRANCH  21  22
ENDBRANCH  12  21
ENDBRANCH   7   9
ENDBRANCH   5   7
ENDBRANCH   4   5
ENDBRANCH   2   4
TORSDOF 8
ENDMDL
MODEL      115
REMARK 921   NORMALIZED FREE ENERGY PREDICTED BY IDOCK:   -3.58 KCAL/MOL
REMARK 922        TOTAL FREE ENERGY PREDICTED BY IDOCK:   -7.80 KCAL/MOL
REMARK 923 INTER-LIGAND FREE ENERGY PREDICTED BY IDOCK:   -8.38 KCAL/MOL
REMARK 924 INTRA-LIGAND FREE ENERGY PREDICTED BY IDOCK:    0.58 KCAL/MOL
REMARK 927      BINDING AFFINITY PREDICTED BY RF-SCORE:    0.00 PKD
ROOT
HETATM    1  C   UNL     1     -13.728  15.732  72.883  1.00  0.00    -0.631 C  
HETATM    2  C   UNL     1     -12.619  14.691  72.802  1.00  0.00    -0.341 C  
HETATM    3  C   UNL     1     -13.152  13.405  72.176  1.00  0.00    -0.487 C  
ENDROOT
BRANCH   2   4
HETATM    4  O   UNL     1     -11.551  15.179  71.965  1.00  0.00    -0.407 OA 
BRANCH   4   5
HETATM    5  C   UNL     1     -11.912  15.611  70.718  1.00  0.00    -0.398 C  
HETATM    6  O   UNL     1     -13.062  15.826  70.354  1.00  0.00    -0.399 OA 
BRANCH   5   7
HETATM    7  C   UNL     1     -10.663  15.853  69.867  1.00  0.00    -0.334 C  
HETATM    8  C   UNL     1     -11.107  16.442  68.529  1.00  0.00    -0.357 C  
BRANCH   7   9
HETATM    9  N   UNL     1      -9.875  14.604  69.729  1.00  0.00    -0.411 NA 
HETATM   10  P   UNL     1      -9.375  14.250  68.149  1.00  0.00    -0.215 P  
HETATM   11  H   UNL     1     -10.390  13.815  70.123  1.00  0.00     0.000 HD 
HETATM   12  O   UNL     1      -8.490  12.850  68.254  1.00  0.00    -0.168 OA 
HETATM   13  O   UNL     1      -7.934  15.153  68.462  1.00  0.00    -0.130 OA 
HETATM   14  O   UNL     1     -10.667  13.442  67.868  1.00  0.00    -0.238 OA 
BRANCH  13  15
HETATM   15  C   UNL     1      -7.840  16.421  67.951  1.00  0.00    -0.152 A  
HETATM   16  C   UNL     1      -7.577  18.914  66.737  1.00  0.00    -0.242 A  
HETATM   17  C   UNL     1      -8.131  16.569  66.596  1.00  0.00    -0.314 A  
HETATM   18  C   UNL     1      -7.452  17.524  68.713  1.00  0.00    -0.258 A  
HETATM   19  C   UNL     1      -7.993  17.815  65.987  1.00  0.00    -0.164 A  
HETATM   20  C   UNL     1      -7.315  18.771  68.099  1.00  0.00    -0.281 A  
ENDBRANCH  13  15
BRANCH  12  21
HETATM   21  C   UNL     1      -8.449  12.036  67.066  1.00  0.00    -0.183 C  
BRANCH  21  22
HETATM   22  C   UNL     1      -8.631  10.496  67.222  1.00  0.00    -0.122 C  
HETATM   23  O   UNL     1      -8.166  10.065  68.520  1.00  0.00    -0.103 OA 
HETATM   24  C   UNL     1     -10.185   8.892  68.199  1.00  0.00    -0.201 C  
HETATM   25  H   UNL     1     -11.290   9.084  65.770  1.00  0.00     0.000 HD 
HETATM   26  C   UNL     1     -10.083   9.972  67.109  1.00  0.00    -0.212 C  
HETATM   27  O   UNL     1     -10.399   9.407  65.840  1.00  0.00    -0.191 OA 
HETATM   28  F   UNL     1     -10.655   7.731  67.665  1.00  0.00    -0.271 F  
HETATM   29  C   UNL     1     -11.168   9.331  69.272  1.00  0.00     0.066 C  
HETATM   30  C   UNL     1      -8.732   8.744  68.658  1.00  0.00    -0.134 C  
BRANCH  30  31
HETATM   31  N   UNL     1      -8.514   8.239  70.017  1.00  0.00    -0.121 N  
HETATM   32  C   UNL     1      -9.192   8.775  71.098  1.00  0.00    -0.237 C  
HETATM   33  C   UNL     1      -8.935   8.404  72.350  1.00  0.00    -0.309 C  
HETATM   34  C   UNL     1      -7.882   7.407  72.592  1.00  0.00    -0.096 C  
HETATM   35  O   UNL     1      -7.514   7.142  73.730  1.00  0.00    -0.097 OA 
HETATM   36  N   UNL     1      -7.352   6.827  71.478  1.00  0.00    -0.084 N  
HETATM   37  H   UNL     1      -6.739   6.024  71.618  1.00  0.00     0.000 HD 
HETATM   38  C   UNL     1      -7.571   7.228  70.184  1.00  0.00    -0.090 C  
HETATM   39  O   UNL     1      -6.934   6.722  69.268  1.00  0.00    -0.069 OA 
ENDBRANCH  30  31
ENDBRANCH  21  22
ENDBRANCH  12  21
ENDBRANCH   7   9
ENDBRANCH   5   7
ENDBRANCH   4   5
ENDBRANCH   2   4
TORSDOF 8
ENDMDL
MODEL      116
REMARK 921   NORMALIZED FREE ENERGY PREDICTED BY IDOCK:   -3.55 KCAL/MOL
REMARK 922        TOTAL FREE ENERGY PREDICTED BY IDOCK:   -7.77 KCAL/MOL
REMARK 923 INTER-LIGAND FREE ENERGY PREDICTED BY IDOCK:   -8.81 KCAL/MOL
REMARK 924 INTRA-LIGAND FREE ENERGY PREDICTED BY IDOCK:    1.04 KCAL/MOL
REMARK 927      BINDING AFFINITY PREDICTED BY RF-SCORE:    0.00 PKD
ROOT
HETATM    1  C   UNL     1     -12.004   7.525  71.075  1.00  0.00    -0.317 C  
HETATM    2  C   UNL     1     -10.651   7.997  70.554  1.00  0.00    -0.220 C  
HETATM    3  C   UNL     1      -9.549   7.609  71.537  1.00  0.00    -0.179 C  
ENDROOT
BRANCH   2   4
HETATM    4  O   UNL     1     -10.364   7.358  69.295  1.00  0.00    -0.195 OA 
BRANCH   4   5
HETATM    5  C   UNL     1      -9.208   7.743  68.673  1.00  0.00    -0.138 C  
HETATM    6  O   UNL     1      -8.125   7.183  68.792  1.00  0.00    -0.118 OA 
BRANCH   5   7
HETATM    7  C   UNL     1      -9.481   8.935  67.751  1.00  0.00    -0.141 C  
HETATM    8  C   UNL     1      -8.138   9.481  67.268  1.00  0.00    -0.110 C  
BRANCH   7   9
HETATM    9  N   UNL     1     -10.317   9.948  68.442  1.00  0.00    -0.188 NA 
HETATM   10  P   UNL     1      -9.928  11.557  68.077  1.00  0.00    -0.200 P  
HETATM   11  H   UNL     1     -10.292   9.798  69.451  1.00  0.00     0.000 HD 
HETATM   12  O   UNL     1     -11.007  12.489  68.924  1.00  0.00    -0.237 OA 
HETATM   13  O   UNL     1     -11.062  11.476  66.774  1.00  0.00    -0.286 OA 
HETATM   14  O   UNL     1      -8.911  11.628  69.243  1.00  0.00     0.237 OA 
BRANCH  13  15
HETATM   15  C   UNL     1     -10.576  11.322  65.501  1.00  0.00    -0.246 A  
HETATM   16  C   UNL     1      -9.746  11.131  62.849  1.00  0.00    -0.349 A  
HETATM   17  C   UNL     1     -10.670  12.431  64.662  1.00  0.00    -0.339 A  
HETATM   18  C   UNL     1     -10.035  10.126  65.030  1.00  0.00    -0.375 A  
HETATM   19  C   UNL     1     -10.260  12.334  63.332  1.00  0.00    -0.360 A  
HETATM   20  C   UNL     1      -9.625  10.032  63.698  1.00  0.00    -0.160 A  
ENDBRANCH  13  15
BRANCH  12  21
HETATM   21  C   UNL     1     -10.567  13.818  69.262  1.00  0.00     0.001 C  
BRANCH  21  22
HETATM   22  C   UNL     1     -11.035  15.001  68.360  1.00  0.00    -0.264 C  
HETATM   23  O   UNL     1     -10.162  16.139  68.532  1.00  0.00    -0.227 OA 
HETATM   24  C   UNL     1     -10.522  16.019  66.207  1.00  0.00    -0.320 C  
HETATM   25  H   UNL     1     -12.363  14.261  65.384  1.00  0.00     0.000 HD 
HETATM   26  C   UNL     1     -11.056  14.723  66.838  1.00  0.00    -0.339 C  
HETATM   27  O   UNL     1     -12.350  14.431  66.319  1.00  0.00    -0.409 OA 
HETATM   28  F   UNL     1     -11.383  16.462  65.249  1.00  0.00    -0.175 F  
HETATM   29  C   UNL     1      -9.186  15.754  65.530  1.00  0.00     0.071 C  
HETATM   30  C   UNL     1     -10.477  16.977  67.399  1.00  0.00    -0.322 C  
BRANCH  30  31
HETATM   31  N   UNL     1      -9.530  18.094  67.318  1.00  0.00    -0.257 N  
HETATM   32  C   UNL     1      -8.328  18.065  68.002  1.00  0.00    -0.260 C  
HETATM   33  C   UNL     1      -7.501  19.108  68.027  1.00  0.00    -0.296 C  
HETATM   34  C   UNL     1      -7.890  20.337  67.319  1.00  0.00    -0.327 C  
HETATM   35  O   UNL     1      -7.233  21.364  67.431  1.00  0.00    -0.535 OA 
HETATM   36  N   UNL     1      -9.018  20.247  66.559  1.00  0.00    -0.548 N  
HETATM   37  H   UNL     1      -9.222  21.029  65.936  1.00  0.00     0.000 HD 
HETATM   38  C   UNL     1      -9.905  19.200  66.559  1.00  0.00    -0.371 C  
HETATM   39  O   UNL     1     -10.958  19.286  65.939  1.00  0.00    -0.315 OA 
ENDBRANCH  30  31
ENDBRANCH  21  22
ENDBRANCH  12  21
ENDBRANCH   7   9
ENDBRANCH   5   7
ENDBRANCH   4   5
ENDBRANCH   2   4
TORSDOF 8
ENDMDL
MODEL      117
REMARK 921   NORMALIZED FREE ENERGY PREDICTED BY IDOCK:   -3.55 KCAL/MOL
REMARK 922        TOTAL FREE ENERGY PREDICTED BY IDOCK:   -7.76 KCAL/MOL
REMARK 923 INTER-LIGAND FREE ENERGY PREDICTED BY IDOCK:   -7.23 KCAL/MOL
REMARK 924 INTRA-LIGAND FREE ENERGY PREDICTED BY IDOCK:   -0.53 KCAL/MOL
REMARK 927      BINDING AFFINITY PREDICTED BY RF-SCORE:    0.00 PKD
ROOT
HETATM    1  C   UNL     1      -9.852   8.553  71.929  1.00  0.00    -0.358 C  
HETATM    2  C   UNL     1      -8.856   8.050  70.891  1.00  0.00    -0.139 C  
HETATM    3  C   UNL     1      -8.827   6.523  70.889  1.00  0.00    -0.147 C  
ENDROOT
BRANCH   2   4
HETATM    4  O   UNL     1      -9.260   8.484  69.577  1.00  0.00    -0.149 OA 
BRANCH   4   5
HETATM    5  C   UNL     1      -8.316   9.152  68.845  1.00  0.00    -0.124 C  
HETATM    6  O   UNL     1      -7.180   8.749  68.629  1.00  0.00    -0.071 OA 
BRANCH   5   7
HETATM    7  C   UNL     1      -8.910  10.443  68.277  1.00  0.00    -0.135 C  
HETATM    8  C   UNL     1      -8.472  10.568  66.819  1.00  0.00    -0.127 C  
BRANCH   7   9
HETATM    9  N   UNL     1      -8.523  11.607  69.112  1.00  0.00    -0.358 NA 
HETATM   10  P   UNL     1      -7.960  12.948  68.242  1.00  0.00    -0.122 P  
HETATM   11  H   UNL     1      -7.836  11.327  69.813  1.00  0.00     0.000 HD 
HETATM   12  O   UNL     1      -7.632  14.119  69.372  1.00  0.00    -0.012 OA 
HETATM   13  O   UNL     1      -9.592  13.515  68.169  1.00  0.00    -0.205 OA 
HETATM   14  O   UNL     1      -6.498  12.440  68.307  1.00  0.00    -0.054 OA 
BRANCH  13  15
HETATM   15  C   UNL     1     -10.285  13.347  66.997  1.00  0.00    -0.249 A  
HETATM   16  C   UNL     1     -11.752  12.822  64.689  1.00  0.00    -0.405 A  
HETATM   17  C   UNL     1     -11.503  12.676  67.086  1.00  0.00    -0.406 A  
HETATM   18  C   UNL     1      -9.812  13.791  65.762  1.00  0.00    -0.242 A  
HETATM   19  C   UNL     1     -12.235  12.408  65.930  1.00  0.00    -0.220 A  
HETATM   20  C   UNL     1     -10.548  13.519  64.606  1.00  0.00    -0.441 A  
ENDBRANCH  13  15
BRANCH  12  21
HETATM   21  C   UNL     1      -6.636  15.092  69.004  1.00  0.00    -0.113 C  
BRANCH  21  22
HETATM   22  C   UNL     1      -7.091  16.570  68.803  1.00  0.00    -0.189 C  
HETATM   23  O   UNL     1      -6.337  17.186  67.735  1.00  0.00    -0.137 OA 
HETATM   24  C   UNL     1      -8.556  17.891  67.372  1.00  0.00    -0.239 C  
HETATM   25  H   UNL     1     -10.317  17.290  69.294  1.00  0.00     0.000 HD 
HETATM   26  C   UNL     1      -8.578  16.775  68.429  1.00  0.00    -0.235 C  
HETATM   27  O   UNL     1      -9.404  17.164  69.523  1.00  0.00     0.103 OA 
HETATM   28  F   UNL     1      -9.416  18.886  67.724  1.00  0.00    -0.298 F  
HETATM   29  C   UNL     1      -9.018  17.344  66.031  1.00  0.00    -0.086 C  
HETATM   30  C   UNL     1      -7.103  18.369  67.423  1.00  0.00    -0.204 C  
BRANCH  30  31
HETATM   31  N   UNL     1      -6.573  19.011  66.216  1.00  0.00    -0.197 N  
HETATM   32  C   UNL     1      -7.045  20.241  65.792  1.00  0.00    -0.257 C  
HETATM   33  C   UNL     1      -6.655  20.794  64.646  1.00  0.00    -0.231 C  
HETATM   34  C   UNL     1      -5.705  20.063  63.795  1.00  0.00    -0.267 C  
HETATM   35  O   UNL     1      -5.428  20.464  62.671  1.00  0.00    -0.204 OA 
HETATM   36  N   UNL     1      -5.182  18.927  64.336  1.00  0.00    -0.200 N  
HETATM   37  H   UNL     1      -4.407  18.489  63.838  1.00  0.00     0.000 HD 
HETATM   38  C   UNL     1      -5.606  18.319  65.491  1.00  0.00    -0.191 C  
HETATM   39  O   UNL     1      -5.156  17.226  65.811  1.00  0.00    -0.323 OA 
ENDBRANCH  30  31
ENDBRANCH  21  22
ENDBRANCH  12  21
ENDBRANCH   7   9
ENDBRANCH   5   7
ENDBRANCH   4   5
ENDBRANCH   2   4
TORSDOF 8
ENDMDL
MODEL      118
REMARK 921   NORMALIZED FREE ENERGY PREDICTED BY IDOCK:   -3.54 KCAL/MOL
REMARK 922        TOTAL FREE ENERGY PREDICTED BY IDOCK:   -7.75 KCAL/MOL
REMARK 923 INTER-LIGAND FREE ENERGY PREDICTED BY IDOCK:   -6.23 KCAL/MOL
REMARK 924 INTRA-LIGAND FREE ENERGY PREDICTED BY IDOCK:   -1.52 KCAL/MOL
REMARK 927      BINDING AFFINITY PREDICTED BY RF-SCORE:    0.00 PKD
ROOT
HETATM    1  C   UNL     1     -11.842  15.561  69.587  1.00  0.00    -0.384 C  
HETATM    2  C   UNL     1     -11.183  16.056  68.305  1.00  0.00    -0.350 C  
HETATM    3  C   UNL     1     -10.689  17.489  68.491  1.00  0.00    -0.237 C  
ENDROOT
BRANCH   2   4
HETATM    4  O   UNL     1     -10.042  15.233  67.994  1.00  0.00    -0.226 OA 
BRANCH   4   5
HETATM    5  C   UNL     1      -9.937  14.813  66.696  1.00  0.00    -0.264 C  
HETATM    6  O   UNL     1      -9.752  15.546  65.732  1.00  0.00    -0.329 OA 
BRANCH   5   7
HETATM    7  C   UNL     1     -10.014  13.285  66.632  1.00  0.00    -0.272 C  
HETATM    8  C   UNL     1     -11.263  12.905  65.838  1.00  0.00    -0.323 C  
BRANCH   7   9
HETATM    9  N   UNL     1      -9.984  12.704  67.997  1.00  0.00    -0.214 NA 
HETATM   10  P   UNL     1     -10.174  11.021  68.056  1.00  0.00    -0.197 P  
HETATM   11  H   UNL     1     -10.677  13.159  68.591  1.00  0.00     0.000 HD 
HETATM   12  O   UNL     1     -10.066  10.607  69.660  1.00  0.00    -0.189 OA 
HETATM   13  O   UNL     1      -8.455  10.879  67.932  1.00  0.00    -0.125 OA 
HETATM   14  O   UNL     1     -11.713  11.148  68.167  1.00  0.00    -0.480 OA 
BRANCH  13  15
HETATM   15  C   UNL     1      -7.919  10.535  66.717  1.00  0.00    -0.121 A  
HETATM   16  C   UNL     1      -6.696   9.994  64.274  1.00  0.00    -0.128 A  
HETATM   17  C   UNL     1      -6.539  10.683  66.583  1.00  0.00    -0.101 A  
HETATM   18  C   UNL     1      -8.687  10.083  65.645  1.00  0.00    -0.171 A  
HETATM   19  C   UNL     1      -5.928  10.417  65.358  1.00  0.00    -0.131 A  
HETATM   20  C   UNL     1      -8.071   9.818  64.419  1.00  0.00    -0.150 A  
ENDBRANCH  13  15
BRANCH  12  21
HETATM   21  C   UNL     1     -10.746   9.398  70.048  1.00  0.00    -0.239 C  
BRANCH  21  22
HETATM   22  C   UNL     1      -9.932   8.069  70.067  1.00  0.00    -0.191 C  
HETATM   23  O   UNL     1      -9.815   7.533  68.730  1.00  0.00    -0.159 OA 
HETATM   24  C   UNL     1      -7.668   7.263  69.663  1.00  0.00    -0.105 C  
HETATM   25  H   UNL     1      -7.437   7.799  72.274  1.00  0.00     0.000 HD 
HETATM   26  C   UNL     1      -8.483   8.171  70.599  1.00  0.00    -0.128 C  
HETATM   27  O   UNL     1      -8.327   7.736  71.947  1.00  0.00    -0.104 OA 
HETATM   28  F   UNL     1      -6.940   6.373  70.392  1.00  0.00    -0.055 F  
HETATM   29  C   UNL     1      -6.688   8.100  68.855  1.00  0.00    -0.049 C  
HETATM   30  C   UNL     1      -8.757   6.559  68.851  1.00  0.00    -0.127 C  
BRANCH  30  31
HETATM   31  N   UNL     1      -8.377   6.057  67.526  1.00  0.00    -0.109 N  
HETATM   32  C   UNL     1      -8.874   6.636  66.372  1.00  0.00    -0.144 C  
HETATM   33  C   UNL     1      -8.627   6.134  65.164  1.00  0.00    -0.051 C  
HETATM   34  C   UNL     1      -7.814   4.913  65.057  1.00  0.00    -0.092 C  
HETATM   35  O   UNL     1      -7.680   4.337  63.985  1.00  0.00    -0.079 OA 
HETATM   36  N   UNL     1      -7.249   4.478  66.219  1.00  0.00    -0.075 N  
HETATM   37  H   UNL     1      -6.556   3.732  66.148  1.00  0.00     0.000 HD 
HETATM   38  C   UNL     1      -7.530   4.953  67.475  1.00  0.00    -0.079 C  
HETATM   39  O   UNL     1      -7.066   4.395  68.462  1.00  0.00    -0.051 OA 
ENDBRANCH  30  31
ENDBRANCH  21  22
ENDBRANCH  12  21
ENDBRANCH   7   9
ENDBRANCH   5   7
ENDBRANCH   4   5
ENDBRANCH   2   4
TORSDOF 8
ENDMDL
MODEL      119
REMARK 921   NORMALIZED FREE ENERGY PREDICTED BY IDOCK:   -3.53 KCAL/MOL
REMARK 922        TOTAL FREE ENERGY PREDICTED BY IDOCK:   -7.72 KCAL/MOL
REMARK 923 INTER-LIGAND FREE ENERGY PREDICTED BY IDOCK:   -8.26 KCAL/MOL
REMARK 924 INTRA-LIGAND FREE ENERGY PREDICTED BY IDOCK:    0.53 KCAL/MOL
REMARK 927      BINDING AFFINITY PREDICTED BY RF-SCORE:    0.00 PKD
ROOT
HETATM    1  C   UNL     1      -9.920   4.085  64.997  1.00  0.00    -0.207 C  
HETATM    2  C   UNL     1      -8.875   4.044  66.106  1.00  0.00    -0.120 C  
HETATM    3  C   UNL     1      -7.717   3.136  65.700  1.00  0.00    -0.081 C  
ENDROOT
BRANCH   2   4
HETATM    4  O   UNL     1      -8.344   5.366  66.325  1.00  0.00    -0.112 OA 
BRANCH   4   5
HETATM    5  C   UNL     1      -8.626   5.937  67.535  1.00  0.00    -0.102 C  
HETATM    6  O   UNL     1      -9.640   5.732  68.190  1.00  0.00    -0.112 OA 
BRANCH   5   7
HETATM    7  C   UNL     1      -7.456   6.816  67.984  1.00  0.00    -0.099 C  
HETATM    8  C   UNL     1      -7.501   6.927  69.508  1.00  0.00    -0.096 C  
BRANCH   7   9
HETATM    9  N   UNL     1      -7.495   8.130  67.295  1.00  0.00    -0.088 NA 
HETATM   10  P   UNL     1      -9.050   8.766  67.069  1.00  0.00    -0.143 P  
HETATM   11  H   UNL     1      -7.002   8.076  66.404  1.00  0.00     0.000 HD 
HETATM   12  O   UNL     1      -8.837  10.235  66.327  1.00  0.00    -0.142 OA 
HETATM   13  O   UNL     1      -8.891   9.549  68.603  1.00  0.00    -0.129 OA 
HETATM   14  O   UNL     1      -9.192   8.064  65.696  1.00  0.00    -0.073 OA 
BRANCH  13  15
HETATM   15  C   UNL     1      -9.534   8.998  69.682  1.00  0.00    -0.171 A  
HETATM   16  C   UNL     1     -11.021   7.926  71.779  1.00  0.00    -0.290 A  
HETATM   17  C   UNL     1     -10.715   8.307  69.415  1.00  0.00    -0.160 A  
HETATM   18  C   UNL     1      -9.073   9.125  70.992  1.00  0.00    -0.305 A  
HETATM   19  C   UNL     1     -11.462   7.775  70.465  1.00  0.00    -0.219 A  
HETATM   20  C   UNL     1      -9.824   8.592  72.041  1.00  0.00    -0.383 A  
ENDBRANCH  13  15
BRANCH  12  21
HETATM   21  C   UNL     1      -9.935  10.701  65.520  1.00  0.00    -0.272 C  
BRANCH  21  22
HETATM   22  C   UNL     1     -10.690  11.987  65.976  1.00  0.00    -0.279 C  
HETATM   23  O   UNL     1     -11.273  11.789  67.283  1.00  0.00    -0.267 OA 
HETATM   24  C   UNL     1     -10.345  13.953  67.374  1.00  0.00    -0.252 C  
HETATM   25  H   UNL     1      -9.426  14.943  65.065  1.00  0.00     0.000 HD 
HETATM   26  C   UNL     1      -9.831  13.268  66.097  1.00  0.00    -0.280 C  
HETATM   27  O   UNL     1      -9.953  14.156  64.990  1.00  0.00    -0.336 OA 
HETATM   28  F   UNL     1     -10.668  15.249  67.110  1.00  0.00    -0.287 F  
HETATM   29  C   UNL     1      -9.255  13.961  68.433  1.00  0.00    -0.194 C  
HETATM   30  C   UNL     1     -11.589  13.129  67.715  1.00  0.00    -0.337 C  
BRANCH  30  31
HETATM   31  N   UNL     1     -12.014  13.121  69.119  1.00  0.00    -0.302 N  
HETATM   32  C   UNL     1     -12.058  11.946  69.847  1.00  0.00    -0.272 C  
HETATM   33  C   UNL     1     -12.538  11.898  71.088  1.00  0.00    -0.390 C  
HETATM   34  C   UNL     1     -13.057  13.132  71.695  1.00  0.00    -0.353 C  
HETATM   35  O   UNL     1     -13.636  13.109  72.773  1.00  0.00    -0.598 OA 
HETATM   36  N   UNL     1     -12.860  14.272  70.973  1.00  0.00    -0.342 N  
HETATM   37  H   UNL     1     -13.064  15.157  71.437  1.00  0.00     0.000 HD 
HETATM   38  C   UNL     1     -12.411  14.333  69.677  1.00  0.00    -0.266 C  
HETATM   39  O   UNL     1     -12.402  15.403  69.081  1.00  0.00    -0.199 OA 
ENDBRANCH  30  31
ENDBRANCH  21  22
ENDBRANCH  12  21
ENDBRANCH   7   9
ENDBRANCH   5   7
ENDBRANCH   4   5
ENDBRANCH   2   4
TORSDOF 8
ENDMDL
MODEL      120
REMARK 921   NORMALIZED FREE ENERGY PREDICTED BY IDOCK:   -3.51 KCAL/MOL
REMARK 922        TOTAL FREE ENERGY PREDICTED BY IDOCK:   -7.71 KCAL/MOL
REMARK 923 INTER-LIGAND FREE ENERGY PREDICTED BY IDOCK:   -8.68 KCAL/MOL
REMARK 924 INTRA-LIGAND FREE ENERGY PREDICTED BY IDOCK:    0.97 KCAL/MOL
REMARK 927      BINDING AFFINITY PREDICTED BY RF-SCORE:    0.00 PKD
ROOT
HETATM    1  C   UNL     1     -10.571  19.580  65.712  1.00  0.00    -0.522 C  
HETATM    2  C   UNL     1      -9.832  18.705  66.717  1.00  0.00    -0.341 C  
HETATM    3  C   UNL     1     -10.832  17.943  67.583  1.00  0.00    -0.243 C  
ENDROOT
BRANCH   2   4
HETATM    4  O   UNL     1      -9.024  17.736  66.019  1.00  0.00    -0.497 OA 
BRANCH   4   5
HETATM    5  C   UNL     1      -9.540  16.472  65.931  1.00  0.00    -0.248 C  
HETATM    6  O   UNL     1     -10.362  16.105  65.100  1.00  0.00    -0.560 OA 
BRANCH   5   7
HETATM    7  C   UNL     1      -8.888  15.567  66.978  1.00  0.00    -0.230 C  
HETATM    8  C   UNL     1      -7.732  16.335  67.618  1.00  0.00    -0.161 C  
BRANCH   7   9
HETATM    9  N   UNL     1      -8.475  14.278  66.369  1.00  0.00    -0.330 NA 
HETATM   10  P   UNL     1      -8.206  13.023  67.477  1.00  0.00    -0.189 P  
HETATM   11  H   UNL     1      -7.652  14.412  65.781  1.00  0.00     0.000 HD 
HETATM   12  O   UNL     1      -7.801  11.694  66.569  1.00  0.00    -0.123 OA 
HETATM   13  O   UNL     1      -9.873  12.595  67.310  1.00  0.00    -0.202 OA 
HETATM   14  O   UNL     1      -6.713  13.408  67.627  1.00  0.00    -0.149 OA 
BRANCH  13  15
HETATM   15  C   UNL     1     -10.741  12.965  68.305  1.00  0.00    -0.244 A  
HETATM   16  C   UNL     1     -12.386  13.886  70.355  1.00  0.00    -0.433 A  
HETATM   17  C   UNL     1     -11.001  14.329  68.427  1.00  0.00    -0.267 A  
HETATM   18  C   UNL     1     -11.329  12.054  69.182  1.00  0.00    -0.338 A  
HETATM   19  C   UNL     1     -11.820  14.791  69.457  1.00  0.00    -0.366 A  
HETATM   20  C   UNL     1     -12.148  12.520  70.213  1.00  0.00    -0.373 A  
ENDBRANCH  13  15
BRANCH  12  21
HETATM   21  C   UNL     1      -6.984  10.705  67.225  1.00  0.00    -0.084 C  
BRANCH  21  22
HETATM   22  C   UNL     1      -7.426   9.213  67.141  1.00  0.00    -0.087 C  
HETATM   23  O   UNL     1      -7.906   8.759  68.426  1.00  0.00    -0.102 OA 
HETATM   24  C   UNL     1      -9.449   7.880  66.878  1.00  0.00    -0.191 C  
HETATM   25  H   UNL     1      -8.818   8.156  64.293  1.00  0.00     0.000 HD 
HETATM   26  C   UNL     1      -8.565   8.900  66.142  1.00  0.00    -0.140 C  
HETATM   27  O   UNL     1      -8.119   8.349  64.907  1.00  0.00    -0.134 OA 
HETATM   28  F   UNL     1      -9.648   6.783  66.095  1.00  0.00    -0.194 F  
HETATM   29  C   UNL     1     -10.813   8.488  67.165  1.00  0.00    -0.062 C  
HETATM   30  C   UNL     1      -8.608   7.538  68.109  1.00  0.00    -0.123 C  
BRANCH  30  31
HETATM   31  N   UNL     1      -9.328   7.048  69.289  1.00  0.00    -0.146 N  
HETATM   32  C   UNL     1      -9.702   5.720  69.400  1.00  0.00    -0.155 C  
HETATM   33  C   UNL     1     -10.445   5.274  70.410  1.00  0.00    -0.322 C  
HETATM   34  C   UNL     1     -10.898   6.230  71.431  1.00  0.00    -0.261 C  
HETATM   35  O   UNL     1     -11.698   5.896  72.297  1.00  0.00    -0.307 OA 
HETATM   36  N   UNL     1     -10.383   7.488  71.331  1.00  0.00    -0.194 N  
HETATM   37  H   UNL     1     -10.553   8.124  72.111  1.00  0.00     0.000 HD 
HETATM   38  C   UNL     1      -9.656   7.976  70.274  1.00  0.00    -0.171 C  
HETATM   39  O   UNL     1      -9.360   9.163  70.228  1.00  0.00    -0.185 OA 
ENDBRANCH  30  31
ENDBRANCH  21  22
ENDBRANCH  12  21
ENDBRANCH   7   9
ENDBRANCH   5   7
ENDBRANCH   4   5
ENDBRANCH   2   4
TORSDOF 8
ENDMDL
MODEL      121
REMARK 921   NORMALIZED FREE ENERGY PREDICTED BY IDOCK:   -3.51 KCAL/MOL
REMARK 922        TOTAL FREE ENERGY PREDICTED BY IDOCK:   -7.70 KCAL/MOL
REMARK 923 INTER-LIGAND FREE ENERGY PREDICTED BY IDOCK:   -8.63 KCAL/MOL
REMARK 924 INTRA-LIGAND FREE ENERGY PREDICTED BY IDOCK:    0.94 KCAL/MOL
REMARK 927      BINDING AFFINITY PREDICTED BY RF-SCORE:    0.00 PKD
ROOT
HETATM    1  C   UNL     1      -9.875  20.565  67.035  1.00  0.00    -0.534 C  
HETATM    2  C   UNL     1      -9.011  19.635  66.191  1.00  0.00    -0.334 C  
HETATM    3  C   UNL     1      -7.536  19.989  66.366  1.00  0.00    -0.320 C  
ENDROOT
BRANCH   2   4
HETATM    4  O   UNL     1      -9.192  18.273  66.627  1.00  0.00    -0.280 OA 
BRANCH   4   5
HETATM    5  C   UNL     1     -10.398  17.700  66.330  1.00  0.00    -0.342 C  
HETATM    6  O   UNL     1     -10.874  17.605  65.205  1.00  0.00    -0.664 OA 
BRANCH   5   7
HETATM    7  C   UNL     1     -11.034  17.131  67.601  1.00  0.00    -0.148 C  
HETATM    8  C   UNL     1     -10.112  17.448  68.777  1.00  0.00    -0.346 C  
BRANCH   7   9
HETATM    9  N   UNL     1     -11.312  15.682  67.442  1.00  0.00    -0.230 NA 
HETATM   10  P   UNL     1     -10.179  14.841  66.503  1.00  0.00    -0.299 P  
HETATM   11  H   UNL     1     -12.253  15.541  67.073  1.00  0.00     0.000 HD 
HETATM   12  O   UNL     1     -10.674  13.257  66.505  1.00  0.00    -0.281 OA 
HETATM   13  O   UNL     1      -9.288  14.535  67.954  1.00  0.00    -0.192 OA 
HETATM   14  O   UNL     1     -10.977  15.116  65.204  1.00  0.00    -0.366 OA 
BRANCH  13  15
HETATM   15  C   UNL     1      -8.169  15.288  68.198  1.00  0.00    -0.141 A  
HETATM   16  C   UNL     1      -5.806  16.727  68.528  1.00  0.00    -0.130 A  
HETATM   17  C   UNL     1      -7.465  15.735  67.081  1.00  0.00    -0.259 A  
HETATM   18  C   UNL     1      -7.716  15.588  69.483  1.00  0.00    -0.197 A  
HETATM   19  C   UNL     1      -6.279  16.450  67.246  1.00  0.00    -0.212 A  
HETATM   20  C   UNL     1      -6.528  16.304  69.644  1.00  0.00    -0.190 A  
ENDBRANCH  13  15
BRANCH  12  21
HETATM   21  C   UNL     1     -10.272  12.467  65.369  1.00  0.00    -0.283 C  
BRANCH  21  22
HETATM   22  C   UNL     1      -9.264  11.301  65.603  1.00  0.00    -0.213 C  
HETATM   23  O   UNL     1      -8.997  11.145  67.015  1.00  0.00    -0.150 OA 
HETATM   24  C   UNL     1      -9.251   8.943  66.217  1.00  0.00    -0.207 C  
HETATM   25  H   UNL     1      -9.431   8.660  63.562  1.00  0.00     0.000 HD 
HETATM   26  C   UNL     1      -9.718   9.906  65.113  1.00  0.00    -0.306 C  
HETATM   27  O   UNL     1      -9.153   9.518  63.864  1.00  0.00    -0.230 OA 
HETATM   28  F   UNL     1      -8.523   7.928  65.674  1.00  0.00    -0.122 F  
HETATM   29  C   UNL     1     -10.456   8.321  66.905  1.00  0.00    -0.365 C  
HETATM   30  C   UNL     1      -8.381   9.842  67.097  1.00  0.00    -0.121 C  
BRANCH  30  31
HETATM   31  N   UNL     1      -8.223   9.445  68.500  1.00  0.00    -0.112 N  
HETATM   32  C   UNL     1      -9.207   9.713  69.435  1.00  0.00    -0.189 C  
HETATM   33  C   UNL     1      -9.043   9.455  70.731  1.00  0.00    -0.268 C  
HETATM   34  C   UNL     1      -7.765   8.885  71.183  1.00  0.00    -0.129 C  
HETATM   35  O   UNL     1      -7.516   8.766  72.376  1.00  0.00    -0.324 OA 
HETATM   36  N   UNL     1      -6.899   8.525  70.195  1.00  0.00    -0.038 N  
HETATM   37  H   UNL     1      -6.078   7.984  70.471  1.00  0.00     0.000 HD 
HETATM   38  C   UNL     1      -7.031   8.824  68.862  1.00  0.00    -0.062 C  
HETATM   39  O   UNL     1      -6.122   8.569  68.082  1.00  0.00    -0.048 OA 
ENDBRANCH  30  31
ENDBRANCH  21  22
ENDBRANCH  12  21
ENDBRANCH   7   9
ENDBRANCH   5   7
ENDBRANCH   4   5
ENDBRANCH   2   4
TORSDOF 8
ENDMDL
MODEL      122
REMARK 921   NORMALIZED FREE ENERGY PREDICTED BY IDOCK:   -3.48 KCAL/MOL
REMARK 922        TOTAL FREE ENERGY PREDICTED BY IDOCK:   -7.67 KCAL/MOL
REMARK 923 INTER-LIGAND FREE ENERGY PREDICTED BY IDOCK:   -6.12 KCAL/MOL
REMARK 924 INTRA-LIGAND FREE ENERGY PREDICTED BY IDOCK:   -1.54 KCAL/MOL
REMARK 927      BINDING AFFINITY PREDICTED BY RF-SCORE:    0.00 PKD
ROOT
HETATM    1  C   UNL     1     -11.772  15.819  69.491  1.00  0.00    -0.369 C  
HETATM    2  C   UNL     1     -11.857  15.719  67.973  1.00  0.00     0.033 C  
HETATM    3  C   UNL     1     -10.730  16.525  67.331  1.00  0.00    -0.260 C  
ENDROOT
BRANCH   2   4
HETATM    4  O   UNL     1     -11.703  14.345  67.565  1.00  0.00    -0.353 OA 
BRANCH   4   5
HETATM    5  C   UNL     1     -11.770  14.103  66.220  1.00  0.00    -0.390 C  
HETATM    6  O   UNL     1     -12.597  14.589  65.459  1.00  0.00    -0.338 OA 
BRANCH   5   7
HETATM    7  C   UNL     1     -10.617  13.191  65.795  1.00  0.00    -0.282 C  
HETATM    8  C   UNL     1     -10.851  12.774  64.343  1.00  0.00    -0.395 C  
BRANCH   7   9
HETATM    9  N   UNL     1     -10.489  12.042  66.725  1.00  0.00    -0.210 NA 
HETATM   10  P   UNL     1      -8.894  11.605  67.098  1.00  0.00    -0.184 P  
HETATM   11  H   UNL     1     -11.002  11.236  66.366  1.00  0.00     0.000 HD 
HETATM   12  O   UNL     1      -9.008  10.342  68.170  1.00  0.00    -0.128 OA 
HETATM   13  O   UNL     1      -8.964  12.706  68.430  1.00  0.00    -0.187 OA 
HETATM   14  O   UNL     1      -8.833  10.619  65.905  1.00  0.00    -0.162 OA 
BRANCH  13  15
HETATM   15  C   UNL     1      -8.345  13.922  68.298  1.00  0.00    -0.163 A  
HETATM   16  C   UNL     1      -7.229  16.471  68.161  1.00  0.00    -0.156 A  
HETATM   17  C   UNL     1      -8.294  14.721  69.439  1.00  0.00     0.014 A  
HETATM   18  C   UNL     1      -7.806  14.378  67.094  1.00  0.00    -0.111 A  
HETATM   19  C   UNL     1      -7.741  15.999  69.369  1.00  0.00    -0.173 A  
HETATM   20  C   UNL     1      -7.253  15.659  67.028  1.00  0.00    -0.175 A  
ENDBRANCH  13  15
BRANCH  12  21
HETATM   21  C   UNL     1      -7.892   9.431  68.195  1.00  0.00    -0.087 C  
BRANCH  21  22
HETATM   22  C   UNL     1      -8.162   7.948  68.591  1.00  0.00    -0.127 C  
HETATM   23  O   UNL     1      -8.705   7.219  67.468  1.00  0.00    -0.121 OA 
HETATM   24  C   UNL     1      -7.122   5.751  68.412  1.00  0.00    -0.077 C  
HETATM   25  H   UNL     1      -6.059   6.503  70.749  1.00  0.00     0.000 HD 
HETATM   26  C   UNL     1      -6.928   7.136  69.052  1.00  0.00    -0.075 C  
HETATM   27  O   UNL     1      -6.816   7.002  70.466  1.00  0.00    -0.055 OA 
HETATM   28  F   UNL     1      -7.020   4.780  69.360  1.00  0.00    -0.045 F  
HETATM   29  C   UNL     1      -6.031   5.500  67.383  1.00  0.00    -0.022 C  
HETATM   30  C   UNL     1      -8.545   5.838  67.856  1.00  0.00    -0.101 C  
BRANCH  30  31
HETATM   31  N   UNL     1      -8.872   4.956  66.731  1.00  0.00    -0.110 N  
HETATM   32  C   UNL     1      -8.776   5.397  65.423  1.00  0.00    -0.154 C  
HETATM   33  C   UNL     1      -9.166   4.650  64.392  1.00  0.00    -0.090 C  
HETATM   34  C   UNL     1      -9.735   3.321  64.656  1.00  0.00    -0.149 C  
HETATM   35  O   UNL     1     -10.237   2.660  63.756  1.00  0.00    -0.155 OA 
HETATM   36  N   UNL     1      -9.675   2.901  65.952  1.00  0.00    -0.376 N  
HETATM   37  H   UNL     1      -9.915   1.926  66.136  1.00  0.00     0.000 HD 
HETATM   38  C   UNL     1      -9.321   3.672  67.030  1.00  0.00    -0.198 C  
HETATM   39  O   UNL     1      -9.435   3.229  68.166  1.00  0.00    -0.192 OA 
ENDBRANCH  30  31
ENDBRANCH  21  22
ENDBRANCH  12  21
ENDBRANCH   7   9
ENDBRANCH   5   7
ENDBRANCH   4   5
ENDBRANCH   2   4
TORSDOF 8
ENDMDL
MODEL      123
REMARK 921   NORMALIZED FREE ENERGY PREDICTED BY IDOCK:   -3.48 KCAL/MOL
REMARK 922        TOTAL FREE ENERGY PREDICTED BY IDOCK:   -7.65 KCAL/MOL
REMARK 923 INTER-LIGAND FREE ENERGY PREDICTED BY IDOCK:   -6.98 KCAL/MOL
REMARK 924 INTRA-LIGAND FREE ENERGY PREDICTED BY IDOCK:   -0.67 KCAL/MOL
REMARK 927      BINDING AFFINITY PREDICTED BY RF-SCORE:    0.00 PKD
ROOT
HETATM    1  C   UNL     1      -6.209   2.805  71.326  1.00  0.00    -0.018 C  
HETATM    2  C   UNL     1      -6.407   3.715  72.532  1.00  0.00    -0.013 C  
HETATM    3  C   UNL     1      -5.935   5.129  72.205  1.00  0.00    -0.025 C  
ENDROOT
BRANCH   2   4
HETATM    4  O   UNL     1      -7.808   3.784  72.866  1.00  0.00    -0.071 OA 
BRANCH   4   5
HETATM    5  C   UNL     1      -8.369   5.031  72.860  1.00  0.00    -0.108 C  
HETATM    6  O   UNL     1      -8.062   5.944  73.618  1.00  0.00    -0.110 OA 
BRANCH   5   7
HETATM    7  C   UNL     1      -9.388   5.143  71.723  1.00  0.00    -0.146 C  
HETATM    8  C   UNL     1      -9.987   3.757  71.484  1.00  0.00    -0.195 C  
BRANCH   7   9
HETATM    9  N   UNL     1      -8.758   5.730  70.514  1.00  0.00    -0.137 NA 
HETATM   10  P   UNL     1      -9.842   6.132  69.274  1.00  0.00    -0.166 P  
HETATM   11  H   UNL     1      -8.028   5.112  70.159  1.00  0.00     0.000 HD 
HETATM   12  O   UNL     1      -8.921   6.798  68.064  1.00  0.00    -0.120 OA 
HETATM   13  O   UNL     1      -9.990   7.700  69.988  1.00  0.00    -0.187 OA 
HETATM   14  O   UNL     1      -9.710   4.727  68.636  1.00  0.00    -0.150 OA 
BRANCH  13  15
HETATM   15  C   UNL     1     -11.111   7.972  70.729  1.00  0.00    -0.259 A  
HETATM   16  C   UNL     1     -13.498   8.416  72.093  1.00  0.00    -0.347 A  
HETATM   17  C   UNL     1     -12.074   6.966  70.791  1.00  0.00    -0.400 A  
HETATM   18  C   UNL     1     -11.320   9.189  71.378  1.00  0.00    -0.414 A  
HETATM   19  C   UNL     1     -13.271   7.190  71.469  1.00  0.00    -0.419 A  
HETATM   20  C   UNL     1     -12.521   9.410  72.055  1.00  0.00    -0.440 A  
ENDBRANCH  13  15
BRANCH  12  21
HETATM   21  C   UNL     1      -9.454   6.687  66.730  1.00  0.00    -0.160 C  
BRANCH  21  22
HETATM   22  C   UNL     1      -9.740   8.001  65.941  1.00  0.00     0.204 C  
HETATM   23  O   UNL     1     -10.274   9.011  66.825  1.00  0.00    -0.256 OA 
HETATM   24  C   UNL     1      -8.713  10.164  65.488  1.00  0.00    -0.158 C  
HETATM   25  H   UNL     1      -7.674   8.796  63.437  1.00  0.00     0.000 HD 
HETATM   26  C   UNL     1      -8.518   8.657  65.255  1.00  0.00    -0.179 C  
HETATM   27  O   UNL     1      -8.425   8.393  63.858  1.00  0.00    -0.107 OA 
HETATM   28  F   UNL     1      -8.631  10.834  64.305  1.00  0.00    -0.178 F  
HETATM   29  C   UNL     1      -7.612  10.696  66.391  1.00  0.00    -0.138 C  
HETATM   30  C   UNL     1     -10.129  10.231  66.066  1.00  0.00    -0.244 C  
BRANCH  30  31
HETATM   31  N   UNL     1     -10.448  11.390  66.906  1.00  0.00    -0.230 N  
HETATM   32  C   UNL     1     -10.450  11.295  68.286  1.00  0.00    -0.196 C  
HETATM   33  C   UNL     1     -10.837  12.303  69.065  1.00  0.00    -0.197 C  
HETATM   34  C   UNL     1     -11.296  13.550  68.435  1.00  0.00    -0.292 C  
HETATM   35  O   UNL     1     -11.794  14.447  69.103  1.00  0.00    -0.291 OA 
HETATM   36  N   UNL     1     -11.141  13.618  67.082  1.00  0.00    -0.292 N  
HETATM   37  H   UNL     1     -11.301  14.524  66.641  1.00  0.00     0.000 HD 
HETATM   38  C   UNL     1     -10.789  12.576  66.261  1.00  0.00    -0.268 C  
HETATM   39  O   UNL     1     -10.813  12.717  65.045  1.00  0.00    -0.277 OA 
ENDBRANCH  30  31
ENDBRANCH  21  22
ENDBRANCH  12  21
ENDBRANCH   7   9
ENDBRANCH   5   7
ENDBRANCH   4   5
ENDBRANCH   2   4
TORSDOF 8
ENDMDL
MODEL      124
REMARK 921   NORMALIZED FREE ENERGY PREDICTED BY IDOCK:   -3.47 KCAL/MOL
REMARK 922        TOTAL FREE ENERGY PREDICTED BY IDOCK:   -7.65 KCAL/MOL
REMARK 923 INTER-LIGAND FREE ENERGY PREDICTED BY IDOCK:   -7.38 KCAL/MOL
REMARK 924 INTRA-LIGAND FREE ENERGY PREDICTED BY IDOCK:   -0.27 KCAL/MOL
REMARK 927      BINDING AFFINITY PREDICTED BY RF-SCORE:    0.00 PKD
ROOT
HETATM    1  C   UNL     1     -11.543  16.162  63.998  1.00  0.00     0.290 C  
HETATM    2  C   UNL     1     -11.650  14.963  64.933  1.00  0.00    -0.395 C  
HETATM    3  C   UNL     1     -12.341  13.803  64.220  1.00  0.00    -0.384 C  
ENDROOT
BRANCH   2   4
HETATM    4  O   UNL     1     -10.332  14.524  65.316  1.00  0.00    -0.358 OA 
BRANCH   4   5
HETATM    5  C   UNL     1      -9.751  15.196  66.357  1.00  0.00    -0.278 C  
HETATM    6  O   UNL     1      -9.154  16.261  66.260  1.00  0.00    -0.277 OA 
BRANCH   5   7
HETATM    7  C   UNL     1     -10.016  14.456  67.670  1.00  0.00    -0.224 C  
HETATM    8  C   UNL     1      -8.819  14.682  68.594  1.00  0.00    -0.183 C  
BRANCH   7   9
HETATM    9  N   UNL     1     -10.300  13.022  67.414  1.00  0.00    -0.233 NA 
HETATM   10  P   UNL     1     -10.239  12.030  68.786  1.00  0.00     0.013 P  
HETATM   11  H   UNL     1      -9.679  12.662  66.689  1.00  0.00     0.000 HD 
HETATM   12  O   UNL     1     -10.626  10.503  68.261  1.00  0.00    -0.181 OA 
HETATM   13  O   UNL     1     -11.923  12.346  69.021  1.00  0.00    -0.296 OA 
HETATM   14  O   UNL     1      -8.730  11.747  68.576  1.00  0.00    -0.163 OA 
BRANCH  13  15
HETATM   15  C   UNL     1     -12.284  13.250  69.986  1.00  0.00    -0.275 A  
HETATM   16  C   UNL     1     -13.153  14.945  72.019  1.00  0.00    -0.426 A  
HETATM   17  C   UNL     1     -12.596  12.729  71.240  1.00  0.00    -0.347 A  
HETATM   18  C   UNL     1     -12.369  14.623  69.753  1.00  0.00    -0.306 A  
HETATM   19  C   UNL     1     -13.037  13.576  72.256  1.00  0.00    -0.488 A  
HETATM   20  C   UNL     1     -12.811  15.469  70.773  1.00  0.00    -0.513 A  
ENDBRANCH  13  15
BRANCH  12  21
HETATM   21  C   UNL     1     -10.099   9.414  69.043  1.00  0.00    -0.194 C  
BRANCH  21  22
HETATM   22  C   UNL     1     -10.342   7.960  68.535  1.00  0.00    -0.200 C  
HETATM   23  O   UNL     1      -9.302   7.571  67.610  1.00  0.00    -0.136 OA 
HETATM   24  C   UNL     1      -9.604   5.681  68.984  1.00  0.00    -0.135 C  
HETATM   25  H   UNL     1     -11.679   5.764  70.671  1.00  0.00     0.000 HD 
HETATM   26  C   UNL     1     -10.360   6.858  69.621  1.00  0.00    -0.206 C  
HETATM   27  O   UNL     1     -11.667   6.441  70.004  1.00  0.00    -0.429 OA 
HETATM   28  F   UNL     1     -10.352   4.546  69.065  1.00  0.00    -0.209 F  
HETATM   29  C   UNL     1      -8.309   5.427  69.739  1.00  0.00    -0.100 C  
HETATM   30  C   UNL     1      -9.442   6.137  67.532  1.00  0.00    -0.112 C  
BRANCH  30  31
HETATM   31  N   UNL     1      -8.325   5.560  66.777  1.00  0.00    -0.108 N  
HETATM   32  C   UNL     1      -7.048   6.084  66.874  1.00  0.00    -0.070 C  
HETATM   33  C   UNL     1      -6.042   5.645  66.121  1.00  0.00    -0.033 C  
HETATM   34  C   UNL     1      -6.303   4.580  65.141  1.00  0.00    -0.035 C  
HETATM   35  O   UNL     1      -5.447   4.245  64.332  1.00  0.00    -0.012 OA 
HETATM   36  N   UNL     1      -7.546   4.022  65.195  1.00  0.00    -0.080 N  
HETATM   37  H   UNL     1      -7.701   3.180  64.639  1.00  0.00     0.000 HD 
HETATM   38  C   UNL     1      -8.605   4.492  65.929  1.00  0.00    -0.115 C  
HETATM   39  O   UNL     1      -9.715   3.991  65.795  1.00  0.00    -0.179 OA 
ENDBRANCH  30  31
ENDBRANCH  21  22
ENDBRANCH  12  21
ENDBRANCH   7   9
ENDBRANCH   5   7
ENDBRANCH   4   5
ENDBRANCH   2   4
TORSDOF 8
ENDMDL
MODEL      125
REMARK 921   NORMALIZED FREE ENERGY PREDICTED BY IDOCK:   -3.44 KCAL/MOL
REMARK 922        TOTAL FREE ENERGY PREDICTED BY IDOCK:   -7.61 KCAL/MOL
REMARK 923 INTER-LIGAND FREE ENERGY PREDICTED BY IDOCK:   -8.10 KCAL/MOL
REMARK 924 INTRA-LIGAND FREE ENERGY PREDICTED BY IDOCK:    0.49 KCAL/MOL
REMARK 927      BINDING AFFINITY PREDICTED BY RF-SCORE:    0.00 PKD
ROOT
HETATM    1  C   UNL     1      -9.445   4.807  74.202  1.00  0.00    -0.131 C  
HETATM    2  C   UNL     1     -10.413   4.840  73.025  1.00  0.00    -0.202 C  
HETATM    3  C   UNL     1     -11.737   4.191  73.419  1.00  0.00    -0.070 C  
ENDROOT
BRANCH   2   4
HETATM    4  O   UNL     1     -10.684   6.207  72.656  1.00  0.00    -0.208 OA 
BRANCH   4   5
HETATM    5  C   UNL     1     -11.623   6.393  71.679  1.00  0.00    -0.310 C  
HETATM    6  O   UNL     1     -12.830   6.476  71.870  1.00  0.00    -0.301 OA 
BRANCH   5   7
HETATM    7  C   UNL     1     -10.939   6.552  70.319  1.00  0.00    -0.310 C  
HETATM    8  C   UNL     1      -9.428   6.474  70.535  1.00  0.00    -0.173 C  
BRANCH   7   9
HETATM    9  N   UNL     1     -11.377   7.805  69.657  1.00  0.00    -0.446 NA 
HETATM   10  P   UNL     1     -10.196   8.551  68.696  1.00  0.00    -0.173 P  
HETATM   11  H   UNL     1     -11.737   8.463  70.349  1.00  0.00     0.000 HD 
HETATM   12  O   UNL     1     -10.924   9.891  68.040  1.00  0.00    -0.257 OA 
HETATM   13  O   UNL     1     -10.774   7.616  67.361  1.00  0.00    -0.281 OA 
HETATM   14  O   UNL     1      -9.679   9.387  69.893  1.00  0.00    -0.185 OA 
BRANCH  13  15
HETATM   15  C   UNL     1     -10.050   6.518  66.977  1.00  0.00    -0.179 A  
HETATM   16  C   UNL     1      -8.428   4.416  66.133  1.00  0.00    -0.113 A  
HETATM   17  C   UNL     1      -8.669   6.592  67.151  1.00  0.00    -0.111 A  
HETATM   18  C   UNL     1     -10.629   5.380  66.414  1.00  0.00    -0.322 A  
HETATM   19  C   UNL     1      -7.856   5.542  66.724  1.00  0.00    -0.101 A  
HETATM   20  C   UNL     1      -9.812   4.331  65.987  1.00  0.00    -0.232 A  
ENDBRANCH  13  15
BRANCH  12  21
HETATM   21  C   UNL     1     -10.046  10.976  67.685  1.00  0.00    -0.182 C  
BRANCH  21  22
HETATM   22  C   UNL     1     -10.078  12.265  68.562  1.00  0.00    -0.187 C  
HETATM   23  O   UNL     1      -9.445  13.361  67.866  1.00  0.00    -0.201 OA 
HETATM   24  C   UNL     1     -11.377  14.310  68.824  1.00  0.00    -0.275 C  
HETATM   25  H   UNL     1     -12.743  12.755  70.519  1.00  0.00     0.000 HD 
HETATM   26  C   UNL     1     -11.483  12.782  68.954  1.00  0.00    -0.305 C  
HETATM   27  O   UNL     1     -11.880  12.437  70.278  1.00  0.00    -0.322 OA 
HETATM   28  F   UNL     1     -11.799  14.907  69.973  1.00  0.00    -0.263 F  
HETATM   29  C   UNL     1     -12.277  14.798  67.700  1.00  0.00     0.008 C  
HETATM   30  C   UNL     1      -9.878  14.523  68.606  1.00  0.00    -0.232 C  
BRANCH  30  31
HETATM   31  N   UNL     1      -9.476  15.747  67.906  1.00  0.00    -0.211 N  
HETATM   32  C   UNL     1     -10.102  16.142  66.737  1.00  0.00    -0.271 C  
HETATM   33  C   UNL     1      -9.687  17.191  66.030  1.00  0.00    -0.213 C  
HETATM   34  C   UNL     1      -8.512  17.941  66.498  1.00  0.00    -0.258 C  
HETATM   35  O   UNL     1      -8.010  18.820  65.809  1.00  0.00    -0.476 OA 
HETATM   36  N   UNL     1      -8.032  17.579  67.721  1.00  0.00    -0.205 N  
HETATM   37  H   UNL     1      -7.324  18.183  68.140  1.00  0.00     0.000 HD 
HETATM   38  C   UNL     1      -8.416  16.475  68.440  1.00  0.00    -0.208 C  
HETATM   39  O   UNL     1      -7.819  16.171  69.466  1.00  0.00    -0.190 OA 
ENDBRANCH  30  31
ENDBRANCH  21  22
ENDBRANCH  12  21
ENDBRANCH   7   9
ENDBRANCH   5   7
ENDBRANCH   4   5
ENDBRANCH   2   4
TORSDOF 8
ENDMDL
MODEL      126
REMARK 921   NORMALIZED FREE ENERGY PREDICTED BY IDOCK:   -3.40 KCAL/MOL
REMARK 922        TOTAL FREE ENERGY PREDICTED BY IDOCK:   -7.55 KCAL/MOL
REMARK 923 INTER-LIGAND FREE ENERGY PREDICTED BY IDOCK:   -9.54 KCAL/MOL
REMARK 924 INTRA-LIGAND FREE ENERGY PREDICTED BY IDOCK:    1.99 KCAL/MOL
REMARK 927      BINDING AFFINITY PREDICTED BY RF-SCORE:    0.00 PKD
ROOT
HETATM    1  C   UNL     1      -6.262   9.548  70.756  1.00  0.00    -0.078 C  
HETATM    2  C   UNL     1      -6.888   8.298  71.363  1.00  0.00    -0.062 C  
HETATM    3  C   UNL     1      -6.749   8.328  72.883  1.00  0.00    -0.111 C  
ENDROOT
BRANCH   2   4
HETATM    4  O   UNL     1      -8.295   8.257  71.050  1.00  0.00    -0.107 OA 
BRANCH   4   5
HETATM    5  C   UNL     1      -8.677   7.337  70.112  1.00  0.00    -0.140 C  
HETATM    6  O   UNL     1      -7.922   6.782  69.323  1.00  0.00    -0.112 OA 
BRANCH   5   7
HETATM    7  C   UNL     1     -10.176   7.052  70.239  1.00  0.00    -0.193 C  
HETATM    8  C   UNL     1     -10.442   5.652  69.687  1.00  0.00    -0.374 C  
BRANCH   7   9
HETATM    9  N   UNL     1     -10.968   8.112  69.568  1.00  0.00    -0.426 NA 
HETATM   10  P   UNL     1     -10.181   8.874  68.275  1.00  0.00    -0.194 P  
HETATM   11  H   UNL     1     -11.281   8.804  70.249  1.00  0.00     0.000 HD 
HETATM   12  O   UNL     1     -11.265   9.975  67.669  1.00  0.00    -0.248 OA 
HETATM   13  O   UNL     1     -10.858   7.674  67.230  1.00  0.00    -0.293 OA 
HETATM   14  O   UNL     1      -9.575   9.948  69.211  1.00  0.00    -0.181 OA 
BRANCH  13  15
HETATM   15  C   UNL     1     -10.048   6.652  66.806  1.00  0.00    -0.175 A  
HETATM   16  C   UNL     1      -8.327   4.706  65.803  1.00  0.00    -0.115 A  
HETATM   17  C   UNL     1      -8.771   7.008  66.376  1.00  0.00    -0.148 A  
HETATM   18  C   UNL     1     -10.457   5.318  66.771  1.00  0.00    -0.330 A  
HETATM   19  C   UNL     1      -7.911   6.035  65.868  1.00  0.00    -0.111 A  
HETATM   20  C   UNL     1      -9.593   4.347  66.261  1.00  0.00    -0.201 A  
ENDBRANCH  13  15
BRANCH  12  21
HETATM   21  C   UNL     1     -10.699  11.115  66.995  1.00  0.00    -0.268 C  
BRANCH  21  22
HETATM   22  C   UNL     1     -11.578  12.394  66.846  1.00  0.00    -0.370 C  
HETATM   23  O   UNL     1     -10.945  13.517  67.499  1.00  0.00    -0.260 OA 
HETATM   24  C   UNL     1     -11.741  14.394  65.462  1.00  0.00    -0.352 C  
HETATM   25  H   UNL     1     -13.304  12.779  64.011  1.00  0.00     0.000 HD 
HETATM   26  C   UNL     1     -11.852  12.862  65.397  1.00  0.00    -0.403 C  
HETATM   27  O   UNL     1     -13.136  12.492  64.901  1.00  0.00    -0.833 OA 
HETATM   28  F   UNL     1     -12.853  14.966  64.925  1.00  0.00    -0.290 F  
HETATM   29  C   UNL     1     -10.548  14.862  64.645  1.00  0.00    -0.208 C  
HETATM   30  C   UNL     1     -11.652  14.657  66.967  1.00  0.00    -0.371 C  
BRANCH  30  31
HETATM   31  N   UNL     1     -10.996  15.900  67.385  1.00  0.00    -0.296 N  
HETATM   32  C   UNL     1     -10.200  16.619  66.512  1.00  0.00    -0.310 C  
HETATM   33  C   UNL     1      -9.512  17.691  66.898  1.00  0.00    -0.278 C  
HETATM   34  C   UNL     1      -9.588  18.113  68.304  1.00  0.00    -0.317 C  
HETATM   35  O   UNL     1      -8.866  19.002  68.736  1.00  0.00    -0.349 OA 
HETATM   36  N   UNL     1     -10.493  17.441  69.072  1.00  0.00    -0.333 N  
HETATM   37  H   UNL     1     -10.681  17.816  70.003  1.00  0.00     0.000 HD 
HETATM   38  C   UNL     1     -11.173  16.308  68.705  1.00  0.00    -0.354 C  
HETATM   39  O   UNL     1     -11.859  15.710  69.525  1.00  0.00    -0.347 OA 
ENDBRANCH  30  31
ENDBRANCH  21  22
ENDBRANCH  12  21
ENDBRANCH   7   9
ENDBRANCH   5   7
ENDBRANCH   4   5
ENDBRANCH   2   4
TORSDOF 8
ENDMDL
MODEL      127
REMARK 921   NORMALIZED FREE ENERGY PREDICTED BY IDOCK:   -3.37 KCAL/MOL
REMARK 922        TOTAL FREE ENERGY PREDICTED BY IDOCK:   -7.50 KCAL/MOL
REMARK 923 INTER-LIGAND FREE ENERGY PREDICTED BY IDOCK:   -8.71 KCAL/MOL
REMARK 924 INTRA-LIGAND FREE ENERGY PREDICTED BY IDOCK:    1.21 KCAL/MOL
REMARK 927      BINDING AFFINITY PREDICTED BY RF-SCORE:    0.00 PKD
ROOT
HETATM    1  C   UNL     1     -13.062  10.732  71.837  1.00  0.00    -0.557 C  
HETATM    2  C   UNL     1     -12.898   9.229  72.033  1.00  0.00    -0.415 C  
HETATM    3  C   UNL     1     -14.206   8.621  72.534  1.00  0.00    -0.371 C  
ENDROOT
BRANCH   2   4
HETATM    4  O   UNL     1     -12.576   8.605  70.774  1.00  0.00    -0.044 OA 
BRANCH   4   5
HETATM    5  C   UNL     1     -11.393   7.921  70.726  1.00  0.00    -0.274 C  
HETATM    6  O   UNL     1     -10.539   7.928  71.605  1.00  0.00    -0.214 OA 
BRANCH   5   7
HETATM    7  C   UNL     1     -11.321   7.088  69.443  1.00  0.00    -0.042 C  
HETATM    8  C   UNL     1     -10.395   5.900  69.698  1.00  0.00    -0.313 C  
BRANCH   7   9
HETATM    9  N   UNL     1     -10.900   7.931  68.297  1.00  0.00    -0.430 NA 
HETATM   10  P   UNL     1      -9.662   9.036  68.645  1.00  0.00    -0.168 P  
HETATM   11  H   UNL     1     -11.705   8.415  67.899  1.00  0.00     0.000 HD 
HETATM   12  O   UNL     1      -9.340   9.823  67.220  1.00  0.00    -0.136 OA 
HETATM   13  O   UNL     1      -8.523   7.815  68.198  1.00  0.00    -0.123 OA 
HETATM   14  O   UNL     1     -10.684  10.129  69.047  1.00  0.00    -0.201 OA 
BRANCH  13  15
HETATM   15  C   UNL     1      -7.872   7.138  69.196  1.00  0.00    -0.118 A  
HETATM   16  C   UNL     1      -6.444   5.938  71.265  1.00  0.00    -0.045 A  
HETATM   17  C   UNL     1      -7.567   7.867  70.344  1.00  0.00    -0.082 A  
HETATM   18  C   UNL     1      -7.498   5.798  69.092  1.00  0.00    -0.084 A  
HETATM   19  C   UNL     1      -6.847   7.268  71.378  1.00  0.00    -0.051 A  
HETATM   20  C   UNL     1      -6.777   5.202  70.129  1.00  0.00    -0.043 A  
ENDBRANCH  13  15
BRANCH  12  21
HETATM   21  C   UNL     1      -8.791  11.149  67.339  1.00  0.00    -0.139 C  
BRANCH  21  22
HETATM   22  C   UNL     1      -9.778  12.338  67.550  1.00  0.00    -0.190 C  
HETATM   23  O   UNL     1      -9.062  13.593  67.534  1.00  0.00    -0.194 OA 
HETATM   24  C   UNL     1     -10.995  14.002  66.250  1.00  0.00    -0.300 C  
HETATM   25  H   UNL     1     -12.844  12.068  66.248  1.00  0.00     0.000 HD 
HETATM   26  C   UNL     1     -10.894  12.486  66.488  1.00  0.00    -0.256 C  
HETATM   27  O   UNL     1     -12.159  11.977  66.900  1.00  0.00    -0.608 OA 
HETATM   28  F   UNL     1     -12.286  14.412  66.391  1.00  0.00    -0.435 F  
HETATM   29  C   UNL     1     -10.564  14.333  64.830  1.00  0.00    -0.452 C  
HETATM   30  C   UNL     1     -10.107  14.573  67.358  1.00  0.00    -0.235 C  
BRANCH  30  31
HETATM   31  N   UNL     1      -9.524  15.898  67.124  1.00  0.00    -0.211 N  
HETATM   32  C   UNL     1      -8.295  16.040  66.506  1.00  0.00    -0.313 C  
HETATM   33  C   UNL     1      -7.699  17.224  66.376  1.00  0.00    -0.347 C  
HETATM   34  C   UNL     1      -8.363  18.415  66.927  1.00  0.00    -0.253 C  
HETATM   35  O   UNL     1      -7.791  19.497  66.959  1.00  0.00    -0.249 OA 
HETATM   36  N   UNL     1      -9.626  18.219  67.400  1.00  0.00    -0.279 N  
HETATM   37  H   UNL     1     -10.167  19.051  67.639  1.00  0.00     0.000 HD 
HETATM   38  C   UNL     1     -10.235  17.003  67.584  1.00  0.00    -0.317 C  
HETATM   39  O   UNL     1     -11.322  16.939  68.145  1.00  0.00    -0.217 OA 
ENDBRANCH  30  31
ENDBRANCH  21  22
ENDBRANCH  12  21
ENDBRANCH   7   9
ENDBRANCH   5   7
ENDBRANCH   4   5
ENDBRANCH   2   4
TORSDOF 8
ENDMDL
MODEL      128
REMARK 921   NORMALIZED FREE ENERGY PREDICTED BY IDOCK:   -3.36 KCAL/MOL
REMARK 922        TOTAL FREE ENERGY PREDICTED BY IDOCK:   -7.48 KCAL/MOL
REMARK 923 INTER-LIGAND FREE ENERGY PREDICTED BY IDOCK:   -8.31 KCAL/MOL
REMARK 924 INTRA-LIGAND FREE ENERGY PREDICTED BY IDOCK:    0.83 KCAL/MOL
REMARK 927      BINDING AFFINITY PREDICTED BY RF-SCORE:    0.00 PKD
ROOT
HETATM    1  C   UNL     1     -10.520  12.875  64.093  1.00  0.00    -0.429 C  
HETATM    2  C   UNL     1     -11.919  13.176  64.616  1.00  0.00    -0.388 C  
HETATM    3  C   UNL     1     -12.923  12.193  64.020  1.00  0.00    -0.293 C  
ENDROOT
BRANCH   2   4
HETATM    4  O   UNL     1     -11.949  13.022  66.049  1.00  0.00    -0.400 OA 
BRANCH   4   5
HETATM    5  C   UNL     1     -11.557  14.109  66.781  1.00  0.00    -0.391 C  
HETATM    6  O   UNL     1     -11.111  15.150  66.311  1.00  0.00    -0.337 OA 
BRANCH   5   7
HETATM    7  C   UNL     1     -11.822  13.862  68.268  1.00  0.00    -0.376 C  
HETATM    8  C   UNL     1     -11.871  15.217  68.974  1.00  0.00    -0.331 C  
BRANCH   7   9
HETATM    9  N   UNL     1     -10.808  12.938  68.833  1.00  0.00    -0.345 NA 
HETATM   10  P   UNL     1      -9.373  12.826  67.937  1.00  0.00    -0.218 P  
HETATM   11  H   UNL     1     -11.212  12.011  68.971  1.00  0.00     0.000 HD 
HETATM   12  O   UNL     1      -8.394  11.781  68.776  1.00  0.00    -0.113 OA 
HETATM   13  O   UNL     1      -8.747  14.130  68.885  1.00  0.00    -0.106 OA 
HETATM   14  O   UNL     1      -9.935  11.659  67.089  1.00  0.00    -0.197 OA 
BRANCH  13  15
HETATM   15  C   UNL     1      -8.716  15.381  68.325  1.00  0.00    -0.164 A  
HETATM   16  C   UNL     1      -8.468  17.873  67.106  1.00  0.00    -0.242 A  
HETATM   17  C   UNL     1      -8.140  15.482  67.060  1.00  0.00    -0.272 A  
HETATM   18  C   UNL     1      -9.202  16.518  68.970  1.00  0.00    -0.237 A  
HETATM   19  C   UNL     1      -8.010  16.730  66.451  1.00  0.00    -0.356 A  
HETATM   20  C   UNL     1      -9.070  17.767  68.358  1.00  0.00    -0.278 A  
ENDBRANCH  13  15
BRANCH  12  21
HETATM   21  C   UNL     1      -7.412  11.071  67.997  1.00  0.00    -0.090 C  
BRANCH  21  22
HETATM   22  C   UNL     1      -7.456   9.513  68.001  1.00  0.00    -0.083 C  
HETATM   23  O   UNL     1      -8.177   9.034  69.158  1.00  0.00    -0.116 OA 
HETATM   24  C   UNL     1      -8.949   7.689  67.384  1.00  0.00    -0.126 C  
HETATM   25  H   UNL     1      -7.663   7.952  65.053  1.00  0.00     0.000 HD 
HETATM   26  C   UNL     1      -8.145   8.853  66.783  1.00  0.00    -0.111 C  
HETATM   27  O   UNL     1      -7.240   8.357  65.801  1.00  0.00    -0.070 OA 
HETATM   28  F   UNL     1      -8.652   6.530  66.734  1.00  0.00    -0.111 F  
HETATM   29  C   UNL     1     -10.438   7.941  67.207  1.00  0.00    -0.390 C  
HETATM   30  C   UNL     1      -8.455   7.655  68.832  1.00  0.00    -0.129 C  
BRANCH  30  31
HETATM   31  N   UNL     1      -9.360   7.073  69.829  1.00  0.00    -0.147 N  
HETATM   32  C   UNL     1     -10.216   7.868  70.570  1.00  0.00    -0.198 C  
HETATM   33  C   UNL     1     -10.970   7.375  71.550  1.00  0.00    -0.255 C  
HETATM   34  C   UNL     1     -10.873   5.943  71.867  1.00  0.00    -0.254 C  
HETATM   35  O   UNL     1     -11.437   5.475  72.848  1.00  0.00    -0.304 OA 
HETATM   36  N   UNL     1     -10.114   5.201  71.012  1.00  0.00    -0.215 N  
HETATM   37  H   UNL     1     -10.158   4.186  71.113  1.00  0.00     0.000 HD 
HETATM   38  C   UNL     1      -9.296   5.697  70.028  1.00  0.00    -0.149 C  
HETATM   39  O   UNL     1      -8.553   4.944  69.409  1.00  0.00    -0.086 OA 
ENDBRANCH  30  31
ENDBRANCH  21  22
ENDBRANCH  12  21
ENDBRANCH   7   9
ENDBRANCH   5   7
ENDBRANCH   4   5
ENDBRANCH   2   4
TORSDOF 8
ENDMDL
MODEL      129
REMARK 921   NORMALIZED FREE ENERGY PREDICTED BY IDOCK:   -3.32 KCAL/MOL
REMARK 922        TOTAL FREE ENERGY PREDICTED BY IDOCK:   -7.43 KCAL/MOL
REMARK 923 INTER-LIGAND FREE ENERGY PREDICTED BY IDOCK:   -7.78 KCAL/MOL
REMARK 924 INTRA-LIGAND FREE ENERGY PREDICTED BY IDOCK:    0.35 KCAL/MOL
REMARK 927      BINDING AFFINITY PREDICTED BY RF-SCORE:    0.00 PKD
ROOT
HETATM    1  C   UNL     1     -10.421   6.026  70.716  1.00  0.00    -0.298 C  
HETATM    2  C   UNL     1      -9.839   5.753  69.334  1.00  0.00    -0.167 C  
HETATM    3  C   UNL     1      -9.853   4.253  69.048  1.00  0.00    -0.148 C  
ENDROOT
BRANCH   2   4
HETATM    4  O   UNL     1     -10.644   6.401  68.329  1.00  0.00    -0.200 OA 
BRANCH   4   5
HETATM    5  C   UNL     1     -10.123   6.430  67.065  1.00  0.00    -0.174 C  
HETATM    6  O   UNL     1     -10.319   5.580  66.204  1.00  0.00    -0.168 OA 
BRANCH   5   7
HETATM    7  C   UNL     1      -9.314   7.713  66.861  1.00  0.00    -0.161 C  
HETATM    8  C   UNL     1      -8.669   8.086  68.195  1.00  0.00    -0.126 C  
BRANCH   7   9
HETATM    9  N   UNL     1     -10.172   8.787  66.300  1.00  0.00    -0.378 NA 
HETATM   10  P   UNL     1      -9.328  10.130  65.702  1.00  0.00    -0.241 P  
HETATM   11  H   UNL     1     -10.865   9.082  66.988  1.00  0.00     0.000 HD 
HETATM   12  O   UNL     1     -10.481  11.160  65.100  1.00  0.00    -0.276 OA 
HETATM   13  O   UNL     1      -9.271   9.339  64.165  1.00  0.00    -0.110 OA 
HETATM   14  O   UNL     1      -9.378  10.837  67.079  1.00  0.00    -0.155 OA 
BRANCH  13  15
HETATM   15  C   UNL     1      -8.099   8.737  63.789  1.00  0.00    -0.165 A  
HETATM   16  C   UNL     1      -5.808   7.330  63.060  1.00  0.00    -0.045 A  
HETATM   17  C   UNL     1      -8.213   7.539  63.086  1.00  0.00     0.033 A  
HETATM   18  C   UNL     1      -6.841   9.255  64.098  1.00  0.00    -0.091 A  
HETATM   19  C   UNL     1      -7.067   6.831  62.726  1.00  0.00    -0.051 A  
HETATM   20  C   UNL     1      -5.695   8.543  63.737  1.00  0.00    -0.070 A  
ENDBRANCH  13  15
BRANCH  12  21
HETATM   21  C   UNL     1     -10.131  12.557  65.076  1.00  0.00    -0.236 C  
BRANCH  21  22
HETATM   22  C   UNL     1     -11.021  13.554  65.879  1.00  0.00    -0.278 C  
HETATM   23  O   UNL     1     -11.479  12.941  67.105  1.00  0.00    -0.298 OA 
HETATM   24  C   UNL     1     -10.854  15.124  67.736  1.00  0.00    -0.292 C  
HETATM   25  H   UNL     1     -10.242  16.801  65.743  1.00  0.00     0.000 HD 
HETATM   26  C   UNL     1     -10.340  14.875  66.308  1.00  0.00    -0.294 C  
HETATM   27  O   UNL     1     -10.661  15.989  65.480  1.00  0.00    -0.371 OA 
HETATM   28  F   UNL     1     -11.370  16.380  67.835  1.00  0.00    -0.316 F  
HETATM   29  C   UNL     1      -9.704  15.024  68.725  1.00  0.00    -0.227 C  
HETATM   30  C   UNL     1     -11.946  14.062  67.886  1.00  0.00    -0.351 C  
BRANCH  30  31
HETATM   31  N   UNL     1     -12.267  13.630  69.250  1.00  0.00    -0.294 N  
HETATM   32  C   UNL     1     -12.124  12.308  69.635  1.00  0.00    -0.212 C  
HETATM   33  C   UNL     1     -12.507  11.874  70.833  1.00  0.00    -0.397 C  
HETATM   34  C   UNL     1     -13.120  12.827  71.770  1.00  0.00    -0.356 C  
HETATM   35  O   UNL     1     -13.615  12.446  72.823  1.00  0.00    -0.202 OA 
HETATM   36  N   UNL     1     -13.105  14.132  71.376  1.00  0.00    -0.343 N  
HETATM   37  H   UNL     1     -13.376  14.830  72.069  1.00  0.00     0.000 HD 
HETATM   38  C   UNL     1     -12.759  14.590  70.130  1.00  0.00    -0.214 C  
HETATM   39  O   UNL     1     -12.915  15.771  69.844  1.00  0.00    -0.105 OA 
ENDBRANCH  30  31
ENDBRANCH  21  22
ENDBRANCH  12  21
ENDBRANCH   7   9
ENDBRANCH   5   7
ENDBRANCH   4   5
ENDBRANCH   2   4
TORSDOF 8
ENDMDL
MODEL      130
REMARK 921   NORMALIZED FREE ENERGY PREDICTED BY IDOCK:   -3.27 KCAL/MOL
REMARK 922        TOTAL FREE ENERGY PREDICTED BY IDOCK:   -7.35 KCAL/MOL
REMARK 923 INTER-LIGAND FREE ENERGY PREDICTED BY IDOCK:   -7.84 KCAL/MOL
REMARK 924 INTRA-LIGAND FREE ENERGY PREDICTED BY IDOCK:    0.49 KCAL/MOL
REMARK 927      BINDING AFFINITY PREDICTED BY RF-SCORE:    0.00 PKD
ROOT
HETATM    1  C   UNL     1     -10.835   5.448  67.700  1.00  0.00     0.021 C  
HETATM    2  C   UNL     1      -9.563   6.203  68.066  1.00  0.00    -0.115 C  
HETATM    3  C   UNL     1      -8.375   5.630  67.296  1.00  0.00    -0.100 C  
ENDROOT
BRANCH   2   4
HETATM    4  O   UNL     1      -9.697   7.591  67.702  1.00  0.00    -0.139 OA 
BRANCH   4   5
HETATM    5  C   UNL     1      -9.953   8.461  68.725  1.00  0.00    -0.187 C  
HETATM    6  O   UNL     1     -10.627   8.204  69.715  1.00  0.00    -0.229 OA 
BRANCH   5   7
HETATM    7  C   UNL     1      -9.216   9.781  68.486  1.00  0.00    -0.134 C  
HETATM    8  C   UNL     1      -8.543  10.194  69.795  1.00  0.00    -0.148 C  
BRANCH   7   9
HETATM    9  N   UNL     1     -10.144  10.808  67.951  1.00  0.00    -0.169 NA 
HETATM   10  P   UNL     1      -9.397  12.054  67.078  1.00  0.00    -0.201 P  
HETATM   11  H   UNL     1     -10.715  11.195  68.702  1.00  0.00     0.000 HD 
HETATM   12  O   UNL     1     -10.623  13.042  66.554  1.00  0.00    -0.277 OA 
HETATM   13  O   UNL     1      -9.594  11.097  65.651  1.00  0.00    -0.206 OA 
HETATM   14  O   UNL     1      -9.219  12.911  68.357  1.00  0.00    -0.198 OA 
BRANCH  13  15
HETATM   15  C   UNL     1      -8.501  10.427  65.164  1.00  0.00    -0.173 A  
HETATM   16  C   UNL     1      -6.405   8.899  64.149  1.00  0.00    -0.072 A  
HETATM   17  C   UNL     1      -8.737   9.527  64.127  1.00  0.00    -0.239 A  
HETATM   18  C   UNL     1      -7.214  10.594  65.674  1.00  0.00    -0.084 A  
HETATM   19  C   UNL     1      -7.689   8.758  63.622  1.00  0.00    -0.133 A  
HETATM   20  C   UNL     1      -6.167   9.822  65.167  1.00  0.00    -0.092 A  
ENDBRANCH  13  15
BRANCH  12  21
HETATM   21  C   UNL     1     -10.270  14.418  66.317  1.00  0.00    -0.299 C  
BRANCH  21  22
HETATM   22  C   UNL     1      -9.926  15.312  67.547  1.00  0.00    -0.226 C  
HETATM   23  O   UNL     1      -8.748  16.104  67.277  1.00  0.00    -0.175 OA 
HETATM   24  C   UNL     1     -10.232  17.598  68.333  1.00  0.00    -0.381 C  
HETATM   25  H   UNL     1     -12.463  16.528  69.351  1.00  0.00     0.000 HD 
HETATM   26  C   UNL     1     -11.015  16.325  67.972  1.00  0.00    -0.328 C  
HETATM   27  O   UNL     1     -11.794  15.906  69.089  1.00  0.00    -0.389 OA 
HETATM   28  F   UNL     1     -10.587  18.029  69.575  1.00  0.00    -0.227 F  
HETATM   29  C   UNL     1     -10.570  18.710  67.352  1.00  0.00    -0.490 C  
HETATM   30  C   UNL     1      -8.781  17.115  68.306  1.00  0.00    -0.241 C  
BRANCH  30  31
HETATM   31  N   UNL     1      -7.749  18.127  68.055  1.00  0.00    -0.248 N  
HETATM   32  C   UNL     1      -7.260  18.921  69.078  1.00  0.00    -0.293 C  
HETATM   33  C   UNL     1      -6.402  19.913  68.856  1.00  0.00    -0.337 C  
HETATM   34  C   UNL     1      -5.975  20.186  67.475  1.00  0.00    -0.185 C  
HETATM   35  O   UNL     1      -5.303  21.173  67.207  1.00  0.00    -0.206 OA 
HETATM   36  N   UNL     1      -6.391  19.284  66.542  1.00  0.00    -0.185 N  
HETATM   37  H   UNL     1      -5.981  19.358  65.610  1.00  0.00     0.000 HD 
HETATM   38  C   UNL     1      -7.310  18.286  66.743  1.00  0.00    -0.212 C  
HETATM   39  O   UNL     1      -7.711  17.619  65.797  1.00  0.00    -0.540 OA 
ENDBRANCH  30  31
ENDBRANCH  21  22
ENDBRANCH  12  21
ENDBRANCH   7   9
ENDBRANCH   5   7
ENDBRANCH   4   5
ENDBRANCH   2   4
TORSDOF 8
ENDMDL
MODEL      131
REMARK 921   NORMALIZED FREE ENERGY PREDICTED BY IDOCK:   -3.25 KCAL/MOL
REMARK 922        TOTAL FREE ENERGY PREDICTED BY IDOCK:   -7.32 KCAL/MOL
REMARK 923 INTER-LIGAND FREE ENERGY PREDICTED BY IDOCK:   -8.32 KCAL/MOL
REMARK 924 INTRA-LIGAND FREE ENERGY PREDICTED BY IDOCK:    1.00 KCAL/MOL
REMARK 927      BINDING AFFINITY PREDICTED BY RF-SCORE:    0.00 PKD
ROOT
HETATM    1  C   UNL     1     -10.373  17.134  65.522  1.00  0.00    -0.132 C  
HETATM    2  C   UNL     1      -9.426  15.944  65.621  1.00  0.00    -0.182 C  
HETATM    3  C   UNL     1      -8.246  16.288  66.526  1.00  0.00    -0.344 C  
ENDROOT
BRANCH   2   4
HETATM    4  O   UNL     1     -10.115  14.819  66.202  1.00  0.00    -0.268 OA 
BRANCH   4   5
HETATM    5  C   UNL     1     -10.650  13.918  65.322  1.00  0.00    -0.361 C  
HETATM    6  O   UNL     1     -10.099  13.517  64.305  1.00  0.00    -0.336 OA 
BRANCH   5   7
HETATM    7  C   UNL     1     -12.009  13.432  65.832  1.00  0.00    -0.409 C  
HETATM    8  C   UNL     1     -12.517  14.436  66.866  1.00  0.00     0.008 C  
BRANCH   7   9
HETATM    9  N   UNL     1     -11.904  12.047  66.356  1.00  0.00    -0.593 NA 
HETATM   10  P   UNL     1     -10.577  11.772  67.374  1.00  0.00    -0.246 P  
HETATM   11  H   UNL     1     -11.906  11.377  65.587  1.00  0.00     0.000 HD 
HETATM   12  O   UNL     1     -10.696  10.188  67.858  1.00  0.00    -0.230 OA 
HETATM   13  O   UNL     1     -11.577  12.227  68.709  1.00  0.00    -0.281 OA 
HETATM   14  O   UNL     1      -9.681  11.365  66.177  1.00  0.00    -0.205 OA 
BRANCH  13  15
HETATM   15  C   UNL     1     -11.418  13.481  69.240  1.00  0.00    -0.291 A  
HETATM   16  C   UNL     1     -11.295  16.065  70.271  1.00  0.00    -0.391 A  
HETATM   17  C   UNL     1     -12.513  14.011  69.920  1.00  0.00    -0.301 A  
HETATM   18  C   UNL     1     -10.246  14.224  69.104  1.00  0.00    -0.100 A  
HETATM   19  C   UNL     1     -12.454  15.307  70.432  1.00  0.00    -0.426 A  
HETATM   20  C   UNL     1     -10.190  15.522  69.617  1.00  0.00    -0.289 A  
ENDBRANCH  13  15
BRANCH  12  21
HETATM   21  C   UNL     1      -9.460   9.543  68.219  1.00  0.00    -0.133 C  
BRANCH  21  22
HETATM   22  C   UNL     1      -9.055   9.520  69.724  1.00  0.00    -0.205 C  
HETATM   23  O   UNL     1      -9.729   8.440  70.409  1.00  0.00    -0.170 OA 
HETATM   24  C   UNL     1      -7.519   8.365  71.224  1.00  0.00    -0.089 C  
HETATM   25  H   UNL     1      -5.926  10.393  70.511  1.00  0.00     0.000 HD 
HETATM   26  C   UNL     1      -7.549   9.316  70.016  1.00  0.00    -0.099 C  
HETATM   27  O   UNL     1      -6.851  10.517  70.332  1.00  0.00    -0.259 OA 
HETATM   28  F   UNL     1      -6.743   8.888  72.212  1.00  0.00    -0.096 F  
HETATM   29  C   UNL     1      -6.906   7.033  70.819  1.00  0.00    -0.054 C  
HETATM   30  C   UNL     1      -8.990   8.312  71.642  1.00  0.00    -0.180 C  
BRANCH  30  31
HETATM   31  N   UNL     1      -9.430   7.119  72.374  1.00  0.00    -0.145 N  
HETATM   32  C   UNL     1     -10.138   6.113  71.742  1.00  0.00    -0.185 C  
HETATM   33  C   UNL     1     -10.636   5.072  72.407  1.00  0.00    -0.275 C  
HETATM   34  C   UNL     1     -10.443   5.003  73.863  1.00  0.00    -0.271 C  
HETATM   35  O   UNL     1     -11.002   4.144  74.533  1.00  0.00    -0.195 OA 
HETATM   36  N   UNL     1      -9.625   5.955  74.394  1.00  0.00    -0.171 N  
HETATM   37  H   UNL     1      -9.346   5.837  75.369  1.00  0.00     0.000 HD 
HETATM   38  C   UNL     1      -9.142   7.058  73.735  1.00  0.00    -0.185 C  
HETATM   39  O   UNL     1      -8.527   7.921  74.349  1.00  0.00    -0.233 OA 
ENDBRANCH  30  31
ENDBRANCH  21  22
ENDBRANCH  12  21
ENDBRANCH   7   9
ENDBRANCH   5   7
ENDBRANCH   4   5
ENDBRANCH   2   4
TORSDOF 8
ENDMDL
MODEL      132
REMARK 921   NORMALIZED FREE ENERGY PREDICTED BY IDOCK:   -3.22 KCAL/MOL
REMARK 922        TOTAL FREE ENERGY PREDICTED BY IDOCK:   -7.28 KCAL/MOL
REMARK 923 INTER-LIGAND FREE ENERGY PREDICTED BY IDOCK:   -7.98 KCAL/MOL
REMARK 924 INTRA-LIGAND FREE ENERGY PREDICTED BY IDOCK:    0.70 KCAL/MOL
REMARK 927      BINDING AFFINITY PREDICTED BY RF-SCORE:    0.00 PKD
ROOT
HETATM    1  C   UNL     1     -12.397  12.178  63.331  1.00  0.00    -0.648 C  
HETATM    2  C   UNL     1     -11.710  12.951  64.451  1.00  0.00    -0.372 C  
HETATM    3  C   UNL     1     -12.460  14.253  64.723  1.00  0.00    -0.390 C  
ENDROOT
BRANCH   2   4
HETATM    4  O   UNL     1     -11.726  12.172  65.663  1.00  0.00    -0.375 OA 
BRANCH   4   5
HETATM    5  C   UNL     1     -10.592  11.457  65.935  1.00  0.00    -0.263 C  
HETATM    6  O   UNL     1     -10.345  10.338  65.502  1.00  0.00    -0.258 OA 
BRANCH   5   7
HETATM    7  C   UNL     1      -9.645  12.288  66.805  1.00  0.00    -0.218 C  
HETATM    8  C   UNL     1      -8.230  11.742  66.624  1.00  0.00    -0.117 C  
BRANCH   7   9
HETATM    9  N   UNL     1     -10.101  12.290  68.217  1.00  0.00    -0.215 NA 
HETATM   10  P   UNL     1     -10.769  10.826  68.750  1.00  0.00    -0.245 P  
HETATM   11  H   UNL     1     -10.756  13.057  68.377  1.00  0.00     0.000 HD 
HETATM   12  O   UNL     1     -11.161  11.059  70.346  1.00  0.00    -0.232 OA 
HETATM   13  O   UNL     1      -9.182  10.344  69.238  1.00  0.00    -0.194 OA 
HETATM   14  O   UNL     1     -12.191  11.258  68.311  1.00  0.00    -0.611 OA 
BRANCH  13  15
HETATM   15  C   UNL     1      -8.497   9.465  68.440  1.00  0.00    -0.120 A  
HETATM   16  C   UNL     1      -6.979   7.834  66.768  1.00  0.00    -0.072 A  
HETATM   17  C   UNL     1      -7.114   9.627  68.379  1.00  0.00    -0.070 A  
HETATM   18  C   UNL     1      -9.123   8.465  67.695  1.00  0.00    -0.144 A  
HETATM   19  C   UNL     1      -6.355   8.815  67.538  1.00  0.00    -0.056 A  
HETATM   20  C   UNL     1      -8.359   7.653  66.853  1.00  0.00    -0.124 A  
ENDBRANCH  13  15
BRANCH  12  21
HETATM   21  C   UNL     1     -12.228  10.240  70.861  1.00  0.00    -0.365 C  
BRANCH  21  22
HETATM   22  C   UNL     1     -12.079   8.691  70.764  1.00  0.00    -0.068 C  
HETATM   23  O   UNL     1     -10.690   8.330  70.596  1.00  0.00    -0.212 OA 
HETATM   24  C   UNL     1     -11.515   6.781  72.169  1.00  0.00    -0.282 C  
HETATM   25  H   UNL     1     -14.158   6.808  72.581  1.00  0.00     0.000 HD 
HETATM   26  C   UNL     1     -12.568   7.887  71.992  1.00  0.00    -0.296 C  
HETATM   27  O   UNL     1     -13.857   7.302  71.827  1.00  0.00    -0.365 OA 
HETATM   28  F   UNL     1     -12.120   5.563  72.231  1.00  0.00    -0.276 F  
HETATM   29  C   UNL     1     -10.766   6.984  73.477  1.00  0.00    -0.368 C  
HETATM   30  C   UNL     1     -10.672   6.919  70.900  1.00  0.00    -0.230 C  
BRANCH  30  31
HETATM   31  N   UNL     1      -9.289   6.434  70.965  1.00  0.00    -0.164 N  
HETATM   32  C   UNL     1      -8.240   7.295  71.233  1.00  0.00    -0.106 C  
HETATM   33  C   UNL     1      -6.970   6.899  71.196  1.00  0.00    -0.069 C  
HETATM   34  C   UNL     1      -6.674   5.503  70.838  1.00  0.00    -0.044 C  
HETATM   35  O   UNL     1      -5.522   5.131  70.652  1.00  0.00    -0.004 OA 
HETATM   36  N   UNL     1      -7.756   4.683  70.719  1.00  0.00    -0.060 N  
HETATM   37  H   UNL     1      -7.574   3.683  70.630  1.00  0.00     0.000 HD 
HETATM   38  C   UNL     1      -9.069   5.083  70.708  1.00  0.00    -0.134 C  
HETATM   39  O   UNL     1      -9.955   4.276  70.457  1.00  0.00    -0.209 OA 
ENDBRANCH  30  31
ENDBRANCH  21  22
ENDBRANCH  12  21
ENDBRANCH   7   9
ENDBRANCH   5   7
ENDBRANCH   4   5
ENDBRANCH   2   4
TORSDOF 8
ENDMDL
MODEL      133
REMARK 921   NORMALIZED FREE ENERGY PREDICTED BY IDOCK:   -3.20 KCAL/MOL
REMARK 922        TOTAL FREE ENERGY PREDICTED BY IDOCK:   -7.25 KCAL/MOL
REMARK 923 INTER-LIGAND FREE ENERGY PREDICTED BY IDOCK:   -6.33 KCAL/MOL
REMARK 924 INTRA-LIGAND FREE ENERGY PREDICTED BY IDOCK:   -0.92 KCAL/MOL
REMARK 927      BINDING AFFINITY PREDICTED BY RF-SCORE:    0.00 PKD
ROOT
HETATM    1  C   UNL     1      -7.383   9.885  64.208  1.00  0.00    -0.133 C  
HETATM    2  C   UNL     1      -8.662  10.201  63.442  1.00  0.00    -0.213 C  
HETATM    3  C   UNL     1      -8.874   9.175  62.332  1.00  0.00    -0.212 C  
ENDROOT
BRANCH   2   4
HETATM    4  O   UNL     1      -9.794  10.129  64.332  1.00  0.00    -0.322 OA 
BRANCH   4   5
HETATM    5  C   UNL     1     -10.642  11.202  64.317  1.00  0.00    -0.357 C  
HETATM    6  O   UNL     1     -11.333  11.539  63.363  1.00  0.00    -0.374 OA 
BRANCH   5   7
HETATM    7  C   UNL     1     -10.654  11.878  65.690  1.00  0.00    -0.268 C  
HETATM    8  C   UNL     1      -9.616  12.999  65.677  1.00  0.00    -0.025 C  
BRANCH   7   9
HETATM    9  N   UNL     1     -10.433  10.880  66.766  1.00  0.00    -0.241 NA 
HETATM   10  P   UNL     1      -9.287  11.334  67.929  1.00  0.00    -0.171 P  
HETATM   11  H   UNL     1     -10.189   9.975  66.363  1.00  0.00     0.000 HD 
HETATM   12  O   UNL     1      -9.244  10.094  69.032  1.00  0.00    -0.163 OA 
HETATM   13  O   UNL     1     -10.573  12.056  68.832  1.00  0.00    -0.215 OA 
HETATM   14  O   UNL     1      -8.135  10.688  67.120  1.00  0.00    -0.118 OA 
BRANCH  13  15
HETATM   15  C   UNL     1     -10.711  13.419  68.786  1.00  0.00    -0.232 A  
HETATM   16  C   UNL     1     -10.827  16.202  68.817  1.00  0.00    -0.310 A  
HETATM   17  C   UNL     1      -9.533  14.164  68.782  1.00  0.00    -0.102 A  
HETATM   18  C   UNL     1     -11.950  14.060  68.769  1.00  0.00    -0.382 A  
HETATM   19  C   UNL     1      -9.590  15.557  68.804  1.00  0.00    -0.208 A  
HETATM   20  C   UNL     1     -12.004  15.456  68.791  1.00  0.00    -0.278 A  
ENDBRANCH  13  15
BRANCH  12  21
HETATM   21  C   UNL     1      -8.009   9.935  69.757  1.00  0.00    -0.174 C  
BRANCH  21  22
HETATM   22  C   UNL     1      -8.005   9.003  71.007  1.00  0.00    -0.150 C  
HETATM   23  O   UNL     1      -8.615   7.733  70.687  1.00  0.00    -0.125 OA 
HETATM   24  C   UNL     1      -6.713   7.169  71.959  1.00  0.00    -0.056 C  
HETATM   25  H   UNL     1      -5.403   9.206  73.095  1.00  0.00     0.000 HD 
HETATM   26  C   UNL     1      -6.613   8.657  71.587  1.00  0.00    -0.074 C  
HETATM   27  O   UNL     1      -6.258   9.419  72.738  1.00  0.00    -0.301 OA 
HETATM   28  F   UNL     1      -6.327   6.983  73.252  1.00  0.00    -0.060 F  
HETATM   29  C   UNL     1      -5.777   6.352  71.083  1.00  0.00    -0.027 C  
HETATM   30  C   UNL     1      -8.205   6.880  71.778  1.00  0.00    -0.105 C  
BRANCH  30  31
HETATM   31  N   UNL     1      -8.583   5.490  71.503  1.00  0.00    -0.130 N  
HETATM   32  C   UNL     1      -8.758   5.038  70.207  1.00  0.00    -0.107 C  
HETATM   33  C   UNL     1      -9.201   3.812  69.938  1.00  0.00    -0.219 C  
HETATM   34  C   UNL     1      -9.533   2.917  71.056  1.00  0.00    -0.157 C  
HETATM   35  O   UNL     1     -10.077   1.838  70.859  1.00  0.00     0.009 OA 
HETATM   36  N   UNL     1      -9.210   3.380  72.297  1.00  0.00    -0.105 N  
HETATM   37  H   UNL     1      -9.281   2.721  73.072  1.00  0.00     0.000 HD 
HETATM   38  C   UNL     1      -8.798   4.655  72.596  1.00  0.00    -0.114 C  
HETATM   39  O   UNL     1      -8.667   5.000  73.764  1.00  0.00    -0.110 OA 
ENDBRANCH  30  31
ENDBRANCH  21  22
ENDBRANCH  12  21
ENDBRANCH   7   9
ENDBRANCH   5   7
ENDBRANCH   4   5
ENDBRANCH   2   4
TORSDOF 8
ENDMDL
MODEL      134
REMARK 921   NORMALIZED FREE ENERGY PREDICTED BY IDOCK:   -3.19 KCAL/MOL
REMARK 922        TOTAL FREE ENERGY PREDICTED BY IDOCK:   -7.24 KCAL/MOL
REMARK 923 INTER-LIGAND FREE ENERGY PREDICTED BY IDOCK:   -4.99 KCAL/MOL
REMARK 924 INTRA-LIGAND FREE ENERGY PREDICTED BY IDOCK:   -2.25 KCAL/MOL
REMARK 927      BINDING AFFINITY PREDICTED BY RF-SCORE:    0.00 PKD
ROOT
HETATM    1  C   UNL     1      -5.867  11.114  66.250  1.00  0.00    -0.139 C  
HETATM    2  C   UNL     1      -7.247  11.312  66.867  1.00  0.00    -0.142 C  
HETATM    3  C   UNL     1      -7.304  12.647  67.604  1.00  0.00    -0.139 C  
ENDROOT
BRANCH   2   4
HETATM    4  O   UNL     1      -8.246  11.338  65.828  1.00  0.00    -0.073 OA 
BRANCH   4   5
HETATM    5  C   UNL     1      -9.273  10.443  65.955  1.00  0.00    -0.170 C  
HETATM    6  O   UNL     1     -10.400  10.718  66.349  1.00  0.00    -0.239 OA 
BRANCH   5   7
HETATM    7  C   UNL     1      -8.827   9.063  65.467  1.00  0.00    -0.194 C  
HETATM    8  C   UNL     1      -8.670   9.123  63.948  1.00  0.00    -0.154 C  
BRANCH   7   9
HETATM    9  N   UNL     1      -9.778   8.017  65.920  1.00  0.00    -0.430 NA 
HETATM   10  P   UNL     1      -9.087   6.794  66.869  1.00  0.00    -0.147 P  
HETATM   11  H   UNL     1     -10.265   7.612  65.121  1.00  0.00     0.000 HD 
HETATM   12  O   UNL     1     -10.335   5.780  67.282  1.00  0.00    -0.179 OA 
HETATM   13  O   UNL     1      -9.441   7.754  68.263  1.00  0.00    -0.145 OA 
HETATM   14  O   UNL     1      -8.769   5.935  65.620  1.00  0.00    -0.152 OA 
BRANCH  13  15
HETATM   15  C   UNL     1      -8.416   8.453  68.846  1.00  0.00    -0.124 A  
HETATM   16  C   UNL     1      -6.232   9.693  70.050  1.00  0.00    -0.055 A  
HETATM   17  C   UNL     1      -7.125   8.013  68.563  1.00  0.00    -0.080 A  
HETATM   18  C   UNL     1      -8.621   9.536  69.702  1.00  0.00    -0.189 A  
HETATM   19  C   UNL     1      -6.031   8.630  69.171  1.00  0.00    -0.042 A  
HETATM   20  C   UNL     1      -7.524  10.151  70.309  1.00  0.00    -0.077 A  
ENDBRANCH  13  15
BRANCH  12  21
HETATM   21  C   UNL     1      -9.973   4.414  67.563  1.00  0.00    -0.071 C  
BRANCH  21  22
HETATM   22  C   UNL     1      -8.948   4.144  68.706  1.00  0.00    -0.113 C  
HETATM   23  O   UNL     1      -8.876   5.282  69.594  1.00  0.00    -0.105 OA 
HETATM   24  C   UNL     1      -8.899   3.415  71.031  1.00  0.00    -0.083 C  
HETATM   25  H   UNL     1      -8.687   1.019  69.860  1.00  0.00     0.000 HD 
HETATM   26  C   UNL     1      -9.254   2.931  69.616  1.00  0.00    -0.146 C  
HETATM   27  O   UNL     1      -8.499   1.765  69.302  1.00  0.00    -0.048 OA 
HETATM   28  F   UNL     1      -8.049   2.534  71.627  1.00  0.00    -0.052 F  
HETATM   29  C   UNL     1     -10.155   3.485  71.885  1.00  0.00    -0.168 C  
HETATM   30  C   UNL     1      -8.210   4.755  70.761  1.00  0.00    -0.086 C  
BRANCH  30  31
HETATM   31  N   UNL     1      -8.232   5.742  71.845  1.00  0.00    -0.118 N  
HETATM   32  C   UNL     1      -9.171   6.759  71.869  1.00  0.00    -0.142 C  
HETATM   33  C   UNL     1      -9.146   7.725  72.785  1.00  0.00    -0.242 C  
HETATM   34  C   UNL     1      -8.073   7.721  73.790  1.00  0.00    -0.187 C  
HETATM   35  O   UNL     1      -7.926   8.662  74.560  1.00  0.00    -0.342 OA 
HETATM   36  N   UNL     1      -7.267   6.621  73.787  1.00  0.00    -0.084 N  
HETATM   37  H   UNL     1      -6.621   6.517  74.570  1.00  0.00     0.000 HD 
HETATM   38  C   UNL     1      -7.249   5.642  72.826  1.00  0.00    -0.090 C  
HETATM   39  O   UNL     1      -6.389   4.770  72.853  1.00  0.00    -0.037 OA 
ENDBRANCH  30  31
ENDBRANCH  21  22
ENDBRANCH  12  21
ENDBRANCH   7   9
ENDBRANCH   5   7
ENDBRANCH   4   5
ENDBRANCH   2   4
TORSDOF 8
ENDMDL
MODEL      135
REMARK 921   NORMALIZED FREE ENERGY PREDICTED BY IDOCK:   -3.17 KCAL/MOL
REMARK 922        TOTAL FREE ENERGY PREDICTED BY IDOCK:   -7.21 KCAL/MOL
REMARK 923 INTER-LIGAND FREE ENERGY PREDICTED BY IDOCK:   -8.50 KCAL/MOL
REMARK 924 INTRA-LIGAND FREE ENERGY PREDICTED BY IDOCK:    1.29 KCAL/MOL
REMARK 927      BINDING AFFINITY PREDICTED BY RF-SCORE:    0.00 PKD
ROOT
HETATM    1  C   UNL     1     -12.000  15.029  64.047  1.00  0.00    -0.081 C  
HETATM    2  C   UNL     1     -12.139  13.616  64.602  1.00  0.00    -0.412 C  
HETATM    3  C   UNL     1     -12.347  12.623  63.462  1.00  0.00    -0.591 C  
ENDROOT
BRANCH   2   4
HETATM    4  O   UNL     1     -10.931  13.245  65.295  1.00  0.00    -0.283 OA 
BRANCH   4   5
HETATM    5  C   UNL     1     -10.164  12.282  64.698  1.00  0.00    -0.285 C  
HETATM    6  O   UNL     1      -9.734  12.337  63.552  1.00  0.00    -0.301 OA 
BRANCH   5   7
HETATM    7  C   UNL     1      -9.864  11.159  65.694  1.00  0.00    -0.235 C  
HETATM    8  C   UNL     1      -9.743   9.851  64.913  1.00  0.00    -0.332 C  
BRANCH   7   9
HETATM    9  N   UNL     1     -10.895  11.117  66.760  1.00  0.00    -0.274 NA 
HETATM   10  P   UNL     1     -10.282  11.087  68.340  1.00  0.00    -0.202 P  
HETATM   11  H   UNL     1     -11.527  10.330  66.610  1.00  0.00     0.000 HD 
HETATM   12  O   UNL     1     -11.606  11.083  69.341  1.00  0.00    -0.256 OA 
HETATM   13  O   UNL     1     -10.328  12.816  68.330  1.00  0.00    -0.231 OA 
HETATM   14  O   UNL     1     -10.240   9.539  68.347  1.00  0.00    -0.179 OA 
BRANCH  13  15
HETATM   15  C   UNL     1      -9.152  13.495  68.143  1.00  0.00    -0.199 A  
HETATM   16  C   UNL     1      -6.857  14.980  67.611  1.00  0.00    -0.203 A  
HETATM   17  C   UNL     1      -9.260  14.841  67.800  1.00  0.00    -0.194 A  
HETATM   18  C   UNL     1      -7.898  12.894  68.257  1.00  0.00    -0.142 A  
HETATM   19  C   UNL     1      -8.111  15.584  67.528  1.00  0.00    -0.185 A  
HETATM   20  C   UNL     1      -6.750  13.641  67.983  1.00  0.00    -0.141 A  
ENDBRANCH  13  15
BRANCH  12  21
HETATM   21  C   UNL     1     -11.415  10.490  70.639  1.00  0.00    -0.327 C  
BRANCH  21  22
HETATM   22  C   UNL     1     -12.011   9.072  70.896  1.00  0.00    -0.225 C  
HETATM   23  O   UNL     1     -11.281   8.078  70.143  1.00  0.00    -0.238 OA 
HETATM   24  C   UNL     1     -11.600   7.096  72.261  1.00  0.00    -0.271 C  
HETATM   25  H   UNL     1     -13.210   8.412  73.944  1.00  0.00     0.000 HD 
HETATM   26  C   UNL     1     -11.982   8.581  72.363  1.00  0.00    -0.364 C  
HETATM   27  O   UNL     1     -13.227   8.713  73.043  1.00  0.00    -0.239 OA 
HETATM   28  F   UNL     1     -12.497   6.334  72.945  1.00  0.00     0.076 F  
HETATM   29  C   UNL     1     -10.235   6.868  72.892  1.00  0.00    -0.226 C  
HETATM   30  C   UNL     1     -11.681   6.833  70.756  1.00  0.00    -0.386 C  
BRANCH  30  31
HETATM   31  N   UNL     1     -10.873   5.728  70.230  1.00  0.00    -0.311 N  
HETATM   32  C   UNL     1     -10.272   4.814  71.078  1.00  0.00    -0.168 C  
HETATM   33  C   UNL     1      -9.451   3.866  70.631  1.00  0.00    -0.244 C  
HETATM   34  C   UNL     1      -9.160   3.802  69.191  1.00  0.00    -0.137 C  
HETATM   35  O   UNL     1      -8.305   3.042  68.754  1.00  0.00    -0.062 OA 
HETATM   36  N   UNL     1      -9.889   4.644  68.405  1.00  0.00    -0.132 N  
HETATM   37  H   UNL     1      -9.824   4.510  67.395  1.00  0.00     0.000 HD 
HETATM   38  C   UNL     1     -10.702   5.656  68.851  1.00  0.00    -0.209 C  
HETATM   39  O   UNL     1     -11.201   6.440  68.052  1.00  0.00    -0.311 OA 
ENDBRANCH  30  31
ENDBRANCH  21  22
ENDBRANCH  12  21
ENDBRANCH   7   9
ENDBRANCH   5   7
ENDBRANCH   4   5
ENDBRANCH   2   4
TORSDOF 8
ENDMDL
MODEL      136
REMARK 921   NORMALIZED FREE ENERGY PREDICTED BY IDOCK:   -3.17 KCAL/MOL
REMARK 922        TOTAL FREE ENERGY PREDICTED BY IDOCK:   -7.21 KCAL/MOL
REMARK 923 INTER-LIGAND FREE ENERGY PREDICTED BY IDOCK:   -6.02 KCAL/MOL
REMARK 924 INTRA-LIGAND FREE ENERGY PREDICTED BY IDOCK:   -1.19 KCAL/MOL
REMARK 927      BINDING AFFINITY PREDICTED BY RF-SCORE:    0.00 PKD
ROOT
HETATM    1  C   UNL     1      -8.421  19.568  67.725  1.00  0.00    -0.352 C  
HETATM    2  C   UNL     1      -7.239  18.709  68.159  1.00  0.00    -0.252 C  
HETATM    3  C   UNL     1      -6.588  19.307  69.404  1.00  0.00    -0.348 C  
ENDROOT
BRANCH   2   4
HETATM    4  O   UNL     1      -7.695  17.384  68.494  1.00  0.00    -0.246 OA 
BRANCH   4   5
HETATM    5  C   UNL     1      -7.037  16.348  67.890  1.00  0.00    -0.135 C  
HETATM    6  O   UNL     1      -5.823  16.278  67.742  1.00  0.00    -0.117 OA 
BRANCH   5   7
HETATM    7  C   UNL     1      -8.033  15.258  67.488  1.00  0.00    -0.176 C  
HETATM    8  C   UNL     1      -9.146  15.221  68.534  1.00  0.00    -0.192 C  
BRANCH   7   9
HETATM    9  N   UNL     1      -7.341  13.956  67.316  1.00  0.00    -0.330 NA 
HETATM   10  P   UNL     1      -8.233  12.606  67.820  1.00  0.00    -0.200 P  
HETATM   11  H   UNL     1      -6.433  13.974  67.781  1.00  0.00     0.000 HD 
HETATM   12  O   UNL     1      -7.282  11.285  67.496  1.00  0.00    -0.090 OA 
HETATM   13  O   UNL     1      -8.876  12.503  66.218  1.00  0.00    -0.091 OA 
HETATM   14  O   UNL     1      -7.658  12.700  69.256  1.00  0.00     0.164 OA 
BRANCH  13  15
HETATM   15  C   UNL     1     -10.149  12.962  66.000  1.00  0.00    -0.285 A  
HETATM   16  C   UNL     1     -12.651  14.074  65.491  1.00  0.00    -0.543 A  
HETATM   17  C   UNL     1     -10.328  13.795  64.897  1.00  0.00    -0.420 A  
HETATM   18  C   UNL     1     -11.225  12.652  66.831  1.00  0.00    -0.348 A  
HETATM   19  C   UNL     1     -11.580  14.357  64.645  1.00  0.00    -0.414 A  
HETATM   20  C   UNL     1     -12.477  13.217  66.576  1.00  0.00    -0.082 A  
ENDBRANCH  13  15
BRANCH  12  21
HETATM   21  C   UNL     1      -7.511  10.124  68.317  1.00  0.00    -0.082 C  
BRANCH  21  22
HETATM   22  C   UNL     1      -8.436   9.000  67.759  1.00  0.00    -0.117 C  
HETATM   23  O   UNL     1      -7.822   8.368  66.614  1.00  0.00    -0.092 OA 
HETATM   24  C   UNL     1      -8.703   6.580  67.870  1.00  0.00    -0.116 C  
HETATM   25  H   UNL     1     -10.252   7.245  69.948  1.00  0.00     0.000 HD 
HETATM   26  C   UNL     1      -8.765   7.847  68.738  1.00  0.00    -0.128 C  
HETATM   27  O   UNL     1     -10.049   7.952  69.346  1.00  0.00    -0.186 OA 
HETATM   28  F   UNL     1      -9.848   5.857  68.015  1.00  0.00    -0.113 F  
HETATM   29  C   UNL     1      -7.549   5.699  68.322  1.00  0.00    -0.081 C  
HETATM   30  C   UNL     1      -8.581   7.150  66.456  1.00  0.00    -0.129 C  
BRANCH  30  31
HETATM   31  N   UNL     1      -7.955   6.291  65.446  1.00  0.00    -0.111 N  
HETATM   32  C   UNL     1      -6.668   6.532  64.998  1.00  0.00    -0.042 C  
HETATM   33  C   UNL     1      -6.118   5.831  64.010  1.00  0.00    -0.025 C  
HETATM   34  C   UNL     1      -6.913   4.778  63.360  1.00  0.00    -0.043 C  
HETATM   35  O   UNL     1      -6.503   4.207  62.358  1.00  0.00    -0.021 OA 
HETATM   36  N   UNL     1      -8.117   4.508  63.939  1.00  0.00    -0.093 N  
HETATM   37  H   UNL     1      -8.616   3.681  63.609  1.00  0.00     0.000 HD 
HETATM   38  C   UNL     1      -8.718   5.249  64.925  1.00  0.00    -0.122 C  
HETATM   39  O   UNL     1      -9.864   4.993  65.275  1.00  0.00    -0.060 OA 
ENDBRANCH  30  31
ENDBRANCH  21  22
ENDBRANCH  12  21
ENDBRANCH   7   9
ENDBRANCH   5   7
ENDBRANCH   4   5
ENDBRANCH   2   4
TORSDOF 8
ENDMDL
MODEL      137
REMARK 921   NORMALIZED FREE ENERGY PREDICTED BY IDOCK:   -3.15 KCAL/MOL
REMARK 922        TOTAL FREE ENERGY PREDICTED BY IDOCK:   -7.18 KCAL/MOL
REMARK 923 INTER-LIGAND FREE ENERGY PREDICTED BY IDOCK:   -6.20 KCAL/MOL
REMARK 924 INTRA-LIGAND FREE ENERGY PREDICTED BY IDOCK:   -0.98 KCAL/MOL
REMARK 927      BINDING AFFINITY PREDICTED BY RF-SCORE:    0.00 PKD
ROOT
HETATM    1  C   UNL     1     -12.971  12.491  71.513  1.00  0.00    -0.379 C  
HETATM    2  C   UNL     1     -12.607  13.139  70.183  1.00  0.00    -0.009 C  
HETATM    3  C   UNL     1     -12.224  14.601  70.401  1.00  0.00    -0.391 C  
ENDROOT
BRANCH   2   4
HETATM    4  O   UNL     1     -11.470  12.466  69.607  1.00  0.00    -0.254 OA 
BRANCH   4   5
HETATM    5  C   UNL     1     -11.739  11.575  68.605  1.00  0.00    -0.326 C  
HETATM    6  O   UNL     1     -12.188  11.869  67.504  1.00  0.00    -0.510 OA 
BRANCH   5   7
HETATM    7  C   UNL     1     -11.333  10.163  69.037  1.00  0.00    -0.133 C  
HETATM    8  C   UNL     1     -10.227  10.287  70.084  1.00  0.00    -0.150 C  
BRANCH   7   9
HETATM    9  N   UNL     1     -10.943   9.349  67.860  1.00  0.00    -0.502 NA 
HETATM   10  P   UNL     1      -9.511   8.463  68.052  1.00  0.00    -0.148 P  
HETATM   11  H   UNL     1     -10.887   9.936  67.027  1.00  0.00     0.000 HD 
HETATM   12  O   UNL     1      -9.308   7.615  66.640  1.00  0.00    -0.171 OA 
HETATM   13  O   UNL     1     -10.466   7.160  68.667  1.00  0.00    -0.190 OA 
HETATM   14  O   UNL     1      -8.656   9.632  67.502  1.00  0.00    -0.125 OA 
BRANCH  13  15
HETATM   15  C   UNL     1     -10.490   6.957  70.023  1.00  0.00    -0.207 A  
HETATM   16  C   UNL     1     -10.736   6.611  72.775  1.00  0.00    -0.272 A  
HETATM   17  C   UNL     1     -11.689   6.491  70.560  1.00  0.00    -0.438 A  
HETATM   18  C   UNL     1      -9.399   7.217  70.853  1.00  0.00    -0.159 A  
HETATM   19  C   UNL     1     -11.814   6.323  71.939  1.00  0.00    -0.359 A  
HETATM   20  C   UNL     1      -9.529   7.048  72.233  1.00  0.00    -0.154 A  
ENDBRANCH  13  15
BRANCH  12  21
HETATM   21  C   UNL     1      -7.952   7.265  66.301  1.00  0.00    -0.110 C  
BRANCH  21  22
HETATM   22  C   UNL     1      -7.387   5.912  66.831  1.00  0.00    -0.079 C  
HETATM   23  O   UNL     1      -7.410   5.890  68.276  1.00  0.00    -0.077 OA 
HETATM   24  C   UNL     1      -8.174   3.753  67.643  1.00  0.00    -0.089 C  
HETATM   25  H   UNL     1      -7.999   3.157  65.040  1.00  0.00     0.000 HD 
HETATM   26  C   UNL     1      -8.149   4.641  66.388  1.00  0.00    -0.103 C  
HETATM   27  O   UNL     1      -7.531   3.939  65.313  1.00  0.00    -0.078 OA 
HETATM   28  F   UNL     1      -7.702   2.511  67.346  1.00  0.00    -0.062 F  
HETATM   29  C   UNL     1      -9.604   3.592  68.135  1.00  0.00    -0.164 C  
HETATM   30  C   UNL     1      -7.230   4.493  68.593  1.00  0.00    -0.056 C  
BRANCH  30  31
HETATM   31  N   UNL     1      -7.426   4.271  70.029  1.00  0.00    -0.049 N  
HETATM   32  C   UNL     1      -8.537   3.597  70.504  1.00  0.00    -0.070 C  
HETATM   33  C   UNL     1      -8.789   3.474  71.806  1.00  0.00    -0.135 C  
HETATM   34  C   UNL     1      -7.865   4.093  72.768  1.00  0.00    -0.081 C  
HETATM   35  O   UNL     1      -8.129   4.129  73.963  1.00  0.00    -0.087 OA 
HETATM   36  N   UNL     1      -6.727   4.622  72.234  1.00  0.00    -0.048 N  
HETATM   37  H   UNL     1      -5.999   4.913  72.888  1.00  0.00     0.000 HD 
HETATM   38  C   UNL     1      -6.474   4.799  70.897  1.00  0.00    -0.030 C  
HETATM   39  O   UNL     1      -5.477   5.411  70.536  1.00  0.00    -0.004 OA 
ENDBRANCH  30  31
ENDBRANCH  21  22
ENDBRANCH  12  21
ENDBRANCH   7   9
ENDBRANCH   5   7
ENDBRANCH   4   5
ENDBRANCH   2   4
TORSDOF 8
ENDMDL
MODEL      138
REMARK 921   NORMALIZED FREE ENERGY PREDICTED BY IDOCK:   -3.12 KCAL/MOL
REMARK 922        TOTAL FREE ENERGY PREDICTED BY IDOCK:   -7.13 KCAL/MOL
REMARK 923 INTER-LIGAND FREE ENERGY PREDICTED BY IDOCK:   -6.58 KCAL/MOL
REMARK 924 INTRA-LIGAND FREE ENERGY PREDICTED BY IDOCK:   -0.55 KCAL/MOL
REMARK 927      BINDING AFFINITY PREDICTED BY RF-SCORE:    0.00 PKD
ROOT
HETATM    1  C   UNL     1      -7.044  16.442  68.212  1.00  0.00    -0.143 C  
HETATM    2  C   UNL     1      -7.832  15.366  68.950  1.00  0.00    -0.177 C  
HETATM    3  C   UNL     1      -8.893  14.770  68.029  1.00  0.00    -0.169 C  
ENDROOT
BRANCH   2   4
HETATM    4  O   UNL     1      -6.947  14.301  69.350  1.00  0.00    -0.128 OA 
BRANCH   4   5
HETATM    5  C   UNL     1      -6.612  13.397  68.378  1.00  0.00    -0.094 C  
HETATM    6  O   UNL     1      -5.909  13.640  67.405  1.00  0.00    -0.352 OA 
BRANCH   5   7
HETATM    7  C   UNL     1      -7.188  12.022  68.722  1.00  0.00    -0.108 C  
HETATM    8  C   UNL     1      -6.379  11.443  69.881  1.00  0.00    -0.141 C  
BRANCH   7   9
HETATM    9  N   UNL     1      -7.207  11.149  67.521  1.00  0.00    -0.096 NA 
HETATM   10  P   UNL     1      -7.180   9.487  67.852  1.00  0.00    -0.082 P  
HETATM   11  H   UNL     1      -6.444  11.397  66.892  1.00  0.00     0.000 HD 
HETATM   12  O   UNL     1      -7.247   8.729  66.377  1.00  0.00    -0.081 OA 
HETATM   13  O   UNL     1      -8.909   9.522  67.883  1.00  0.00    -0.120 OA 
HETATM   14  O   UNL     1      -5.631   9.456  67.825  1.00  0.00    -0.037 OA 
BRANCH  13  15
HETATM   15  C   UNL     1      -9.536   9.510  69.102  1.00  0.00    -0.163 A  
HETATM   16  C   UNL     1     -10.709   9.308  71.620  1.00  0.00    -0.393 A  
HETATM   17  C   UNL     1      -8.795   9.021  70.177  1.00  0.00    -0.196 A  
HETATM   18  C   UNL     1     -10.852   9.933  69.287  1.00  0.00    -0.255 A  
HETATM   19  C   UNL     1      -9.384   8.914  71.436  1.00  0.00    -0.338 A  
HETATM   20  C   UNL     1     -11.439   9.824  70.550  1.00  0.00    -0.370 A  
ENDBRANCH  13  15
BRANCH  12  21
HETATM   21  C   UNL     1      -6.669   7.411  66.316  1.00  0.00    -0.060 C  
BRANCH  21  22
HETATM   22  C   UNL     1      -7.581   6.191  66.648  1.00  0.00    -0.095 C  
HETATM   23  O   UNL     1      -7.945   6.203  68.047  1.00  0.00    -0.108 OA 
HETATM   24  C   UNL     1      -9.941   5.648  66.924  1.00  0.00    -0.174 C  
HETATM   25  H   UNL     1      -9.727   5.163  64.301  1.00  0.00     0.000 HD 
HETATM   26  C   UNL     1      -8.919   6.117  65.875  1.00  0.00    -0.121 C  
HETATM   27  O   UNL     1      -8.906   5.209  64.777  1.00  0.00    -0.152 OA 
HETATM   28  F   UNL     1     -10.624   4.565  66.461  1.00  0.00    -0.274 F  
HETATM   29  C   UNL     1     -10.957   6.749  67.185  1.00  0.00    -0.458 C  
HETATM   30  C   UNL     1      -9.052   5.278  68.113  1.00  0.00    -0.110 C  
BRANCH  30  31
HETATM   31  N   UNL     1      -9.669   5.322  69.442  1.00  0.00    -0.158 N  
HETATM   32  C   UNL     1     -10.918   5.886  69.633  1.00  0.00    -0.377 C  
HETATM   33  C   UNL     1     -11.453   6.031  70.844  1.00  0.00    -0.230 C  
HETATM   34  C   UNL     1     -10.681   5.595  72.016  1.00  0.00    -0.235 C  
HETATM   35  O   UNL     1     -11.068   5.837  73.152  1.00  0.00    -0.267 OA 
HETATM   36  N   UNL     1      -9.523   4.929  71.744  1.00  0.00    -0.146 N  
HETATM   37  H   UNL     1      -9.051   4.478  72.528  1.00  0.00     0.000 HD 
HETATM   38  C   UNL     1      -8.935   4.813  70.509  1.00  0.00    -0.116 C  
HETATM   39  O   UNL     1      -7.823   4.310  70.403  1.00  0.00    -0.051 OA 
ENDBRANCH  30  31
ENDBRANCH  21  22
ENDBRANCH  12  21
ENDBRANCH   7   9
ENDBRANCH   5   7
ENDBRANCH   4   5
ENDBRANCH   2   4
TORSDOF 8
ENDMDL
MODEL      139
REMARK 921   NORMALIZED FREE ENERGY PREDICTED BY IDOCK:   -3.10 KCAL/MOL
REMARK 922        TOTAL FREE ENERGY PREDICTED BY IDOCK:   -7.11 KCAL/MOL
REMARK 923 INTER-LIGAND FREE ENERGY PREDICTED BY IDOCK:   -9.40 KCAL/MOL
REMARK 924 INTRA-LIGAND FREE ENERGY PREDICTED BY IDOCK:    2.30 KCAL/MOL
REMARK 927      BINDING AFFINITY PREDICTED BY RF-SCORE:    0.00 PKD
ROOT
HETATM    1  C   UNL     1     -12.139  13.216  63.290  1.00  0.00    -0.460 C  
HETATM    2  C   UNL     1     -11.951  11.845  63.930  1.00  0.00    -0.402 C  
HETATM    3  C   UNL     1     -10.596  11.264  63.533  1.00  0.00    -0.436 C  
ENDROOT
BRANCH   2   4
HETATM    4  O   UNL     1     -11.974  11.970  65.366  1.00  0.00    -0.399 OA 
BRANCH   4   5
HETATM    5  C   UNL     1     -11.160  12.930  65.901  1.00  0.00    -0.283 C  
HETATM    6  O   UNL     1      -9.939  12.859  65.967  1.00  0.00    -0.267 OA 
BRANCH   5   7
HETATM    7  C   UNL     1     -11.993  14.136  66.343  1.00  0.00    -0.436 C  
HETATM    8  C   UNL     1     -11.088  15.367  66.336  1.00  0.00    -0.230 C  
BRANCH   7   9
HETATM    9  N   UNL     1     -12.627  13.878  67.660  1.00  0.00    -0.264 NA 
HETATM   10  P   UNL     1     -11.622  13.122  68.796  1.00  0.00    -0.341 P  
HETATM   11  H   UNL     1     -13.488  13.343  67.539  1.00  0.00     0.000 HD 
HETATM   12  O   UNL     1     -12.527  12.978  70.180  1.00  0.00    -0.215 OA 
HETATM   13  O   UNL     1     -11.125  14.694  69.318  1.00  0.00    -0.249 OA 
HETATM   14  O   UNL     1     -12.066  11.714  68.328  1.00  0.00    -0.552 OA 
BRANCH  13  15
HETATM   15  C   UNL     1      -9.903  15.159  68.903  1.00  0.00    -0.229 A  
HETATM   16  C   UNL     1      -7.335  15.945  68.165  1.00  0.00    -0.133 A  
HETATM   17  C   UNL     1      -8.936  14.196  68.618  1.00  0.00    -0.132 A  
HETATM   18  C   UNL     1      -9.603  16.516  68.785  1.00  0.00    -0.248 A  
HETATM   19  C   UNL     1      -7.649  14.590  68.255  1.00  0.00    -0.121 A  
HETATM   20  C   UNL     1      -8.312  16.906  68.421  1.00  0.00    -0.238 A  
ENDBRANCH  13  15
BRANCH  12  21
HETATM   21  C   UNL     1     -12.162  11.903  71.066  1.00  0.00    -0.169 C  
BRANCH  21  22
HETATM   22  C   UNL     1     -12.316  10.440  70.550  1.00  0.00    -0.322 C  
HETATM   23  O   UNL     1     -11.025   9.891  70.205  1.00  0.00    -0.257 OA 
HETATM   24  C   UNL     1     -12.117   8.148  71.355  1.00  0.00    -0.297 C  
HETATM   25  H   UNL     1     -14.701   8.544  71.925  1.00  0.00     0.000 HD 
HETATM   26  C   UNL     1     -12.939   9.433  71.546  1.00  0.00    -0.371 C  
HETATM   27  O   UNL     1     -14.318   9.162  71.313  1.00  0.00    -0.180 OA 
HETATM   28  F   UNL     1     -12.946   7.092  71.127  1.00  0.00    -0.390 F  
HETATM   29  C   UNL     1     -11.330   7.844  72.620  1.00  0.00    -0.468 C  
HETATM   30  C   UNL     1     -11.277   8.472  70.119  1.00  0.00    -0.136 C  
BRANCH  30  31
HETATM   31  N   UNL     1     -10.013   7.742  69.966  1.00  0.00    -0.185 N  
HETATM   32  C   UNL     1      -8.810   8.304  70.355  1.00  0.00    -0.141 C  
HETATM   33  C   UNL     1      -7.643   7.705  70.131  1.00  0.00    -0.086 C  
HETATM   34  C   UNL     1      -7.632   6.413  69.429  1.00  0.00    -0.095 C  
HETATM   35  O   UNL     1      -6.580   5.896  69.076  1.00  0.00    -0.047 OA 
HETATM   36  N   UNL     1      -8.856   5.860  69.197  1.00  0.00    -0.117 N  
HETATM   37  H   UNL     1      -8.874   4.897  68.858  1.00  0.00     0.000 HD 
HETATM   38  C   UNL     1     -10.066   6.482  69.377  1.00  0.00    -0.172 C  
HETATM   39  O   UNL     1     -11.098   5.937  69.005  1.00  0.00    -0.336 OA 
ENDBRANCH  30  31
ENDBRANCH  21  22
ENDBRANCH  12  21
ENDBRANCH   7   9
ENDBRANCH   5   7
ENDBRANCH   4   5
ENDBRANCH   2   4
TORSDOF 8
ENDMDL
MODEL      140
REMARK 921   NORMALIZED FREE ENERGY PREDICTED BY IDOCK:   -3.00 KCAL/MOL
REMARK 922        TOTAL FREE ENERGY PREDICTED BY IDOCK:   -6.96 KCAL/MOL
REMARK 923 INTER-LIGAND FREE ENERGY PREDICTED BY IDOCK:   -8.06 KCAL/MOL
REMARK 924 INTRA-LIGAND FREE ENERGY PREDICTED BY IDOCK:    1.10 KCAL/MOL
REMARK 927      BINDING AFFINITY PREDICTED BY RF-SCORE:    0.00 PKD
ROOT
HETATM    1  C   UNL     1      -5.399   8.731  65.431  1.00  0.00    -0.038 C  
HETATM    2  C   UNL     1      -6.034  10.008  64.894  1.00  0.00    -0.114 C  
HETATM    3  C   UNL     1      -6.635   9.753  63.514  1.00  0.00    -0.117 C  
ENDROOT
BRANCH   2   4
HETATM    4  O   UNL     1      -7.101  10.427  65.769  1.00  0.00    -0.129 OA 
BRANCH   4   5
HETATM    5  C   UNL     1      -7.607   9.470  66.605  1.00  0.00    -0.097 C  
HETATM    6  O   UNL     1      -8.170   8.444  66.240  1.00  0.00    -0.104 OA 
BRANCH   5   7
HETATM    7  C   UNL     1      -7.306   9.834  68.061  1.00  0.00    -0.081 C  
HETATM    8  C   UNL     1      -7.398   8.559  68.899  1.00  0.00    -0.086 C  
BRANCH   7   9
HETATM    9  N   UNL     1      -8.211  10.913  68.527  1.00  0.00    -0.132 NA 
HETATM   10  P   UNL     1      -9.828  10.738  68.053  1.00  0.00    -0.175 P  
HETATM   11  H   UNL     1      -7.854  11.824  68.236  1.00  0.00     0.000 HD 
HETATM   12  O   UNL     1     -10.639  12.024  68.718  1.00  0.00    -0.227 OA 
HETATM   13  O   UNL     1     -10.100   9.848  69.511  1.00  0.00    -0.193 OA 
HETATM   14  O   UNL     1      -9.585  11.533  66.747  1.00  0.00    -0.181 OA 
BRANCH  13  15
HETATM   15  C   UNL     1     -10.179   8.482  69.432  1.00  0.00    -0.211 A  
HETATM   16  C   UNL     1     -10.505   5.731  69.147  1.00  0.00    -0.346 A  
HETATM   17  C   UNL     1     -10.578   7.953  68.206  1.00  0.00    -0.163 A  
HETATM   18  C   UNL     1      -9.906   7.638  70.508  1.00  0.00    -0.183 A  
HETATM   19  C   UNL     1     -10.747   6.576  68.064  1.00  0.00    -0.351 A  
HETATM   20  C   UNL     1     -10.077   6.259  70.363  1.00  0.00    -0.226 A  
ENDBRANCH  13  15
BRANCH  12  21
HETATM   21  C   UNL     1     -11.835  12.442  68.031  1.00  0.00    -0.316 C  
BRANCH  21  22
HETATM   22  C   UNL     1     -11.905  13.905  67.499  1.00  0.00    -0.396 C  
HETATM   23  O   UNL     1     -10.831  14.694  68.058  1.00  0.00    -0.248 OA 
HETATM   24  C   UNL     1     -10.898  15.316  65.786  1.00  0.00    -0.358 C  
HETATM   25  H   UNL     1     -12.959  14.376  64.362  1.00  0.00     0.000 HD 
HETATM   26  C   UNL     1     -11.785  14.074  65.965  1.00  0.00    -0.369 C  
HETATM   27  O   UNL     1     -13.032  14.272  65.304  1.00  0.00    -0.679 OA 
HETATM   28  F   UNL     1     -11.505  16.208  64.955  1.00  0.00    -0.298 F  
HETATM   29  C   UNL     1      -9.577  14.921  65.143  1.00  0.00     0.169 C  
HETATM   30  C   UNL     1     -10.799  15.863  67.211  1.00  0.00    -0.279 C  
BRANCH  30  31
HETATM   31  N   UNL     1      -9.625  16.684  67.527  1.00  0.00    -0.240 N  
HETATM   32  C   UNL     1      -8.498  16.129  68.108  1.00  0.00    -0.175 C  
HETATM   33  C   UNL     1      -7.463  16.870  68.497  1.00  0.00    -0.217 C  
HETATM   34  C   UNL     1      -7.530  18.328  68.322  1.00  0.00    -0.279 C  
HETATM   35  O   UNL     1      -6.669  19.060  68.792  1.00  0.00    -0.264 OA 
HETATM   36  N   UNL     1      -8.607  18.789  67.624  1.00  0.00    -0.270 N  
HETATM   37  H   UNL     1      -8.598  19.772  67.350  1.00  0.00     0.000 HD 
HETATM   38  C   UNL     1      -9.703  18.048  67.257  1.00  0.00    -0.297 C  
HETATM   39  O   UNL     1     -10.675  18.596  66.752  1.00  0.00    -0.385 OA 
ENDBRANCH  30  31
ENDBRANCH  21  22
ENDBRANCH  12  21
ENDBRANCH   7   9
ENDBRANCH   5   7
ENDBRANCH   4   5
ENDBRANCH   2   4
TORSDOF 8
ENDMDL
MODEL      141
REMARK 921   NORMALIZED FREE ENERGY PREDICTED BY IDOCK:   -2.97 KCAL/MOL
REMARK 922        TOTAL FREE ENERGY PREDICTED BY IDOCK:   -6.91 KCAL/MOL
REMARK 923 INTER-LIGAND FREE ENERGY PREDICTED BY IDOCK:   -5.83 KCAL/MOL
REMARK 924 INTRA-LIGAND FREE ENERGY PREDICTED BY IDOCK:   -1.08 KCAL/MOL
REMARK 927      BINDING AFFINITY PREDICTED BY RF-SCORE:    0.00 PKD
ROOT
HETATM    1  C   UNL     1     -11.640  16.141  69.077  1.00  0.00    -0.298 C  
HETATM    2  C   UNL     1     -10.843  16.727  67.918  1.00  0.00    -0.311 C  
HETATM    3  C   UNL     1     -10.517  18.193  68.196  1.00  0.00    -0.365 C  
ENDROOT
BRANCH   2   4
HETATM    4  O   UNL     1      -9.597  16.017  67.775  1.00  0.00    -0.217 OA 
BRANCH   4   5
HETATM    5  C   UNL     1      -9.124  15.880  66.499  1.00  0.00    -0.286 C  
HETATM    6  O   UNL     1      -8.312  16.627  65.966  1.00  0.00    -0.402 OA 
BRANCH   5   7
HETATM    7  C   UNL     1      -9.704  14.617  65.858  1.00  0.00    -0.310 C  
HETATM    8  C   UNL     1     -10.403  15.020  64.560  1.00  0.00     0.237 C  
BRANCH   7   9
HETATM    9  N   UNL     1     -10.593  13.909  66.812  1.00  0.00    -0.276 NA 
HETATM   10  P   UNL     1     -10.301  12.246  66.955  1.00  0.00    -0.223 P  
HETATM   11  H   UNL     1     -11.571  14.077  66.575  1.00  0.00     0.000 HD 
HETATM   12  O   UNL     1     -11.376  11.691  68.091  1.00  0.00    -0.244 OA 
HETATM   13  O   UNL     1      -9.186  12.609  68.227  1.00  0.00    -0.201 OA 
HETATM   14  O   UNL     1     -11.298  11.922  65.815  1.00  0.00    -0.332 OA 
BRANCH  13  15
HETATM   15  C   UNL     1      -7.845  12.576  67.942  1.00  0.00    -0.144 A  
HETATM   16  C   UNL     1      -5.128  12.304  67.393  1.00  0.00    -0.095 A  
HETATM   17  C   UNL     1      -7.388  11.469  67.230  1.00  0.00    -0.131 A  
HETATM   18  C   UNL     1      -6.954  13.569  68.351  1.00  0.00    -0.105 A  
HETATM   19  C   UNL     1      -6.027  11.329  66.960  1.00  0.00    -0.100 A  
HETATM   20  C   UNL     1      -5.592  13.426  68.079  1.00  0.00    -0.116 A  
ENDBRANCH  13  15
BRANCH  12  21
HETATM   21  C   UNL     1     -11.746  10.303  67.987  1.00  0.00     0.460 C  
BRANCH  21  22
HETATM   22  C   UNL     1     -11.635   9.414  69.263  1.00  0.00     0.413 C  
HETATM   23  O   UNL     1     -10.859   8.228  68.983  1.00  0.00    -0.131 OA 
HETATM   24  C   UNL     1     -10.083   8.955  71.086  1.00  0.00    -0.271 C  
HETATM   25  H   UNL     1     -11.450  10.953  72.224  1.00  0.00     0.000 HD 
HETATM   26  C   UNL     1     -10.955  10.071  70.488  1.00  0.00    -0.326 C  
HETATM   27  O   UNL     1     -11.868  10.549  71.472  1.00  0.00    -0.255 OA 
HETATM   28  F   UNL     1     -10.350   8.814  72.414  1.00  0.00    -0.377 F  
HETATM   29  C   UNL     1      -8.613   9.319  70.953  1.00  0.00    -0.220 C  
HETATM   30  C   UNL     1     -10.531   7.724  70.295  1.00  0.00    -0.225 C  
BRANCH  30  31
HETATM   31  N   UNL     1      -9.572   6.619  70.188  1.00  0.00    -0.161 N  
HETATM   32  C   UNL     1      -8.441   6.727  69.398  1.00  0.00    -0.132 C  
HETATM   33  C   UNL     1      -7.612   5.704  69.203  1.00  0.00    -0.088 C  
HETATM   34  C   UNL     1      -7.921   4.412  69.834  1.00  0.00    -0.056 C  
HETATM   35  O   UNL     1      -7.270   3.409  69.570  1.00  0.00    -0.044 OA 
HETATM   36  N   UNL     1      -8.972   4.417  70.702  1.00  0.00    -0.102 N  
HETATM   37  H   UNL     1      -9.109   3.581  71.271  1.00  0.00     0.000 HD 
HETATM   38  C   UNL     1      -9.863   5.446  70.879  1.00  0.00    -0.188 C  
HETATM   39  O   UNL     1     -10.851   5.289  71.586  1.00  0.00    -0.203 OA 
ENDBRANCH  30  31
ENDBRANCH  21  22
ENDBRANCH  12  21
ENDBRANCH   7   9
ENDBRANCH   5   7
ENDBRANCH   4   5
ENDBRANCH   2   4
TORSDOF 8
ENDMDL
MODEL      142
REMARK 921   NORMALIZED FREE ENERGY PREDICTED BY IDOCK:   -2.89 KCAL/MOL
REMARK 922        TOTAL FREE ENERGY PREDICTED BY IDOCK:   -6.79 KCAL/MOL
REMARK 923 INTER-LIGAND FREE ENERGY PREDICTED BY IDOCK:   -6.79 KCAL/MOL
REMARK 924 INTRA-LIGAND FREE ENERGY PREDICTED BY IDOCK:    0.00 KCAL/MOL
REMARK 927      BINDING AFFINITY PREDICTED BY RF-SCORE:    0.00 PKD
ROOT
HETATM    1  C   UNL     1     -12.770  11.728  70.348  1.00  0.00    -0.071 C  
HETATM    2  C   UNL     1     -12.660  13.137  69.776  1.00  0.00     0.179 C  
HETATM    3  C   UNL     1     -11.865  14.028  70.728  1.00  0.00    -0.289 C  
ENDROOT
BRANCH   2   4
HETATM    4  O   UNL     1     -11.957  13.098  68.518  1.00  0.00    -0.337 OA 
BRANCH   4   5
HETATM    5  C   UNL     1     -10.735  12.484  68.528  1.00  0.00    -0.239 C  
HETATM    6  O   UNL     1     -10.515  11.362  68.967  1.00  0.00    -0.207 OA 
BRANCH   5   7
HETATM    7  C   UNL     1      -9.695  13.377  67.847  1.00  0.00    -0.226 C  
HETATM    8  C   UNL     1      -8.345  13.137  68.524  1.00  0.00    -0.063 C  
BRANCH   7   9
HETATM    9  N   UNL     1     -10.126  14.797  67.876  1.00  0.00    -0.220 NA 
HETATM   10  P   UNL     1      -9.935  15.627  66.411  1.00  0.00    -0.328 P  
HETATM   11  H   UNL     1      -9.651  15.295  68.630  1.00  0.00     0.000 HD 
HETATM   12  O   UNL     1     -10.515  17.159  66.678  1.00  0.00    -0.314 OA 
HETATM   13  O   UNL     1     -11.534  15.125  65.984  1.00  0.00    -0.285 OA 
HETATM   14  O   UNL     1      -8.502  16.075  66.793  1.00  0.00    -0.207 OA 
BRANCH  13  15
HETATM   15  C   UNL     1     -11.674  14.086  65.101  1.00  0.00    -0.350 A  
HETATM   16  C   UNL     1     -12.068  11.877  63.451  1.00  0.00    -0.539 A  
HETATM   17  C   UNL     1     -12.893  13.412  65.122  1.00  0.00    -0.380 A  
HETATM   18  C   UNL     1     -10.660  13.683  64.231  1.00  0.00    -0.245 A  
HETATM   19  C   UNL     1     -13.089  12.303  64.300  1.00  0.00    -0.076 A  
HETATM   20  C   UNL     1     -10.860  12.571  63.410  1.00  0.00    -0.351 A  
ENDBRANCH  13  15
BRANCH  12  21
HETATM   21  C   UNL     1      -9.963  18.198  65.846  1.00  0.00    -0.097 C  
BRANCH  21  22
HETATM   22  C   UNL     1      -8.811  19.073  66.427  1.00  0.00    -0.321 C  
HETATM   23  O   UNL     1      -8.409  18.575  67.723  1.00  0.00    -0.253 OA 
HETATM   24  C   UNL     1      -6.382  19.065  66.625  1.00  0.00    -0.186 C  
HETATM   25  H   UNL     1      -6.585  20.345  64.285  1.00  0.00     0.000 HD 
HETATM   26  C   UNL     1      -7.514  19.129  65.586  1.00  0.00    -0.072 C  
HETATM   27  O   UNL     1      -7.382  20.310  64.802  1.00  0.00    -0.162 OA 
HETATM   28  F   UNL     1      -5.511  20.093  66.431  1.00  0.00    -0.171 F  
HETATM   29  C   UNL     1      -5.602  17.770  66.462  1.00  0.00    -0.214 C  
HETATM   30  C   UNL     1      -7.136  19.218  67.948  1.00  0.00    -0.243 C  
BRANCH  30  31
HETATM   31  N   UNL     1      -6.494  18.664  69.145  1.00  0.00    -0.263 N  
HETATM   32  C   UNL     1      -6.390  17.297  69.334  1.00  0.00    -0.244 C  
HETATM   33  C   UNL     1      -5.906  16.772  70.458  1.00  0.00     0.069 C  
HETATM   34  C   UNL     1      -5.488  17.676  71.540  1.00  0.00     0.342 C  
HETATM   35  O   UNL     1      -5.172  17.240  72.639  1.00  0.00     0.502 OA 
HETATM   36  N   UNL     1      -5.494  19.004  71.232  1.00  0.00    -0.247 N  
HETATM   37  H   UNL     1      -5.060  19.638  71.904  1.00  0.00     0.000 HD 
HETATM   38  C   UNL     1      -6.031  19.564  70.101  1.00  0.00    -0.266 C  
HETATM   39  O   UNL     1      -6.103  20.782  69.993  1.00  0.00    -0.418 OA 
ENDBRANCH  30  31
ENDBRANCH  21  22
ENDBRANCH  12  21
ENDBRANCH   7   9
ENDBRANCH   5   7
ENDBRANCH   4   5
ENDBRANCH   2   4
TORSDOF 8
ENDMDL
MODEL      143
REMARK 921   NORMALIZED FREE ENERGY PREDICTED BY IDOCK:   -2.86 KCAL/MOL
REMARK 922        TOTAL FREE ENERGY PREDICTED BY IDOCK:   -6.75 KCAL/MOL
REMARK 923 INTER-LIGAND FREE ENERGY PREDICTED BY IDOCK:   -9.33 KCAL/MOL
REMARK 924 INTRA-LIGAND FREE ENERGY PREDICTED BY IDOCK:    2.58 KCAL/MOL
REMARK 927      BINDING AFFINITY PREDICTED BY RF-SCORE:    0.00 PKD
ROOT
HETATM    1  C   UNL     1      -8.303   7.821  73.093  1.00  0.00    -0.207 C  
HETATM    2  C   UNL     1      -9.539   7.597  72.230  1.00  0.00    -0.165 C  
HETATM    3  C   UNL     1     -10.771   7.421  73.115  1.00  0.00    -0.436 C  
ENDROOT
BRANCH   2   4
HETATM    4  O   UNL     1      -9.761   8.745  71.388  1.00  0.00    -0.226 OA 
BRANCH   4   5
HETATM    5  C   UNL     1     -10.871   8.702  70.589  1.00  0.00    -0.229 C  
HETATM    6  O   UNL     1     -11.319   7.691  70.062  1.00  0.00    -0.195 OA 
BRANCH   5   7
HETATM    7  C   UNL     1     -11.510  10.091  70.505  1.00  0.00    -0.330 C  
HETATM    8  C   UNL     1     -12.564  10.196  71.608  1.00  0.00    -0.533 C  
BRANCH   7   9
HETATM    9  N   UNL     1     -12.052  10.335  69.146  1.00  0.00    -0.612 NA 
HETATM   10  P   UNL     1     -11.356  11.647  68.330  1.00  0.00    -0.334 P  
HETATM   11  H   UNL     1     -13.066  10.440  69.183  1.00  0.00     0.000 HD 
HETATM   12  O   UNL     1     -12.085  11.695  66.839  1.00  0.00    -0.512 OA 
HETATM   13  O   UNL     1     -10.180  10.552  67.690  1.00  0.00    -0.181 OA 
HETATM   14  O   UNL     1     -12.408  12.628  68.904  1.00  0.00    -0.056 OA 
BRANCH  13  15
HETATM   15  C   UNL     1      -8.928  10.545  68.249  1.00  0.00    -0.139 A  
HETATM   16  C   UNL     1      -6.402  10.324  69.402  1.00  0.00    -0.050 A  
HETATM   17  C   UNL     1      -8.110   9.464  67.928  1.00  0.00    -0.103 A  
HETATM   18  C   UNL     1      -8.476  11.538  69.119  1.00  0.00     0.214 A  
HETATM   19  C   UNL     1      -6.847   9.350  68.509  1.00  0.00    -0.062 A  
HETATM   20  C   UNL     1      -7.211  11.420  69.699  1.00  0.00     0.089 A  
ENDBRANCH  13  15
BRANCH  12  21
HETATM   21  C   UNL     1     -12.126  12.983  66.196  1.00  0.00    -0.409 C  
BRANCH  21  22
HETATM   22  C   UNL     1     -10.773  13.685  65.868  1.00  0.00    -0.281 C  
HETATM   23  O   UNL     1     -10.916  15.120  65.969  1.00  0.00    -0.331 OA 
HETATM   24  C   UNL     1      -8.853  14.658  67.010  1.00  0.00    -0.241 C  
HETATM   25  H   UNL     1      -7.953  12.148  66.791  1.00  0.00     0.000 HD 
HETATM   26  C   UNL     1      -9.583  13.323  66.787  1.00  0.00    -0.258 C  
HETATM   27  O   UNL     1      -8.685  12.371  66.226  1.00  0.00    -0.061 OA 
HETATM   28  F   UNL     1      -7.531  14.522  66.715  1.00  0.00    -0.054 F  
HETATM   29  C   UNL     1      -8.954  15.065  68.472  1.00  0.00    -0.186 C  
HETATM   30  C   UNL     1      -9.551  15.589  66.017  1.00  0.00    -0.345 C  
BRANCH  30  31
HETATM   31  N   UNL     1      -9.521  17.024  66.319  1.00  0.00    -0.266 N  
HETATM   32  C   UNL     1      -8.695  17.530  67.307  1.00  0.00    -0.230 C  
HETATM   33  C   UNL     1      -8.725  18.811  67.669  1.00  0.00    -0.300 C  
HETATM   34  C   UNL     1      -9.682  19.711  67.009  1.00  0.00    -0.360 C  
HETATM   35  O   UNL     1      -9.846  20.858  67.406  1.00  0.00    -0.444 OA 
HETATM   36  N   UNL     1     -10.366  19.176  65.958  1.00  0.00    -0.468 N  
HETATM   37  H   UNL     1     -10.914  19.818  65.385  1.00  0.00     0.000 HD 
HETATM   38  C   UNL     1     -10.382  17.850  65.602  1.00  0.00    -0.059 C  
HETATM   39  O   UNL     1     -11.140  17.459  64.723  1.00  0.00    -0.973 OA 
ENDBRANCH  30  31
ENDBRANCH  21  22
ENDBRANCH  12  21
ENDBRANCH   7   9
ENDBRANCH   5   7
ENDBRANCH   4   5
ENDBRANCH   2   4
TORSDOF 8
ENDMDL
MODEL      144
REMARK 921   NORMALIZED FREE ENERGY PREDICTED BY IDOCK:   -2.85 KCAL/MOL
REMARK 922        TOTAL FREE ENERGY PREDICTED BY IDOCK:   -6.73 KCAL/MOL
REMARK 923 INTER-LIGAND FREE ENERGY PREDICTED BY IDOCK:   -6.49 KCAL/MOL
REMARK 924 INTRA-LIGAND FREE ENERGY PREDICTED BY IDOCK:   -0.24 KCAL/MOL
REMARK 927      BINDING AFFINITY PREDICTED BY RF-SCORE:    0.00 PKD
ROOT
HETATM    1  C   UNL     1      -8.812   2.381  65.693  1.00  0.00    -0.127 C  
HETATM    2  C   UNL     1      -8.976   3.828  65.243  1.00  0.00    -0.133 C  
HETATM    3  C   UNL     1     -10.274   3.987  64.455  1.00  0.00    -0.222 C  
ENDROOT
BRANCH   2   4
HETATM    4  O   UNL     1      -9.050   4.692  66.394  1.00  0.00    -0.115 OA 
BRANCH   4   5
HETATM    5  C   UNL     1      -8.141   5.713  66.442  1.00  0.00    -0.106 C  
HETATM    6  O   UNL     1      -6.977   5.637  66.067  1.00  0.00    -0.060 OA 
BRANCH   5   7
HETATM    7  C   UNL     1      -8.810   6.985  66.969  1.00  0.00    -0.124 C  
HETATM    8  C   UNL     1     -10.297   6.694  67.165  1.00  0.00    -0.319 C  
BRANCH   7   9
HETATM    9  N   UNL     1      -8.547   8.128  66.060  1.00  0.00    -0.139 NA 
HETATM   10  P   UNL     1      -9.049   9.635  66.651  1.00  0.00    -0.158 P  
HETATM   11  H   UNL     1      -8.958   7.953  65.143  1.00  0.00     0.000 HD 
HETATM   12  O   UNL     1      -8.618  10.744  65.493  1.00  0.00    -0.182 OA 
HETATM   13  O   UNL     1      -7.484   9.813  67.365  1.00  0.00    -0.090 OA 
HETATM   14  O   UNL     1     -10.451   9.475  66.012  1.00  0.00    -0.146 OA 
BRANCH  13  15
HETATM   15  C   UNL     1      -7.358   9.595  68.713  1.00  0.00    -0.074 A  
HETATM   16  C   UNL     1      -7.266   9.279  71.479  1.00  0.00     0.115 A  
HETATM   17  C   UNL     1      -8.542   9.527  69.444  1.00  0.00    -0.159 A  
HETATM   18  C   UNL     1      -6.125   9.470  69.354  1.00  0.00    -0.036 A  
HETATM   19  C   UNL     1      -8.497   9.375  70.830  1.00  0.00    -0.188 A  
HETATM   20  C   UNL     1      -6.083   9.318  70.742  1.00  0.00    -0.062 A  
ENDBRANCH  13  15
BRANCH  12  21
HETATM   21  C   UNL     1      -9.404  11.950  65.449  1.00  0.00    -0.036 C  
BRANCH  21  22
HETATM   22  C   UNL     1      -9.882  12.567  66.799  1.00  0.00    -0.229 C  
HETATM   23  O   UNL     1      -9.448  13.941  66.904  1.00  0.00    -0.240 OA 
HETATM   24  C   UNL     1     -11.674  13.966  67.678  1.00  0.00    -0.368 C  
HETATM   25  H   UNL     1     -12.840  11.580  68.003  1.00  0.00     0.000 HD 
HETATM   26  C   UNL     1     -11.413  12.600  67.022  1.00  0.00    -0.346 C  
HETATM   27  O   UNL     1     -11.899  11.560  67.866  1.00  0.00    -0.565 OA 
HETATM   28  F   UNL     1     -12.393  13.805  68.823  1.00  0.00    -0.389 F  
HETATM   29  C   UNL     1     -12.494  14.841  66.743  1.00  0.00     0.319 C  
HETATM   30  C   UNL     1     -10.259  14.467  67.976  1.00  0.00    -0.233 C  
BRANCH  30  31
HETATM   31  N   UNL     1     -10.078  15.919  68.082  1.00  0.00    -0.226 N  
HETATM   32  C   UNL     1     -10.282  16.581  69.279  1.00  0.00    -0.290 C  
HETATM   33  C   UNL     1     -10.225  17.907  69.375  1.00  0.00     0.038 C  
HETATM   34  C   UNL     1      -9.955  18.694  68.163  1.00  0.00    -0.358 C  
HETATM   35  O   UNL     1     -10.035  19.916  68.173  1.00  0.00    -0.392 OA 
HETATM   36  N   UNL     1      -9.633  17.972  67.052  1.00  0.00    -0.278 N  
HETATM   37  H   UNL     1      -9.287  18.491  66.244  1.00  0.00     0.000 HD 
HETATM   38  C   UNL     1      -9.732  16.609  66.923  1.00  0.00    -0.254 C  
HETATM   39  O   UNL     1      -9.546  16.080  65.835  1.00  0.00    -0.316 OA 
ENDBRANCH  30  31
ENDBRANCH  21  22
ENDBRANCH  12  21
ENDBRANCH   7   9
ENDBRANCH   5   7
ENDBRANCH   4   5
ENDBRANCH   2   4
TORSDOF 8
ENDMDL
MODEL      145
REMARK 921   NORMALIZED FREE ENERGY PREDICTED BY IDOCK:   -2.84 KCAL/MOL
REMARK 922        TOTAL FREE ENERGY PREDICTED BY IDOCK:   -6.72 KCAL/MOL
REMARK 923 INTER-LIGAND FREE ENERGY PREDICTED BY IDOCK:   -5.99 KCAL/MOL
REMARK 924 INTRA-LIGAND FREE ENERGY PREDICTED BY IDOCK:   -0.73 KCAL/MOL
REMARK 927      BINDING AFFINITY PREDICTED BY RF-SCORE:    0.00 PKD
ROOT
HETATM    1  C   UNL     1      -9.764   3.385  63.431  1.00  0.00    -0.123 C  
HETATM    2  C   UNL     1      -8.710   3.964  64.367  1.00  0.00    -0.120 C  
HETATM    3  C   UNL     1      -8.055   5.186  63.726  1.00  0.00    -0.115 C  
ENDROOT
BRANCH   2   4
HETATM    4  O   UNL     1      -9.330   4.390  65.596  1.00  0.00    -0.140 OA 
BRANCH   4   5
HETATM    5  C   UNL     1      -8.528   5.068  66.473  1.00  0.00    -0.110 C  
HETATM    6  O   UNL     1      -7.376   4.760  66.756  1.00  0.00    -0.079 OA 
BRANCH   5   7
HETATM    7  C   UNL     1      -9.257   6.308  66.998  1.00  0.00    -0.124 C  
HETATM    8  C   UNL     1     -10.689   6.279  66.464  1.00  0.00    -0.177 C  
BRANCH   7   9
HETATM    9  N   UNL     1      -8.516   7.541  66.635  1.00  0.00    -0.125 NA 
HETATM   10  P   UNL     1      -9.295   8.987  67.055  1.00  0.00    -0.169 P  
HETATM   11  H   UNL     1      -8.290   7.538  65.640  1.00  0.00     0.000 HD 
HETATM   12  O   UNL     1      -8.271  10.207  66.592  1.00  0.00    -0.121 OA 
HETATM   13  O   UNL     1      -8.480   8.917  68.579  1.00  0.00    -0.126 OA 
HETATM   14  O   UNL     1     -10.026   9.048  65.691  1.00  0.00    -0.176 OA 
BRANCH  13  15
HETATM   15  C   UNL     1      -9.189   8.497  69.675  1.00  0.00    -0.157 A  
HETATM   16  C   UNL     1     -10.461   7.534  71.958  1.00  0.00    -0.245 A  
HETATM   17  C   UNL     1      -8.468   8.338  70.857  1.00  0.00    -0.144 A  
HETATM   18  C   UNL     1     -10.553   8.210  69.637  1.00  0.00    -0.223 A  
HETATM   19  C   UNL     1      -9.103   7.851  71.999  1.00  0.00    -0.198 A  
HETATM   20  C   UNL     1     -11.186   7.721  70.782  1.00  0.00    -0.281 A  
ENDBRANCH  13  15
BRANCH  12  21
HETATM   21  C   UNL     1      -8.889  11.473  66.293  1.00  0.00    -0.186 C  
BRANCH  21  22
HETATM   22  C   UNL     1      -8.221  12.768  66.849  1.00  0.00    -0.024 C  
HETATM   23  O   UNL     1      -8.805  13.937  66.234  1.00  0.00    -0.002 OA 
HETATM   24  C   UNL     1      -8.618  14.503  68.513  1.00  0.00    -0.175 C  
HETATM   25  H   UNL     1      -7.270  12.780  70.053  1.00  0.00     0.000 HD 
HETATM   26  C   UNL     1      -8.352  12.995  68.374  1.00  0.00    -0.118 C  
HETATM   27  O   UNL     1      -7.189  12.640  69.116  1.00  0.00    -0.043 OA 
HETATM   28  F   UNL     1      -7.737  15.054  69.394  1.00  0.00    -0.160 F  
HETATM   29  C   UNL     1     -10.016  14.734  69.065  1.00  0.00    -0.218 C  
HETATM   30  C   UNL     1      -8.378  15.016  67.092  1.00  0.00    -0.217 C  
BRANCH  30  31
HETATM   31  N   UNL     1      -9.053  16.262  66.714  1.00  0.00    -0.215 N  
HETATM   32  C   UNL     1     -10.107  16.261  65.817  1.00  0.00    -0.347 C  
HETATM   33  C   UNL     1     -10.667  17.387  65.380  1.00  0.00    -0.040 C  
HETATM   34  C   UNL     1     -10.132  18.673  65.852  1.00  0.00    -0.172 C  
HETATM   35  O   UNL     1     -10.519  19.731  65.370  1.00  0.00    -0.402 OA 
HETATM   36  N   UNL     1      -9.187  18.595  66.831  1.00  0.00    -0.295 N  
HETATM   37  H   UNL     1      -8.917  19.467  67.286  1.00  0.00     0.000 HD 
HETATM   38  C   UNL     1      -8.568  17.448  67.258  1.00  0.00    -0.212 C  
HETATM   39  O   UNL     1      -7.634  17.512  68.049  1.00  0.00    -0.207 OA 
ENDBRANCH  30  31
ENDBRANCH  21  22
ENDBRANCH  12  21
ENDBRANCH   7   9
ENDBRANCH   5   7
ENDBRANCH   4   5
ENDBRANCH   2   4
TORSDOF 8
ENDMDL
MODEL      146
REMARK 921   NORMALIZED FREE ENERGY PREDICTED BY IDOCK:   -2.81 KCAL/MOL
REMARK 922        TOTAL FREE ENERGY PREDICTED BY IDOCK:   -6.68 KCAL/MOL
REMARK 923 INTER-LIGAND FREE ENERGY PREDICTED BY IDOCK:   -7.63 KCAL/MOL
REMARK 924 INTRA-LIGAND FREE ENERGY PREDICTED BY IDOCK:    0.95 KCAL/MOL
REMARK 927      BINDING AFFINITY PREDICTED BY RF-SCORE:    0.00 PKD
ROOT
HETATM    1  C   UNL     1     -10.712   7.572  67.303  1.00  0.00    -0.365 C  
HETATM    2  C   UNL     1      -9.837   8.570  68.052  1.00  0.00    -0.169 C  
HETATM    3  C   UNL     1      -8.376   8.132  67.993  1.00  0.00    -0.129 C  
ENDROOT
BRANCH   2   4
HETATM    4  O   UNL     1      -9.935   9.867  67.431  1.00  0.00    -0.171 OA 
BRANCH   4   5
HETATM    5  C   UNL     1     -10.489  10.860  68.191  1.00  0.00    -0.182 C  
HETATM    6  O   UNL     1     -11.450  10.720  68.938  1.00  0.00    -0.262 OA 
BRANCH   5   7
HETATM    7  C   UNL     1      -9.689  12.154  68.025  1.00  0.00    -0.203 C  
HETATM    8  C   UNL     1      -8.368  11.997  68.777  1.00  0.00     0.048 C  
BRANCH   7   9
HETATM    9  N   UNL     1     -10.488  13.322  68.473  1.00  0.00    -0.251 NA 
HETATM   10  P   UNL     1     -10.500  14.629  67.394  1.00  0.00    -0.259 P  
HETATM   11  H   UNL     1     -10.179  13.629  69.396  1.00  0.00     0.000 HD 
HETATM   12  O   UNL     1     -11.476  15.780  68.085  1.00  0.00    -0.352 OA 
HETATM   13  O   UNL     1     -11.896  13.930  66.651  1.00  0.00    -0.374 OA 
HETATM   14  O   UNL     1      -9.249  15.255  68.059  1.00  0.00    -0.185 OA 
BRANCH  13  15
HETATM   15  C   UNL     1     -11.734  13.262  65.465  1.00  0.00    -0.346 A  
HETATM   16  C   UNL     1     -11.267  12.053  63.000  1.00  0.00    -0.062 A  
HETATM   17  C   UNL     1     -10.450  13.263  64.923  1.00  0.00    -0.387 A  
HETATM   18  C   UNL     1     -12.781  12.628  64.797  1.00  0.00    -0.460 A  
HETATM   19  C   UNL     1     -10.217  12.662  63.686  1.00  0.00    -0.193 A  
HETATM   20  C   UNL     1     -12.544  12.028  63.558  1.00  0.00    -0.625 A  
ENDBRANCH  13  15
BRANCH  12  21
HETATM   21  C   UNL     1     -11.209  17.145  67.709  1.00  0.00     0.090 C  
BRANCH  21  22
HETATM   22  C   UNL     1      -9.819  17.750  68.072  1.00  0.00    -0.317 C  
HETATM   23  O   UNL     1      -8.981  17.824  66.897  1.00  0.00    -0.242 OA 
HETATM   24  C   UNL     1      -8.636  19.879  67.996  1.00  0.00    -0.262 C  
HETATM   25  H   UNL     1      -9.717  20.115  70.432  1.00  0.00     0.000 HD 
HETATM   26  C   UNL     1      -9.837  19.183  68.656  1.00  0.00    -0.420 C  
HETATM   27  O   UNL     1      -9.706  19.234  70.073  1.00  0.00     0.298 OA 
HETATM   28  F   UNL     1      -7.843  20.445  68.948  1.00  0.00    -0.056 F  
HETATM   29  C   UNL     1      -9.120  20.995  67.084  1.00  0.00    -0.073 C  
HETATM   30  C   UNL     1      -7.923  18.720  67.297  1.00  0.00    -0.239 C  
BRANCH  30  31
HETATM   31  N   UNL     1      -7.083  19.058  66.142  1.00  0.00    -0.241 N  
HETATM   32  C   UNL     1      -7.002  20.356  65.671  1.00  0.00    -0.229 C  
HETATM   33  C   UNL     1      -6.331  20.668  64.564  1.00  0.00    -0.344 C  
HETATM   34  C   UNL     1      -5.671  19.593  63.809  1.00  0.00    -0.288 C  
HETATM   35  O   UNL     1      -5.165  19.809  62.715  1.00  0.00    -0.212 OA 
HETATM   36  N   UNL     1      -5.680  18.365  64.403  1.00  0.00    -0.009 N  
HETATM   37  H   UNL     1      -5.096  17.641  63.982  1.00  0.00     0.000 HD 
HETATM   38  C   UNL     1      -6.404  18.017  65.515  1.00  0.00    -0.168 C  
HETATM   39  O   UNL     1      -6.444  16.848  65.881  1.00  0.00     0.014 OA 
ENDBRANCH  30  31
ENDBRANCH  21  22
ENDBRANCH  12  21
ENDBRANCH   7   9
ENDBRANCH   5   7
ENDBRANCH   4   5
ENDBRANCH   2   4
TORSDOF 8
ENDMDL
MODEL      147
REMARK 921   NORMALIZED FREE ENERGY PREDICTED BY IDOCK:   -2.78 KCAL/MOL
REMARK 922        TOTAL FREE ENERGY PREDICTED BY IDOCK:   -6.63 KCAL/MOL
REMARK 923 INTER-LIGAND FREE ENERGY PREDICTED BY IDOCK:   -6.64 KCAL/MOL
REMARK 924 INTRA-LIGAND FREE ENERGY PREDICTED BY IDOCK:    0.01 KCAL/MOL
REMARK 927      BINDING AFFINITY PREDICTED BY RF-SCORE:    0.00 PKD
ROOT
HETATM    1  C   UNL     1     -12.136  15.577  72.672  1.00  0.00    -0.541 C  
HETATM    2  C   UNL     1     -12.956  14.574  71.870  1.00  0.00    -0.341 C  
HETATM    3  C   UNL     1     -14.142  15.275  71.212  1.00  0.00    -0.527 C  
ENDROOT
BRANCH   2   4
HETATM    4  O   UNL     1     -12.144  14.007  70.823  1.00  0.00    -0.331 OA 
BRANCH   4   5
HETATM    5  C   UNL     1     -11.369  14.886  70.116  1.00  0.00    -0.260 C  
HETATM    6  O   UNL     1     -10.999  15.980  70.523  1.00  0.00    -0.335 OA 
BRANCH   5   7
HETATM    7  C   UNL     1     -10.976  14.272  68.770  1.00  0.00    -0.255 C  
HETATM    8  C   UNL     1     -12.246  14.098  67.937  1.00  0.00    -0.190 C  
BRANCH   7   9
HETATM    9  N   UNL     1     -10.226  13.008  68.972  1.00  0.00    -0.431 NA 
HETATM   10  P   UNL     1      -9.096  12.651  67.759  1.00  0.00    -0.210 P  
HETATM   11  H   UNL     1     -10.872  12.228  69.094  1.00  0.00     0.000 HD 
HETATM   12  O   UNL     1      -8.366  11.234  68.220  1.00  0.00    -0.135 OA 
HETATM   13  O   UNL     1      -7.919  13.525  68.677  1.00  0.00    -0.138 OA 
HETATM   14  O   UNL     1     -10.151  11.870  66.937  1.00  0.00    -0.205 OA 
BRANCH  13  15
HETATM   15  C   UNL     1      -7.594  14.794  68.273  1.00  0.00    -0.115 A  
HETATM   16  C   UNL     1      -7.008  17.441  67.633  1.00  0.00    -0.175 A  
HETATM   17  C   UNL     1      -7.146  15.666  69.264  1.00  0.00    -0.189 A  
HETATM   18  C   UNL     1      -7.715  15.229  66.954  1.00  0.00    -0.108 A  
HETATM   19  C   UNL     1      -6.859  16.993  68.945  1.00  0.00    -0.211 A  
HETATM   20  C   UNL     1      -7.427  16.559  66.638  1.00  0.00    -0.296 A  
ENDBRANCH  13  15
BRANCH  12  21
HETATM   21  C   UNL     1      -7.827  10.425  67.157  1.00  0.00    -0.110 C  
BRANCH  21  22
HETATM   22  C   UNL     1      -8.487   9.041  66.878  1.00  0.00    -0.119 C  
HETATM   23  O   UNL     1      -7.548   7.975  67.142  1.00  0.00    -0.093 OA 
HETATM   24  C   UNL     1      -9.575   7.219  68.077  1.00  0.00    -0.139 C  
HETATM   25  H   UNL     1     -11.742   8.700  67.558  1.00  0.00     0.000 HD 
HETATM   26  C   UNL     1      -9.739   8.706  67.724  1.00  0.00    -0.165 C  
HETATM   27  O   UNL     1     -10.972   8.905  67.039  1.00  0.00    -0.086 OA 
HETATM   28  F   UNL     1     -10.700   6.531  67.738  1.00  0.00    -0.205 F  
HETATM   29  C   UNL     1      -9.379   7.062  69.577  1.00  0.00    -0.148 C  
HETATM   30  C   UNL     1      -8.385   6.801  67.211  1.00  0.00    -0.121 C  
BRANCH  30  31
HETATM   31  N   UNL     1      -7.603   5.648  67.670  1.00  0.00    -0.088 N  
HETATM   32  C   UNL     1      -6.490   5.813  68.475  1.00  0.00    -0.042 C  
HETATM   33  C   UNL     1      -5.705   4.794  68.818  1.00  0.00    -0.020 C  
HETATM   34  C   UNL     1      -6.024   3.452  68.307  1.00  0.00    -0.027 C  
HETATM   35  O   UNL     1      -5.255   2.514  68.478  1.00  0.00    -0.011 OA 
HETATM   36  N   UNL     1      -7.204   3.343  67.634  1.00  0.00    -0.058 N  
HETATM   37  H   UNL     1      -7.525   2.401  67.409  1.00  0.00     0.000 HD 
HETATM   38  C   UNL     1      -7.999   4.387  67.233  1.00  0.00    -0.100 C  
HETATM   39  O   UNL     1      -8.969   4.180  66.514  1.00  0.00    -0.115 OA 
ENDBRANCH  30  31
ENDBRANCH  21  22
ENDBRANCH  12  21
ENDBRANCH   7   9
ENDBRANCH   5   7
ENDBRANCH   4   5
ENDBRANCH   2   4
TORSDOF 8
ENDMDL
MODEL      148
REMARK 921   NORMALIZED FREE ENERGY PREDICTED BY IDOCK:   -2.76 KCAL/MOL
REMARK 922        TOTAL FREE ENERGY PREDICTED BY IDOCK:   -6.60 KCAL/MOL
REMARK 923 INTER-LIGAND FREE ENERGY PREDICTED BY IDOCK:   -8.01 KCAL/MOL
REMARK 924 INTRA-LIGAND FREE ENERGY PREDICTED BY IDOCK:    1.42 KCAL/MOL
REMARK 927      BINDING AFFINITY PREDICTED BY RF-SCORE:    0.00 PKD
ROOT
HETATM    1  C   UNL     1      -6.798  17.975  66.090  1.00  0.00    -0.312 C  
HETATM    2  C   UNL     1      -7.098  16.576  66.613  1.00  0.00    -0.185 C  
HETATM    3  C   UNL     1      -6.787  16.497  68.106  1.00  0.00    -0.142 C  
ENDROOT
BRANCH   2   4
HETATM    4  O   UNL     1      -8.498  16.280  66.439  1.00  0.00    -0.275 OA 
BRANCH   4   5
HETATM    5  C   UNL     1      -8.831  14.955  66.371  1.00  0.00    -0.161 C  
HETATM    6  O   UNL     1      -8.223  14.048  66.926  1.00  0.00    -0.110 OA 
BRANCH   5   7
HETATM    7  C   UNL     1     -10.116  14.779  65.558  1.00  0.00    -0.380 C  
HETATM    8  C   UNL     1     -10.574  16.159  65.087  1.00  0.00    -0.366 C  
BRANCH   7   9
HETATM    9  N   UNL     1     -11.141  14.056  66.352  1.00  0.00    -0.312 NA 
HETATM   10  P   UNL     1     -10.851  14.020  68.021  1.00  0.00    -0.260 P  
HETATM   11  H   UNL     1     -11.262  13.109  65.993  1.00  0.00     0.000 HD 
HETATM   12  O   UNL     1     -12.134  13.205  68.688  1.00  0.00    -0.315 OA 
HETATM   13  O   UNL     1     -11.752  15.491  68.152  1.00  0.00    -0.342 OA 
HETATM   14  O   UNL     1     -10.043  12.704  67.903  1.00  0.00    -0.210 OA 
BRANCH  13  15
HETATM   15  C   UNL     1     -11.060  16.665  68.300  1.00  0.00    -0.295 A  
HETATM   16  C   UNL     1      -9.683  19.032  68.805  1.00  0.00    -0.473 A  
HETATM   17  C   UNL     1     -10.247  16.769  69.427  1.00  0.00    -0.225 A  
HETATM   18  C   UNL     1     -11.160  17.728  67.402  1.00  0.00     0.105 A  
HETATM   19  C   UNL     1      -9.562  17.956  69.684  1.00  0.00     0.584 A  
HETATM   20  C   UNL     1     -10.473  18.916  67.663  1.00  0.00    -0.514 A  
ENDBRANCH  13  15
BRANCH  12  21
HETATM   21  C   UNL     1     -11.878  12.538  69.939  1.00  0.00    -0.303 C  
BRANCH  21  22
HETATM   22  C   UNL     1     -12.169  11.009  70.030  1.00  0.00    -0.343 C  
HETATM   23  O   UNL     1     -11.292  10.278  69.145  1.00  0.00    -0.230 OA 
HETATM   24  C   UNL     1     -11.311   9.011  71.131  1.00  0.00    -0.307 C  
HETATM   25  H   UNL     1     -13.071   9.768  72.999  1.00  0.00     0.000 HD 
HETATM   26  C   UNL     1     -11.976  10.366  71.424  1.00  0.00    -0.285 C  
HETATM   27  O   UNL     1     -13.189  10.163  72.143  1.00  0.00    -0.444 OA 
HETATM   28  F   UNL     1     -12.007   8.009  71.735  1.00  0.00    -0.271 F  
HETATM   29  C   UNL     1      -9.901   8.992  71.699  1.00  0.00    -0.366 C  
HETATM   30  C   UNL     1     -11.409   8.915  69.607  1.00  0.00     0.157 C  
BRANCH  30  31
HETATM   31  N   UNL     1     -10.423   8.065  68.932  1.00  0.00    -0.213 N  
HETATM   32  C   UNL     1      -9.339   8.614  68.268  1.00  0.00    -0.137 C  
HETATM   33  C   UNL     1      -8.491   7.871  67.561  1.00  0.00    -0.123 C  
HETATM   34  C   UNL     1      -8.725   6.422  67.468  1.00  0.00    -0.113 C  
HETATM   35  O   UNL     1      -8.058   5.722  66.717  1.00  0.00    -0.102 OA 
HETATM   36  N   UNL     1      -9.728   5.937  68.253  1.00  0.00    -0.123 N  
HETATM   37  H   UNL     1      -9.808   4.922  68.330  1.00  0.00     0.000 HD 
HETATM   38  C   UNL     1     -10.640   6.690  68.949  1.00  0.00    -0.230 C  
HETATM   39  O   UNL     1     -11.583   6.149  69.512  1.00  0.00    -0.396 OA 
ENDBRANCH  30  31
ENDBRANCH  21  22
ENDBRANCH  12  21
ENDBRANCH   7   9
ENDBRANCH   5   7
ENDBRANCH   4   5
ENDBRANCH   2   4
TORSDOF 8
ENDMDL
MODEL      149
REMARK 921   NORMALIZED FREE ENERGY PREDICTED BY IDOCK:   -2.74 KCAL/MOL
REMARK 922        TOTAL FREE ENERGY PREDICTED BY IDOCK:   -6.57 KCAL/MOL
REMARK 923 INTER-LIGAND FREE ENERGY PREDICTED BY IDOCK:   -8.35 KCAL/MOL
REMARK 924 INTRA-LIGAND FREE ENERGY PREDICTED BY IDOCK:    1.78 KCAL/MOL
REMARK 927      BINDING AFFINITY PREDICTED BY RF-SCORE:    0.00 PKD
ROOT
HETATM    1  C   UNL     1     -11.096   6.196  66.862  1.00  0.00    -0.301 C  
HETATM    2  C   UNL     1     -10.448   6.520  68.202  1.00  0.00    -0.217 C  
HETATM    3  C   UNL     1     -11.400   6.167  69.343  1.00  0.00    -0.401 C  
ENDROOT
BRANCH   2   4
HETATM    4  O   UNL     1      -9.251   5.733  68.368  1.00  0.00    -0.117 OA 
BRANCH   4   5
HETATM    5  C   UNL     1      -8.173   6.110  67.614  1.00  0.00    -0.113 C  
HETATM    6  O   UNL     1      -8.093   5.999  66.397  1.00  0.00    -0.107 OA 
BRANCH   5   7
HETATM    7  C   UNL     1      -7.109   6.753  68.507  1.00  0.00    -0.083 C  
HETATM    8  C   UNL     1      -7.615   6.720  69.949  1.00  0.00    -0.100 C  
BRANCH   7   9
HETATM    9  N   UNL     1      -6.783   8.119  68.028  1.00  0.00    -0.063 NA 
HETATM   10  P   UNL     1      -8.058   9.231  68.131  1.00  0.00    -0.107 P  
HETATM   11  H   UNL     1      -6.421   8.083  67.074  1.00  0.00     0.000 HD 
HETATM   12  O   UNL     1      -7.447  10.675  67.583  1.00  0.00    -0.090 OA 
HETATM   13  O   UNL     1      -7.506   9.632  69.720  1.00  0.00    -0.081 OA 
HETATM   14  O   UNL     1      -8.552   8.872  66.707  1.00  0.00    -0.113 OA 
BRANCH  13  15
HETATM   15  C   UNL     1      -8.187   9.116  70.792  1.00  0.00    -0.190 A  
HETATM   16  C   UNL     1      -9.716   8.215  72.939  1.00  0.00    -0.340 A  
HETATM   17  C   UNL     1      -9.578   9.131  70.709  1.00  0.00    -0.338 A  
HETATM   18  C   UNL     1      -7.554   8.618  71.931  1.00  0.00    -0.106 A  
HETATM   19  C   UNL     1     -10.344   8.685  71.786  1.00  0.00    -0.386 A  
HETATM   20  C   UNL     1      -8.324   8.173  73.008  1.00  0.00    -0.260 A  
ENDBRANCH  13  15
BRANCH  12  21
HETATM   21  C   UNL     1      -8.405  11.595  67.025  1.00  0.00    -0.169 C  
BRANCH  21  22
HETATM   22  C   UNL     1      -9.270  12.442  68.007  1.00  0.00    -0.203 C  
HETATM   23  O   UNL     1      -9.030  13.852  67.799  1.00  0.00    -0.171 OA 
HETATM   24  C   UNL     1     -11.367  13.684  68.047  1.00  0.00    -0.285 C  
HETATM   25  H   UNL     1     -12.308  11.294  68.796  1.00  0.00     0.000 HD 
HETATM   26  C   UNL     1     -10.802  12.263  67.884  1.00  0.00    -0.218 C  
HETATM   27  O   UNL     1     -11.367  11.404  68.871  1.00  0.00    -0.219 OA 
HETATM   28  F   UNL     1     -12.328  13.697  69.011  1.00  0.00    -0.371 F  
HETATM   29  C   UNL     1     -12.019  14.134  66.749  1.00  0.00    -0.475 C  
HETATM   30  C   UNL     1     -10.136  14.484  68.477  1.00  0.00    -0.242 C  
BRANCH  30  31
HETATM   31  N   UNL     1     -10.148  15.923  68.194  1.00  0.00    -0.226 N  
HETATM   32  C   UNL     1      -9.618  16.426  67.019  1.00  0.00    -0.237 C  
HETATM   33  C   UNL     1      -9.524  17.733  66.786  1.00  0.00    -0.289 C  
HETATM   34  C   UNL     1      -9.980  18.672  67.821  1.00  0.00    -0.346 C  
HETATM   35  O   UNL     1      -9.782  19.875  67.712  1.00  0.00    -0.355 OA 
HETATM   36  N   UNL     1     -10.610  18.108  68.891  1.00  0.00    -0.348 N  
HETATM   37  H   UNL     1     -11.075  18.741  69.543  1.00  0.00     0.000 HD 
HETATM   38  C   UNL     1     -10.674  16.766  69.169  1.00  0.00    -0.329 C  
HETATM   39  O   UNL     1     -11.148  16.380  70.231  1.00  0.00    -0.359 OA 
ENDBRANCH  30  31
ENDBRANCH  21  22
ENDBRANCH  12  21
ENDBRANCH   7   9
ENDBRANCH   5   7
ENDBRANCH   4   5
ENDBRANCH   2   4
TORSDOF 8
ENDMDL
MODEL      150
REMARK 921   NORMALIZED FREE ENERGY PREDICTED BY IDOCK:   -2.74 KCAL/MOL
REMARK 922        TOTAL FREE ENERGY PREDICTED BY IDOCK:   -6.57 KCAL/MOL
REMARK 923 INTER-LIGAND FREE ENERGY PREDICTED BY IDOCK:   -7.49 KCAL/MOL
REMARK 924 INTRA-LIGAND FREE ENERGY PREDICTED BY IDOCK:    0.92 KCAL/MOL
REMARK 927      BINDING AFFINITY PREDICTED BY RF-SCORE:    0.00 PKD
ROOT
HETATM    1  C   UNL     1      -7.769  16.255  66.617  1.00  0.00    -0.286 C  
HETATM    2  C   UNL     1      -7.561  15.088  67.575  1.00  0.00    -0.192 C  
HETATM    3  C   UNL     1      -7.307  15.610  68.987  1.00  0.00    -0.169 C  
ENDROOT
BRANCH   2   4
HETATM    4  O   UNL     1      -8.747  14.271  67.613  1.00  0.00    -0.171 OA 
BRANCH   4   5
HETATM    5  C   UNL     1      -8.551  12.919  67.536  1.00  0.00    -0.188 C  
HETATM    6  O   UNL     1      -7.776  12.279  68.236  1.00  0.00    -0.127 OA 
BRANCH   5   7
HETATM    7  C   UNL     1      -9.494  12.312  66.493  1.00  0.00    -0.236 C  
HETATM    8  C   UNL     1     -10.097  13.454  65.676  1.00  0.00    -0.285 C  
BRANCH   7   9
HETATM    9  N   UNL     1     -10.511  11.452  67.146  1.00  0.00    -0.215 NA 
HETATM   10  P   UNL     1     -10.678  11.693  68.815  1.00  0.00    -0.195 P  
HETATM   11  H   UNL     1     -10.323  10.469  66.947  1.00  0.00     0.000 HD 
HETATM   12  O   UNL     1     -11.883  10.662  69.305  1.00  0.00    -0.282 OA 
HETATM   13  O   UNL     1     -11.879  12.888  68.466  1.00  0.00    -0.308 OA 
HETATM   14  O   UNL     1      -9.602  10.624  69.128  1.00  0.00    -0.201 OA 
BRANCH  13  15
HETATM   15  C   UNL     1     -11.523  14.209  68.554  1.00  0.00    -0.300 A  
HETATM   16  C   UNL     1     -10.867  16.889  68.930  1.00  0.00    -0.274 A  
HETATM   17  C   UNL     1     -11.000  14.631  69.774  1.00  0.00    -0.232 A  
HETATM   18  C   UNL     1     -11.687  15.114  67.505  1.00  0.00    -0.214 A  
HETATM   19  C   UNL     1     -10.676  15.975  69.965  1.00  0.00    -0.328 A  
HETATM   20  C   UNL     1     -11.363  16.459  67.700  1.00  0.00     0.032 A  
ENDBRANCH  13  15
BRANCH  12  21
HETATM   21  C   UNL     1     -11.833  10.239  70.681  1.00  0.00    -0.347 C  
BRANCH  21  22
HETATM   22  C   UNL     1     -11.500   8.745  70.979  1.00  0.00    -0.285 C  
HETATM   23  O   UNL     1     -11.375   8.003  69.746  1.00  0.00    -0.062 OA 
HETATM   24  C   UNL     1      -9.581   7.246  71.073  1.00  0.00    -0.158 C  
HETATM   25  H   UNL     1      -9.559   8.076  73.616  1.00  0.00     0.000 HD 
HETATM   26  C   UNL     1     -10.185   8.486  71.751  1.00  0.00    -0.282 C  
HETATM   27  O   UNL     1     -10.368   8.235  73.142  1.00  0.00    -0.207 OA 
HETATM   28  F   UNL     1      -9.288   6.299  72.007  1.00  0.00    -0.151 F  
HETATM   29  C   UNL     1      -8.282   7.616  70.377  1.00  0.00    -0.122 C  
HETATM   30  C   UNL     1     -10.714   6.786  70.153  1.00  0.00    -0.233 C  
BRANCH  30  31
HETATM   31  N   UNL     1     -10.333   5.999  68.975  1.00  0.00    -0.201 N  
HETATM   32  C   UNL     1     -10.324   6.561  67.711  1.00  0.00    -0.192 C  
HETATM   33  C   UNL     1     -10.084   5.841  66.617  1.00  0.00    -0.235 C  
HETATM   34  C   UNL     1      -9.840   4.398  66.758  1.00  0.00    -0.218 C  
HETATM   35  O   UNL     1      -9.756   3.674  65.774  1.00  0.00    -0.166 OA 
HETATM   36  N   UNL     1      -9.731   3.941  68.038  1.00  0.00    -0.117 N  
HETATM   37  H   UNL     1      -9.405   2.982  68.163  1.00  0.00     0.000 HD 
HETATM   38  C   UNL     1     -10.021   4.657  69.172  1.00  0.00    -0.138 C  
HETATM   39  O   UNL     1     -10.020   4.103  70.265  1.00  0.00    -0.201 OA 
ENDBRANCH  30  31
ENDBRANCH  21  22
ENDBRANCH  12  21
ENDBRANCH   7   9
ENDBRANCH   5   7
ENDBRANCH   4   5
ENDBRANCH   2   4
TORSDOF 8
ENDMDL
MODEL      151
REMARK 921   NORMALIZED FREE ENERGY PREDICTED BY IDOCK:   -2.67 KCAL/MOL
REMARK 922        TOTAL FREE ENERGY PREDICTED BY IDOCK:   -6.47 KCAL/MOL
REMARK 923 INTER-LIGAND FREE ENERGY PREDICTED BY IDOCK:   -6.75 KCAL/MOL
REMARK 924 INTRA-LIGAND FREE ENERGY PREDICTED BY IDOCK:    0.28 KCAL/MOL
REMARK 927      BINDING AFFINITY PREDICTED BY RF-SCORE:    0.00 PKD
ROOT
HETATM    1  C   UNL     1     -12.773  14.040  65.501  1.00  0.00    -0.517 C  
HETATM    2  C   UNL     1     -11.719  13.825  66.580  1.00  0.00    -0.394 C  
HETATM    3  C   UNL     1     -12.024  14.704  67.792  1.00  0.00    -0.302 C  
ENDROOT
BRANCH   2   4
HETATM    4  O   UNL     1     -11.739  12.451  67.015  1.00  0.00    -0.381 OA 
BRANCH   4   5
HETATM    5  C   UNL     1     -10.561  11.765  66.900  1.00  0.00    -0.235 C  
HETATM    6  O   UNL     1     -10.305  10.951  66.020  1.00  0.00    -0.243 OA 
BRANCH   5   7
HETATM    7  C   UNL     1      -9.585  12.213  67.990  1.00  0.00    -0.204 C  
HETATM    8  C   UNL     1      -8.168  12.129  67.423  1.00  0.00    -0.175 C  
BRANCH   7   9
HETATM    9  N   UNL     1      -9.775  11.410  69.224  1.00  0.00    -0.404 NA 
HETATM   10  P   UNL     1     -10.212   9.794  68.959  1.00  0.00    -0.227 P  
HETATM   11  H   UNL     1     -10.451  11.863  69.839  1.00  0.00     0.000 HD 
HETATM   12  O   UNL     1     -10.325   9.101  70.462  1.00  0.00    -0.203 OA 
HETATM   13  O   UNL     1      -8.527   9.402  68.935  1.00  0.00    -0.117 OA 
HETATM   14  O   UNL     1     -11.720  10.146  68.978  1.00  0.00    -0.090 OA 
BRANCH  13  15
HETATM   15  C   UNL     1      -7.928   9.188  67.721  1.00  0.00    -0.101 A  
HETATM   16  C   UNL     1      -6.823   8.580  65.237  1.00  0.00    -0.067 A  
HETATM   17  C   UNL     1      -8.722   8.617  66.728  1.00  0.00    -0.135 A  
HETATM   18  C   UNL     1      -6.590   9.492  67.466  1.00  0.00    -0.063 A  
HETATM   19  C   UNL     1      -8.168   8.307  65.487  1.00  0.00    -0.138 A  
HETATM   20  C   UNL     1      -6.039   9.179  66.222  1.00  0.00    -0.060 A  
ENDBRANCH  13  15
BRANCH  12  21
HETATM   21  C   UNL     1     -11.209   7.969  70.572  1.00  0.00    -0.250 C  
BRANCH  21  22
HETATM   22  C   UNL     1     -10.599   6.542  70.425  1.00  0.00    -0.233 C  
HETATM   23  O   UNL     1     -10.706   6.090  69.057  1.00  0.00    -0.258 OA 
HETATM   24  C   UNL     1      -8.532   5.463  69.715  1.00  0.00    -0.100 C  
HETATM   25  H   UNL     1      -7.944   5.779  72.305  1.00  0.00     0.000 HD 
HETATM   26  C   UNL     1      -9.101   6.407  70.787  1.00  0.00    -0.151 C  
HETATM   27  O   UNL     1      -8.864   5.863  72.082  1.00  0.00    -0.136 OA 
HETATM   28  F   UNL     1      -7.866   4.432  70.305  1.00  0.00    -0.056 F  
HETATM   29  C   UNL     1      -7.536   6.210  68.843  1.00  0.00    -0.087 C  
HETATM   30  C   UNL     1      -9.794   4.973  69.001  1.00  0.00    -0.182 C  
BRANCH  30  31
HETATM   31  N   UNL     1      -9.637   4.517  67.615  1.00  0.00    -0.160 N  
HETATM   32  C   UNL     1      -9.915   5.354  66.550  1.00  0.00    -0.196 C  
HETATM   33  C   UNL     1      -9.880   4.931  65.288  1.00  0.00    -0.017 C  
HETATM   34  C   UNL     1      -9.554   3.523  65.022  1.00  0.00    -0.160 C  
HETATM   35  O   UNL     1      -9.649   3.056  63.894  1.00  0.00    -0.120 OA 
HETATM   36  N   UNL     1      -9.162   2.794  66.105  1.00  0.00    -0.295 N  
HETATM   37  H   UNL     1      -8.779   1.865  65.926  1.00  0.00     0.000 HD 
HETATM   38  C   UNL     1      -9.237   3.198  67.414  1.00  0.00    -0.188 C  
HETATM   39  O   UNL     1      -8.985   2.409  68.316  1.00  0.00    -0.105 OA 
ENDBRANCH  30  31
ENDBRANCH  21  22
ENDBRANCH  12  21
ENDBRANCH   7   9
ENDBRANCH   5   7
ENDBRANCH   4   5
ENDBRANCH   2   4
TORSDOF 8
ENDMDL
MODEL      152
REMARK 921   NORMALIZED FREE ENERGY PREDICTED BY IDOCK:   -2.65 KCAL/MOL
REMARK 922        TOTAL FREE ENERGY PREDICTED BY IDOCK:   -6.43 KCAL/MOL
REMARK 923 INTER-LIGAND FREE ENERGY PREDICTED BY IDOCK:   -5.77 KCAL/MOL
REMARK 924 INTRA-LIGAND FREE ENERGY PREDICTED BY IDOCK:   -0.66 KCAL/MOL
REMARK 927      BINDING AFFINITY PREDICTED BY RF-SCORE:    0.00 PKD
ROOT
HETATM    1  C   UNL     1      -6.737   6.636  64.402  1.00  0.00    -0.042 C  
HETATM    2  C   UNL     1      -7.895   5.686  64.127  1.00  0.00    -0.112 C  
HETATM    3  C   UNL     1      -8.336   5.806  62.670  1.00  0.00    -0.070 C  
ENDROOT
BRANCH   2   4
HETATM    4  O   UNL     1      -7.474   4.325  64.348  1.00  0.00    -0.069 OA 
BRANCH   4   5
HETATM    5  C   UNL     1      -7.848   3.764  65.539  1.00  0.00    -0.093 C  
HETATM    6  O   UNL     1      -8.905   3.178  65.738  1.00  0.00    -0.126 OA 
BRANCH   5   7
HETATM    7  C   UNL     1      -6.722   3.916  66.565  1.00  0.00    -0.046 C  
HETATM    8  C   UNL     1      -5.452   3.308  65.972  1.00  0.00    -0.017 C  
BRANCH   7   9
HETATM    9  N   UNL     1      -7.115   3.312  67.863  1.00  0.00    -0.050 NA 
HETATM   10  P   UNL     1      -7.166   4.397  69.164  1.00  0.00    -0.052 P  
HETATM   11  H   UNL     1      -6.508   2.523  68.084  1.00  0.00     0.000 HD 
HETATM   12  O   UNL     1      -7.661   3.511  70.477  1.00  0.00    -0.043 OA 
HETATM   13  O   UNL     1      -8.824   4.698  68.775  1.00  0.00    -0.095 OA 
HETATM   14  O   UNL     1      -5.680   4.129  69.511  1.00  0.00    -0.016 OA 
BRANCH  13  15
HETATM   15  C   UNL     1      -9.134   5.856  68.110  1.00  0.00    -0.117 A  
HETATM   16  C   UNL     1      -9.832   8.090  66.599  1.00  0.00    -0.322 A  
HETATM   17  C   UNL     1     -10.282   5.830  67.321  1.00  0.00    -0.248 A  
HETATM   18  C   UNL     1      -8.350   7.008  68.176  1.00  0.00    -0.123 A  
HETATM   19  C   UNL     1     -10.629   6.946  66.560  1.00  0.00    -0.034 A  
HETATM   20  C   UNL     1      -8.700   8.124  67.412  1.00  0.00    -0.124 A  
ENDBRANCH  13  15
BRANCH  12  21
HETATM   21  C   UNL     1      -7.243   4.000  71.765  1.00  0.00    -0.057 C  
BRANCH  21  22
HETATM   22  C   UNL     1      -7.526   5.494  72.113  1.00  0.00    -0.099 C  
HETATM   23  O   UNL     1      -8.803   5.901  71.572  1.00  0.00    -0.135 OA 
HETATM   24  C   UNL     1      -8.758   6.828  73.738  1.00  0.00    -0.138 C  
HETATM   25  H   UNL     1      -6.436   6.645  75.055  1.00  0.00     0.000 HD 
HETATM   26  C   UNL     1      -7.588   5.837  73.620  1.00  0.00    -0.097 C  
HETATM   27  O   UNL     1      -6.399   6.433  74.129  1.00  0.00    -0.068 OA 
HETATM   28  F   UNL     1      -8.356   7.950  74.396  1.00  0.00    -0.234 F  
HETATM   29  C   UNL     1      -9.884   6.205  74.548  1.00  0.00    -0.319 C  
HETATM   30  C   UNL     1      -9.088   7.129  72.275  1.00  0.00    -0.132 C  
BRANCH  30  31
HETATM   31  N   UNL     1     -10.454   7.575  71.981  1.00  0.00    -0.204 N  
HETATM   32  C   UNL     1     -10.746   8.915  71.796  1.00  0.00    -0.362 C  
HETATM   33  C   UNL     1     -11.992   9.353  71.632  1.00  0.00    -0.465 C  
HETATM   34  C   UNL     1     -13.095   8.381  71.667  1.00  0.00    -0.334 C  
HETATM   35  O   UNL     1     -14.262   8.752  71.664  1.00  0.00    -0.393 OA 
HETATM   36  N   UNL     1     -12.723   7.070  71.718  1.00  0.00    -0.429 N  
HETATM   37  H   UNL     1     -13.457   6.374  71.583  1.00  0.00     0.000 HD 
HETATM   38  C   UNL     1     -11.451   6.604  71.934  1.00  0.00    -0.291 C  
HETATM   39  O   UNL     1     -11.255   5.406  72.098  1.00  0.00    -0.217 OA 
ENDBRANCH  30  31
ENDBRANCH  21  22
ENDBRANCH  12  21
ENDBRANCH   7   9
ENDBRANCH   5   7
ENDBRANCH   4   5
ENDBRANCH   2   4
TORSDOF 8
ENDMDL
MODEL      153
REMARK 921   NORMALIZED FREE ENERGY PREDICTED BY IDOCK:   -2.63 KCAL/MOL
REMARK 922        TOTAL FREE ENERGY PREDICTED BY IDOCK:   -6.41 KCAL/MOL
REMARK 923 INTER-LIGAND FREE ENERGY PREDICTED BY IDOCK:   -6.19 KCAL/MOL
REMARK 924 INTRA-LIGAND FREE ENERGY PREDICTED BY IDOCK:   -0.22 KCAL/MOL
REMARK 927      BINDING AFFINITY PREDICTED BY RF-SCORE:    0.00 PKD
ROOT
HETATM    1  C   UNL     1      -9.121   5.456  65.297  1.00  0.00    -0.062 C  
HETATM    2  C   UNL     1      -8.016   5.954  66.220  1.00  0.00    -0.102 C  
HETATM    3  C   UNL     1      -7.631   7.385  65.851  1.00  0.00    -0.089 C  
ENDROOT
BRANCH   2   4
HETATM    4  O   UNL     1      -8.486   5.963  67.583  1.00  0.00    -0.105 OA 
BRANCH   4   5
HETATM    5  C   UNL     1      -7.529   6.106  68.550  1.00  0.00    -0.087 C  
HETATM    6  O   UNL     1      -6.321   6.125  68.347  1.00  0.00    -0.039 OA 
BRANCH   5   7
HETATM    7  C   UNL     1      -8.191   6.310  69.915  1.00  0.00    -0.121 C  
HETATM    8  C   UNL     1      -9.184   5.171  70.137  1.00  0.00    -0.188 C  
BRANCH   7   9
HETATM    9  N   UNL     1      -8.809   7.657  70.000  1.00  0.00    -0.142 NA 
HETATM   10  P   UNL     1     -10.447   7.660  70.434  1.00  0.00    -0.228 P  
HETATM   11  H   UNL     1      -8.674   8.164  69.125  1.00  0.00     0.000 HD 
HETATM   12  O   UNL     1     -10.897   9.256  70.501  1.00  0.00    -0.228 OA 
HETATM   13  O   UNL     1      -9.951   7.758  72.087  1.00  0.00    -0.175 OA 
HETATM   14  O   UNL     1     -10.891   7.571  68.952  1.00  0.00    -0.155 OA 
BRANCH  13  15
HETATM   15  C   UNL     1     -10.000   6.618  72.847  1.00  0.00    -0.172 A  
HETATM   16  C   UNL     1     -10.298   4.346  74.431  1.00  0.00    -0.301 A  
HETATM   17  C   UNL     1     -11.193   5.898  72.813  1.00  0.00    -0.317 A  
HETATM   18  C   UNL     1      -8.939   6.186  73.644  1.00  0.00    -0.128 A  
HETATM   19  C   UNL     1     -11.344   4.764  73.610  1.00  0.00    -0.235 A  
HETATM   20  C   UNL     1      -9.094   5.050  74.441  1.00  0.00    -0.114 A  
ENDBRANCH  13  15
BRANCH  12  21
HETATM   21  C   UNL     1     -12.292   9.530  70.270  1.00  0.00     0.228 C  
BRANCH  21  22
HETATM   22  C   UNL     1     -12.696  10.971  69.832  1.00  0.00    -0.038 C  
HETATM   23  O   UNL     1     -12.753  11.847  70.979  1.00  0.00    -0.342 OA 
HETATM   24  C   UNL     1     -11.668  13.121  69.320  1.00  0.00    -0.321 C  
HETATM   25  H   UNL     1     -11.611  12.061  66.864  1.00  0.00     0.000 HD 
HETATM   26  C   UNL     1     -11.743  11.665  68.830  1.00  0.00    -0.334 C  
HETATM   27  O   UNL     1     -12.196  11.634  67.480  1.00  0.00    -0.501 OA 
HETATM   28  F   UNL     1     -11.947  13.974  68.296  1.00  0.00    -0.352 F  
HETATM   29  C   UNL     1     -10.260  13.433  69.802  1.00  0.00     1.091 C  
HETATM   30  C   UNL     1     -12.757  13.167  70.394  1.00  0.00    -0.010 C  
BRANCH  30  31
HETATM   31  N   UNL     1     -12.615  14.185  71.440  1.00  0.00    -0.350 N  
HETATM   32  C   UNL     1     -12.490  13.831  72.772  1.00  0.00     0.219 C  
HETATM   33  C   UNL     1     -12.464  14.736  73.747  1.00  0.00    -0.472 C  
HETATM   34  C   UNL     1     -12.592  16.159  73.396  1.00  0.00    -0.540 C  
HETATM   35  O   UNL     1     -12.716  17.013  74.264  1.00  0.00    -0.421 OA 
HETATM   36  N   UNL     1     -12.575  16.440  72.062  1.00  0.00    -0.408 N  
HETATM   37  H   UNL     1     -12.502  17.422  71.795  1.00  0.00     0.000 HD 
HETATM   38  C   UNL     1     -12.650  15.520  71.047  1.00  0.00    -0.454 C  
HETATM   39  O   UNL     1     -12.766  15.894  69.886  1.00  0.00    -0.196 OA 
ENDBRANCH  30  31
ENDBRANCH  21  22
ENDBRANCH  12  21
ENDBRANCH   7   9
ENDBRANCH   5   7
ENDBRANCH   4   5
ENDBRANCH   2   4
TORSDOF 8
ENDMDL
MODEL      154
REMARK 921   NORMALIZED FREE ENERGY PREDICTED BY IDOCK:   -2.63 KCAL/MOL
REMARK 922        TOTAL FREE ENERGY PREDICTED BY IDOCK:   -6.41 KCAL/MOL
REMARK 923 INTER-LIGAND FREE ENERGY PREDICTED BY IDOCK:   -6.01 KCAL/MOL
REMARK 924 INTRA-LIGAND FREE ENERGY PREDICTED BY IDOCK:   -0.40 KCAL/MOL
REMARK 927      BINDING AFFINITY PREDICTED BY RF-SCORE:    0.00 PKD
ROOT
HETATM    1  C   UNL     1     -13.469  10.897  71.838  1.00  0.00    -0.306 C  
HETATM    2  C   UNL     1     -13.178  12.224  71.147  1.00  0.00     0.131 C  
HETATM    3  C   UNL     1     -13.294  13.372  72.147  1.00  0.00    -0.613 C  
ENDROOT
BRANCH   2   4
HETATM    4  O   UNL     1     -11.832  12.222  70.633  1.00  0.00    -0.232 OA 
BRANCH   4   5
HETATM    5  C   UNL     1     -11.675  12.675  69.351  1.00  0.00    -0.325 C  
HETATM    6  O   UNL     1     -12.193  13.686  68.895  1.00  0.00    -0.336 OA 
BRANCH   5   7
HETATM    7  C   UNL     1     -10.701  11.770  68.592  1.00  0.00    -0.220 C  
HETATM    8  C   UNL     1     -11.516  10.732  67.823  1.00  0.00    -0.283 C  
BRANCH   7   9
HETATM    9  N   UNL     1      -9.710  11.173  69.522  1.00  0.00    -0.387 NA 
HETATM   10  P   UNL     1      -9.395   9.528  69.262  1.00  0.00    -0.191 P  
HETATM   11  H   UNL     1      -9.994  11.330  70.490  1.00  0.00     0.000 HD 
HETATM   12  O   UNL     1      -8.245   9.103  70.380  1.00  0.00    -0.132 OA 
HETATM   13  O   UNL     1      -8.130  10.000  68.181  1.00  0.00    -0.106 OA 
HETATM   14  O   UNL     1     -10.529   9.106  70.229  1.00  0.00    -0.194 OA 
BRANCH  13  15
HETATM   15  C   UNL     1      -8.367   9.921  66.833  1.00  0.00    -0.124 A  
HETATM   16  C   UNL     1      -8.676   9.644  64.078  1.00  0.00    -0.240 A  
HETATM   17  C   UNL     1      -8.052   8.711  66.216  1.00  0.00    -0.103 A  
HETATM   18  C   UNL     1      -8.872  10.984  66.083  1.00  0.00    -0.197 A  
HETATM   19  C   UNL     1      -8.201   8.574  64.836  1.00  0.00    -0.166 A  
HETATM   20  C   UNL     1      -9.019  10.843  64.701  1.00  0.00    -0.147 A  
ENDBRANCH  13  15
BRANCH  12  21
HETATM   21  C   UNL     1      -8.223   7.716  70.770  1.00  0.00    -0.109 C  
BRANCH  21  22
HETATM   22  C   UNL     1      -8.933   6.681  69.845  1.00  0.00    -0.144 C  
HETATM   23  O   UNL     1      -8.281   6.631  68.556  1.00  0.00    -0.117 OA 
HETATM   24  C   UNL     1      -8.688   4.374  69.098  1.00  0.00    -0.085 C  
HETATM   25  H   UNL     1     -10.197   3.932  71.263  1.00  0.00     0.000 HD 
HETATM   26  C   UNL     1      -8.951   5.220  70.355  1.00  0.00    -0.128 C  
HETATM   27  O   UNL     1     -10.185   4.829  70.950  1.00  0.00    -0.223 OA 
HETATM   28  F   UNL     1      -9.648   3.416  68.970  1.00  0.00    -0.225 F  
HETATM   29  C   UNL     1      -7.350   3.664  69.223  1.00  0.00    -0.049 C  
HETATM   30  C   UNL     1      -8.783   5.408  67.975  1.00  0.00    -0.106 C  
BRANCH  30  31
HETATM   31  N   UNL     1      -8.063   5.107  66.733  1.00  0.00    -0.108 N  
HETATM   32  C   UNL     1      -6.774   5.562  66.523  1.00  0.00    -0.058 C  
HETATM   33  C   UNL     1      -6.140   5.389  65.365  1.00  0.00    -0.026 C  
HETATM   34  C   UNL     1      -6.843   4.709  64.268  1.00  0.00    -0.045 C  
HETATM   35  O   UNL     1      -6.357   4.655  63.145  1.00  0.00    -0.024 OA 
HETATM   36  N   UNL     1      -8.055   4.172  64.588  1.00  0.00    -0.089 N  
HETATM   37  H   UNL     1      -8.489   3.561  63.896  1.00  0.00     0.000 HD 
HETATM   38  C   UNL     1      -8.741   4.380  65.758  1.00  0.00    -0.120 C  
HETATM   39  O   UNL     1      -9.884   3.958  65.883  1.00  0.00    -0.185 OA 
ENDBRANCH  30  31
ENDBRANCH  21  22
ENDBRANCH  12  21
ENDBRANCH   7   9
ENDBRANCH   5   7
ENDBRANCH   4   5
ENDBRANCH   2   4
TORSDOF 8
ENDMDL
MODEL      155
REMARK 921   NORMALIZED FREE ENERGY PREDICTED BY IDOCK:   -2.55 KCAL/MOL
REMARK 922        TOTAL FREE ENERGY PREDICTED BY IDOCK:   -6.29 KCAL/MOL
REMARK 923 INTER-LIGAND FREE ENERGY PREDICTED BY IDOCK:   -8.25 KCAL/MOL
REMARK 924 INTRA-LIGAND FREE ENERGY PREDICTED BY IDOCK:    1.96 KCAL/MOL
REMARK 927      BINDING AFFINITY PREDICTED BY RF-SCORE:    0.00 PKD
ROOT
HETATM    1  C   UNL     1     -12.783   6.682  72.150  1.00  0.00    -0.122 C  
HETATM    2  C   UNL     1     -11.367   6.893  71.629  1.00  0.00    -0.260 C  
HETATM    3  C   UNL     1     -10.791   5.570  71.128  1.00  0.00    -0.243 C  
ENDROOT
BRANCH   2   4
HETATM    4  O   UNL     1     -11.388   7.813  70.519  1.00  0.00    -0.274 OA 
BRANCH   4   5
HETATM    5  C   UNL     1     -10.171   8.163  70.002  1.00  0.00    -0.202 C  
HETATM    6  O   UNL     1      -9.202   8.516  70.663  1.00  0.00    -0.148 OA 
BRANCH   5   7
HETATM    7  C   UNL     1     -10.175   7.980  68.482  1.00  0.00    -0.207 C  
HETATM    8  C   UNL     1      -8.727   7.845  68.015  1.00  0.00    -0.125 C  
BRANCH   7   9
HETATM    9  N   UNL     1     -10.906   9.092  67.826  1.00  0.00    -0.484 NA 
HETATM   10  P   UNL     1     -10.643  10.619  68.514  1.00  0.00    -0.238 P  
HETATM   11  H   UNL     1     -11.905   8.887  67.791  1.00  0.00     0.000 HD 
HETATM   12  O   UNL     1     -11.520  11.688  67.597  1.00  0.00    -0.321 OA 
HETATM   13  O   UNL     1      -9.314  10.818  67.425  1.00  0.00    -0.150 OA 
HETATM   14  O   UNL     1     -11.833  10.440  69.489  1.00  0.00    -0.225 OA 
BRANCH  13  15
HETATM   15  C   UNL     1      -8.045  10.645  67.914  1.00  0.00    -0.111 A  
HETATM   16  C   UNL     1      -5.441  10.140  68.766  1.00  0.00    -0.038 A  
HETATM   17  C   UNL     1      -7.062  10.306  66.985  1.00  0.00    -0.090 A  
HETATM   18  C   UNL     1      -7.724  10.768  69.265  1.00  0.00    -0.129 A  
HETATM   19  C   UNL     1      -5.760  10.048  67.412  1.00  0.00    -0.046 A  
HETATM   20  C   UNL     1      -6.419  10.508  69.690  1.00  0.00    -0.084 A  
ENDBRANCH  13  15
BRANCH  12  21
HETATM   21  C   UNL     1     -11.944  12.893  68.263  1.00  0.00    -0.254 C  
BRANCH  21  22
HETATM   22  C   UNL     1     -12.037  14.204  67.423  1.00  0.00    -0.344 C  
HETATM   23  O   UNL     1     -11.002  15.130  67.822  1.00  0.00    -0.286 OA 
HETATM   24  C   UNL     1     -11.017  15.242  65.469  1.00  0.00    -0.359 C  
HETATM   25  H   UNL     1     -13.007  13.949  64.235  1.00  0.00     0.000 HD 
HETATM   26  C   UNL     1     -11.876  14.040  65.893  1.00  0.00    -0.383 C  
HETATM   27  O   UNL     1     -13.106  14.049  65.175  1.00  0.00    -0.776 OA 
HETATM   28  F   UNL     1     -11.622  15.913  64.450  1.00  0.00    -0.450 F  
HETATM   29  C   UNL     1      -9.667  14.761  64.959  1.00  0.00     0.116 C  
HETATM   30  C   UNL     1     -10.976  16.088  66.743  1.00  0.00    -0.112 C  
BRANCH  30  31
HETATM   31  N   UNL     1      -9.835  16.996  66.901  1.00  0.00    -0.261 N  
HETATM   32  C   UNL     1      -9.935  18.336  66.570  1.00  0.00    -0.373 C  
HETATM   33  C   UNL     1      -8.886  19.155  66.606  1.00  0.00    -0.340 C  
HETATM   34  C   UNL     1      -7.575  18.611  66.991  1.00  0.00    -0.226 C  
HETATM   35  O   UNL     1      -6.560  19.290  66.901  1.00  0.00    -0.195 OA 
HETATM   36  N   UNL     1      -7.579  17.321  67.430  1.00  0.00    -0.178 N  
HETATM   37  H   UNL     1      -6.718  16.971  67.852  1.00  0.00     0.000 HD 
HETATM   38  C   UNL     1      -8.638  16.451  67.356  1.00  0.00    -0.178 C  
HETATM   39  O   UNL     1      -8.487  15.273  67.656  1.00  0.00    -0.149 OA 
ENDBRANCH  30  31
ENDBRANCH  21  22
ENDBRANCH  12  21
ENDBRANCH   7   9
ENDBRANCH   5   7
ENDBRANCH   4   5
ENDBRANCH   2   4
TORSDOF 8
ENDMDL
MODEL      156
REMARK 921   NORMALIZED FREE ENERGY PREDICTED BY IDOCK:   -2.54 KCAL/MOL
REMARK 922        TOTAL FREE ENERGY PREDICTED BY IDOCK:   -6.28 KCAL/MOL
REMARK 923 INTER-LIGAND FREE ENERGY PREDICTED BY IDOCK:   -7.50 KCAL/MOL
REMARK 924 INTRA-LIGAND FREE ENERGY PREDICTED BY IDOCK:    1.21 KCAL/MOL
REMARK 927      BINDING AFFINITY PREDICTED BY RF-SCORE:    0.00 PKD
ROOT
HETATM    1  C   UNL     1      -5.589   8.465  69.967  1.00  0.00    -0.025 C  
HETATM    2  C   UNL     1      -6.274   7.471  70.897  1.00  0.00    -0.035 C  
HETATM    3  C   UNL     1      -5.777   7.666  72.327  1.00  0.00    -0.036 C  
ENDROOT
BRANCH   2   4
HETATM    4  O   UNL     1      -7.697   7.696  70.889  1.00  0.00    -0.085 OA 
BRANCH   4   5
HETATM    5  C   UNL     1      -8.422   6.950  70.001  1.00  0.00    -0.140 C  
HETATM    6  O   UNL     1      -7.948   6.301  69.077  1.00  0.00    -0.106 OA 
BRANCH   5   7
HETATM    7  C   UNL     1      -9.906   6.989  70.373  1.00  0.00    -0.179 C  
HETATM    8  C   UNL     1     -10.599   5.809  69.691  1.00  0.00    -0.396 C  
BRANCH   7   9
HETATM    9  N   UNL     1     -10.498   8.303  70.023  1.00  0.00    -0.226 NA 
HETATM   10  P   UNL     1      -9.689   9.141  68.791  1.00  0.00    -0.171 P  
HETATM   11  H   UNL     1     -10.578   8.889  70.855  1.00  0.00     0.000 HD 
HETATM   12  O   UNL     1     -10.548  10.541  68.553  1.00  0.00    -0.182 OA 
HETATM   13  O   UNL     1     -10.719   8.346  67.652  1.00  0.00    -0.218 OA 
HETATM   14  O   UNL     1      -8.766   9.851  69.812  1.00  0.00    -0.194 OA 
BRANCH  13  15
HETATM   15  C   UNL     1     -10.207   7.291  66.941  1.00  0.00    -0.269 A  
HETATM   16  C   UNL     1      -9.260   5.021  65.635  1.00  0.00    -0.161 A  
HETATM   17  C   UNL     1     -11.010   6.155  66.852  1.00  0.00    -0.384 A  
HETATM   18  C   UNL     1      -8.945   7.311  66.348  1.00  0.00    -0.184 A  
HETATM   19  C   UNL     1     -10.534   5.017  66.203  1.00  0.00    -0.334 A  
HETATM   20  C   UNL     1      -8.471   6.168  65.700  1.00  0.00    -0.151 A  
ENDBRANCH  13  15
BRANCH  12  21
HETATM   21  C   UNL     1      -9.805  11.656  68.024  1.00  0.00    -0.190 C  
BRANCH  21  22
HETATM   22  C   UNL     1     -10.147  13.083  68.549  1.00  0.00    -0.192 C  
HETATM   23  O   UNL     1      -9.194  14.045  68.045  1.00  0.00    -0.187 OA 
HETATM   24  C   UNL     1     -11.282  15.115  67.825  1.00  0.00    -0.323 C  
HETATM   25  H   UNL     1     -13.371  13.871  68.941  1.00  0.00     0.000 HD 
HETATM   26  C   UNL     1     -11.537  13.635  68.154  1.00  0.00    -0.332 C  
HETATM   27  O   UNL     1     -12.516  13.532  69.184  1.00  0.00    -0.156 OA 
HETATM   28  F   UNL     1     -12.140  15.905  68.527  1.00  0.00    -0.362 F  
HETATM   29  C   UNL     1     -11.535  15.368  66.347  1.00  0.00     0.001 C  
HETATM   30  C   UNL     1      -9.837  15.314  68.288  1.00  0.00    -0.218 C  
BRANCH  30  31
HETATM   31  N   UNL     1      -9.080  16.396  67.651  1.00  0.00    -0.198 N  
HETATM   32  C   UNL     1      -8.134  16.131  66.677  1.00  0.00    -0.288 C  
HETATM   33  C   UNL     1      -7.362  17.084  66.159  1.00  0.00    -0.225 C  
HETATM   34  C   UNL     1      -7.508  18.461  66.656  1.00  0.00    -0.229 C  
HETATM   35  O   UNL     1      -6.726  19.340  66.316  1.00  0.00    -0.194 OA 
HETATM   36  N   UNL     1      -8.545  18.670  67.515  1.00  0.00    -0.268 N  
HETATM   37  H   UNL     1      -8.766  19.638  67.750  1.00  0.00     0.000 HD 
HETATM   38  C   UNL     1      -9.319  17.695  68.093  1.00  0.00    -0.279 C  
HETATM   39  O   UNL     1     -10.135  17.990  68.957  1.00  0.00    -0.377 OA 
ENDBRANCH  30  31
ENDBRANCH  21  22
ENDBRANCH  12  21
ENDBRANCH   7   9
ENDBRANCH   5   7
ENDBRANCH   4   5
ENDBRANCH   2   4
TORSDOF 8
ENDMDL
MODEL      157
REMARK 921   NORMALIZED FREE ENERGY PREDICTED BY IDOCK:   -2.54 KCAL/MOL
REMARK 922        TOTAL FREE ENERGY PREDICTED BY IDOCK:   -6.28 KCAL/MOL
REMARK 923 INTER-LIGAND FREE ENERGY PREDICTED BY IDOCK:   -7.41 KCAL/MOL
REMARK 924 INTRA-LIGAND FREE ENERGY PREDICTED BY IDOCK:    1.13 KCAL/MOL
REMARK 927      BINDING AFFINITY PREDICTED BY RF-SCORE:    0.00 PKD
ROOT
HETATM    1  C   UNL     1     -11.705  16.021  64.335  1.00  0.00    -0.134 C  
HETATM    2  C   UNL     1     -10.356  15.660  64.945  1.00  0.00    -0.129 C  
HETATM    3  C   UNL     1      -9.861  16.801  65.831  1.00  0.00    -0.276 C  
ENDROOT
BRANCH   2   4
HETATM    4  O   UNL     1     -10.493  14.487  65.771  1.00  0.00    -0.293 OA 
BRANCH   4   5
HETATM    5  C   UNL     1     -10.810  13.326  65.121  1.00  0.00    -0.310 C  
HETATM    6  O   UNL     1     -10.243  12.901  64.122  1.00  0.00    -0.391 OA 
BRANCH   5   7
HETATM    7  C   UNL     1     -11.932  12.599  65.867  1.00  0.00    -0.438 C  
HETATM    8  C   UNL     1     -12.526  13.565  66.892  1.00  0.00    -0.162 C  
BRANCH   7   9
HETATM    9  N   UNL     1     -11.429  11.338  66.467  1.00  0.00    -0.308 NA 
HETATM   10  P   UNL     1      -9.948  11.480  67.278  1.00  0.00    -0.195 P  
HETATM   11  H   UNL     1     -11.376  10.606  65.758  1.00  0.00     0.000 HD 
HETATM   12  O   UNL     1      -9.618   9.972  67.888  1.00  0.00    -0.144 OA 
HETATM   13  O   UNL     1     -10.836  11.838  68.718  1.00  0.00    -0.211 OA 
HETATM   14  O   UNL     1      -9.153  11.160  65.988  1.00  0.00    -0.192 OA 
BRANCH  13  15
HETATM   15  C   UNL     1     -10.910  13.145  69.126  1.00  0.00    -0.094 A  
HETATM   16  C   UNL     1     -11.268  15.785  69.937  1.00  0.00    -0.335 A  
HETATM   17  C   UNL     1     -11.991  13.482  69.939  1.00  0.00    -0.416 A  
HETATM   18  C   UNL     1      -9.984  14.117  68.745  1.00  0.00    -0.184 A  
HETATM   19  C   UNL     1     -12.174  14.805  70.340  1.00  0.00    -0.395 A  
HETATM   20  C   UNL     1     -10.171  15.441  69.149  1.00  0.00    -0.239 A  
ENDBRANCH  13  15
BRANCH  12  21
HETATM   21  C   UNL     1      -8.226   9.664  68.095  1.00  0.00    -0.106 C  
BRANCH  21  22
HETATM   22  C   UNL     1      -7.854   8.235  68.594  1.00  0.00    -0.120 C  
HETATM   23  O   UNL     1      -8.585   7.919  69.800  1.00  0.00    -0.130 OA 
HETATM   24  C   UNL     1      -8.703   5.951  68.509  1.00  0.00    -0.112 C  
HETATM   25  H   UNL     1      -7.204   5.899  66.294  1.00  0.00     0.000 HD 
HETATM   26  C   UNL     1      -8.157   7.076  67.614  1.00  0.00    -0.114 C  
HETATM   27  O   UNL     1      -7.018   6.611  66.896  1.00  0.00    -0.063 OA 
HETATM   28  F   UNL     1      -8.016   4.798  68.281  1.00  0.00    -0.082 F  
HETATM   29  C   UNL     1     -10.162   5.686  68.175  1.00  0.00    -0.236 C  
HETATM   30  C   UNL     1      -8.436   6.488  69.917  1.00  0.00    -0.135 C  
BRANCH  30  31
HETATM   31  N   UNL     1      -9.291   5.977  70.994  1.00  0.00    -0.160 N  
HETATM   32  C   UNL     1     -10.393   6.688  71.432  1.00  0.00    -0.200 C  
HETATM   33  C   UNL     1     -11.122   6.296  72.475  1.00  0.00    -0.307 C  
HETATM   34  C   UNL     1     -10.727   5.076  73.196  1.00  0.00    -0.257 C  
HETATM   35  O   UNL     1     -11.278   4.756  74.242  1.00  0.00    -0.194 OA 
HETATM   36  N   UNL     1      -9.717   4.358  72.629  1.00  0.00    -0.144 N  
HETATM   37  H   UNL     1      -9.531   3.432  73.016  1.00  0.00     0.000 HD 
HETATM   38  C   UNL     1      -8.927   4.770  71.585  1.00  0.00    -0.134 C  
HETATM   39  O   UNL     1      -7.959   4.100  71.246  1.00  0.00    -0.069 OA 
ENDBRANCH  30  31
ENDBRANCH  21  22
ENDBRANCH  12  21
ENDBRANCH   7   9
ENDBRANCH   5   7
ENDBRANCH   4   5
ENDBRANCH   2   4
TORSDOF 8
ENDMDL
MODEL      158
REMARK 921   NORMALIZED FREE ENERGY PREDICTED BY IDOCK:   -2.52 KCAL/MOL
REMARK 922        TOTAL FREE ENERGY PREDICTED BY IDOCK:   -6.25 KCAL/MOL
REMARK 923 INTER-LIGAND FREE ENERGY PREDICTED BY IDOCK:   -8.55 KCAL/MOL
REMARK 924 INTRA-LIGAND FREE ENERGY PREDICTED BY IDOCK:    2.30 KCAL/MOL
REMARK 927      BINDING AFFINITY PREDICTED BY RF-SCORE:    0.00 PKD
ROOT
HETATM    1  C   UNL     1     -10.573   4.666  65.858  1.00  0.00    -0.265 C  
HETATM    2  C   UNL     1     -10.085   5.799  66.752  1.00  0.00    -0.196 C  
HETATM    3  C   UNL     1     -11.265   6.662  67.195  1.00  0.00    -0.306 C  
ENDROOT
BRANCH   2   4
HETATM    4  O   UNL     1      -9.468   5.256  67.936  1.00  0.00    -0.116 OA 
BRANCH   4   5
HETATM    5  C   UNL     1      -8.122   5.463  68.064  1.00  0.00    -0.096 C  
HETATM    6  O   UNL     1      -7.269   5.046  67.289  1.00  0.00    -0.074 OA 
BRANCH   5   7
HETATM    7  C   UNL     1      -7.842   6.351  69.279  1.00  0.00    -0.106 C  
HETATM    8  C   UNL     1      -9.166   6.603  69.999  1.00  0.00    -0.158 C  
BRANCH   7   9
HETATM    9  N   UNL     1      -7.147   7.596  68.868  1.00  0.00    -0.077 NA 
HETATM   10  P   UNL     1      -8.170   8.833  68.325  1.00  0.00    -0.119 P  
HETATM   11  H   UNL     1      -6.438   7.389  68.164  1.00  0.00     0.000 HD 
HETATM   12  O   UNL     1      -7.181  10.116  67.966  1.00  0.00    -0.083 OA 
HETATM   13  O   UNL     1      -8.261   9.396  69.958  1.00  0.00    -0.124 OA 
HETATM   14  O   UNL     1      -8.089   8.328  66.863  1.00  0.00    -0.101 OA 
BRANCH  13  15
HETATM   15  C   UNL     1      -9.390   9.108  70.681  1.00  0.00    -0.258 A  
HETATM   16  C   UNL     1     -11.581   8.359  72.229  1.00  0.00    -0.453 A  
HETATM   17  C   UNL     1      -9.193   8.597  71.963  1.00  0.00    -0.338 A  
HETATM   18  C   UNL     1     -10.681   9.280  70.182  1.00  0.00    -0.269 A  
HETATM   19  C   UNL     1     -10.289   8.217  72.736  1.00  0.00    -0.384 A  
HETATM   20  C   UNL     1     -11.777   8.898  70.959  1.00  0.00    -0.340 A  
ENDBRANCH  13  15
BRANCH  12  21
HETATM   21  C   UNL     1      -7.677  11.040  66.978  1.00  0.00    -0.134 C  
BRANCH  21  22
HETATM   22  C   UNL     1      -9.117  11.609  67.160  1.00  0.00    -0.171 C  
HETATM   23  O   UNL     1      -9.106  13.049  67.045  1.00  0.00    -0.216 OA 
HETATM   24  C   UNL     1     -11.001  12.376  65.818  1.00  0.00    -0.298 C  
HETATM   25  H   UNL     1     -11.670   9.792  65.997  1.00  0.00     0.000 HD 
HETATM   26  C   UNL     1     -10.170  11.122  66.136  1.00  0.00    -0.244 C  
HETATM   27  O   UNL     1     -11.022  10.091  66.626  1.00  0.00    -0.056 OA 
HETATM   28  F   UNL     1     -12.327  12.114  65.986  1.00  0.00    -0.388 F  
HETATM   29  C   UNL     1     -10.797  12.778  64.366  1.00  0.00    -0.395 C  
HETATM   30  C   UNL     1     -10.498  13.381  66.856  1.00  0.00    -0.273 C  
BRANCH  30  31
HETATM   31  N   UNL     1     -10.638  14.803  66.525  1.00  0.00    -0.293 N  
HETATM   32  C   UNL     1     -10.765  15.224  65.213  1.00  0.00    -0.415 C  
HETATM   33  C   UNL     1     -10.789  16.513  64.881  1.00  0.00    -0.222 C  
HETATM   34  C   UNL     1     -10.658  17.521  65.944  1.00  0.00    -0.203 C  
HETATM   35  O   UNL     1     -10.532  18.709  65.675  1.00  0.00    -0.603 OA 
HETATM   36  N   UNL     1     -10.672  17.037  67.219  1.00  0.00    -0.260 N  
HETATM   37  H   UNL     1     -10.743  17.720  67.974  1.00  0.00     0.000 HD 
HETATM   38  C   UNL     1     -10.599  15.715  67.577  1.00  0.00    -0.297 C  
HETATM   39  O   UNL     1     -10.481  15.403  68.755  1.00  0.00    -0.220 OA 
ENDBRANCH  30  31
ENDBRANCH  21  22
ENDBRANCH  12  21
ENDBRANCH   7   9
ENDBRANCH   5   7
ENDBRANCH   4   5
ENDBRANCH   2   4
TORSDOF 8
ENDMDL
MODEL      159
REMARK 921   NORMALIZED FREE ENERGY PREDICTED BY IDOCK:   -2.52 KCAL/MOL
REMARK 922        TOTAL FREE ENERGY PREDICTED BY IDOCK:   -6.25 KCAL/MOL
REMARK 923 INTER-LIGAND FREE ENERGY PREDICTED BY IDOCK:   -4.87 KCAL/MOL
REMARK 924 INTRA-LIGAND FREE ENERGY PREDICTED BY IDOCK:   -1.38 KCAL/MOL
REMARK 927      BINDING AFFINITY PREDICTED BY RF-SCORE:    0.00 PKD
ROOT
HETATM    1  C   UNL     1      -8.130   7.966  74.420  1.00  0.00    -0.293 C  
HETATM    2  C   UNL     1      -8.266   6.463  74.210  1.00  0.00    -0.124 C  
HETATM    3  C   UNL     1      -9.691   6.017  74.530  1.00  0.00    -0.263 C  
ENDROOT
BRANCH   2   4
HETATM    4  O   UNL     1      -8.001   6.136  72.832  1.00  0.00    -0.105 OA 
BRANCH   4   5
HETATM    5  C   UNL     1      -7.765   4.817  72.558  1.00  0.00    -0.092 C  
HETATM    6  O   UNL     1      -6.902   4.131  73.094  1.00  0.00    -0.052 OA 
BRANCH   5   7
HETATM    7  C   UNL     1      -8.782   4.304  71.536  1.00  0.00    -0.112 C  
HETATM    8  C   UNL     1      -9.567   3.160  72.178  1.00  0.00    -0.209 C  
BRANCH   7   9
HETATM    9  N   UNL     1      -8.105   3.919  70.273  1.00  0.00    -0.050 NA 
HETATM   10  P   UNL     1      -8.767   4.608  68.873  1.00  0.00    -0.095 P  
HETATM   11  H   UNL     1      -8.071   2.903  70.185  1.00  0.00     0.000 HD 
HETATM   12  O   UNL     1      -7.830   4.070  67.614  1.00  0.00    -0.088 OA 
HETATM   13  O   UNL     1      -7.679   5.936  69.080  1.00  0.00    -0.087 OA 
HETATM   14  O   UNL     1      -9.743   3.419  68.689  1.00  0.00    -0.116 OA 
BRANCH  13  15
HETATM   15  C   UNL     1      -8.173   7.105  69.600  1.00  0.00    -0.131 A  
HETATM   16  C   UNL     1      -9.341   9.457  70.527  1.00  0.00    -0.319 A  
HETATM   17  C   UNL     1      -9.557   7.183  69.745  1.00  0.00    -0.155 A  
HETATM   18  C   UNL     1      -7.365   8.186  69.951  1.00  0.00    -0.065 A  
HETATM   19  C   UNL     1     -10.143   8.363  70.203  1.00  0.00    -0.193 A  
HETATM   20  C   UNL     1      -7.955   9.366  70.410  1.00  0.00    -0.190 A  
ENDBRANCH  13  15
BRANCH  12  21
HETATM   21  C   UNL     1      -8.474   4.009  66.327  1.00  0.00    -0.109 C  
BRANCH  21  22
HETATM   22  C   UNL     1      -8.010   5.008  65.224  1.00  0.00    -0.102 C  
HETATM   23  O   UNL     1      -8.813   6.208  65.264  1.00  0.00    -0.089 OA 
HETATM   24  C   UNL     1      -6.608   6.986  64.971  1.00  0.00    -0.046 C  
HETATM   25  H   UNL     1      -4.751   5.121  64.493  1.00  0.00     0.000 HD 
HETATM   26  C   UNL     1      -6.543   5.491  65.323  1.00  0.00    -0.040 C  
HETATM   27  O   UNL     1      -5.652   4.825  64.433  1.00  0.00    -0.013 OA 
HETATM   28  F   UNL     1      -5.715   7.274  63.984  1.00  0.00    -0.031 F  
HETATM   29  C   UNL     1      -6.231   7.821  66.185  1.00  0.00    -0.045 C  
HETATM   30  C   UNL     1      -8.049   7.150  64.481  1.00  0.00    -0.069 C  
BRANCH  30  31
HETATM   31  N   UNL     1      -8.637   8.490  64.586  1.00  0.00    -0.111 N  
HETATM   32  C   UNL     1      -8.393   9.455  63.625  1.00  0.00    -0.184 C  
HETATM   33  C   UNL     1      -8.829  10.707  63.751  1.00  0.00    -0.178 C  
HETATM   34  C   UNL     1      -9.578  11.077  64.961  1.00  0.00    -0.247 C  
HETATM   35  O   UNL     1      -9.875  12.244  65.186  1.00  0.00    -0.241 OA 
HETATM   36  N   UNL     1      -9.895  10.047  65.796  1.00  0.00    -0.260 N  
HETATM   37  H   UNL     1     -10.546  10.248  66.556  1.00  0.00     0.000 HD 
HETATM   38  C   UNL     1      -9.415   8.765  65.707  1.00  0.00    -0.169 C  
HETATM   39  O   UNL     1      -9.658   7.954  66.593  1.00  0.00    -0.197 OA 
ENDBRANCH  30  31
ENDBRANCH  21  22
ENDBRANCH  12  21
ENDBRANCH   7   9
ENDBRANCH   5   7
ENDBRANCH   4   5
ENDBRANCH   2   4
TORSDOF 8
ENDMDL
MODEL      160
REMARK 921   NORMALIZED FREE ENERGY PREDICTED BY IDOCK:   -2.52 KCAL/MOL
REMARK 922        TOTAL FREE ENERGY PREDICTED BY IDOCK:   -6.24 KCAL/MOL
REMARK 923 INTER-LIGAND FREE ENERGY PREDICTED BY IDOCK:   -6.74 KCAL/MOL
REMARK 924 INTRA-LIGAND FREE ENERGY PREDICTED BY IDOCK:    0.49 KCAL/MOL
REMARK 927      BINDING AFFINITY PREDICTED BY RF-SCORE:    0.00 PKD
ROOT
HETATM    1  C   UNL     1     -12.420  12.475  64.300  1.00  0.00    -0.520 C  
HETATM    2  C   UNL     1     -11.137  11.653  64.247  1.00  0.00    -0.338 C  
HETATM    3  C   UNL     1     -10.059  12.416  63.481  1.00  0.00    -0.250 C  
ENDROOT
BRANCH   2   4
HETATM    4  O   UNL     1     -10.650  11.423  65.583  1.00  0.00    -0.255 OA 
BRANCH   4   5
HETATM    5  C   UNL     1      -9.651  10.497  65.710  1.00  0.00    -0.210 C  
HETATM    6  O   UNL     1      -9.635   9.401  65.162  1.00  0.00    -0.256 OA 
BRANCH   5   7
HETATM    7  C   UNL     1      -8.525  11.057  66.582  1.00  0.00    -0.153 C  
HETATM    8  C   UNL     1      -7.271  10.219  66.336  1.00  0.00    -0.113 C  
BRANCH   7   9
HETATM    9  N   UNL     1      -8.938  11.097  68.007  1.00  0.00    -0.143 NA 
HETATM   10  P   UNL     1      -9.913   9.801  68.500  1.00  0.00    -0.175 P  
HETATM   11  H   UNL     1      -9.396  11.984  68.218  1.00  0.00     0.000 HD 
HETATM   12  O   UNL     1     -10.207  10.042  70.115  1.00  0.00    -0.262 OA 
HETATM   13  O   UNL     1      -8.469   8.947  68.918  1.00  0.00    -0.127 OA 
HETATM   14  O   UNL     1     -11.206  10.566  68.124  1.00  0.00    -0.282 OA 
BRANCH  13  15
HETATM   15  C   UNL     1      -8.022   7.973  68.063  1.00  0.00    -0.128 A  
HETATM   16  C   UNL     1      -7.279   5.880  66.382  1.00  0.00    -0.077 A  
HETATM   17  C   UNL     1      -8.997   7.259  67.369  1.00  0.00    -0.122 A  
HETATM   18  C   UNL     1      -6.671   7.668  67.893  1.00  0.00    -0.067 A  
HETATM   19  C   UNL     1      -8.626   6.208  66.532  1.00  0.00    -0.126 A  
HETATM   20  C   UNL     1      -6.303   6.614  67.054  1.00  0.00    -0.041 A  
ENDBRANCH  13  15
BRANCH  12  21
HETATM   21  C   UNL     1     -11.423   9.466  70.630  1.00  0.00    -0.284 C  
BRANCH  21  22
HETATM   22  C   UNL     1     -11.471   7.922  70.846  1.00  0.00    -0.281 C  
HETATM   23  O   UNL     1     -10.136   7.370  70.818  1.00  0.00    -0.190 OA 
HETATM   24  C   UNL     1     -11.186   6.280  72.624  1.00  0.00    -0.267 C  
HETATM   25  H   UNL     1     -13.813   6.707  72.898  1.00  0.00     0.000 HD 
HETATM   26  C   UNL     1     -12.086   7.446  72.184  1.00  0.00    -0.252 C  
HETATM   27  O   UNL     1     -13.434   7.000  72.076  1.00  0.00    -0.224 OA 
HETATM   28  F   UNL     1     -11.943   5.181  72.895  1.00  0.00    -0.363 F  
HETATM   29  C   UNL     1     -10.446   6.650  73.900  1.00  0.00    -0.351 C  
HETATM   30  C   UNL     1     -10.304   6.057  71.393  1.00  0.00    -0.220 C  
BRANCH  30  31
HETATM   31  N   UNL     1      -8.997   5.432  71.618  1.00  0.00    -0.135 N  
HETATM   32  C   UNL     1      -7.835   6.183  71.624  1.00  0.00    -0.102 C  
HETATM   33  C   UNL     1      -6.630   5.626  71.723  1.00  0.00    -0.053 C  
HETATM   34  C   UNL     1      -6.533   4.161  71.808  1.00  0.00    -0.018 C  
HETATM   35  O   UNL     1      -5.447   3.598  71.756  1.00  0.00    -0.007 OA 
HETATM   36  N   UNL     1      -7.717   3.498  71.931  1.00  0.00    -0.057 N  
HETATM   37  H   UNL     1      -7.672   2.503  72.152  1.00  0.00     0.000 HD 
HETATM   38  C   UNL     1      -8.965   4.050  71.785  1.00  0.00    -0.118 C  
HETATM   39  O   UNL     1      -9.958   3.332  71.781  1.00  0.00    -0.170 OA 
ENDBRANCH  30  31
ENDBRANCH  21  22
ENDBRANCH  12  21
ENDBRANCH   7   9
ENDBRANCH   5   7
ENDBRANCH   4   5
ENDBRANCH   2   4
TORSDOF 8
ENDMDL
MODEL      161
REMARK 921   NORMALIZED FREE ENERGY PREDICTED BY IDOCK:   -2.49 KCAL/MOL
REMARK 922        TOTAL FREE ENERGY PREDICTED BY IDOCK:   -6.21 KCAL/MOL
REMARK 923 INTER-LIGAND FREE ENERGY PREDICTED BY IDOCK:   -5.28 KCAL/MOL
REMARK 924 INTRA-LIGAND FREE ENERGY PREDICTED BY IDOCK:   -0.92 KCAL/MOL
REMARK 927      BINDING AFFINITY PREDICTED BY RF-SCORE:    0.00 PKD
ROOT
HETATM    1  C   UNL     1     -11.253  16.698  71.176  1.00  0.00     0.193 C  
HETATM    2  C   UNL     1     -11.379  16.519  69.668  1.00  0.00    -0.073 C  
HETATM    3  C   UNL     1     -10.419  17.463  68.948  1.00  0.00    -0.312 C  
ENDROOT
BRANCH   2   4
HETATM    4  O   UNL     1     -11.025  15.170  69.305  1.00  0.00    -0.234 OA 
BRANCH   4   5
HETATM    5  C   UNL     1     -11.343  14.784  68.032  1.00  0.00    -0.316 C  
HETATM    6  O   UNL     1     -12.379  15.077  67.447  1.00  0.00     0.090 OA 
BRANCH   5   7
HETATM    7  C   UNL     1     -10.186  13.990  67.421  1.00  0.00    -0.248 C  
HETATM    8  C   UNL     1     -10.706  13.274  66.175  1.00  0.00    -0.287 C  
BRANCH   7   9
HETATM    9  N   UNL     1      -9.594  13.072  68.425  1.00  0.00    -0.316 NA 
HETATM   10  P   UNL     1      -7.926  12.819  68.259  1.00  0.00    -0.121 P  
HETATM   11  H   UNL     1     -10.089  12.180  68.424  1.00  0.00     0.000 HD 
HETATM   12  O   UNL     1      -7.495  11.806  69.501  1.00  0.00     0.106 OA 
HETATM   13  O   UNL     1      -7.674  14.169  69.310  1.00  0.00    -0.039 OA 
HETATM   14  O   UNL     1      -8.153  11.610  67.317  1.00  0.00    -0.144 OA 
BRANCH  13  15
HETATM   15  C   UNL     1      -7.305  15.365  68.750  1.00  0.00    -0.135 A  
HETATM   16  C   UNL     1      -6.513  17.691  67.439  1.00  0.00    -0.177 A  
HETATM   17  C   UNL     1      -7.614  15.543  67.403  1.00  0.00    -0.231 A  
HETATM   18  C   UNL     1      -6.632  16.363  69.457  1.00  0.00    -0.210 A  
HETATM   19  C   UNL     1      -7.212  16.705  66.745  1.00  0.00    -0.272 A  
HETATM   20  C   UNL     1      -6.231  17.525  68.794  1.00  0.00    -0.188 A  
ENDBRANCH  13  15
BRANCH  12  21
HETATM   21  C   UNL     1      -6.330  10.988  69.274  1.00  0.00    -0.065 C  
BRANCH  21  22
HETATM   22  C   UNL     1      -6.445   9.456  69.537  1.00  0.00    -0.043 C  
HETATM   23  O   UNL     1      -7.691   9.153  70.203  1.00  0.00    -0.079 OA 
HETATM   24  C   UNL     1      -7.473   7.470  68.568  1.00  0.00    -0.108 C  
HETATM   25  H   UNL     1      -5.138   7.382  67.265  1.00  0.00     0.000 HD 
HETATM   26  C   UNL     1      -6.418   8.551  68.282  1.00  0.00    -0.060 C  
HETATM   27  O   UNL     1      -5.155   7.938  68.036  1.00  0.00    -0.029 OA 
HETATM   28  F   UNL     1      -6.933   6.232  68.395  1.00  0.00    -0.068 F  
HETATM   29  C   UNL     1      -8.629   7.603  67.589  1.00  0.00    -0.116 C  
HETATM   30  C   UNL     1      -7.821   7.725  70.036  1.00  0.00    -0.103 C  
BRANCH  30  31
HETATM   31  N   UNL     1      -9.143   7.281  70.491  1.00  0.00    -0.157 N  
HETATM   32  C   UNL     1     -10.293   7.949  70.110  1.00  0.00    -0.215 C  
HETATM   33  C   UNL     1     -11.492   7.629  70.592  1.00  0.00    -0.276 C  
HETATM   34  C   UNL     1     -11.592   6.541  71.577  1.00  0.00    -0.315 C  
HETATM   35  O   UNL     1     -12.647   6.307  72.152  1.00  0.00    -0.257 OA 
HETATM   36  N   UNL     1     -10.443   5.843  71.802  1.00  0.00    -0.219 N  
HETATM   37  H   UNL     1     -10.519   4.989  72.355  1.00  0.00     0.000 HD 
HETATM   38  C   UNL     1      -9.193   6.188  71.351  1.00  0.00    -0.143 C  
HETATM   39  O   UNL     1      -8.210   5.562  71.729  1.00  0.00    -0.116 OA 
ENDBRANCH  30  31
ENDBRANCH  21  22
ENDBRANCH  12  21
ENDBRANCH   7   9
ENDBRANCH   5   7
ENDBRANCH   4   5
ENDBRANCH   2   4
TORSDOF 8
ENDMDL
MODEL      162
REMARK 921   NORMALIZED FREE ENERGY PREDICTED BY IDOCK:   -2.43 KCAL/MOL
REMARK 922        TOTAL FREE ENERGY PREDICTED BY IDOCK:   -6.11 KCAL/MOL
REMARK 923 INTER-LIGAND FREE ENERGY PREDICTED BY IDOCK:   -6.43 KCAL/MOL
REMARK 924 INTRA-LIGAND FREE ENERGY PREDICTED BY IDOCK:    0.32 KCAL/MOL
REMARK 927      BINDING AFFINITY PREDICTED BY RF-SCORE:    0.00 PKD
ROOT
HETATM    1  C   UNL     1     -10.493   3.980  64.748  1.00  0.00    -0.194 C  
HETATM    2  C   UNL     1      -9.135   4.512  65.191  1.00  0.00    -0.150 C  
HETATM    3  C   UNL     1      -9.090   6.030  65.029  1.00  0.00     0.303 C  
ENDROOT
BRANCH   2   4
HETATM    4  O   UNL     1      -8.923   4.211  66.584  1.00  0.00    -0.115 OA 
BRANCH   4   5
HETATM    5  C   UNL     1      -8.045   5.021  67.250  1.00  0.00    -0.107 C  
HETATM    6  O   UNL     1      -6.870   5.185  66.946  1.00  0.00    -0.060 OA 
BRANCH   5   7
HETATM    7  C   UNL     1      -8.764   5.746  68.391  1.00  0.00    -0.111 C  
HETATM    8  C   UNL     1     -10.269   5.592  68.179  1.00  0.00    -0.232 C  
BRANCH   7   9
HETATM    9  N   UNL     1      -8.321   7.160  68.471  1.00  0.00    -0.124 NA 
HETATM   10  P   UNL     1      -9.572   8.285  68.673  1.00  0.00    -0.154 P  
HETATM   11  H   UNL     1      -7.757   7.401  67.656  1.00  0.00     0.000 HD 
HETATM   12  O   UNL     1      -8.837   9.770  68.775  1.00  0.00    -0.122 OA 
HETATM   13  O   UNL     1      -9.383   8.104  70.383  1.00  0.00    -0.157 OA 
HETATM   14  O   UNL     1      -9.742   8.447  67.142  1.00  0.00    -0.161 OA 
BRANCH  13  15
HETATM   15  C   UNL     1     -10.293   7.332  71.058  1.00  0.00    -0.199 A  
HETATM   16  C   UNL     1     -12.253   5.935  72.460  1.00  0.00    -0.023 A  
HETATM   17  C   UNL     1     -11.634   7.680  70.910  1.00  0.00    -0.299 A  
HETATM   18  C   UNL     1      -9.928   6.263  71.877  1.00  0.00    -0.193 A  
HETATM   19  C   UNL     1     -12.615   6.985  71.616  1.00  0.00    -0.419 A  
HETATM   20  C   UNL     1     -10.913   5.570  72.583  1.00  0.00    -0.320 A  
ENDBRANCH  13  15
BRANCH  12  21
HETATM   21  C   UNL     1      -9.633  10.900  68.371  1.00  0.00    -0.177 C  
BRANCH  21  22
HETATM   22  C   UNL     1      -8.938  12.039  67.564  1.00  0.00    -0.174 C  
HETATM   23  O   UNL     1      -9.616  13.295  67.785  1.00  0.00    -0.201 OA 
HETATM   24  C   UNL     1      -7.325  13.837  67.889  1.00  0.00    -0.153 C  
HETATM   25  H   UNL     1      -5.619  11.893  67.203  1.00  0.00     0.000 HD 
HETATM   26  C   UNL     1      -7.454  12.305  67.911  1.00  0.00    -0.121 C  
HETATM   27  O   UNL     1      -6.531  11.730  66.991  1.00  0.00    -0.135 OA 
HETATM   28  F   UNL     1      -6.293  14.207  67.083  1.00  0.00    -0.079 F  
HETATM   29  C   UNL     1      -7.019  14.351  69.287  1.00  0.00    -0.129 C  
HETATM   30  C   UNL     1      -8.671  14.275  67.306  1.00  0.00    -0.218 C  
BRANCH  30  31
HETATM   31  N   UNL     1      -9.130  15.627  67.641  1.00  0.00    -0.191 N  
HETATM   32  C   UNL     1      -8.698  16.728  66.923  1.00  0.00    -0.216 C  
HETATM   33  C   UNL     1      -9.018  17.972  67.272  1.00  0.00    -0.251 C  
HETATM   34  C   UNL     1      -9.841  18.182  68.473  1.00  0.00    -0.382 C  
HETATM   35  O   UNL     1     -10.041  19.307  68.912  1.00  0.00    -0.417 OA 
HETATM   36  N   UNL     1     -10.339  17.051  69.050  1.00  0.00    -0.319 N  
HETATM   37  H   UNL     1     -11.038  17.173  69.783  1.00  0.00     0.000 HD 
HETATM   38  C   UNL     1      -9.983  15.764  68.733  1.00  0.00    -0.214 C  
HETATM   39  O   UNL     1     -10.391  14.829  69.410  1.00  0.00    -0.217 OA 
ENDBRANCH  30  31
ENDBRANCH  21  22
ENDBRANCH  12  21
ENDBRANCH   7   9
ENDBRANCH   5   7
ENDBRANCH   4   5
ENDBRANCH   2   4
TORSDOF 8
ENDMDL
MODEL      163
REMARK 921   NORMALIZED FREE ENERGY PREDICTED BY IDOCK:   -2.41 KCAL/MOL
REMARK 922        TOTAL FREE ENERGY PREDICTED BY IDOCK:   -6.09 KCAL/MOL
REMARK 923 INTER-LIGAND FREE ENERGY PREDICTED BY IDOCK:   -7.48 KCAL/MOL
REMARK 924 INTRA-LIGAND FREE ENERGY PREDICTED BY IDOCK:    1.39 KCAL/MOL
REMARK 927      BINDING AFFINITY PREDICTED BY RF-SCORE:    0.00 PKD
ROOT
HETATM    1  C   UNL     1     -11.437  12.288  63.065  1.00  0.00    -0.056 C  
HETATM    2  C   UNL     1     -10.492  11.165  63.476  1.00  0.00    -0.358 C  
HETATM    3  C   UNL     1      -9.233  11.199  62.613  1.00  0.00    -0.357 C  
ENDROOT
BRANCH   2   4
HETATM    4  O   UNL     1     -10.091  11.343  64.849  1.00  0.00    -0.244 OA 
BRANCH   4   5
HETATM    5  C   UNL     1     -10.446  12.528  65.432  1.00  0.00    -0.282 C  
HETATM    6  O   UNL     1      -9.770  13.550  65.413  1.00  0.00    -0.160 OA 
BRANCH   5   7
HETATM    7  C   UNL     1     -11.840  12.411  66.052  1.00  0.00    -0.395 C  
HETATM    8  C   UNL     1     -12.337  13.819  66.375  1.00  0.00    -0.460 C  
BRANCH   7   9
HETATM    9  N   UNL     1     -11.813  11.509  67.231  1.00  0.00    -0.604 NA 
HETATM   10  P   UNL     1     -10.359  11.522  68.101  1.00  0.00    -0.211 P  
HETATM   11  H   UNL     1     -12.051  10.557  66.953  1.00  0.00     0.000 HD 
HETATM   12  O   UNL     1     -10.582  10.483  69.375  1.00  0.00    -0.213 OA 
HETATM   13  O   UNL     1     -11.012  12.801  69.064  1.00  0.00    -0.242 OA 
HETATM   14  O   UNL     1      -9.774  10.377  67.237  1.00  0.00    -0.160 OA 
BRANCH  13  15
HETATM   15  C   UNL     1     -10.593  14.082  68.812  1.00  0.00    -0.251 A  
HETATM   16  C   UNL     1      -9.565  16.637  68.397  1.00  0.00    -0.233 A  
HETATM   17  C   UNL     1      -9.237  14.249  68.535  1.00  0.00    -0.197 A  
HETATM   18  C   UNL     1     -11.447  15.185  68.846  1.00  0.00    -0.337 A  
HETATM   19  C   UNL     1      -8.721  15.529  68.333  1.00  0.00    -0.174 A  
HETATM   20  C   UNL     1     -10.926  16.465  68.644  1.00  0.00    -0.345 A  
ENDBRANCH  13  15
BRANCH  12  21
HETATM   21  C   UNL     1      -9.392   9.870  69.908  1.00  0.00    -0.216 C  
BRANCH  21  22
HETATM   22  C   UNL     1      -9.364   8.318  70.050  1.00  0.00    -0.162 C  
HETATM   23  O   UNL     1      -9.543   7.693  68.759  1.00  0.00    -0.151 OA 
HETATM   24  C   UNL     1      -7.823   6.449  69.782  1.00  0.00    -0.114 C  
HETATM   25  H   UNL     1      -7.336   6.998  72.355  1.00  0.00     0.000 HD 
HETATM   26  C   UNL     1      -8.060   7.714  70.622  1.00  0.00    -0.108 C  
HETATM   27  O   UNL     1      -8.137   7.369  72.002  1.00  0.00    -0.092 OA 
HETATM   28  F   UNL     1      -7.642   5.373  70.597  1.00  0.00    -0.071 F  
HETATM   29  C   UNL     1      -6.559   6.608  68.951  1.00  0.00    -0.051 C  
HETATM   30  C   UNL     1      -9.124   6.330  68.985  1.00  0.00    -0.129 C  
BRANCH  30  31
HETATM   31  N   UNL     1      -9.059   5.603  67.713  1.00  0.00    -0.108 N  
HETATM   32  C   UNL     1      -8.859   6.269  66.517  1.00  0.00    -0.138 C  
HETATM   33  C   UNL     1      -8.900   5.644  65.343  1.00  0.00    -0.112 C  
HETATM   34  C   UNL     1      -9.187   4.202  65.317  1.00  0.00    -0.152 C  
HETATM   35  O   UNL     1      -9.376   3.616  64.259  1.00  0.00    -0.128 OA 
HETATM   36  N   UNL     1      -9.240   3.590  66.534  1.00  0.00    -0.164 N  
HETATM   37  H   UNL     1      -9.278   2.571  66.540  1.00  0.00     0.000 HD 
HETATM   38  C   UNL     1      -9.247   4.224  67.751  1.00  0.00    -0.145 C  
HETATM   39  O   UNL     1      -9.436   3.582  68.777  1.00  0.00    -0.164 OA 
ENDBRANCH  30  31
ENDBRANCH  21  22
ENDBRANCH  12  21
ENDBRANCH   7   9
ENDBRANCH   5   7
ENDBRANCH   4   5
ENDBRANCH   2   4
TORSDOF 8
ENDMDL
MODEL      164
REMARK 921   NORMALIZED FREE ENERGY PREDICTED BY IDOCK:   -2.34 KCAL/MOL
REMARK 922        TOTAL FREE ENERGY PREDICTED BY IDOCK:   -5.99 KCAL/MOL
REMARK 923 INTER-LIGAND FREE ENERGY PREDICTED BY IDOCK:   -7.21 KCAL/MOL
REMARK 924 INTRA-LIGAND FREE ENERGY PREDICTED BY IDOCK:    1.22 KCAL/MOL
REMARK 927      BINDING AFFINITY PREDICTED BY RF-SCORE:    0.00 PKD
ROOT
HETATM    1  C   UNL     1      -9.676   3.913  69.051  1.00  0.00    -0.129 C  
HETATM    2  C   UNL     1      -9.781   3.621  70.543  1.00  0.00    -0.140 C  
HETATM    3  C   UNL     1      -8.462   3.053  71.060  1.00  0.00    -0.096 C  
ENDROOT
BRANCH   2   4
HETATM    4  O   UNL     1     -10.047   4.842  71.261  1.00  0.00    -0.190 OA 
BRANCH   4   5
HETATM    5  C   UNL     1      -9.449   5.972  70.774  1.00  0.00    -0.168 C  
HETATM    6  O   UNL     1      -8.375   6.001  70.186  1.00  0.00    -0.116 OA 
BRANCH   5   7
HETATM    7  C   UNL     1     -10.352   7.185  71.008  1.00  0.00    -0.196 C  
HETATM    8  C   UNL     1     -11.664   6.692  71.618  1.00  0.00    -0.362 C  
BRANCH   7   9
HETATM    9  N   UNL     1     -10.538   7.949  69.749  1.00  0.00    -0.240 NA 
HETATM   10  P   UNL     1     -10.257   9.615  69.881  1.00  0.00    -0.281 P  
HETATM   11  H   UNL     1     -11.467   7.776  69.364  1.00  0.00     0.000 HD 
HETATM   12  O   UNL     1     -10.484  10.237  68.359  1.00  0.00    -0.180 OA 
HETATM   13  O   UNL     1      -8.602   9.311  69.481  1.00  0.00    -0.130 OA 
HETATM   14  O   UNL     1     -11.739   9.887  70.241  1.00  0.00    -0.253 OA 
BRANCH  13  15
HETATM   15  C   UNL     1      -7.678   9.318  70.493  1.00  0.00    -0.148 A  
HETATM   16  C   UNL     1      -5.652   9.328  72.405  1.00  0.00    -0.043 A  
HETATM   17  C   UNL     1      -6.507  10.035  70.260  1.00  0.00    -0.117 A  
HETATM   18  C   UNL     1      -7.858   8.633  71.695  1.00  0.00    -0.153 A  
HETATM   19  C   UNL     1      -5.490  10.036  71.215  1.00  0.00    -0.075 A  
HETATM   20  C   UNL     1      -6.837   8.635  72.649  1.00  0.00    -0.021 A  
ENDBRANCH  13  15
BRANCH  12  21
HETATM   21  C   UNL     1     -10.878  11.621  68.294  1.00  0.00    -0.219 C  
BRANCH  21  22
HETATM   22  C   UNL     1      -9.995  12.599  67.461  1.00  0.00    -0.205 C  
HETATM   23  O   UNL     1     -10.515  13.944  67.551  1.00  0.00    -0.246 OA 
HETATM   24  C   UNL     1      -8.182  14.198  67.771  1.00  0.00    -0.169 C  
HETATM   25  H   UNL     1      -6.708  12.009  67.334  1.00  0.00     0.000 HD 
HETATM   26  C   UNL     1      -8.511  12.701  67.888  1.00  0.00    -0.173 C  
HETATM   27  O   UNL     1      -7.620  11.947  67.072  1.00  0.00    -0.151 OA 
HETATM   28  F   UNL     1      -7.065  14.374  67.013  1.00  0.00    -0.157 F  
HETATM   29  C   UNL     1      -7.893  14.773  69.149  1.00  0.00    -0.141 C  
HETATM   30  C   UNL     1      -9.423  14.758  67.072  1.00  0.00    -0.231 C  
BRANCH  30  31
HETATM   31  N   UNL     1      -9.720  16.179  67.283  1.00  0.00    -0.231 N  
HETATM   32  C   UNL     1      -8.980  17.166  66.656  1.00  0.00    -0.253 C  
HETATM   33  C   UNL     1      -9.163  18.459  66.913  1.00  0.00    -0.287 C  
HETATM   34  C   UNL     1     -10.171  18.848  67.910  1.00  0.00    -0.394 C  
HETATM   35  O   UNL     1     -10.274  20.010  68.282  1.00  0.00    -0.433 OA 
HETATM   36  N   UNL     1     -10.950  17.835  68.386  1.00  0.00    -0.204 N  
HETATM   37  H   UNL     1     -11.756  18.097  68.954  1.00  0.00     0.000 HD 
HETATM   38  C   UNL     1     -10.745  16.496  68.169  1.00  0.00    -0.343 C  
HETATM   39  O   UNL     1     -11.428  15.667  68.760  1.00  0.00    -0.334 OA 
ENDBRANCH  30  31
ENDBRANCH  21  22
ENDBRANCH  12  21
ENDBRANCH   7   9
ENDBRANCH   5   7
ENDBRANCH   4   5
ENDBRANCH   2   4
TORSDOF 8
ENDMDL
MODEL      165
REMARK 921   NORMALIZED FREE ENERGY PREDICTED BY IDOCK:   -2.32 KCAL/MOL
REMARK 922        TOTAL FREE ENERGY PREDICTED BY IDOCK:   -5.96 KCAL/MOL
REMARK 923 INTER-LIGAND FREE ENERGY PREDICTED BY IDOCK:   -9.23 KCAL/MOL
REMARK 924 INTRA-LIGAND FREE ENERGY PREDICTED BY IDOCK:    3.27 KCAL/MOL
REMARK 927      BINDING AFFINITY PREDICTED BY RF-SCORE:    0.00 PKD
ROOT
HETATM    1  C   UNL     1      -8.727   4.555  70.156  1.00  0.00    -0.112 C  
HETATM    2  C   UNL     1      -9.704   4.283  71.293  1.00  0.00    -0.185 C  
HETATM    3  C   UNL     1      -9.166   3.172  72.191  1.00  0.00    -0.163 C  
ENDROOT
BRANCH   2   4
HETATM    4  O   UNL     1      -9.855   5.468  72.100  1.00  0.00    -0.159 OA 
BRANCH   4   5
HETATM    5  C   UNL     1      -8.699   6.035  72.562  1.00  0.00    -0.122 C  
HETATM    6  O   UNL     1      -7.570   5.626  72.320  1.00  0.00    -0.097 OA 
BRANCH   5   7
HETATM    7  C   UNL     1      -9.021   7.297  73.367  1.00  0.00    -0.162 C  
HETATM    8  C   UNL     1     -10.534   7.359  73.570  1.00  0.00    -0.396 C  
BRANCH   7   9
HETATM    9  N   UNL     1      -8.465   8.499  72.698  1.00  0.00    -0.370 NA 
HETATM   10  P   UNL     1      -8.817   8.617  71.044  1.00  0.00    -0.228 P  
HETATM   11  H   UNL     1      -7.457   8.554  72.850  1.00  0.00     0.000 HD 
HETATM   12  O   UNL     1      -8.134  10.042  70.535  1.00  0.00    -0.194 OA 
HETATM   13  O   UNL     1     -10.249   9.488  71.469  1.00  0.00    -0.247 OA 
HETATM   14  O   UNL     1      -7.534   7.837  70.664  1.00  0.00    -0.068 OA 
BRANCH  13  15
HETATM   15  C   UNL     1     -11.447   8.822  71.431  1.00  0.00    -0.297 A  
HETATM   16  C   UNL     1     -13.914   7.533  71.550  1.00  0.00    -0.522 A  
HETATM   17  C   UNL     1     -12.510   9.415  72.111  1.00  0.00    -0.396 A  
HETATM   18  C   UNL     1     -11.622   7.602  70.778  1.00  0.00    -0.284 A  
HETATM   19  C   UNL     1     -13.743   8.768  72.176  1.00  0.00    -0.498 A  
HETATM   20  C   UNL     1     -12.858   6.956  70.845  1.00  0.00    -0.134 A  
ENDBRANCH  13  15
BRANCH  12  21
HETATM   21  C   UNL     1      -7.775  10.109  69.142  1.00  0.00    -0.112 C  
BRANCH  21  22
HETATM   22  C   UNL     1      -8.810   9.603  68.090  1.00  0.00    -0.119 C  
HETATM   23  O   UNL     1      -9.598  10.707  67.591  1.00  0.00    -0.159 OA 
HETATM   24  C   UNL     1      -9.083   9.437  65.674  1.00  0.00    -0.207 C  
HETATM   25  H   UNL     1      -7.905   7.073  66.103  1.00  0.00     0.000 HD 
HETATM   26  C   UNL     1      -8.219   8.918  66.835  1.00  0.00    -0.112 C  
HETATM   27  O   UNL     1      -8.268   7.495  66.874  1.00  0.00    -0.119 OA 
HETATM   28  F   UNL     1      -9.560   8.391  64.944  1.00  0.00     0.230 F  
HETATM   29  C   UNL     1      -8.240  10.295  64.745  1.00  0.00    -0.163 C  
HETATM   30  C   UNL     1     -10.213  10.168  66.402  1.00  0.00    -0.221 C  
BRANCH  30  31
HETATM   31  N   UNL     1     -10.900  11.231  65.661  1.00  0.00    -0.220 N  
HETATM   32  C   UNL     1     -10.698  11.404  64.303  1.00  0.00    -0.356 C  
HETATM   33  C   UNL     1     -11.228  12.423  63.631  1.00  0.00    -0.544 C  
HETATM   34  C   UNL     1     -12.038  13.408  64.362  1.00  0.00    -0.416 C  
HETATM   35  O   UNL     1     -12.426  14.435  63.818  1.00  0.00    -0.814 OA 
HETATM   36  N   UNL     1     -12.304  13.103  65.664  1.00  0.00    -0.462 N  
HETATM   37  H   UNL     1     -12.992  13.683  66.147  1.00  0.00     0.000 HD 
HETATM   38  C   UNL     1     -11.730  12.084  66.383  1.00  0.00    -0.252 C  
HETATM   39  O   UNL     1     -11.941  11.987  67.586  1.00  0.00    -0.547 OA 
ENDBRANCH  30  31
ENDBRANCH  21  22
ENDBRANCH  12  21
ENDBRANCH   7   9
ENDBRANCH   5   7
ENDBRANCH   4   5
ENDBRANCH   2   4
TORSDOF 8
ENDMDL
MODEL      166
REMARK 921   NORMALIZED FREE ENERGY PREDICTED BY IDOCK:   -2.32 KCAL/MOL
REMARK 922        TOTAL FREE ENERGY PREDICTED BY IDOCK:   -5.96 KCAL/MOL
REMARK 923 INTER-LIGAND FREE ENERGY PREDICTED BY IDOCK:   -7.84 KCAL/MOL
REMARK 924 INTRA-LIGAND FREE ENERGY PREDICTED BY IDOCK:    1.88 KCAL/MOL
REMARK 927      BINDING AFFINITY PREDICTED BY RF-SCORE:    0.00 PKD
ROOT
HETATM    1  C   UNL     1      -8.388   6.269  65.123  1.00  0.00    -0.119 C  
HETATM    2  C   UNL     1      -7.661   5.437  66.172  1.00  0.00    -0.087 C  
HETATM    3  C   UNL     1      -6.413   4.802  65.563  1.00  0.00    -0.040 C  
ENDROOT
BRANCH   2   4
HETATM    4  O   UNL     1      -7.239   6.284  67.259  1.00  0.00    -0.075 OA 
BRANCH   4   5
HETATM    5  C   UNL     1      -8.007   6.241  68.391  1.00  0.00    -0.105 C  
HETATM    6  O   UNL     1      -9.149   5.801  68.448  1.00  0.00    -0.118 OA 
BRANCH   5   7
HETATM    7  C   UNL     1      -7.206   6.758  69.588  1.00  0.00    -0.081 C  
HETATM    8  C   UNL     1      -7.907   6.296  70.865  1.00  0.00    -0.107 C  
BRANCH   7   9
HETATM    9  N   UNL     1      -7.037   8.230  69.506  1.00  0.00    -0.053 NA 
HETATM   10  P   UNL     1      -8.418   9.076  69.006  1.00  0.00    -0.137 P  
HETATM   11  H   UNL     1      -6.244   8.463  68.909  1.00  0.00     0.000 HD 
HETATM   12  O   UNL     1      -8.001  10.682  69.031  1.00  0.00    -0.122 OA 
HETATM   13  O   UNL     1      -8.878   9.197  70.669  1.00  0.00    -0.194 OA 
HETATM   14  O   UNL     1      -8.006   8.966  67.517  1.00  0.00    -0.101 OA 
BRANCH  13  15
HETATM   15  C   UNL     1      -9.856   8.355  71.134  1.00  0.00    -0.192 A  
HETATM   16  C   UNL     1     -11.974   6.740  71.948  1.00  0.00    -0.374 A  
HETATM   17  C   UNL     1     -10.797   7.922  70.202  1.00  0.00    -0.243 A  
HETATM   18  C   UNL     1      -9.947   7.955  72.467  1.00  0.00    -0.312 A  
HETATM   19  C   UNL     1     -11.861   7.118  70.610  1.00  0.00    -0.334 A  
HETATM   20  C   UNL     1     -11.015   7.151  72.872  1.00  0.00    -0.359 A  
ENDBRANCH  13  15
BRANCH  12  21
HETATM   21  C   UNL     1      -8.735  11.540  68.136  1.00  0.00    -0.157 C  
BRANCH  21  22
HETATM   22  C   UNL     1      -9.559  12.713  68.751  1.00  0.00     0.097 C  
HETATM   23  O   UNL     1      -9.267  13.947  68.058  1.00  0.00    -0.180 OA 
HETATM   24  C   UNL     1     -11.607  13.968  68.339  1.00  0.00    -0.331 C  
HETATM   25  H   UNL     1     -12.630  12.036  69.882  1.00  0.00     0.000 HD 
HETATM   26  C   UNL     1     -11.097  12.561  68.693  1.00  0.00    -0.265 C  
HETATM   27  O   UNL     1     -11.684  12.129  69.917  1.00  0.00    -0.314 OA 
HETATM   28  F   UNL     1     -12.557  14.359  69.233  1.00  0.00    -0.301 F  
HETATM   29  C   UNL     1     -12.253  13.954  66.963  1.00  0.00    -0.392 C  
HETATM   30  C   UNL     1     -10.342  14.821  68.464  1.00  0.00    -0.237 C  
BRANCH  30  31
HETATM   31  N   UNL     1     -10.303  16.065  67.690  1.00  0.00    -0.277 N  
HETATM   32  C   UNL     1     -10.709  17.267  68.244  1.00  0.00    -0.349 C  
HETATM   33  C   UNL     1     -10.780  18.388  67.530  1.00  0.00    -0.399 C  
HETATM   34  C   UNL     1     -10.433  18.342  66.102  1.00  0.00    -0.395 C  
HETATM   35  O   UNL     1     -10.620  19.311  65.377  1.00  0.00    -0.492 OA 
HETATM   36  N   UNL     1      -9.916  17.161  65.659  1.00  0.00    -0.098 N  
HETATM   37  H   UNL     1      -9.521  17.151  64.718  1.00  0.00     0.000 HD 
HETATM   38  C   UNL     1      -9.880  15.986  66.366  1.00  0.00    -0.288 C  
HETATM   39  O   UNL     1      -9.517  14.951  65.819  1.00  0.00    -0.308 OA 
ENDBRANCH  30  31
ENDBRANCH  21  22
ENDBRANCH  12  21
ENDBRANCH   7   9
ENDBRANCH   5   7
ENDBRANCH   4   5
ENDBRANCH   2   4
TORSDOF 8
ENDMDL
MODEL      167
REMARK 921   NORMALIZED FREE ENERGY PREDICTED BY IDOCK:   -2.31 KCAL/MOL
REMARK 922        TOTAL FREE ENERGY PREDICTED BY IDOCK:   -5.94 KCAL/MOL
REMARK 923 INTER-LIGAND FREE ENERGY PREDICTED BY IDOCK:   -5.37 KCAL/MOL
REMARK 924 INTRA-LIGAND FREE ENERGY PREDICTED BY IDOCK:   -0.57 KCAL/MOL
REMARK 927      BINDING AFFINITY PREDICTED BY RF-SCORE:    0.00 PKD
ROOT
HETATM    1  C   UNL     1     -10.200   6.123  69.288  1.00  0.00    -0.251 C  
HETATM    2  C   UNL     1      -9.864   6.295  67.812  1.00  0.00    -0.121 C  
HETATM    3  C   UNL     1     -11.143   6.494  67.003  1.00  0.00    -0.411 C  
ENDROOT
BRANCH   2   4
HETATM    4  O   UNL     1      -9.042   7.465  67.631  1.00  0.00    -0.126 OA 
BRANCH   4   5
HETATM    5  C   UNL     1      -9.648   8.669  67.862  1.00  0.00    -0.149 C  
HETATM    6  O   UNL     1     -10.720   9.020  67.385  1.00  0.00    -0.271 OA 
BRANCH   5   7
HETATM    7  C   UNL     1      -8.823   9.488  68.859  1.00  0.00    -0.137 C  
HETATM    8  C   UNL     1      -9.591   9.544  70.179  1.00  0.00    -0.290 C  
BRANCH   7   9
HETATM    9  N   UNL     1      -8.510  10.827  68.301  1.00  0.00    -0.125 NA 
HETATM   10  P   UNL     1      -6.865  11.101  67.995  1.00  0.00    -0.071 P  
HETATM   11  H   UNL     1      -8.883  11.559  68.907  1.00  0.00     0.000 HD 
HETATM   12  O   UNL     1      -6.771  12.627  67.348  1.00  0.00    -0.146 OA 
HETATM   13  O   UNL     1      -7.115  10.471  66.404  1.00  0.00    -0.113 OA 
HETATM   14  O   UNL     1      -6.642  11.664  69.421  1.00  0.00    -0.099 OA 
BRANCH  13  15
HETATM   15  C   UNL     1      -6.703   9.190  66.142  1.00  0.00    -0.074 A  
HETATM   16  C   UNL     1      -5.681   6.640  65.685  1.00  0.00    -0.029 A  
HETATM   17  C   UNL     1      -5.810   8.626  67.051  1.00  0.00    -0.042 A  
HETATM   18  C   UNL     1      -7.117   8.469  65.021  1.00  0.00    -0.079 A  
HETATM   19  C   UNL     1      -5.294   7.352  66.820  1.00  0.00    -0.023 A  
HETATM   20  C   UNL     1      -6.597   7.194  64.792  1.00  0.00    -0.043 A  
ENDBRANCH  13  15
BRANCH  12  21
HETATM   21  C   UNL     1      -5.522  13.318  67.537  1.00  0.00     0.021 C  
BRANCH  21  22
HETATM   22  C   UNL     1      -5.554  14.727  68.203  1.00  0.00    -0.122 C  
HETATM   23  O   UNL     1      -5.338  15.756  67.212  1.00  0.00    -0.327 OA 
HETATM   24  C   UNL     1      -7.087  16.589  68.554  1.00  0.00    -0.164 C  
HETATM   25  H   UNL     1      -7.647  15.193  70.767  1.00  0.00     0.000 HD 
HETATM   26  C   UNL     1      -6.874  15.109  68.914  1.00  0.00    -0.120 C  
HETATM   27  O   UNL     1      -6.836  14.959  70.330  1.00  0.00    -0.147 OA 
HETATM   28  F   UNL     1      -7.290  17.320  69.684  1.00  0.00    -0.128 F  
HETATM   29  C   UNL     1      -8.326  16.738  67.685  1.00  0.00    -0.191 C  
HETATM   30  C   UNL     1      -5.763  16.961  67.882  1.00  0.00    -0.119 C  
BRANCH  30  31
HETATM   31  N   UNL     1      -5.792  18.083  66.937  1.00  0.00    -0.137 N  
HETATM   32  C   UNL     1      -6.001  17.874  65.585  1.00  0.00    -0.154 C  
HETATM   33  C   UNL     1      -5.928  18.863  64.696  1.00  0.00    -0.268 C  
HETATM   34  C   UNL     1      -5.594  20.215  65.166  1.00  0.00    -0.173 C  
HETATM   35  O   UNL     1      -5.376  21.122  64.373  1.00  0.00    -0.211 OA 
HETATM   36  N   UNL     1      -5.534  20.370  66.519  1.00  0.00    -0.169 N  
HETATM   37  H   UNL     1      -5.463  21.324  66.875  1.00  0.00     0.000 HD 
HETATM   38  C   UNL     1      -5.560  19.358  67.445  1.00  0.00    -0.168 C  
HETATM   39  O   UNL     1      -5.361  19.603  68.629  1.00  0.00    -0.193 OA 
ENDBRANCH  30  31
ENDBRANCH  21  22
ENDBRANCH  12  21
ENDBRANCH   7   9
ENDBRANCH   5   7
ENDBRANCH   4   5
ENDBRANCH   2   4
TORSDOF 8
ENDMDL
MODEL      168
REMARK 921   NORMALIZED FREE ENERGY PREDICTED BY IDOCK:   -2.29 KCAL/MOL
REMARK 922        TOTAL FREE ENERGY PREDICTED BY IDOCK:   -5.90 KCAL/MOL
REMARK 923 INTER-LIGAND FREE ENERGY PREDICTED BY IDOCK:   -6.30 KCAL/MOL
REMARK 924 INTRA-LIGAND FREE ENERGY PREDICTED BY IDOCK:    0.40 KCAL/MOL
REMARK 927      BINDING AFFINITY PREDICTED BY RF-SCORE:    0.00 PKD
ROOT
HETATM    1  C   UNL     1      -9.785   5.879  66.011  1.00  0.00    -0.019 C  
HETATM    2  C   UNL     1      -8.881   4.662  65.852  1.00  0.00    -0.124 C  
HETATM    3  C   UNL     1      -8.438   4.526  64.397  1.00  0.00    -0.122 C  
ENDROOT
BRANCH   2   4
HETATM    4  O   UNL     1      -7.698   4.825  66.659  1.00  0.00    -0.093 OA 
BRANCH   4   5
HETATM    5  C   UNL     1      -7.589   3.998  67.743  1.00  0.00    -0.068 C  
HETATM    6  O   UNL     1      -7.415   2.786  67.689  1.00  0.00    -0.056 OA 
BRANCH   5   7
HETATM    7  C   UNL     1      -7.646   4.817  69.035  1.00  0.00    -0.067 C  
HETATM    8  C   UNL     1      -8.924   4.438  69.782  1.00  0.00    -0.151 C  
BRANCH   7   9
HETATM    9  N   UNL     1      -7.544   6.267  68.738  1.00  0.00    -0.091 NA 
HETATM   10  P   UNL     1      -8.497   7.263  69.725  1.00  0.00    -0.137 P  
HETATM   11  H   UNL     1      -7.751   6.443  67.755  1.00  0.00     0.000 HD 
HETATM   12  O   UNL     1      -8.187   8.818  69.236  1.00  0.00    -0.105 OA 
HETATM   13  O   UNL     1      -7.158   7.367  70.815  1.00  0.00    -0.061 OA 
HETATM   14  O   UNL     1      -9.696   7.168  68.749  1.00  0.00    -0.144 OA 
BRANCH  13  15
HETATM   15  C   UNL     1      -7.192   6.610  71.958  1.00  0.00    -0.081 A  
HETATM   16  C   UNL     1      -7.252   4.903  74.157  1.00  0.00    -0.082 A  
HETATM   17  C   UNL     1      -6.440   5.437  71.947  1.00  0.00    -0.043 A  
HETATM   18  C   UNL     1      -7.947   6.953  73.079  1.00  0.00    -0.113 A  
HETATM   19  C   UNL     1      -6.474   4.579  73.046  1.00  0.00    -0.042 A  
HETATM   20  C   UNL     1      -7.980   6.091  74.177  1.00  0.00    -0.103 A  
ENDBRANCH  13  15
BRANCH  12  21
HETATM   21  C   UNL     1      -9.237   9.776  69.472  1.00  0.00    -0.213 C  
BRANCH  21  22
HETATM   22  C   UNL     1     -10.095  10.241  68.257  1.00  0.00    -0.154 C  
HETATM   23  O   UNL     1      -9.964  11.667  68.066  1.00  0.00    -0.177 OA 
HETATM   24  C   UNL     1      -9.845  10.770  65.891  1.00  0.00    -0.239 C  
HETATM   25  H   UNL     1     -10.378   8.158  65.659  1.00  0.00     0.000 HD 
HETATM   26  C   UNL     1      -9.734   9.608  66.892  1.00  0.00    -0.186 C  
HETATM   27  O   UNL     1     -10.599   8.547  66.497  1.00  0.00    -0.200 OA 
HETATM   28  F   UNL     1     -10.650  10.416  64.852  1.00  0.00    -0.377 F  
HETATM   29  C   UNL     1      -8.474  11.090  65.316  1.00  0.00     0.004 C  
HETATM   30  C   UNL     1     -10.480  11.877  66.735  1.00  0.00    -0.221 C  
BRANCH  30  31
HETATM   31  N   UNL     1     -10.236  13.259  66.308  1.00  0.00    -0.289 N  
HETATM   32  C   UNL     1      -9.210  14.007  66.858  1.00  0.00    -0.260 C  
HETATM   33  C   UNL     1      -9.035  15.293  66.564  1.00  0.00    -0.340 C  
HETATM   34  C   UNL     1      -9.975  15.943  65.638  1.00  0.00    -0.334 C  
HETATM   35  O   UNL     1      -9.939  17.152  65.449  1.00  0.00    -0.547 OA 
HETATM   36  N   UNL     1     -10.874  15.115  65.035  1.00  0.00    -0.417 N  
HETATM   37  H   UNL     1     -11.430  15.507  64.274  1.00  0.00     0.000 HD 
HETATM   38  C   UNL     1     -11.100  13.801  65.360  1.00  0.00    -0.302 C  
HETATM   39  O   UNL     1     -12.029  13.191  64.845  1.00  0.00    -0.349 OA 
ENDBRANCH  30  31
ENDBRANCH  21  22
ENDBRANCH  12  21
ENDBRANCH   7   9
ENDBRANCH   5   7
ENDBRANCH   4   5
ENDBRANCH   2   4
TORSDOF 8
ENDMDL
MODEL      169
REMARK 921   NORMALIZED FREE ENERGY PREDICTED BY IDOCK:   -2.27 KCAL/MOL
REMARK 922        TOTAL FREE ENERGY PREDICTED BY IDOCK:   -5.88 KCAL/MOL
REMARK 923 INTER-LIGAND FREE ENERGY PREDICTED BY IDOCK:   -5.93 KCAL/MOL
REMARK 924 INTRA-LIGAND FREE ENERGY PREDICTED BY IDOCK:    0.06 KCAL/MOL
REMARK 927      BINDING AFFINITY PREDICTED BY RF-SCORE:    0.00 PKD
ROOT
HETATM    1  C   UNL     1      -8.608   9.179  63.447  1.00  0.00    -0.178 C  
HETATM    2  C   UNL     1      -7.641   8.316  64.248  1.00  0.00    -0.122 C  
HETATM    3  C   UNL     1      -6.396   9.122  64.610  1.00  0.00    -0.071 C  
ENDROOT
BRANCH   2   4
HETATM    4  O   UNL     1      -8.267   7.895  65.477  1.00  0.00    -0.125 OA 
BRANCH   4   5
HETATM    5  C   UNL     1      -7.768   6.757  66.049  1.00  0.00    -0.093 C  
HETATM    6  O   UNL     1      -7.442   5.747  65.437  1.00  0.00    -0.074 OA 
BRANCH   5   7
HETATM    7  C   UNL     1      -7.612   6.955  67.559  1.00  0.00    -0.109 C  
HETATM    8  C   UNL     1      -9.009   7.041  68.174  1.00  0.00    -0.127 C  
BRANCH   7   9
HETATM    9  N   UNL     1      -6.768   8.141  67.846  1.00  0.00    -0.064 NA 
HETATM   10  P   UNL     1      -7.400   9.198  69.010  1.00  0.00    -0.075 P  
HETATM   11  H   UNL     1      -6.563   8.646  66.983  1.00  0.00     0.000 HD 
HETATM   12  O   UNL     1      -6.276  10.407  69.185  1.00  0.00    -0.040 OA 
HETATM   13  O   UNL     1      -6.563   8.282  70.214  1.00  0.00    -0.036 OA 
HETATM   14  O   UNL     1      -8.150  10.018  67.930  1.00  0.00    -0.108 OA 
BRANCH  13  15
HETATM   15  C   UNL     1      -7.285   7.398  70.974  1.00  0.00    -0.068 A  
HETATM   16  C   UNL     1      -8.781   5.755  72.654  1.00  0.00    -0.119 A  
HETATM   17  C   UNL     1      -8.384   7.917  71.656  1.00  0.00    -0.137 A  
HETATM   18  C   UNL     1      -6.951   6.049  71.099  1.00  0.00    -0.068 A  
HETATM   19  C   UNL     1      -9.129   7.097  72.502  1.00  0.00    -0.148 A  
HETATM   20  C   UNL     1      -7.700   5.230  71.947  1.00  0.00    -0.110 A  
ENDBRANCH  13  15
BRANCH  12  21
HETATM   21  C   UNL     1      -6.779  11.679  69.634  1.00  0.00    -0.059 C  
BRANCH  21  22
HETATM   22  C   UNL     1      -6.943  12.818  68.581  1.00  0.00    -0.101 C  
HETATM   23  O   UNL     1      -8.169  12.640  67.837  1.00  0.00    -0.146 OA 
HETATM   24  C   UNL     1      -8.094  14.949  68.305  1.00  0.00    -0.132 C  
HETATM   25  H   UNL     1      -5.826  15.862  69.390  1.00  0.00     0.000 HD 
HETATM   26  C   UNL     1      -7.010  14.257  69.147  1.00  0.00    -0.118 C  
HETATM   27  O   UNL     1      -5.785  14.978  69.043  1.00  0.00    -0.095 OA 
HETATM   28  F   UNL     1      -7.613  16.113  67.788  1.00  0.00    -0.126 F  
HETATM   29  C   UNL     1      -9.286  15.297  69.181  1.00  0.00    -0.236 C  
HETATM   30  C   UNL     1      -8.364  13.922  67.203  1.00  0.00    -0.154 C  
BRANCH  30  31
HETATM   31  N   UNL     1      -9.681  13.972  66.558  1.00  0.00    -0.286 N  
HETATM   32  C   UNL     1      -9.927  14.827  65.498  1.00  0.00    -0.356 C  
HETATM   33  C   UNL     1     -11.140  14.965  64.966  1.00  0.00    -0.422 C  
HETATM   34  C   UNL     1     -12.256  14.197  65.537  1.00  0.00    -0.432 C  
HETATM   35  O   UNL     1     -13.409  14.397  65.176  1.00  0.00    -0.542 OA 
HETATM   36  N   UNL     1     -11.915  13.280  66.487  1.00  0.00    -0.391 N  
HETATM   37  H   UNL     1     -12.640  12.627  66.783  1.00  0.00     0.000 HD 
HETATM   38  C   UNL     1     -10.683  13.158  67.078  1.00  0.00    -0.262 C  
HETATM   39  O   UNL     1     -10.527  12.388  68.019  1.00  0.00    -0.205 OA 
ENDBRANCH  30  31
ENDBRANCH  21  22
ENDBRANCH  12  21
ENDBRANCH   7   9
ENDBRANCH   5   7
ENDBRANCH   4   5
ENDBRANCH   2   4
TORSDOF 8
ENDMDL
MODEL      170
REMARK 921   NORMALIZED FREE ENERGY PREDICTED BY IDOCK:   -2.24 KCAL/MOL
REMARK 922        TOTAL FREE ENERGY PREDICTED BY IDOCK:   -5.84 KCAL/MOL
REMARK 923 INTER-LIGAND FREE ENERGY PREDICTED BY IDOCK:   -5.00 KCAL/MOL
REMARK 924 INTRA-LIGAND FREE ENERGY PREDICTED BY IDOCK:   -0.84 KCAL/MOL
REMARK 927      BINDING AFFINITY PREDICTED BY RF-SCORE:    0.00 PKD
ROOT
HETATM    1  C   UNL     1      -9.279   2.427  68.109  1.00  0.00    -0.255 C  
HETATM    2  C   UNL     1      -8.995   2.201  69.589  1.00  0.00    -0.096 C  
HETATM    3  C   UNL     1      -7.650   1.499  69.762  1.00  0.00    -0.042 C  
ENDROOT
BRANCH   2   4
HETATM    4  O   UNL     1      -8.921   3.469  70.271  1.00  0.00    -0.085 OA 
BRANCH   4   5
HETATM    5  C   UNL     1      -8.348   4.497  69.573  1.00  0.00    -0.073 C  
HETATM    6  O   UNL     1      -7.261   4.444  69.011  1.00  0.00    -0.051 OA 
BRANCH   5   7
HETATM    7  C   UNL     1      -9.295   5.699  69.539  1.00  0.00    -0.133 C  
HETATM    8  C   UNL     1     -10.636   5.265  70.131  1.00  0.00    -0.297 C  
BRANCH   7   9
HETATM    9  N   UNL     1      -9.405   6.238  68.161  1.00  0.00    -0.116 NA 
HETATM   10  P   UNL     1      -9.536   7.925  68.067  1.00  0.00    -0.160 P  
HETATM   11  H   UNL     1     -10.182   5.795  67.669  1.00  0.00     0.000 HD 
HETATM   12  O   UNL     1      -9.605   8.287  66.449  1.00  0.00    -0.217 OA 
HETATM   13  O   UNL     1      -7.811   7.998  67.983  1.00  0.00    -0.121 OA 
HETATM   14  O   UNL     1     -11.082   7.859  68.144  1.00  0.00     0.109 OA 
BRANCH  13  15
HETATM   15  C   UNL     1      -7.121   8.354  69.113  1.00  0.00    -0.064 A  
HETATM   16  C   UNL     1      -5.884   9.195  71.463  1.00  0.00    -0.069 A  
HETATM   17  C   UNL     1      -7.873   8.517  70.275  1.00  0.00    -0.090 A  
HETATM   18  C   UNL     1      -5.744   8.576  69.129  1.00  0.00    -0.039 A  
HETATM   19  C   UNL     1      -7.255   8.944  71.450  1.00  0.00    -0.097 A  
HETATM   20  C   UNL     1      -5.128   9.003  70.307  1.00  0.00    -0.027 A  
ENDBRANCH  13  15
BRANCH  12  21
HETATM   21  C   UNL     1     -10.280   9.511  66.102  1.00  0.00    -0.202 C  
BRANCH  21  22
HETATM   22  C   UNL     1      -9.427  10.808  65.963  1.00  0.00    -0.194 C  
HETATM   23  O   UNL     1     -10.043  11.894  66.689  1.00  0.00    -0.197 OA 
HETATM   24  C   UNL     1      -7.748  12.077  67.192  1.00  0.00    -0.161 C  
HETATM   25  H   UNL     1      -6.104  10.481  65.811  1.00  0.00     0.000 HD 
HETATM   26  C   UNL     1      -7.977  10.725  66.497  1.00  0.00    -0.144 C  
HETATM   27  O   UNL     1      -6.995  10.532  65.483  1.00  0.00    -0.141 OA 
HETATM   28  F   UNL     1      -6.609  12.657  66.723  1.00  0.00    -0.073 F  
HETATM   29  C   UNL     1      -7.569  11.866  68.688  1.00  0.00    -0.119 C  
HETATM   30  C   UNL     1      -8.988  12.875  66.784  1.00  0.00    -0.179 C  
BRANCH  30  31
HETATM   31  N   UNL     1      -9.393  13.970  67.671  1.00  0.00    -0.197 N  
HETATM   32  C   UNL     1     -10.248  13.750  68.737  1.00  0.00    -0.163 C  
HETATM   33  C   UNL     1     -10.711  14.744  69.491  1.00  0.00    -0.229 C  
HETATM   34  C   UNL     1     -10.316  16.123  69.167  1.00  0.00    -0.259 C  
HETATM   35  O   UNL     1     -10.827  17.076  69.741  1.00  0.00    -0.215 OA 
HETATM   36  N   UNL     1      -9.371  16.251  68.193  1.00  0.00    -0.207 N  
HETATM   37  H   UNL     1      -8.964  17.177  68.059  1.00  0.00     0.000 HD 
HETATM   38  C   UNL     1      -8.919  15.246  67.376  1.00  0.00    -0.183 C  
HETATM   39  O   UNL     1      -8.168  15.503  66.443  1.00  0.00    -0.214 OA 
ENDBRANCH  30  31
ENDBRANCH  21  22
ENDBRANCH  12  21
ENDBRANCH   7   9
ENDBRANCH   5   7
ENDBRANCH   4   5
ENDBRANCH   2   4
TORSDOF 8
ENDMDL
MODEL      171
REMARK 921   NORMALIZED FREE ENERGY PREDICTED BY IDOCK:   -2.24 KCAL/MOL
REMARK 922        TOTAL FREE ENERGY PREDICTED BY IDOCK:   -5.84 KCAL/MOL
REMARK 923 INTER-LIGAND FREE ENERGY PREDICTED BY IDOCK:   -5.75 KCAL/MOL
REMARK 924 INTRA-LIGAND FREE ENERGY PREDICTED BY IDOCK:   -0.09 KCAL/MOL
REMARK 927      BINDING AFFINITY PREDICTED BY RF-SCORE:    0.00 PKD
ROOT
HETATM    1  C   UNL     1      -7.137   1.703  65.695  1.00  0.00    -0.050 C  
HETATM    2  C   UNL     1      -8.038   1.920  64.485  1.00  0.00    -0.074 C  
HETATM    3  C   UNL     1      -9.502   1.759  64.888  1.00  0.00    -0.021 C  
ENDROOT
BRANCH   2   4
HETATM    4  O   UNL     1      -7.864   3.260  63.981  1.00  0.00    -0.079 OA 
BRANCH   4   5
HETATM    5  C   UNL     1      -9.010   3.964  63.732  1.00  0.00    -0.115 C  
HETATM    6  O   UNL     1      -9.938   3.573  63.034  1.00  0.00    -0.121 OA 
BRANCH   5   7
HETATM    7  C   UNL     1      -8.993   5.284  64.508  1.00  0.00     0.052 C  
HETATM    8  C   UNL     1      -7.582   5.496  65.054  1.00  0.00    -0.081 C  
BRANCH   7   9
HETATM    9  N   UNL     1     -10.039   5.284  65.560  1.00  0.00    -0.394 NA 
HETATM   10  P   UNL     1      -9.510   5.797  67.086  1.00  0.00    -0.131 P  
HETATM   11  H   UNL     1     -10.474   4.363  65.627  1.00  0.00     0.000 HD 
HETATM   12  O   UNL     1     -10.847   5.751  68.070  1.00  0.00    -0.242 OA 
HETATM   13  O   UNL     1      -9.936   7.410  66.629  1.00  0.00    -0.221 OA 
HETATM   14  O   UNL     1      -9.128   4.353  67.495  1.00  0.00    -0.116 OA 
BRANCH  13  15
HETATM   15  C   UNL     1      -8.931   8.265  66.259  1.00  0.00    -0.183 A  
HETATM   16  C   UNL     1      -6.954   9.982  65.310  1.00  0.00    -0.132 A  
HETATM   17  C   UNL     1      -9.215   9.142  65.213  1.00  0.00    -0.243 A  
HETATM   18  C   UNL     1      -7.672   8.268  66.858  1.00  0.00    -0.095 A  
HETATM   19  C   UNL     1      -8.224   9.998  64.734  1.00  0.00    -0.155 A  
HETATM   20  C   UNL     1      -6.681   9.126  66.376  1.00  0.00    -0.071 A  
ENDBRANCH  13  15
BRANCH  12  21
HETATM   21  C   UNL     1     -10.591   5.567  69.476  1.00  0.00    -0.296 C  
BRANCH  21  22
HETATM   22  C   UNL     1     -10.185   6.814  70.319  1.00  0.00    -0.195 C  
HETATM   23  O   UNL     1      -9.675   7.857  69.459  1.00  0.00    -0.170 OA 
HETATM   24  C   UNL     1     -11.074   8.984  70.984  1.00  0.00    -0.289 C  
HETATM   25  H   UNL     1     -12.014   7.530  73.023  1.00  0.00     0.000 HD 
HETATM   26  C   UNL     1     -11.320   7.474  71.138  1.00  0.00    -0.267 C  
HETATM   27  O   UNL     1     -11.317   7.125  72.519  1.00  0.00    -0.271 OA 
HETATM   28  F   UNL     1     -11.034   9.579  72.208  1.00  0.00    -0.241 F  
HETATM   29  C   UNL     1     -12.216   9.618  70.205  1.00  0.00     0.027 C  
HETATM   30  C   UNL     1      -9.706   9.030  70.300  1.00  0.00    -0.196 C  
BRANCH  30  31
HETATM   31  N   UNL     1      -9.398  10.227  69.510  1.00  0.00    -0.206 N  
HETATM   32  C   UNL     1     -10.327  10.766  68.637  1.00  0.00    -0.192 C  
HETATM   33  C   UNL     1     -10.035  11.788  67.835  1.00  0.00    -0.187 C  
HETATM   34  C   UNL     1      -8.675  12.347  67.865  1.00  0.00    -0.175 C  
HETATM   35  O   UNL     1      -8.321  13.188  67.048  1.00  0.00    -0.166 OA 
HETATM   36  N   UNL     1      -7.858  11.855  68.839  1.00  0.00    -0.320 N  
HETATM   37  H   UNL     1      -6.969  12.334  68.985  1.00  0.00     0.000 HD 
HETATM   38  C   UNL     1      -8.125  10.774  69.641  1.00  0.00     0.124 C  
HETATM   39  O   UNL     1      -7.260  10.336  70.389  1.00  0.00    -0.257 OA 
ENDBRANCH  30  31
ENDBRANCH  21  22
ENDBRANCH  12  21
ENDBRANCH   7   9
ENDBRANCH   5   7
ENDBRANCH   4   5
ENDBRANCH   2   4
TORSDOF 8
ENDMDL
MODEL      172
REMARK 921   NORMALIZED FREE ENERGY PREDICTED BY IDOCK:   -2.22 KCAL/MOL
REMARK 922        TOTAL FREE ENERGY PREDICTED BY IDOCK:   -5.81 KCAL/MOL
REMARK 923 INTER-LIGAND FREE ENERGY PREDICTED BY IDOCK:   -7.90 KCAL/MOL
REMARK 924 INTRA-LIGAND FREE ENERGY PREDICTED BY IDOCK:    2.09 KCAL/MOL
REMARK 927      BINDING AFFINITY PREDICTED BY RF-SCORE:    0.00 PKD
ROOT
HETATM    1  C   UNL     1      -6.424   4.841  70.535  1.00  0.00    -0.030 C  
HETATM    2  C   UNL     1      -7.514   5.099  71.568  1.00  0.00    -0.095 C  
HETATM    3  C   UNL     1      -6.981   4.820  72.972  1.00  0.00    -0.073 C  
ENDROOT
BRANCH   2   4
HETATM    4  O   UNL     1      -7.918   6.481  71.516  1.00  0.00    -0.102 OA 
BRANCH   4   5
HETATM    5  C   UNL     1      -6.919   7.407  71.648  1.00  0.00    -0.058 C  
HETATM    6  O   UNL     1      -5.730   7.191  71.449  1.00  0.00    -0.035 OA 
BRANCH   5   7
HETATM    7  C   UNL     1      -7.513   8.770  72.012  1.00  0.00     0.025 C  
HETATM    8  C   UNL     1      -8.940   8.548  72.514  1.00  0.00    -0.270 C  
BRANCH   7   9
HETATM    9  N   UNL     1      -7.432   9.700  70.858  1.00  0.00    -0.323 NA 
HETATM   10  P   UNL     1      -7.938   9.043  69.380  1.00  0.00    -0.108 P  
HETATM   11  H   UNL     1      -6.487  10.076  70.773  1.00  0.00     0.000 HD 
HETATM   12  O   UNL     1      -7.795  10.266  68.267  1.00  0.00    -0.097 OA 
HETATM   13  O   UNL     1      -9.535   9.598  69.744  1.00  0.00    -0.191 OA 
HETATM   14  O   UNL     1      -6.508   8.545  69.054  1.00  0.00    -0.046 OA 
BRANCH  13  15
HETATM   15  C   UNL     1     -10.453   8.683  70.191  1.00  0.00    -0.217 A  
HETATM   16  C   UNL     1     -12.293   6.722  70.918  1.00  0.00    -0.336 A  
HETATM   17  C   UNL     1     -10.232   7.355  69.830  1.00  0.00    -0.212 A  
HETATM   18  C   UNL     1     -11.573   9.031  70.946  1.00  0.00    -0.344 A  
HETATM   19  C   UNL     1     -11.156   6.374  70.189  1.00  0.00    -0.428 A  
HETATM   20  C   UNL     1     -12.496   8.046  71.303  1.00  0.00    -0.270 A  
ENDBRANCH  13  15
BRANCH  12  21
HETATM   21  C   UNL     1      -7.593   9.857  66.900  1.00  0.00    -0.095 C  
BRANCH  21  22
HETATM   22  C   UNL     1      -8.811   9.909  65.929  1.00  0.00    -0.148 C  
HETATM   23  O   UNL     1      -9.403  11.227  65.938  1.00  0.00    -0.208 OA 
HETATM   24  C   UNL     1      -9.358  10.618  63.662  1.00  0.00    -0.284 C  
HETATM   25  H   UNL     1      -8.652   8.094  63.127  1.00  0.00     0.000 HD 
HETATM   26  C   UNL     1      -8.505   9.606  64.443  1.00  0.00    -0.181 C  
HETATM   27  O   UNL     1      -8.840   8.281  64.040  1.00  0.00     0.191 OA 
HETATM   28  F   UNL     1     -10.112   9.973  62.729  1.00  0.00    -0.132 F  
HETATM   29  C   UNL     1      -8.457  11.595  62.924  1.00  0.00     0.492 C  
HETATM   30  C   UNL     1     -10.235  11.229  64.757  1.00  0.00    -0.292 C  
BRANCH  30  31
HETATM   31  N   UNL     1     -10.761  12.576  64.512  1.00  0.00    -0.310 N  
HETATM   32  C   UNL     1     -10.164  13.692  65.072  1.00  0.00    -0.334 C  
HETATM   33  C   UNL     1     -10.684  14.911  64.948  1.00  0.00    -0.426 C  
HETATM   34  C   UNL     1     -11.944  15.072  64.208  1.00  0.00    -0.295 C  
HETATM   35  O   UNL     1     -12.531  16.147  64.190  1.00  0.00    -0.544 OA 
HETATM   36  N   UNL     1     -12.401  13.956  63.573  1.00  0.00    -1.087 N  
HETATM   37  H   UNL     1     -13.180  14.076  62.925  1.00  0.00     0.000 HD 
HETATM   38  C   UNL     1     -11.906  12.686  63.727  1.00  0.00    -0.498 C  
HETATM   39  O   UNL     1     -12.482  11.735  63.212  1.00  0.00    -0.543 OA 
ENDBRANCH  30  31
ENDBRANCH  21  22
ENDBRANCH  12  21
ENDBRANCH   7   9
ENDBRANCH   5   7
ENDBRANCH   4   5
ENDBRANCH   2   4
TORSDOF 8
ENDMDL
MODEL      173
REMARK 921   NORMALIZED FREE ENERGY PREDICTED BY IDOCK:   -2.21 KCAL/MOL
REMARK 922        TOTAL FREE ENERGY PREDICTED BY IDOCK:   -5.79 KCAL/MOL
REMARK 923 INTER-LIGAND FREE ENERGY PREDICTED BY IDOCK:   -5.92 KCAL/MOL
REMARK 924 INTRA-LIGAND FREE ENERGY PREDICTED BY IDOCK:    0.13 KCAL/MOL
REMARK 927      BINDING AFFINITY PREDICTED BY RF-SCORE:    0.00 PKD
ROOT
HETATM    1  C   UNL     1      -6.479   1.683  65.172  1.00  0.00    -0.023 C  
HETATM    2  C   UNL     1      -6.560   2.153  63.724  1.00  0.00    -0.026 C  
HETATM    3  C   UNL     1      -7.963   1.909  63.173  1.00  0.00    -0.057 C  
ENDROOT
BRANCH   2   4
HETATM    4  O   UNL     1      -6.300   3.569  63.656  1.00  0.00    -0.021 OA 
BRANCH   4   5
HETATM    5  C   UNL     1      -7.396   4.379  63.533  1.00  0.00    -0.054 C  
HETATM    6  O   UNL     1      -8.145   4.406  62.564  1.00  0.00    -0.065 OA 
BRANCH   5   7
HETATM    7  C   UNL     1      -7.589   5.196  64.813  1.00  0.00    -0.078 C  
HETATM    8  C   UNL     1      -6.227   5.355  65.487  1.00  0.00    -0.034 C  
BRANCH   7   9
HETATM    9  N   UNL     1      -8.610   4.565  65.686  1.00  0.00    -0.119 NA 
HETATM   10  P   UNL     1      -8.493   4.976  67.326  1.00  0.00    -0.103 P  
HETATM   11  H   UNL     1      -8.593   3.551  65.574  1.00  0.00     0.000 HD 
HETATM   12  O   UNL     1      -9.745   4.192  68.082  1.00  0.00    -0.152 OA 
HETATM   13  O   UNL     1      -9.552   6.306  67.010  1.00  0.00    -0.130 OA 
HETATM   14  O   UNL     1      -7.543   3.785  67.609  1.00  0.00    -0.066 OA 
BRANCH  13  15
HETATM   15  C   UNL     1      -9.005   7.559  66.904  1.00  0.00    -0.135 A  
HETATM   16  C   UNL     1      -7.819  10.079  66.882  1.00  0.00    -0.106 A  
HETATM   17  C   UNL     1      -7.762   7.747  67.505  1.00  0.00    -0.117 A  
HETATM   18  C   UNL     1      -9.644   8.618  66.259  1.00  0.00    -0.322 A  
HETATM   19  C   UNL     1      -7.171   9.010  67.499  1.00  0.00    -0.080 A  
HETATM   20  C   UNL     1      -9.049   9.882  66.255  1.00  0.00    -0.187 A  
ENDBRANCH  13  15
BRANCH  12  21
HETATM   21  C   UNL     1      -9.552   3.890  69.477  1.00  0.00    -0.178 C  
BRANCH  21  22
HETATM   22  C   UNL     1      -9.091   5.040  70.423  1.00  0.00    -0.129 C  
HETATM   23  O   UNL     1      -9.961   6.186  70.280  1.00  0.00    -0.175 OA 
HETATM   24  C   UNL     1      -9.625   5.988  72.604  1.00  0.00    -0.149 C  
HETATM   25  H   UNL     1      -7.794   4.199  73.386  1.00  0.00     0.000 HD 
HETATM   26  C   UNL     1      -9.086   4.712  71.935  1.00  0.00    -0.131 C  
HETATM   27  O   UNL     1      -7.798   4.401  72.457  1.00  0.00    -0.082 OA 
HETATM   28  F   UNL     1      -8.772   6.397  73.584  1.00  0.00    -0.122 F  
HETATM   29  C   UNL     1     -10.967   5.702  73.258  1.00  0.00    -0.316 C  
HETATM   30  C   UNL     1      -9.656   6.984  71.443  1.00  0.00    -0.162 C  
BRANCH  30  31
HETATM   31  N   UNL     1     -10.602   8.100  71.553  1.00  0.00    -0.220 N  
HETATM   32  C   UNL     1     -11.810   7.953  72.211  1.00  0.00    -0.352 C  
HETATM   33  C   UNL     1     -12.727   8.917  72.234  1.00  0.00    -0.464 C  
HETATM   34  C   UNL     1     -12.453  10.172  71.518  1.00  0.00    -0.427 C  
HETATM   35  O   UNL     1     -13.320  11.028  71.391  1.00  0.00    -0.279 OA 
HETATM   36  N   UNL     1     -11.195  10.297  71.008  1.00  0.00    -0.316 N  
HETATM   37  H   UNL     1     -10.928  11.214  70.649  1.00  0.00     0.000 HD 
HETATM   38  C   UNL     1     -10.256   9.299  70.935  1.00  0.00    -0.301 C  
HETATM   39  O   UNL     1      -9.207   9.485  70.331  1.00  0.00    -0.242 OA 
ENDBRANCH  30  31
ENDBRANCH  21  22
ENDBRANCH  12  21
ENDBRANCH   7   9
ENDBRANCH   5   7
ENDBRANCH   4   5
ENDBRANCH   2   4
TORSDOF 8
ENDMDL
MODEL      174
REMARK 921   NORMALIZED FREE ENERGY PREDICTED BY IDOCK:   -2.18 KCAL/MOL
REMARK 922        TOTAL FREE ENERGY PREDICTED BY IDOCK:   -5.75 KCAL/MOL
REMARK 923 INTER-LIGAND FREE ENERGY PREDICTED BY IDOCK:   -8.42 KCAL/MOL
REMARK 924 INTRA-LIGAND FREE ENERGY PREDICTED BY IDOCK:    2.68 KCAL/MOL
REMARK 927      BINDING AFFINITY PREDICTED BY RF-SCORE:    0.00 PKD
ROOT
HETATM    1  C   UNL     1     -11.538  12.456  63.278  1.00  0.00    -0.450 C  
HETATM    2  C   UNL     1     -10.780  11.215  63.731  1.00  0.00    -0.329 C  
HETATM    3  C   UNL     1      -9.467  11.093  62.961  1.00  0.00    -0.386 C  
ENDROOT
BRANCH   2   4
HETATM    4  O   UNL     1     -10.461  11.323  65.133  1.00  0.00    -0.275 OA 
BRANCH   4   5
HETATM    5  C   UNL     1     -10.471  12.586  65.658  1.00  0.00    -0.273 C  
HETATM    6  O   UNL     1      -9.487  13.306  65.777  1.00  0.00    -0.111 OA 
BRANCH   5   7
HETATM    7  C   UNL     1     -11.903  12.995  66.011  1.00  0.00    -0.417 C  
HETATM    8  C   UNL     1     -11.936  14.514  66.181  1.00  0.00    -0.323 C  
BRANCH   7   9
HETATM    9  N   UNL     1     -12.377  12.257  67.208  1.00  0.00    -0.201 NA 
HETATM   10  P   UNL     1     -11.215  12.061  68.427  1.00  0.00    -0.316 P  
HETATM   11  H   UNL     1     -12.760  11.351  66.936  1.00  0.00     0.000 HD 
HETATM   12  O   UNL     1     -11.981  11.255  69.659  1.00  0.00    -0.306 OA 
HETATM   13  O   UNL     1     -11.758  13.557  69.105  1.00  0.00    -0.282 OA 
HETATM   14  O   UNL     1     -10.729  10.723  67.818  1.00  0.00    -0.212 OA 
BRANCH  13  15
HETATM   15  C   UNL     1     -10.999  14.678  68.894  1.00  0.00    -0.253 A  
HETATM   16  C   UNL     1      -9.302  16.863  68.571  1.00  0.00    -0.259 A  
HETATM   17  C   UNL     1      -9.636  14.475  68.684  1.00  0.00    -0.219 A  
HETATM   18  C   UNL     1     -11.525  15.970  68.907  1.00  0.00    -0.362 A  
HETATM   19  C   UNL     1      -8.785  15.569  68.528  1.00  0.00    -0.184 A  
HETATM   20  C   UNL     1     -10.670  17.063  68.751  1.00  0.00    -0.313 A  
ENDBRANCH  13  15
BRANCH  12  21
HETATM   21  C   UNL     1     -11.136  10.469  70.522  1.00  0.00    -0.187 C  
BRANCH  21  22
HETATM   22  C   UNL     1     -11.430   8.944  70.650  1.00  0.00    -0.242 C  
HETATM   23  O   UNL     1     -10.557   8.189  69.781  1.00  0.00    -0.229 OA 
HETATM   24  C   UNL     1     -10.576   6.970  71.798  1.00  0.00    -0.210 C  
HETATM   25  H   UNL     1     -12.331   7.776  73.649  1.00  0.00     0.000 HD 
HETATM   26  C   UNL     1     -11.237   8.334  72.059  1.00  0.00    -0.323 C  
HETATM   27  O   UNL     1     -12.449   8.151  72.784  1.00  0.00    -0.213 OA 
HETATM   28  F   UNL     1     -11.274   5.985  72.426  1.00  0.00    -0.268 F  
HETATM   29  C   UNL     1      -9.165   6.962  72.364  1.00  0.00    -0.145 C  
HETATM   30  C   UNL     1     -10.676   6.839  70.276  1.00  0.00    -0.244 C  
BRANCH  30  31
HETATM   31  N   UNL     1      -9.693   5.970  69.620  1.00  0.00    -0.149 N  
HETATM   32  C   UNL     1      -8.920   6.431  68.568  1.00  0.00    -0.125 C  
HETATM   33  C   UNL     1      -8.098   5.633  67.891  1.00  0.00    -0.101 C  
HETATM   34  C   UNL     1      -8.025   4.212  68.261  1.00  0.00    -0.077 C  
HETATM   35  O   UNL     1      -7.394   3.414  67.579  1.00  0.00    -0.058 OA 
HETATM   36  N   UNL     1      -8.709   3.860  69.386  1.00  0.00    -0.074 N  
HETATM   37  H   UNL     1      -8.548   2.922  69.754  1.00  0.00     0.000 HD 
HETATM   38  C   UNL     1      -9.596   4.656  70.068  1.00  0.00    -0.188 C  
HETATM   39  O   UNL     1     -10.258   4.190  70.987  1.00  0.00    -0.119 OA 
ENDBRANCH  30  31
ENDBRANCH  21  22
ENDBRANCH  12  21
ENDBRANCH   7   9
ENDBRANCH   5   7
ENDBRANCH   4   5
ENDBRANCH   2   4
TORSDOF 8
ENDMDL
MODEL      175
REMARK 921   NORMALIZED FREE ENERGY PREDICTED BY IDOCK:   -2.17 KCAL/MOL
REMARK 922        TOTAL FREE ENERGY PREDICTED BY IDOCK:   -5.74 KCAL/MOL
REMARK 923 INTER-LIGAND FREE ENERGY PREDICTED BY IDOCK:   -4.89 KCAL/MOL
REMARK 924 INTRA-LIGAND FREE ENERGY PREDICTED BY IDOCK:   -0.84 KCAL/MOL
REMARK 927      BINDING AFFINITY PREDICTED BY RF-SCORE:    0.00 PKD
ROOT
HETATM    1  C   UNL     1      -7.620  10.152  62.938  1.00  0.00    -0.142 C  
HETATM    2  C   UNL     1      -7.392   8.735  63.449  1.00  0.00    -0.100 C  
HETATM    3  C   UNL     1      -6.031   8.223  62.981  1.00  0.00    -0.077 C  
ENDROOT
BRANCH   2   4
HETATM    4  O   UNL     1      -7.393   8.730  64.890  1.00  0.00    -0.089 OA 
BRANCH   4   5
HETATM    5  C   UNL     1      -8.583   8.426  65.492  1.00  0.00    -0.176 C  
HETATM    6  O   UNL     1      -9.210   7.386  65.326  1.00  0.00     0.280 OA 
BRANCH   5   7
HETATM    7  C   UNL     1      -8.984   9.546  66.456  1.00  0.00    -0.148 C  
HETATM    8  C   UNL     1      -7.716  10.292  66.871  1.00  0.00    -0.105 C  
BRANCH   7   9
HETATM    9  N   UNL     1      -9.749   8.998  67.603  1.00  0.00    -0.150 NA 
HETATM   10  P   UNL     1      -9.546   9.842  69.059  1.00  0.00    -0.209 P  
HETATM   11  H   UNL     1      -9.531   8.010  67.734  1.00  0.00     0.000 HD 
HETATM   12  O   UNL     1     -10.516   9.078  70.167  1.00  0.00    -0.197 OA 
HETATM   13  O   UNL     1     -10.889  10.833  68.606  1.00  0.00    -0.189 OA 
HETATM   14  O   UNL     1      -8.342   8.955  69.464  1.00  0.00    -0.113 OA 
BRANCH  13  15
HETATM   15  C   UNL     1     -10.633  12.089  68.121  1.00  0.00    -0.210 A  
HETATM   16  C   UNL     1      -9.989  14.671  67.298  1.00  0.00    -0.235 A  
HETATM   17  C   UNL     1      -9.339  12.573  68.300  1.00  0.00    -0.193 A  
HETATM   18  C   UNL     1     -11.601  12.878  67.499  1.00  0.00    -0.409 A  
HETATM   19  C   UNL     1      -9.017  13.867  67.893  1.00  0.00    -0.191 A  
HETATM   20  C   UNL     1     -11.276  14.175  67.093  1.00  0.00    -0.330 A  
ENDBRANCH  13  15
BRANCH  12  21
HETATM   21  C   UNL     1     -10.116   9.194  71.546  1.00  0.00    -0.311 C  
BRANCH  21  22
HETATM   22  C   UNL     1      -9.676   7.900  72.296  1.00  0.00    -0.209 C  
HETATM   23  O   UNL     1      -9.518   6.808  71.363  1.00  0.00    -0.161 OA 
HETATM   24  C   UNL     1      -7.656   6.630  72.796  1.00  0.00    -0.096 C  
HETATM   25  H   UNL     1      -7.653   8.238  74.935  1.00  0.00     0.000 HD 
HETATM   26  C   UNL     1      -8.334   7.985  73.061  1.00  0.00    -0.185 C  
HETATM   27  O   UNL     1      -8.477   8.185  74.464  1.00  0.00    -0.189 OA 
HETATM   28  F   UNL     1      -7.284   6.056  73.973  1.00  0.00    -0.085 F  
HETATM   29  C   UNL     1      -6.396   6.834  71.970  1.00  0.00    -0.049 C  
HETATM   30  C   UNL     1      -8.768   5.830  72.114  1.00  0.00    -0.133 C  
BRANCH  30  31
HETATM   31  N   UNL     1      -8.352   4.729  71.239  1.00  0.00    -0.104 N  
HETATM   32  C   UNL     1      -8.507   4.808  69.866  1.00  0.00    -0.074 C  
HETATM   33  C   UNL     1      -8.233   3.784  69.062  1.00  0.00    -0.076 C  
HETATM   34  C   UNL     1      -7.771   2.521  69.656  1.00  0.00    -0.043 C  
HETATM   35  O   UNL     1      -7.645   1.512  68.973  1.00  0.00    -0.042 OA 
HETATM   36  N   UNL     1      -7.515   2.558  70.995  1.00  0.00    -0.033 N  
HETATM   37  H   UNL     1      -7.045   1.749  71.401  1.00  0.00     0.000 HD 
HETATM   38  C   UNL     1      -7.834   3.588  71.844  1.00  0.00    -0.062 C  
HETATM   39  O   UNL     1      -7.682   3.456  73.053  1.00  0.00    -0.059 OA 
ENDBRANCH  30  31
ENDBRANCH  21  22
ENDBRANCH  12  21
ENDBRANCH   7   9
ENDBRANCH   5   7
ENDBRANCH   4   5
ENDBRANCH   2   4
TORSDOF 8
ENDMDL
MODEL      176
REMARK 921   NORMALIZED FREE ENERGY PREDICTED BY IDOCK:   -2.16 KCAL/MOL
REMARK 922        TOTAL FREE ENERGY PREDICTED BY IDOCK:   -5.72 KCAL/MOL
REMARK 923 INTER-LIGAND FREE ENERGY PREDICTED BY IDOCK:   -5.60 KCAL/MOL
REMARK 924 INTRA-LIGAND FREE ENERGY PREDICTED BY IDOCK:   -0.13 KCAL/MOL
REMARK 927      BINDING AFFINITY PREDICTED BY RF-SCORE:    0.00 PKD
ROOT
HETATM    1  C   UNL     1     -10.446   8.926  72.086  1.00  0.00    -0.320 C  
HETATM    2  C   UNL     1     -11.203   9.171  70.786  1.00  0.00    -0.277 C  
HETATM    3  C   UNL     1     -12.691   9.352  71.074  1.00  0.00    -0.270 C  
ENDROOT
BRANCH   2   4
HETATM    4  O   UNL     1     -10.725  10.380  70.164  1.00  0.00    -0.280 OA 
BRANCH   4   5
HETATM    5  C   UNL     1     -11.452  11.513  70.407  1.00  0.00     0.028 C  
HETATM    6  O   UNL     1     -11.729  11.946  71.519  1.00  0.00     0.946 OA 
BRANCH   5   7
HETATM    7  C   UNL     1     -11.811  12.198  69.086  1.00  0.00    -0.305 C  
HETATM    8  C   UNL     1     -12.220  11.118  68.085  1.00  0.00     0.323 C  
BRANCH   7   9
HETATM    9  N   UNL     1     -10.687  13.045  68.615  1.00  0.00    -0.252 NA 
HETATM   10  P   UNL     1     -11.103  14.652  68.273  1.00  0.00    -0.299 P  
HETATM   11  H   UNL     1     -10.237  12.616  67.806  1.00  0.00     0.000 HD 
HETATM   12  O   UNL     1      -9.694  15.398  67.810  1.00  0.00    -0.211 OA 
HETATM   13  O   UNL     1     -10.735  15.037  69.919  1.00  0.00    -0.252 OA 
HETATM   14  O   UNL     1     -11.434  14.306  66.800  1.00  0.00    -0.337 OA 
BRANCH  13  15
HETATM   15  C   UNL     1     -11.777  15.206  70.794  1.00  0.00    -0.325 A  
HETATM   16  C   UNL     1     -13.795  15.418  72.701  1.00  0.00    -0.625 A  
HETATM   17  C   UNL     1     -11.453  15.221  72.149  1.00  0.00    -0.499 A  
HETATM   18  C   UNL     1     -13.104  15.334  70.384  1.00  0.00    -0.240 A  
HETATM   19  C   UNL     1     -12.464  15.321  73.104  1.00  0.00    -0.571 A  
HETATM   20  C   UNL     1     -14.114  15.433  71.344  1.00  0.00    -0.539 A  
ENDBRANCH  13  15
BRANCH  12  21
HETATM   21  C   UNL     1      -9.838  16.536  66.939  1.00  0.00    -0.257 C  
BRANCH  21  22
HETATM   22  C   UNL     1      -8.638  17.524  66.815  1.00  0.00    -0.253 C  
HETATM   23  O   UNL     1      -8.266  18.026  68.118  1.00  0.00    -0.255 OA 
HETATM   24  C   UNL     1      -6.214  17.552  67.061  1.00  0.00    -0.162 C  
HETATM   25  H   UNL     1      -6.341  16.901  64.469  1.00  0.00     0.000 HD 
HETATM   26  C   UNL     1      -7.339  16.938  66.213  1.00  0.00    -0.213 C  
HETATM   27  O   UNL     1      -7.139  17.261  64.840  1.00  0.00     1.666 OA 
HETATM   28  F   UNL     1      -5.285  18.135  66.254  1.00  0.00    -0.148 F  
HETATM   29  C   UNL     1      -5.509  16.462  67.854  1.00  0.00    -0.130 C  
HETATM   30  C   UNL     1      -6.958  18.596  67.896  1.00  0.00    -0.221 C  
BRANCH  30  31
HETATM   31  N   UNL     1      -6.350  18.981  69.174  1.00  0.00    -0.266 N  
HETATM   32  C   UNL     1      -6.076  18.038  70.148  1.00  0.00    -0.039 C  
HETATM   33  C   UNL     1      -5.621  18.375  71.353  1.00  0.00     0.120 C  
HETATM   34  C   UNL     1      -5.424  19.799  71.663  1.00  0.00    -0.396 C  
HETATM   35  O   UNL     1      -5.145  20.165  72.797  1.00  0.00     0.319 OA 
HETATM   36  N   UNL     1      -5.586  20.657  70.616  1.00  0.00    -0.523 N  
HETATM   37  H   UNL     1      -5.301  21.626  70.761  1.00  0.00     0.000 HD 
HETATM   38  C   UNL     1      -6.097  20.333  69.384  1.00  0.00    -0.339 C  
HETATM   39  O   UNL     1      -6.326  21.213  68.563  1.00  0.00    -0.198 OA 
ENDBRANCH  30  31
ENDBRANCH  21  22
ENDBRANCH  12  21
ENDBRANCH   7   9
ENDBRANCH   5   7
ENDBRANCH   4   5
ENDBRANCH   2   4
TORSDOF 8
ENDMDL
MODEL      177
REMARK 921   NORMALIZED FREE ENERGY PREDICTED BY IDOCK:   -2.15 KCAL/MOL
REMARK 922        TOTAL FREE ENERGY PREDICTED BY IDOCK:   -5.71 KCAL/MOL
REMARK 923 INTER-LIGAND FREE ENERGY PREDICTED BY IDOCK:   -6.08 KCAL/MOL
REMARK 924 INTRA-LIGAND FREE ENERGY PREDICTED BY IDOCK:    0.36 KCAL/MOL
REMARK 927      BINDING AFFINITY PREDICTED BY RF-SCORE:    0.00 PKD
ROOT
HETATM    1  C   UNL     1     -11.598  16.253  68.897  1.00  0.00    -0.230 C  
HETATM    2  C   UNL     1     -10.776  16.786  67.729  1.00  0.00    -0.321 C  
HETATM    3  C   UNL     1     -10.553  18.288  67.889  1.00  0.00    -0.392 C  
ENDROOT
BRANCH   2   4
HETATM    4  O   UNL     1      -9.484  16.147  67.711  1.00  0.00    -0.215 OA 
BRANCH   4   5
HETATM    5  C   UNL     1      -9.017  15.766  66.483  1.00  0.00    -0.306 C  
HETATM    6  O   UNL     1      -8.087  16.297  65.888  1.00  0.00    -0.093 OA 
BRANCH   5   7
HETATM    7  C   UNL     1      -9.782  14.534  65.991  1.00  0.00    -0.303 C  
HETATM    8  C   UNL     1     -10.629  14.948  64.789  1.00  0.00    -0.336 C  
BRANCH   7   9
HETATM    9  N   UNL     1     -10.574  13.937  67.095  1.00  0.00    -0.276 NA 
HETATM   10  P   UNL     1     -10.304  12.283  67.349  1.00  0.00    -0.210 P  
HETATM   11  H   UNL     1     -11.569  14.115  66.952  1.00  0.00     0.000 HD 
HETATM   12  O   UNL     1     -11.257  11.860  68.640  1.00  0.00    -0.217 OA 
HETATM   13  O   UNL     1      -9.047  12.717  68.455  1.00  0.00    -0.154 OA 
HETATM   14  O   UNL     1     -11.429  11.896  66.358  1.00  0.00    -0.353 OA 
BRANCH  13  15
HETATM   15  C   UNL     1      -7.747  12.619  68.030  1.00  0.00    -0.139 A  
HETATM   16  C   UNL     1      -5.144  12.220  67.123  1.00  0.00    -0.041 A  
HETATM   17  C   UNL     1      -7.512  11.785  66.938  1.00  0.00    -0.106 A  
HETATM   18  C   UNL     1      -6.689  13.284  68.650  1.00  0.00    -0.095 A  
HETATM   19  C   UNL     1      -6.208  11.581  66.487  1.00  0.00    -0.072 A  
HETATM   20  C   UNL     1      -5.385  13.076  68.196  1.00  0.00    -0.092 A  
ENDBRANCH  13  15
BRANCH  12  21
HETATM   21  C   UNL     1     -11.666  10.480  68.699  1.00  0.00    -0.085 C  
BRANCH  21  22
HETATM   22  C   UNL     1     -10.643   9.431  69.230  1.00  0.00    -0.225 C  
HETATM   23  O   UNL     1     -10.802   8.176  68.532  1.00  0.00    -0.070 OA 
HETATM   24  C   UNL     1      -8.469   8.490  68.655  1.00  0.00    -0.131 C  
HETATM   25  H   UNL     1      -7.629  10.530  70.169  1.00  0.00     0.000 HD 
HETATM   26  C   UNL     1      -9.149   9.804  69.073  1.00  0.00    -0.157 C  
HETATM   27  O   UNL     1      -8.547  10.300  70.265  1.00  0.00     0.066 OA 
HETATM   28  F   UNL     1      -7.413   8.229  69.474  1.00  0.00    -0.076 F  
HETATM   29  C   UNL     1      -7.929   8.614  67.240  1.00  0.00    -0.101 C  
HETATM   30  C   UNL     1      -9.587   7.462  68.845  1.00  0.00    -0.148 C  
BRANCH  30  31
HETATM   31  N   UNL     1      -9.502   6.234  68.048  1.00  0.00    -0.117 N  
HETATM   32  C   UNL     1     -10.356   6.012  66.982  1.00  0.00    -0.240 C  
HETATM   33  C   UNL     1     -10.366   4.863  66.310  1.00  0.00    -0.336 C  
HETATM   34  C   UNL     1      -9.453   3.789  66.728  1.00  0.00    -0.194 C  
HETATM   35  O   UNL     1      -9.527   2.671  66.235  1.00  0.00    -0.034 OA 
HETATM   36  N   UNL     1      -8.552   4.125  67.695  1.00  0.00    -0.099 N  
HETATM   37  H   UNL     1      -7.808   3.455  67.889  1.00  0.00     0.000 HD 
HETATM   38  C   UNL     1      -8.557   5.285  68.428  1.00  0.00    -0.095 C  
HETATM   39  O   UNL     1      -7.781   5.422  69.366  1.00  0.00    -0.082 OA 
ENDBRANCH  30  31
ENDBRANCH  21  22
ENDBRANCH  12  21
ENDBRANCH   7   9
ENDBRANCH   5   7
ENDBRANCH   4   5
ENDBRANCH   2   4
TORSDOF 8
ENDMDL
MODEL      178
REMARK 921   NORMALIZED FREE ENERGY PREDICTED BY IDOCK:   -2.04 KCAL/MOL
REMARK 922        TOTAL FREE ENERGY PREDICTED BY IDOCK:   -5.55 KCAL/MOL
REMARK 923 INTER-LIGAND FREE ENERGY PREDICTED BY IDOCK:   -5.38 KCAL/MOL
REMARK 924 INTRA-LIGAND FREE ENERGY PREDICTED BY IDOCK:   -0.17 KCAL/MOL
REMARK 927      BINDING AFFINITY PREDICTED BY RF-SCORE:    0.00 PKD
ROOT
HETATM    1  C   UNL     1      -9.164   9.969  68.386  1.00  0.00    -0.131 C  
HETATM    2  C   UNL     1     -10.524   9.975  67.699  1.00  0.00    -0.246 C  
HETATM    3  C   UNL     1     -11.638   9.963  68.744  1.00  0.00     0.142 C  
ENDROOT
BRANCH   2   4
HETATM    4  O   UNL     1     -10.669  11.176  66.915  1.00  0.00    -0.249 OA 
BRANCH   4   5
HETATM    5  C   UNL     1     -11.122  12.281  67.581  1.00  0.00    -0.268 C  
HETATM    6  O   UNL     1     -11.093  12.431  68.796  1.00  0.00    -0.237 OA 
BRANCH   5   7
HETATM    7  C   UNL     1     -11.608  13.333  66.580  1.00  0.00    -0.365 C  
HETATM    8  C   UNL     1     -12.309  12.609  65.432  1.00  0.00    -0.499 C  
BRANCH   7   9
HETATM    9  N   UNL     1     -10.481  14.190  66.137  1.00  0.00    -0.289 NA 
HETATM   10  P   UNL     1     -10.698  15.848  66.414  1.00  0.00    -0.141 P  
HETATM   11  H   UNL     1     -10.273  14.021  65.152  1.00  0.00     0.000 HD 
HETATM   12  O   UNL     1      -9.310  16.585  65.879  1.00  0.00    -0.435 OA 
HETATM   13  O   UNL     1      -9.954  15.630  67.960  1.00  0.00    -0.220 OA 
HETATM   14  O   UNL     1     -11.366  16.043  65.030  1.00  0.00    -0.262 OA 
BRANCH  13  15
HETATM   15  C   UNL     1     -10.761  15.583  69.067  1.00  0.00    -0.243 A  
HETATM   16  C   UNL     1     -12.531  15.619  71.218  1.00  0.00    -0.503 A  
HETATM   17  C   UNL     1     -12.135  15.619  68.836  1.00  0.00    -0.183 A  
HETATM   18  C   UNL     1     -10.267  15.528  70.370  1.00  0.00    -0.036 A  
HETATM   19  C   UNL     1     -13.021  15.643  69.913  1.00  0.00     0.301 A  
HETATM   20  C   UNL     1     -11.157  15.553  71.446  1.00  0.00    -0.318 A  
ENDBRANCH  13  15
BRANCH  12  21
HETATM   21  C   UNL     1      -9.444  17.956  65.459  1.00  0.00     0.833 C  
BRANCH  21  22
HETATM   22  C   UNL     1      -8.394  18.989  65.974  1.00  0.00    -0.113 C  
HETATM   23  O   UNL     1      -8.086  18.740  67.363  1.00  0.00    -0.248 OA 
HETATM   24  C   UNL     1      -5.996  19.171  66.364  1.00  0.00    -0.165 C  
HETATM   25  H   UNL     1      -6.051  20.030  63.831  1.00  0.00     0.000 HD 
HETATM   26  C   UNL     1      -7.031  18.989  65.242  1.00  0.00    -0.013 C  
HETATM   27  O   UNL     1      -6.888  20.030  64.281  1.00  0.00    -0.195 OA 
HETATM   28  F   UNL     1      -5.164  20.208  66.068  1.00  0.00    -0.165 F  
HETATM   29  C   UNL     1      -5.140  17.921  66.488  1.00  0.00    -0.188 C  
HETATM   30  C   UNL     1      -6.873  19.492  67.577  1.00  0.00    -0.215 C  
BRANCH  30  31
HETATM   31  N   UNL     1      -6.314  19.187  68.898  1.00  0.00    -0.247 N  
HETATM   32  C   UNL     1      -6.450  17.930  69.460  1.00  0.00    -0.190 C  
HETATM   33  C   UNL     1      -6.044  17.660  70.699  1.00  0.00     0.561 C  
HETATM   34  C   UNL     1      -5.449  18.739  71.501  1.00  0.00    -0.169 C  
HETATM   35  O   UNL     1      -5.193  18.575  72.687  1.00  0.00     0.111 OA 
HETATM   36  N   UNL     1      -5.226  19.910  70.839  1.00  0.00    -0.224 N  
HETATM   37  H   UNL     1      -4.672  20.618  71.322  1.00  0.00     0.000 HD 
HETATM   38  C   UNL     1      -5.679  20.220  69.582  1.00  0.00    -0.318 C  
HETATM   39  O   UNL     1      -5.536  21.354  69.140  1.00  0.00    -0.252 OA 
ENDBRANCH  30  31
ENDBRANCH  21  22
ENDBRANCH  12  21
ENDBRANCH   7   9
ENDBRANCH   5   7
ENDBRANCH   4   5
ENDBRANCH   2   4
TORSDOF 8
ENDMDL
MODEL      179
REMARK 921   NORMALIZED FREE ENERGY PREDICTED BY IDOCK:   -2.03 KCAL/MOL
REMARK 922        TOTAL FREE ENERGY PREDICTED BY IDOCK:   -5.53 KCAL/MOL
REMARK 923 INTER-LIGAND FREE ENERGY PREDICTED BY IDOCK:   -5.34 KCAL/MOL
REMARK 924 INTRA-LIGAND FREE ENERGY PREDICTED BY IDOCK:   -0.19 KCAL/MOL
REMARK 927      BINDING AFFINITY PREDICTED BY RF-SCORE:    0.00 PKD
ROOT
HETATM    1  C   UNL     1      -6.098   3.793  64.425  1.00  0.00    -0.022 C  
HETATM    2  C   UNL     1      -6.311   4.375  63.033  1.00  0.00    -0.026 C  
HETATM    3  C   UNL     1      -7.737   4.096  62.562  1.00  0.00    -0.060 C  
ENDROOT
BRANCH   2   4
HETATM    4  O   UNL     1      -6.131   5.805  63.069  1.00  0.00    -0.021 OA 
BRANCH   4   5
HETATM    5  C   UNL     1      -7.207   6.538  63.486  1.00  0.00    -0.064 C  
HETATM    6  O   UNL     1      -8.082   6.982  62.753  1.00  0.00    -0.117 OA 
BRANCH   5   7
HETATM    7  C   UNL     1      -7.195   6.665  65.012  1.00  0.00    -0.074 C  
HETATM    8  C   UNL     1      -8.464   6.008  65.554  1.00  0.00    -0.151 C  
BRANCH   7   9
HETATM    9  N   UNL     1      -7.046   8.085  65.417  1.00  0.00    -0.059 NA 
HETATM   10  P   UNL     1      -8.069   8.574  66.677  1.00  0.00    -0.106 P  
HETATM   11  H   UNL     1      -7.163   8.697  64.609  1.00  0.00     0.000 HD 
HETATM   12  O   UNL     1      -7.695  10.163  66.975  1.00  0.00    -0.095 OA 
HETATM   13  O   UNL     1      -6.831   8.103  67.789  1.00  0.00    -0.070 OA 
HETATM   14  O   UNL     1      -9.178   8.995  65.681  1.00  0.00    -0.216 OA 
BRANCH  13  15
HETATM   15  C   UNL     1      -6.976   6.913  68.455  1.00  0.00    -0.080 A  
HETATM   16  C   UNL     1      -7.162   4.407  69.655  1.00  0.00    -0.050 A  
HETATM   17  C   UNL     1      -5.896   6.034  68.400  1.00  0.00    -0.012 A  
HETATM   18  C   UNL     1      -8.139   6.559  69.139  1.00  0.00    -0.112 A  
HETATM   19  C   UNL     1      -5.990   4.777  68.996  1.00  0.00    -0.025 A  
HETATM   20  C   UNL     1      -8.231   5.298  69.734  1.00  0.00    -0.098 A  
ENDBRANCH  13  15
BRANCH  12  21
HETATM   21  C   UNL     1      -8.748  10.965  67.544  1.00  0.00    -0.130 C  
BRANCH  21  22
HETATM   22  C   UNL     1     -10.029  10.240  68.058  1.00  0.00    -0.153 C  
HETATM   23  O   UNL     1      -9.726   9.462  69.237  1.00  0.00    -0.162 OA 
HETATM   24  C   UNL     1     -11.778  10.509  69.733  1.00  0.00    -0.281 C  
HETATM   25  H   UNL     1     -12.956  11.817  67.718  1.00  0.00     0.000 HD 
HETATM   26  C   UNL     1     -11.209  11.156  68.460  1.00  0.00    -0.258 C  
HETATM   27  O   UNL     1     -12.230  11.254  67.471  1.00  0.00    -0.330 OA 
HETATM   28  F   UNL     1     -13.120  10.315  69.599  1.00  0.00    -0.071 F  
HETATM   29  C   UNL     1     -11.568  11.433  70.922  1.00  0.00     0.314 C  
HETATM   30  C   UNL     1     -11.028   9.177  69.793  1.00  0.00    -0.181 C  
BRANCH  30  31
HETATM   31  N   UNL     1     -10.888   8.553  71.113  1.00  0.00    -0.232 N  
HETATM   32  C   UNL     1      -9.722   8.681  71.846  1.00  0.00    -0.313 C  
HETATM   33  C   UNL     1      -9.534   8.040  72.997  1.00  0.00    -0.345 C  
HETATM   34  C   UNL     1     -10.594   7.151  73.495  1.00  0.00    -0.374 C  
HETATM   35  O   UNL     1     -10.410   6.434  74.470  1.00  0.00    -0.329 OA 
HETATM   36  N   UNL     1     -11.763   7.179  72.793  1.00  0.00    -0.534 N  
HETATM   37  H   UNL     1     -12.563   6.698  73.204  1.00  0.00     0.000 HD 
HETATM   38  C   UNL     1     -11.958   7.795  71.582  1.00  0.00    -0.297 C  
HETATM   39  O   UNL     1     -13.011   7.639  70.976  1.00  0.00    -0.204 OA 
ENDBRANCH  30  31
ENDBRANCH  21  22
ENDBRANCH  12  21
ENDBRANCH   7   9
ENDBRANCH   5   7
ENDBRANCH   4   5
ENDBRANCH   2   4
TORSDOF 8
ENDMDL
MODEL      180
REMARK 921   NORMALIZED FREE ENERGY PREDICTED BY IDOCK:   -2.00 KCAL/MOL
REMARK 922        TOTAL FREE ENERGY PREDICTED BY IDOCK:   -5.49 KCAL/MOL
REMARK 923 INTER-LIGAND FREE ENERGY PREDICTED BY IDOCK:   -8.97 KCAL/MOL
REMARK 924 INTRA-LIGAND FREE ENERGY PREDICTED BY IDOCK:    3.48 KCAL/MOL
REMARK 927      BINDING AFFINITY PREDICTED BY RF-SCORE:    0.00 PKD
ROOT
HETATM    1  C   UNL     1      -8.788   8.242  73.061  1.00  0.00    -0.302 C  
HETATM    2  C   UNL     1      -9.637   7.101  72.515  1.00  0.00    -0.146 C  
HETATM    3  C   UNL     1     -11.109   7.340  72.845  1.00  0.00    -0.369 C  
ENDROOT
BRANCH   2   4
HETATM    4  O   UNL     1      -9.511   7.042  71.081  1.00  0.00    -0.165 OA 
BRANCH   4   5
HETATM    5  C   UNL     1     -10.482   7.685  70.363  1.00  0.00    -0.220 C  
HETATM    6  O   UNL     1     -10.769   8.871  70.473  1.00  0.00    -0.212 OA 
BRANCH   5   7
HETATM    7  C   UNL     1     -11.111   6.722  69.352  1.00  0.00    -0.261 C  
HETATM    8  C   UNL     1     -10.359   5.394  69.430  1.00  0.00    -0.339 C  
BRANCH   7   9
HETATM    9  N   UNL     1     -11.114   7.320  67.994  1.00  0.00    -0.491 NA 
HETATM   10  P   UNL     1      -9.978   8.556  67.760  1.00  0.00    -0.217 P  
HETATM   11  H   UNL     1     -12.050   7.649  67.754  1.00  0.00     0.000 HD 
HETATM   12  O   UNL     1     -10.143   9.031  66.178  1.00  0.00    -0.290 OA 
HETATM   13  O   UNL     1      -8.851   7.348  67.251  1.00  0.00    -0.122 OA 
HETATM   14  O   UNL     1     -10.988   9.638  68.216  1.00  0.00    -0.206 OA 
BRANCH  13  15
HETATM   15  C   UNL     1      -7.881   6.953  68.136  1.00  0.00    -0.114 A  
HETATM   16  C   UNL     1      -6.024   5.979  69.969  1.00  0.00    -0.025 A  
HETATM   17  C   UNL     1      -7.611   5.587  68.193  1.00  0.00    -0.081 A  
HETATM   18  C   UNL     1      -7.200   7.841  68.968  1.00  0.00    -0.080 A  
HETATM   19  C   UNL     1      -6.685   5.098  69.114  1.00  0.00    -0.052 A  
HETATM   20  C   UNL     1      -6.274   7.348  69.890  1.00  0.00    -0.027 A  
ENDBRANCH  13  15
BRANCH  12  21
HETATM   21  C   UNL     1      -9.754  10.386  65.881  1.00  0.00    -0.217 C  
BRANCH  21  22
HETATM   22  C   UNL     1     -10.867  11.477  65.833  1.00  0.00    -0.260 C  
HETATM   23  O   UNL     1     -10.975  12.139  67.113  1.00  0.00    -0.243 OA 
HETATM   24  C   UNL     1     -11.105  13.885  65.536  1.00  0.00    -0.304 C  
HETATM   25  H   UNL     1     -11.292  13.148  62.970  1.00  0.00     0.000 HD 
HETATM   26  C   UNL     1     -10.659  12.610  64.800  1.00  0.00    -0.317 C  
HETATM   27  O   UNL     1     -11.419  12.453  63.605  1.00  0.00    -0.414 OA 
HETATM   28  F   UNL     1     -12.018  14.562  64.786  1.00  0.00    -0.364 F  
HETATM   29  C   UNL     1      -9.913  14.806  65.744  1.00  0.00    -0.375 C  
HETATM   30  C   UNL     1     -11.737  13.327  66.813  1.00  0.00    -0.385 C  
BRANCH  30  31
HETATM   31  N   UNL     1     -11.770  14.216  67.979  1.00  0.00    -0.340 N  
HETATM   32  C   UNL     1     -11.444  15.556  67.868  1.00  0.00    -0.272 C  
HETATM   33  C   UNL     1     -11.366  16.357  68.928  1.00  0.00    -0.272 C  
HETATM   34  C   UNL     1     -11.615  15.793  70.262  1.00  0.00    -0.365 C  
HETATM   35  O   UNL     1     -11.416  16.453  71.274  1.00  0.00    -0.396 OA 
HETATM   36  N   UNL     1     -12.060  14.504  70.283  1.00  0.00    -0.302 N  
HETATM   37  H   UNL     1     -12.391  14.141  71.177  1.00  0.00     0.000 HD 
HETATM   38  C   UNL     1     -12.101  13.652  69.208  1.00  0.00    -0.314 C  
HETATM   39  O   UNL     1     -12.390  12.472  69.370  1.00  0.00    -0.113 OA 
ENDBRANCH  30  31
ENDBRANCH  21  22
ENDBRANCH  12  21
ENDBRANCH   7   9
ENDBRANCH   5   7
ENDBRANCH   4   5
ENDBRANCH   2   4
TORSDOF 8
ENDMDL
MODEL      181
REMARK 921   NORMALIZED FREE ENERGY PREDICTED BY IDOCK:   -2.00 KCAL/MOL
REMARK 922        TOTAL FREE ENERGY PREDICTED BY IDOCK:   -5.48 KCAL/MOL
REMARK 923 INTER-LIGAND FREE ENERGY PREDICTED BY IDOCK:   -4.73 KCAL/MOL
REMARK 924 INTRA-LIGAND FREE ENERGY PREDICTED BY IDOCK:   -0.76 KCAL/MOL
REMARK 927      BINDING AFFINITY PREDICTED BY RF-SCORE:    0.00 PKD
ROOT
HETATM    1  C   UNL     1      -7.392  16.376  68.767  1.00  0.00    -0.203 C  
HETATM    2  C   UNL     1      -7.974  15.084  69.327  1.00  0.00    -0.190 C  
HETATM    3  C   UNL     1      -8.891  14.432  68.294  1.00  0.00    -0.182 C  
ENDROOT
BRANCH   2   4
HETATM    4  O   UNL     1      -6.910  14.157  69.620  1.00  0.00    -0.121 OA 
BRANCH   4   5
HETATM    5  C   UNL     1      -6.470  13.393  68.574  1.00  0.00    -0.086 C  
HETATM    6  O   UNL     1      -5.724  13.783  67.684  1.00  0.00    -0.282 OA 
BRANCH   5   7
HETATM    7  C   UNL     1      -6.990  11.960  68.716  1.00  0.00    -0.104 C  
HETATM    8  C   UNL     1      -6.477  11.397  70.041  1.00  0.00    -0.094 C  
BRANCH   7   9
HETATM    9  N   UNL     1      -6.602  11.145  67.538  1.00  0.00    -0.066 NA 
HETATM   10  P   UNL     1      -6.662   9.469  67.784  1.00  0.00    -0.067 P  
HETATM   11  H   UNL     1      -5.677  11.421  67.206  1.00  0.00     0.000 HD 
HETATM   12  O   UNL     1      -6.231   8.781  66.337  1.00  0.00    -0.058 OA 
HETATM   13  O   UNL     1      -8.305   9.506  67.246  1.00  0.00    -0.123 OA 
HETATM   14  O   UNL     1      -5.191   9.437  68.267  1.00  0.00    -0.037 OA 
BRANCH  13  15
HETATM   15  C   UNL     1      -9.298   9.439  68.190  1.00  0.00    -0.133 A  
HETATM   16  C   UNL     1     -11.329   9.508  70.094  1.00  0.00    -0.241 A  
HETATM   17  C   UNL     1     -10.347  10.345  68.053  1.00  0.00    -0.212 A  
HETATM   18  C   UNL     1      -9.277   8.540  69.256  1.00  0.00    -0.153 A  
HETATM   19  C   UNL     1     -11.362  10.384  69.010  1.00  0.00    -0.279 A  
HETATM   20  C   UNL     1     -10.294   8.582  70.213  1.00  0.00    -0.218 A  
ENDBRANCH  13  15
BRANCH  12  21
HETATM   21  C   UNL     1      -5.647   7.466  66.410  1.00  0.00    -0.028 C  
BRANCH  21  22
HETATM   22  C   UNL     1      -6.567   6.237  66.142  1.00  0.00    -0.048 C  
HETATM   23  O   UNL     1      -6.824   5.524  67.373  1.00  0.00    -0.057 OA 
HETATM   24  C   UNL     1      -8.915   5.598  66.289  1.00  0.00    -0.140 C  
HETATM   25  H   UNL     1      -8.914   6.530  63.781  1.00  0.00     0.000 HD 
HETATM   26  C   UNL     1      -7.962   6.552  65.550  1.00  0.00    -0.117 C  
HETATM   27  O   UNL     1      -8.058   6.336  64.145  1.00  0.00    -0.118 OA 
HETATM   28  F   UNL     1      -9.662   4.896  65.392  1.00  0.00    -0.167 F  
HETATM   29  C   UNL     1      -9.875   6.395  67.157  1.00  0.00    -0.182 C  
HETATM   30  C   UNL     1      -7.950   4.682  67.044  1.00  0.00    -0.102 C  
BRANCH  30  31
HETATM   31  N   UNL     1      -8.463   4.030  68.253  1.00  0.00    -0.091 N  
HETATM   32  C   UNL     1      -8.317   4.613  69.499  1.00  0.00    -0.074 C  
HETATM   33  C   UNL     1      -8.681   3.994  70.620  1.00  0.00    -0.120 C  
HETATM   34  C   UNL     1      -9.240   2.637  70.529  1.00  0.00    -0.136 C  
HETATM   35  O   UNL     1      -9.455   1.975  71.536  1.00  0.00    -0.102 OA 
HETATM   36  N   UNL     1      -9.479   2.181  69.266  1.00  0.00    -0.098 N  
HETATM   37  H   UNL     1     -10.010   1.314  69.178  1.00  0.00     0.000 HD 
HETATM   38  C   UNL     1      -9.067   2.784  68.104  1.00  0.00    -0.180 C  
HETATM   39  O   UNL     1      -9.218   2.215  67.030  1.00  0.00    -0.120 OA 
ENDBRANCH  30  31
ENDBRANCH  21  22
ENDBRANCH  12  21
ENDBRANCH   7   9
ENDBRANCH   5   7
ENDBRANCH   4   5
ENDBRANCH   2   4
TORSDOF 8
ENDMDL
MODEL      182
REMARK 921   NORMALIZED FREE ENERGY PREDICTED BY IDOCK:   -1.96 KCAL/MOL
REMARK 922        TOTAL FREE ENERGY PREDICTED BY IDOCK:   -5.43 KCAL/MOL
REMARK 923 INTER-LIGAND FREE ENERGY PREDICTED BY IDOCK:   -5.70 KCAL/MOL
REMARK 924 INTRA-LIGAND FREE ENERGY PREDICTED BY IDOCK:    0.27 KCAL/MOL
REMARK 927      BINDING AFFINITY PREDICTED BY RF-SCORE:    0.00 PKD
ROOT
HETATM    1  C   UNL     1     -11.052   6.125  68.800  1.00  0.00    -0.398 C  
HETATM    2  C   UNL     1     -10.100   5.442  67.825  1.00  0.00    -0.171 C  
HETATM    3  C   UNL     1     -10.768   5.294  66.459  1.00  0.00    -0.290 C  
ENDROOT
BRANCH   2   4
HETATM    4  O   UNL     1      -8.918   6.248  67.652  1.00  0.00    -0.118 OA 
BRANCH   4   5
HETATM    5  C   UNL     1      -9.090   7.602  67.753  1.00  0.00    -0.130 C  
HETATM    6  O   UNL     1     -10.093   8.211  67.403  1.00  0.00    -0.190 OA 
BRANCH   5   7
HETATM    7  C   UNL     1      -7.873   8.235  68.432  1.00  0.00    -0.118 C  
HETATM    8  C   UNL     1      -7.796   7.702  69.862  1.00  0.00    -0.102 C  
BRANCH   7   9
HETATM    9  N   UNL     1      -7.944   9.715  68.356  1.00  0.00    -0.095 NA 
HETATM   10  P   UNL     1      -6.700  10.440  67.462  1.00  0.00    -0.072 P  
HETATM   11  H   UNL     1      -7.986  10.116  69.294  1.00  0.00     0.000 HD 
HETATM   12  O   UNL     1      -7.013  12.070  67.487  1.00  0.00    -0.106 OA 
HETATM   13  O   UNL     1      -7.701  10.297  66.059  1.00  0.00    -0.118 OA 
HETATM   14  O   UNL     1      -5.803  10.568  68.719  1.00  0.00    -0.041 OA 
BRANCH  13  15
HETATM   15  C   UNL     1      -7.428   9.291  65.169  1.00  0.00    -0.105 A  
HETATM   16  C   UNL     1      -6.675   7.307  63.364  1.00  0.00    -0.053 A  
HETATM   17  C   UNL     1      -6.206   8.639  65.323  1.00  0.00    -0.056 A  
HETATM   18  C   UNL     1      -8.294   8.931  64.136  1.00  0.00    -0.168 A  
HETATM   19  C   UNL     1      -5.826   7.650  64.416  1.00  0.00    -0.041 A  
HETATM   20  C   UNL     1      -7.910   7.940  63.229  1.00  0.00    -0.141 A  
ENDBRANCH  13  15
BRANCH  12  21
HETATM   21  C   UNL     1      -5.872  12.936  67.331  1.00  0.00    -0.060 C  
BRANCH  21  22
HETATM   22  C   UNL     1      -5.981  14.399  67.859  1.00  0.00    -0.138 C  
HETATM   23  O   UNL     1      -6.833  15.182  66.994  1.00  0.00    -0.230 OA 
HETATM   24  C   UNL     1      -7.481  15.799  69.174  1.00  0.00    -0.207 C  
HETATM   25  H   UNL     1      -5.958  14.870  71.167  1.00  0.00     0.000 HD 
HETATM   26  C   UNL     1      -6.573  14.563  69.279  1.00  0.00    -0.125 C  
HETATM   27  O   UNL     1      -5.595  14.769  70.295  1.00  0.00    -0.111 OA 
HETATM   28  F   UNL     1      -7.169  16.694  70.152  1.00  0.00     0.186 F  
HETATM   29  C   UNL     1      -8.933  15.394  69.373  1.00  0.00    -0.258 C  
HETATM   30  C   UNL     1      -7.135  16.349  67.788  1.00  0.00    -0.133 C  
BRANCH  30  31
HETATM   31  N   UNL     1      -8.159  17.162  67.123  1.00  0.00    -0.185 N  
HETATM   32  C   UNL     1      -8.233  18.528  67.329  1.00  0.00    -0.249 C  
HETATM   33  C   UNL     1      -9.215  19.270  66.820  1.00  0.00    -0.367 C  
HETATM   34  C   UNL     1     -10.263  18.610  66.028  1.00  0.00    -0.353 C  
HETATM   35  O   UNL     1     -11.257  19.224  65.662  1.00  0.00    -0.141 OA 
HETATM   36  N   UNL     1     -10.053  17.291  65.755  1.00  0.00    -0.201 N  
HETATM   37  H   UNL     1     -10.678  16.851  65.079  1.00  0.00     0.000 HD 
HETATM   38  C   UNL     1      -9.075  16.503  66.309  1.00  0.00    -0.313 C  
HETATM   39  O   UNL     1      -9.065  15.296  66.095  1.00  0.00    -0.307 OA 
ENDBRANCH  30  31
ENDBRANCH  21  22
ENDBRANCH  12  21
ENDBRANCH   7   9
ENDBRANCH   5   7
ENDBRANCH   4   5
ENDBRANCH   2   4
TORSDOF 8
ENDMDL
MODEL      183
REMARK 921   NORMALIZED FREE ENERGY PREDICTED BY IDOCK:   -1.94 KCAL/MOL
REMARK 922        TOTAL FREE ENERGY PREDICTED BY IDOCK:   -5.40 KCAL/MOL
REMARK 923 INTER-LIGAND FREE ENERGY PREDICTED BY IDOCK:   -5.44 KCAL/MOL
REMARK 924 INTRA-LIGAND FREE ENERGY PREDICTED BY IDOCK:    0.04 KCAL/MOL
REMARK 927      BINDING AFFINITY PREDICTED BY RF-SCORE:    0.00 PKD
ROOT
HETATM    1  C   UNL     1      -7.752  10.125  62.909  1.00  0.00    -0.148 C  
HETATM    2  C   UNL     1      -7.858   8.613  63.066  1.00  0.00    -0.145 C  
HETATM    3  C   UNL     1      -6.472   7.979  62.975  1.00  0.00    -0.081 C  
ENDROOT
BRANCH   2   4
HETATM    4  O   UNL     1      -8.404   8.294  64.362  1.00  0.00    -0.151 OA 
BRANCH   4   5
HETATM    5  C   UNL     1      -7.524   8.311  65.409  1.00  0.00    -0.085 C  
HETATM    6  O   UNL     1      -6.862   9.282  65.755  1.00  0.00    -0.081 OA 
BRANCH   5   7
HETATM    7  C   UNL     1      -7.539   6.960  66.128  1.00  0.00    -0.092 C  
HETATM    8  C   UNL     1      -8.833   6.237  65.756  1.00  0.00    -0.122 C  
BRANCH   7   9
HETATM    9  N   UNL     1      -7.365   7.144  67.590  1.00  0.00    -0.090 NA 
HETATM   10  P   UNL     1      -7.932   5.860  68.539  1.00  0.00    -0.103 P  
HETATM   11  H   UNL     1      -7.793   8.021  67.889  1.00  0.00     0.000 HD 
HETATM   12  O   UNL     1      -7.596   6.273  70.111  1.00  0.00    -0.091 OA 
HETATM   13  O   UNL     1      -6.359   5.151  68.418  1.00  0.00    -0.033 OA 
HETATM   14  O   UNL     1      -9.341   6.495  68.647  1.00  0.00    -0.127 OA 
BRANCH  13  15
HETATM   15  C   UNL     1      -6.183   4.110  67.543  1.00  0.00    -0.036 A  
HETATM   16  C   UNL     1      -5.827   1.868  65.929  1.00  0.00    -0.021 A  
HETATM   17  C   UNL     1      -6.838   2.920  67.853  1.00  0.00    -0.048 A  
HETATM   18  C   UNL     1      -5.378   4.196  66.407  1.00  0.00    -0.013 A  
HETATM   19  C   UNL     1      -6.655   1.795  67.049  1.00  0.00    -0.034 A  
HETATM   20  C   UNL     1      -5.197   3.068  65.604  1.00  0.00    -0.009 A  
ENDBRANCH  13  15
BRANCH  12  21
HETATM   21  C   UNL     1      -8.448   5.689  71.115  1.00  0.00    -0.127 C  
BRANCH  21  22
HETATM   22  C   UNL     1      -9.467   6.616  71.845  1.00  0.00    -0.150 C  
HETATM   23  O   UNL     1      -9.553   7.893  71.175  1.00  0.00    -0.157 OA 
HETATM   24  C   UNL     1     -11.788   7.337  71.671  1.00  0.00    -0.298 C  
HETATM   25  H   UNL     1     -12.156   5.194  73.229  1.00  0.00     0.000 HD 
HETATM   26  C   UNL     1     -10.921   6.093  71.924  1.00  0.00    -0.263 C  
HETATM   27  O   UNL     1     -11.262   5.515  73.180  1.00  0.00    -0.286 OA 
HETATM   28  F   UNL     1     -12.713   7.472  72.661  1.00  0.00    -0.084 F  
HETATM   29  C   UNL     1     -12.544   7.183  70.360  1.00  0.00     0.149 C  
HETATM   30  C   UNL     1     -10.763   8.472  71.710  1.00  0.00    -0.303 C  
BRANCH  30  31
HETATM   31  N   UNL     1     -11.102   9.698  70.981  1.00  0.00    -0.342 N  
HETATM   32  C   UNL     1     -10.299  10.168  69.957  1.00  0.00    -0.250 C  
HETATM   33  C   UNL     1     -10.530  11.331  69.352  1.00  0.00    -0.089 C  
HETATM   34  C   UNL     1     -11.665  12.151  69.802  1.00  0.00    -0.310 C  
HETATM   35  O   UNL     1     -11.831  13.287  69.375  1.00  0.00    -0.300 OA 
HETATM   36  N   UNL     1     -12.487  11.566  70.719  1.00  0.00    -0.366 N  
HETATM   37  H   UNL     1     -13.364  12.044  70.928  1.00  0.00     0.000 HD 
HETATM   38  C   UNL     1     -12.239  10.392  71.385  1.00  0.00    -0.362 C  
HETATM   39  O   UNL     1     -12.983  10.030  72.289  1.00  0.00    -0.389 OA 
ENDBRANCH  30  31
ENDBRANCH  21  22
ENDBRANCH  12  21
ENDBRANCH   7   9
ENDBRANCH   5   7
ENDBRANCH   4   5
ENDBRANCH   2   4
TORSDOF 8
ENDMDL
MODEL      184
REMARK 921   NORMALIZED FREE ENERGY PREDICTED BY IDOCK:   -1.88 KCAL/MOL
REMARK 922        TOTAL FREE ENERGY PREDICTED BY IDOCK:   -5.31 KCAL/MOL
REMARK 923 INTER-LIGAND FREE ENERGY PREDICTED BY IDOCK:   -6.90 KCAL/MOL
REMARK 924 INTRA-LIGAND FREE ENERGY PREDICTED BY IDOCK:    1.59 KCAL/MOL
REMARK 927      BINDING AFFINITY PREDICTED BY RF-SCORE:    0.00 PKD
ROOT
HETATM    1  C   UNL     1     -11.769  15.770  64.342  1.00  0.00    -0.201 C  
HETATM    2  C   UNL     1     -10.639  16.244  65.249  1.00  0.00    -0.336 C  
HETATM    3  C   UNL     1     -10.675  17.765  65.378  1.00  0.00     0.085 C  
ENDROOT
BRANCH   2   4
HETATM    4  O   UNL     1     -10.805  15.686  66.567  1.00  0.00    -0.311 OA 
BRANCH   4   5
HETATM    5  C   UNL     1     -11.242  14.390  66.623  1.00  0.00    -0.339 C  
HETATM    6  O   UNL     1     -11.077  13.554  65.744  1.00  0.00    -0.287 OA 
BRANCH   5   7
HETATM    7  C   UNL     1     -11.905  14.120  67.976  1.00  0.00    -0.365 C  
HETATM    8  C   UNL     1     -11.778  15.381  68.829  1.00  0.00    -0.369 C  
BRANCH   7   9
HETATM    9  N   UNL     1     -11.320  12.915  68.613  1.00  0.00    -0.267 NA 
HETATM   10  P   UNL     1      -9.883  12.364  67.903  1.00  0.00    -0.210 P  
HETATM   11  H   UNL     1     -12.008  12.162  68.647  1.00  0.00     0.000 HD 
HETATM   12  O   UNL     1      -9.406  11.052  68.800  1.00  0.00    -0.189 OA 
HETATM   13  O   UNL     1      -9.017  13.390  68.993  1.00  0.00     0.178 OA 
HETATM   14  O   UNL     1     -10.658  11.446  66.926  1.00  0.00    -0.229 OA 
BRANCH  13  15
HETATM   15  C   UNL     1      -8.519  14.573  68.512  1.00  0.00    -0.166 A  
HETATM   16  C   UNL     1      -7.678  17.070  67.608  1.00  0.00    -0.183 A  
HETATM   17  C   UNL     1      -8.776  15.711  69.274  1.00  0.00    -0.267 A  
HETATM   18  C   UNL     1      -7.810  14.672  67.315  1.00  0.00    -0.213 A  
HETATM   19  C   UNL     1      -8.361  16.962  68.819  1.00  0.00    -0.240 A  
HETATM   20  C   UNL     1      -7.396  15.927  66.861  1.00  0.00    -0.207 A  
ENDBRANCH  13  15
BRANCH  12  21
HETATM   21  C   UNL     1      -8.597  10.077  68.115  1.00  0.00    -0.118 C  
BRANCH  21  22
HETATM   22  C   UNL     1      -8.987   8.573  68.247  1.00  0.00    -0.139 C  
HETATM   23  O   UNL     1      -8.490   8.033  69.491  1.00  0.00    -0.128 OA 
HETATM   24  C   UNL     1     -10.675   7.171  69.307  1.00  0.00    -0.215 C  
HETATM   25  H   UNL     1     -11.927   7.608  66.983  1.00  0.00     0.000 HD 
HETATM   26  C   UNL     1     -10.503   8.265  68.240  1.00  0.00    -0.161 C  
HETATM   27  O   UNL     1     -10.995   7.797  66.988  1.00  0.00    -0.247 OA 
HETATM   28  F   UNL     1     -11.348   6.110  68.784  1.00  0.00    -0.403 F  
HETATM   29  C   UNL     1     -11.498   7.706  70.468  1.00  0.00    -0.236 C  
HETATM   30  C   UNL     1      -9.228   6.802  69.641  1.00  0.00    -0.145 C  
BRANCH  30  31
HETATM   31  N   UNL     1      -8.980   6.221  70.965  1.00  0.00    -0.143 N  
HETATM   32  C   UNL     1      -8.513   6.997  72.011  1.00  0.00    -0.112 C  
HETATM   33  C   UNL     1      -8.183   6.473  73.190  1.00  0.00    -0.114 C  
HETATM   34  C   UNL     1      -8.301   5.020  73.377  1.00  0.00    -0.110 C  
HETATM   35  O   UNL     1      -7.876   4.478  74.390  1.00  0.00    -0.090 OA 
HETATM   36  N   UNL     1      -8.893   4.340  72.354  1.00  0.00    -0.107 N  
HETATM   37  H   UNL     1      -9.132   3.362  72.522  1.00  0.00     0.000 HD 
HETATM   38  C   UNL     1      -9.195   4.854  71.118  1.00  0.00    -0.145 C  
HETATM   39  O   UNL     1      -9.600   4.116  70.228  1.00  0.00    -0.168 OA 
ENDBRANCH  30  31
ENDBRANCH  21  22
ENDBRANCH  12  21
ENDBRANCH   7   9
ENDBRANCH   5   7
ENDBRANCH   4   5
ENDBRANCH   2   4
TORSDOF 8
ENDMDL
MODEL      185
REMARK 921   NORMALIZED FREE ENERGY PREDICTED BY IDOCK:   -1.87 KCAL/MOL
REMARK 922        TOTAL FREE ENERGY PREDICTED BY IDOCK:   -5.29 KCAL/MOL
REMARK 923 INTER-LIGAND FREE ENERGY PREDICTED BY IDOCK:   -6.75 KCAL/MOL
REMARK 924 INTRA-LIGAND FREE ENERGY PREDICTED BY IDOCK:    1.46 KCAL/MOL
REMARK 927      BINDING AFFINITY PREDICTED BY RF-SCORE:    0.00 PKD
ROOT
HETATM    1  C   UNL     1     -11.682  12.153  65.492  1.00  0.00    -0.384 C  
HETATM    2  C   UNL     1     -11.759  13.675  65.469  1.00  0.00    -0.337 C  
HETATM    3  C   UNL     1     -13.149  14.121  65.020  1.00  0.00     0.044 C  
ENDROOT
BRANCH   2   4
HETATM    4  O   UNL     1     -11.535  14.195  66.794  1.00  0.00    -0.337 OA 
BRANCH   4   5
HETATM    5  C   UNL     1     -10.618  15.204  66.899  1.00  0.00    -0.297 C  
HETATM    6  O   UNL     1     -10.245  15.915  65.973  1.00  0.00    -0.292 OA 
BRANCH   5   7
HETATM    7  C   UNL     1     -10.177  15.361  68.357  1.00  0.00    -0.221 C  
HETATM    8  C   UNL     1      -9.775  16.819  68.578  1.00  0.00    -0.248 C  
BRANCH   7   9
HETATM    9  N   UNL     1      -9.098  14.396  68.682  1.00  0.00    -0.231 NA 
HETATM   10  P   UNL     1      -7.906  14.233  67.488  1.00  0.00    -0.170 P  
HETATM   11  H   UNL     1      -9.495  13.485  68.911  1.00  0.00     0.000 HD 
HETATM   12  O   UNL     1      -6.805  13.147  68.089  1.00  0.00    -0.085 OA 
HETATM   13  O   UNL     1      -7.033  15.508  68.265  1.00  0.00    -0.107 OA 
HETATM   14  O   UNL     1      -8.689  13.093  66.791  1.00  0.00    -0.182 OA 
BRANCH  13  15
HETATM   15  C   UNL     1      -7.081  16.760  67.708  1.00  0.00    -0.131 A  
HETATM   16  C   UNL     1      -7.310  19.357  66.727  1.00  0.00    -0.233 A  
HETATM   17  C   UNL     1      -7.183  17.831  68.594  1.00  0.00    -0.260 A  
HETATM   18  C   UNL     1      -7.056  16.984  66.331  1.00  0.00    -0.285 A  
HETATM   19  C   UNL     1      -7.303  19.130  68.103  1.00  0.00    -0.304 A  
HETATM   20  C   UNL     1      -7.177  18.287  65.843  1.00  0.00    -0.270 A  
ENDBRANCH  13  15
BRANCH  12  21
HETATM   21  C   UNL     1      -6.051  12.405  67.111  1.00  0.00    -0.080 C  
BRANCH  21  22
HETATM   22  C   UNL     1      -6.215  10.855  67.077  1.00  0.00    -0.076 C  
HETATM   23  O   UNL     1      -7.097  10.421  68.136  1.00  0.00    -0.080 OA 
HETATM   24  C   UNL     1      -7.767   9.163  66.260  1.00  0.00    -0.096 C  
HETATM   25  H   UNL     1      -6.209   9.351  64.093  1.00  0.00     0.000 HD 
HETATM   26  C   UNL     1      -6.812  10.267  65.777  1.00  0.00    -0.128 C  
HETATM   27  O   UNL     1      -5.843   9.712  64.892  1.00  0.00    -0.067 OA 
HETATM   28  F   UNL     1      -7.489   7.992  65.622  1.00  0.00    -0.073 F  
HETATM   29  C   UNL     1      -9.202   9.535  65.923  1.00  0.00    -0.260 C  
HETATM   30  C   UNL     1      -7.444   9.073  67.753  1.00  0.00    -0.085 C  
BRANCH  30  31
HETATM   31  N   UNL     1      -8.498   8.552  68.630  1.00  0.00    -0.130 N  
HETATM   32  C   UNL     1      -8.775   7.198  68.690  1.00  0.00    -0.127 C  
HETATM   33  C   UNL     1      -9.793   6.713  69.398  1.00  0.00    -0.160 C  
HETATM   34  C   UNL     1     -10.661   7.652  70.123  1.00  0.00    -0.240 C  
HETATM   35  O   UNL     1     -11.688   7.268  70.668  1.00  0.00    -0.303 OA 
HETATM   36  N   UNL     1     -10.250   8.952  70.127  1.00  0.00    -0.188 N  
HETATM   37  H   UNL     1     -10.742   9.593  70.751  1.00  0.00     0.000 HD 
HETATM   38  C   UNL     1      -9.234   9.475  69.368  1.00  0.00    -0.176 C  
HETATM   39  O   UNL     1      -9.040  10.684  69.349  1.00  0.00    -0.152 OA 
ENDBRANCH  30  31
ENDBRANCH  21  22
ENDBRANCH  12  21
ENDBRANCH   7   9
ENDBRANCH   5   7
ENDBRANCH   4   5
ENDBRANCH   2   4
TORSDOF 8
ENDMDL
MODEL      186
REMARK 921   NORMALIZED FREE ENERGY PREDICTED BY IDOCK:   -1.83 KCAL/MOL
REMARK 922        TOTAL FREE ENERGY PREDICTED BY IDOCK:   -5.24 KCAL/MOL
REMARK 923 INTER-LIGAND FREE ENERGY PREDICTED BY IDOCK:   -5.59 KCAL/MOL
REMARK 924 INTRA-LIGAND FREE ENERGY PREDICTED BY IDOCK:    0.34 KCAL/MOL
REMARK 927      BINDING AFFINITY PREDICTED BY RF-SCORE:    0.00 PKD
ROOT
HETATM    1  C   UNL     1     -13.808  10.545  72.431  1.00  0.00     0.328 C  
HETATM    2  C   UNL     1     -12.763   9.528  71.989  1.00  0.00    -0.396 C  
HETATM    3  C   UNL     1     -13.376   8.547  70.993  1.00  0.00     0.093 C  
ENDROOT
BRANCH   2   4
HETATM    4  O   UNL     1     -11.674  10.204  71.329  1.00  0.00    -0.366 OA 
BRANCH   4   5
HETATM    5  C   UNL     1     -11.198   9.613  70.191  1.00  0.00    -0.256 C  
HETATM    6  O   UNL     1     -11.270  10.094  69.066  1.00  0.00    -0.223 OA 
BRANCH   5   7
HETATM    7  C   UNL     1     -10.502   8.294  70.537  1.00  0.00    -0.210 C  
HETATM    8  C   UNL     1      -9.192   8.622  71.253  1.00  0.00    -0.283 C  
BRANCH   7   9
HETATM    9  N   UNL     1     -10.318   7.465  69.320  1.00  0.00    -0.200 NA 
HETATM   10  P   UNL     1      -8.757   6.836  69.119  1.00  0.00    -0.129 P  
HETATM   11  H   UNL     1     -10.598   7.989  68.490  1.00  0.00     0.000 HD 
HETATM   12  O   UNL     1      -8.809   5.926  67.732  1.00  0.00    -0.111 OA 
HETATM   13  O   UNL     1      -9.263   5.447  70.017  1.00  0.00    -0.132 OA 
HETATM   14  O   UNL     1      -8.305   8.081  68.316  1.00  0.00    -0.122 OA 
BRANCH  13  15
HETATM   15  C   UNL     1      -8.875   5.347  71.328  1.00  0.00    -0.130 A  
HETATM   16  C   UNL     1      -7.908   5.058  73.924  1.00  0.00    -0.102 A  
HETATM   17  C   UNL     1      -7.523   5.560  71.594  1.00  0.00    -0.093 A  
HETATM   18  C   UNL     1      -9.754   5.024  72.361  1.00  0.00    -0.190 A  
HETATM   19  C   UNL     1      -7.038   5.410  72.893  1.00  0.00    -0.089 A  
HETATM   20  C   UNL     1      -9.265   4.874  73.661  1.00  0.00    -0.122 A  
ENDBRANCH  13  15
BRANCH  12  21
HETATM   21  C   UNL     1      -7.560   5.772  67.030  1.00  0.00    -0.099 C  
BRANCH  21  22
HETATM   22  C   UNL     1      -7.469   6.303  65.567  1.00  0.00    -0.083 C  
HETATM   23  O   UNL     1      -8.472   7.317  65.337  1.00  0.00    -0.141 OA 
HETATM   24  C   UNL     1      -6.528   8.173  64.318  1.00  0.00    -0.066 C  
HETATM   25  H   UNL     1      -4.441   6.506  64.168  1.00  0.00     0.000 HD 
HETATM   26  C   UNL     1      -6.124   6.956  65.167  1.00  0.00    -0.036 C  
HETATM   27  O   UNL     1      -5.267   6.105  64.413  1.00  0.00    -0.016 OA 
HETATM   28  F   UNL     1      -5.866   8.152  63.128  1.00  0.00    -0.066 F  
HETATM   29  C   UNL     1      -6.139   9.456  65.033  1.00  0.00    -0.067 C  
HETATM   30  C   UNL     1      -8.030   7.958  64.122  1.00  0.00    -0.125 C  
BRANCH  30  31
HETATM   31  N   UNL     1      -8.842   9.150  63.853  1.00  0.00    -0.138 N  
HETATM   32  C   UNL     1      -8.767   9.808  62.639  1.00  0.00    -0.225 C  
HETATM   33  C   UNL     1      -9.414  10.948  62.410  1.00  0.00    -0.205 C  
HETATM   34  C   UNL     1     -10.218  11.536  63.492  1.00  0.00    -0.420 C  
HETATM   35  O   UNL     1     -10.713  12.650  63.376  1.00  0.00    -0.384 OA 
HETATM   36  N   UNL     1     -10.353  10.768  64.610  1.00  0.00    -0.344 N  
HETATM   37  H   UNL     1     -11.030  11.077  65.307  1.00  0.00     0.000 HD 
HETATM   38  C   UNL     1      -9.658   9.616  64.880  1.00  0.00    -0.173 C  
HETATM   39  O   UNL     1      -9.759   9.081  65.978  1.00  0.00    -0.265 OA 
ENDBRANCH  30  31
ENDBRANCH  21  22
ENDBRANCH  12  21
ENDBRANCH   7   9
ENDBRANCH   5   7
ENDBRANCH   4   5
ENDBRANCH   2   4
TORSDOF 8
ENDMDL
MODEL      187
REMARK 921   NORMALIZED FREE ENERGY PREDICTED BY IDOCK:   -1.83 KCAL/MOL
REMARK 922        TOTAL FREE ENERGY PREDICTED BY IDOCK:   -5.24 KCAL/MOL
REMARK 923 INTER-LIGAND FREE ENERGY PREDICTED BY IDOCK:   -5.44 KCAL/MOL
REMARK 924 INTRA-LIGAND FREE ENERGY PREDICTED BY IDOCK:    0.20 KCAL/MOL
REMARK 927      BINDING AFFINITY PREDICTED BY RF-SCORE:    0.00 PKD
ROOT
HETATM    1  C   UNL     1      -8.644   9.425  63.934  1.00  0.00    -0.225 C  
HETATM    2  C   UNL     1      -7.171   9.643  64.259  1.00  0.00    -0.122 C  
HETATM    3  C   UNL     1      -6.431  10.143  63.021  1.00  0.00    -0.136 C  
ENDROOT
BRANCH   2   4
HETATM    4  O   UNL     1      -7.041  10.646  65.286  1.00  0.00    -0.089 OA 
BRANCH   4   5
HETATM    5  C   UNL     1      -6.592  10.210  66.502  1.00  0.00    -0.077 C  
HETATM    6  O   UNL     1      -6.295   9.051  66.768  1.00  0.00    -0.061 OA 
BRANCH   5   7
HETATM    7  C   UNL     1      -6.449  11.393  67.462  1.00  0.00    -0.074 C  
HETATM    8  C   UNL     1      -5.363  11.051  68.481  1.00  0.00    -0.043 C  
BRANCH   7   9
HETATM    9  N   UNL     1      -7.756  11.724  68.082  1.00  0.00    -0.116 NA 
HETATM   10  P   UNL     1      -8.785  10.398  68.319  1.00  0.00    -0.138 P  
HETATM   11  H   UNL     1      -8.231  12.448  67.541  1.00  0.00     0.000 HD 
HETATM   12  O   UNL     1     -10.146  11.004  69.050  1.00  0.00    -0.205 OA 
HETATM   13  O   UNL     1      -8.070  10.194  69.880  1.00  0.00    -0.174 OA 
HETATM   14  O   UNL     1      -9.424  10.580  66.920  1.00  0.00    -0.161 OA 
BRANCH  13  15
HETATM   15  C   UNL     1      -7.142   9.198  70.043  1.00  0.00    -0.060 A  
HETATM   16  C   UNL     1      -5.415   7.037  70.370  1.00  0.00    -0.023 A  
HETATM   17  C   UNL     1      -7.390   8.003  69.371  1.00  0.00    -0.080 A  
HETATM   18  C   UNL     1      -6.013   9.331  70.852  1.00  0.00    -0.059 A  
HETATM   19  C   UNL     1      -6.529   6.919  69.539  1.00  0.00    -0.044 A  
HETATM   20  C   UNL     1      -5.153   8.244  71.018  1.00  0.00    -0.025 A  
ENDBRANCH  13  15
BRANCH  12  21
HETATM   21  C   UNL     1     -11.362  10.260  68.839  1.00  0.00    -0.173 C  
BRANCH  21  22
HETATM   22  C   UNL     1     -11.837   9.292  69.965  1.00  0.00     0.205 C  
HETATM   23  O   UNL     1     -11.263   7.980  69.773  1.00  0.00    -0.134 OA 
HETATM   24  C   UNL     1     -11.062   8.377  72.087  1.00  0.00    -0.345 C  
HETATM   25  H   UNL     1     -12.294  10.560  73.023  1.00  0.00     0.000 HD 
HETATM   26  C   UNL     1     -11.462   9.698  71.410  1.00  0.00    -0.385 C  
HETATM   27  O   UNL     1     -12.525  10.310  72.135  1.00  0.00    -0.244 OA 
HETATM   28  F   UNL     1     -11.756   8.218  73.247  1.00  0.00    -0.310 F  
HETATM   29  C   UNL     1      -9.584   8.403  72.440  1.00  0.00    -0.373 C  
HETATM   30  C   UNL     1     -11.472   7.333  71.046  1.00  0.00    -0.287 C  
BRANCH  30  31
HETATM   31  N   UNL     1     -10.767   6.047  71.083  1.00  0.00    -0.252 N  
HETATM   32  C   UNL     1      -9.971   5.637  70.028  1.00  0.00    -0.204 C  
HETATM   33  C   UNL     1      -9.406   4.432  69.993  1.00  0.00    -0.227 C  
HETATM   34  C   UNL     1      -9.652   3.502  71.105  1.00  0.00    -0.170 C  
HETATM   35  O   UNL     1      -9.273   2.339  71.050  1.00  0.00    -0.097 OA 
HETATM   36  N   UNL     1     -10.332   4.020  72.167  1.00  0.00    -0.134 N  
HETATM   37  H   UNL     1     -10.378   3.450  73.012  1.00  0.00     0.000 HD 
HETATM   38  C   UNL     1     -10.960   5.240  72.200  1.00  0.00    -0.160 C  
HETATM   39  O   UNL     1     -11.658   5.545  73.159  1.00  0.00    -0.239 OA 
ENDBRANCH  30  31
ENDBRANCH  21  22
ENDBRANCH  12  21
ENDBRANCH   7   9
ENDBRANCH   5   7
ENDBRANCH   4   5
ENDBRANCH   2   4
TORSDOF 8
ENDMDL
MODEL      188
REMARK 921   NORMALIZED FREE ENERGY PREDICTED BY IDOCK:   -1.81 KCAL/MOL
REMARK 922        TOTAL FREE ENERGY PREDICTED BY IDOCK:   -5.21 KCAL/MOL
REMARK 923 INTER-LIGAND FREE ENERGY PREDICTED BY IDOCK:   -7.23 KCAL/MOL
REMARK 924 INTRA-LIGAND FREE ENERGY PREDICTED BY IDOCK:    2.02 KCAL/MOL
REMARK 927      BINDING AFFINITY PREDICTED BY RF-SCORE:    0.00 PKD
ROOT
HETATM    1  C   UNL     1      -9.070  10.786  62.370  1.00  0.00    -0.332 C  
HETATM    2  C   UNL     1      -8.766   9.686  63.379  1.00  0.00    -0.226 C  
HETATM    3  C   UNL     1      -7.282   9.328  63.332  1.00  0.00    -0.096 C  
ENDROOT
BRANCH   2   4
HETATM    4  O   UNL     1      -9.065  10.150  64.711  1.00  0.00    -0.184 OA 
BRANCH   4   5
HETATM    5  C   UNL     1     -10.009  11.135  64.809  1.00  0.00    -0.287 C  
HETATM    6  O   UNL     1     -10.748  11.494  63.900  1.00  0.00    -0.336 OA 
BRANCH   5   7
HETATM    7  C   UNL     1     -10.055  11.676  66.240  1.00  0.00    -0.221 C  
HETATM    8  C   UNL     1      -8.662  12.189  66.600  1.00  0.00    -0.153 C  
BRANCH   7   9
HETATM    9  N   UNL     1     -10.561  10.639  67.174  1.00  0.00    -0.245 NA 
HETATM   10  P   UNL     1     -10.241  10.940  68.810  1.00  0.00    -0.200 P  
HETATM   11  H   UNL     1     -10.207   9.720  66.907  1.00  0.00     0.000 HD 
HETATM   12  O   UNL     1     -10.929   9.683  69.647  1.00  0.00    -0.236 OA 
HETATM   13  O   UNL     1     -11.749  11.783  68.892  1.00  0.00    -0.276 OA 
HETATM   14  O   UNL     1      -8.890  10.186  68.737  1.00  0.00    -0.131 OA 
BRANCH  13  15
HETATM   15  C   UNL     1     -11.727  13.154  68.883  1.00  0.00    -0.326 A  
HETATM   16  C   UNL     1     -11.759  15.934  69.057  1.00  0.00    -0.377 A  
HETATM   17  C   UNL     1     -11.411  13.778  70.088  1.00  0.00    -0.140 A  
HETATM   18  C   UNL     1     -12.024  13.915  67.752  1.00  0.00    -0.390 A  
HETATM   19  C   UNL     1     -11.433  15.170  70.178  1.00  0.00    -0.313 A  
HETATM   20  C   UNL     1     -12.045  15.308  67.845  1.00  0.00     0.137 A  
ENDBRANCH  13  15
BRANCH  12  21
HETATM   21  C   UNL     1     -10.337   9.375  70.924  1.00  0.00    -0.310 C  
BRANCH  21  22
HETATM   22  C   UNL     1      -9.410   8.125  71.023  1.00  0.00    -0.152 C  
HETATM   23  O   UNL     1      -9.964   7.161  71.946  1.00  0.00    -0.168 OA 
HETATM   24  C   UNL     1      -9.219   5.869  70.121  1.00  0.00    -0.153 C  
HETATM   25  H   UNL     1      -7.792   7.161  68.262  1.00  0.00     0.000 HD 
HETATM   26  C   UNL     1      -9.178   7.349  69.705  1.00  0.00    -0.140 C  
HETATM   27  O   UNL     1      -7.935   7.638  69.072  1.00  0.00    -0.117 OA 
HETATM   28  F   UNL     1      -8.107   5.226  69.670  1.00  0.00    -0.084 F  
HETATM   29  C   UNL     1     -10.425   5.188  69.494  1.00  0.00    -0.233 C  
HETATM   30  C   UNL     1      -9.231   5.954  71.649  1.00  0.00    -0.146 C  
BRANCH  30  31
HETATM   31  N   UNL     1      -9.812   4.818  72.371  1.00  0.00    -0.155 N  
HETATM   32  C   UNL     1      -9.116   3.631  72.521  1.00  0.00    -0.104 C  
HETATM   33  C   UNL     1      -9.662   2.554  73.081  1.00  0.00    -0.152 C  
HETATM   34  C   UNL     1     -11.058   2.624  73.537  1.00  0.00    -0.215 C  
HETATM   35  O   UNL     1     -11.645   1.622  73.926  1.00  0.00    -0.175 OA 
HETATM   36  N   UNL     1     -11.635   3.858  73.480  1.00  0.00    -0.119 N  
HETATM   37  H   UNL     1     -12.542   3.968  73.935  1.00  0.00     0.000 HD 
HETATM   38  C   UNL     1     -11.106   4.964  72.865  1.00  0.00    -0.256 C  
HETATM   39  O   UNL     1     -11.774   5.985  72.756  1.00  0.00    -0.218 OA 
ENDBRANCH  30  31
ENDBRANCH  21  22
ENDBRANCH  12  21
ENDBRANCH   7   9
ENDBRANCH   5   7
ENDBRANCH   4   5
ENDBRANCH   2   4
TORSDOF 8
ENDMDL
MODEL      189
REMARK 921   NORMALIZED FREE ENERGY PREDICTED BY IDOCK:   -1.79 KCAL/MOL
REMARK 922        TOTAL FREE ENERGY PREDICTED BY IDOCK:   -5.17 KCAL/MOL
REMARK 923 INTER-LIGAND FREE ENERGY PREDICTED BY IDOCK:   -6.60 KCAL/MOL
REMARK 924 INTRA-LIGAND FREE ENERGY PREDICTED BY IDOCK:    1.43 KCAL/MOL
REMARK 927      BINDING AFFINITY PREDICTED BY RF-SCORE:    0.00 PKD
ROOT
HETATM    1  C   UNL     1      -6.999   9.843  63.157  1.00  0.00    -0.124 C  
HETATM    2  C   UNL     1      -6.606   8.399  63.446  1.00  0.00    -0.085 C  
HETATM    3  C   UNL     1      -5.635   7.897  62.380  1.00  0.00    -0.065 C  
ENDROOT
BRANCH   2   4
HETATM    4  O   UNL     1      -5.940   8.321  64.722  1.00  0.00    -0.048 OA 
BRANCH   4   5
HETATM    5  C   UNL     1      -6.639   7.720  65.732  1.00  0.00    -0.045 C  
HETATM    6  O   UNL     1      -7.788   7.305  65.642  1.00  0.00    -0.098 OA 
BRANCH   5   7
HETATM    7  C   UNL     1      -5.752   7.580  66.972  1.00  0.00    -0.031 C  
HETATM    8  C   UNL     1      -6.366   6.516  67.880  1.00  0.00    -0.040 C  
BRANCH   7   9
HETATM    9  N   UNL     1      -5.575   8.894  67.639  1.00  0.00    -0.038 NA 
HETATM   10  P   UNL     1      -6.699  10.078  67.183  1.00  0.00    -0.076 P  
HETATM   11  H   UNL     1      -4.624   9.237  67.499  1.00  0.00     0.000 HD 
HETATM   12  O   UNL     1      -6.329  11.426  68.078  1.00  0.00    -0.052 OA 
HETATM   13  O   UNL     1      -7.713   9.532  68.473  1.00  0.00    -0.081 OA 
HETATM   14  O   UNL     1      -5.791  10.566  66.026  1.00  0.00    -0.081 OA 
BRANCH  13  15
HETATM   15  C   UNL     1      -8.785   8.737  68.163  1.00  0.00    -0.134 A  
HETATM   16  C   UNL     1     -10.857   6.960  67.606  1.00  0.00    -0.333 A  
HETATM   17  C   UNL     1      -9.053   7.686  69.038  1.00  0.00    -0.144 A  
HETATM   18  C   UNL     1      -9.573   8.927  67.027  1.00  0.00    -0.232 A  
HETATM   19  C   UNL     1     -10.086   6.793  68.757  1.00  0.00    -0.165 A  
HETATM   20  C   UNL     1     -10.606   8.029  66.748  1.00  0.00    -0.225 A  
ENDBRANCH  13  15
BRANCH  12  21
HETATM   21  C   UNL     1      -6.708  12.691  67.503  1.00  0.00    -0.156 C  
BRANCH  21  22
HETATM   22  C   UNL     1      -8.063  13.323  67.945  1.00  0.00    -0.159 C  
HETATM   23  O   UNL     1      -8.010  14.761  67.817  1.00  0.00    -0.132 OA 
HETATM   24  C   UNL     1     -10.129  14.172  66.971  1.00  0.00    -0.261 C  
HETATM   25  H   UNL     1     -10.864  11.620  67.296  1.00  0.00     0.000 HD 
HETATM   26  C   UNL     1      -9.309  12.883  67.140  1.00  0.00    -0.229 C  
HETATM   27  O   UNL     1     -10.099  11.891  67.790  1.00  0.00    -0.185 OA 
HETATM   28  F   UNL     1     -11.410  13.969  67.386  1.00  0.00    -0.291 F  
HETATM   29  C   UNL     1     -10.183  14.563  65.503  1.00  0.00    -0.394 C  
HETATM   30  C   UNL     1      -9.397  15.155  67.888  1.00  0.00    -0.185 C  
BRANCH  30  31
HETATM   31  N   UNL     1      -9.535  16.581  67.576  1.00  0.00    -0.223 N  
HETATM   32  C   UNL     1      -8.634  17.223  66.746  1.00  0.00    -0.249 C  
HETATM   33  C   UNL     1      -8.678  18.536  66.531  1.00  0.00    -0.296 C  
HETATM   34  C   UNL     1      -9.707  19.332  67.216  1.00  0.00    -0.328 C  
HETATM   35  O   UNL     1      -9.698  20.555  67.163  1.00  0.00    -0.441 OA 
HETATM   36  N   UNL     1     -10.639  18.617  67.909  1.00  0.00    -0.381 N  
HETATM   37  H   UNL     1     -11.450  19.128  68.259  1.00  0.00     0.000 HD 
HETATM   38  C   UNL     1     -10.582  17.273  68.178  1.00  0.00    -0.386 C  
HETATM   39  O   UNL     1     -11.405  16.761  68.928  1.00  0.00    -0.203 OA 
ENDBRANCH  30  31
ENDBRANCH  21  22
ENDBRANCH  12  21
ENDBRANCH   7   9
ENDBRANCH   5   7
ENDBRANCH   4   5
ENDBRANCH   2   4
TORSDOF 8
ENDMDL
MODEL      190
REMARK 921   NORMALIZED FREE ENERGY PREDICTED BY IDOCK:   -1.78 KCAL/MOL
REMARK 922        TOTAL FREE ENERGY PREDICTED BY IDOCK:   -5.17 KCAL/MOL
REMARK 923 INTER-LIGAND FREE ENERGY PREDICTED BY IDOCK:   -5.35 KCAL/MOL
REMARK 924 INTRA-LIGAND FREE ENERGY PREDICTED BY IDOCK:    0.18 KCAL/MOL
REMARK 927      BINDING AFFINITY PREDICTED BY RF-SCORE:    0.00 PKD
ROOT
HETATM    1  C   UNL     1      -5.885  10.711  62.769  1.00  0.00    -0.139 C  
HETATM    2  C   UNL     1      -6.274   9.244  62.908  1.00  0.00    -0.094 C  
HETATM    3  C   UNL     1      -5.271   8.520  63.804  1.00  0.00    -0.056 C  
ENDROOT
BRANCH   2   4
HETATM    4  O   UNL     1      -7.572   9.140  63.525  1.00  0.00    -0.103 OA 
BRANCH   4   5
HETATM    5  C   UNL     1      -7.608   9.292  64.884  1.00  0.00    -0.108 C  
HETATM    6  O   UNL     1      -7.281  10.307  65.487  1.00  0.00    -0.139 OA 
BRANCH   5   7
HETATM    7  C   UNL     1      -8.184   8.033  65.537  1.00  0.00    -0.138 C  
HETATM    8  C   UNL     1      -9.612   8.339  65.984  1.00  0.00    -0.151 C  
BRANCH   7   9
HETATM    9  N   UNL     1      -7.306   7.569  66.640  1.00  0.00    -0.089 NA 
HETATM   10  P   UNL     1      -7.606   5.987  67.169  1.00  0.00    -0.094 P  
HETATM   11  H   UNL     1      -7.352   8.219  67.425  1.00  0.00     0.000 HD 
HETATM   12  O   UNL     1      -6.491   5.686  68.360  1.00  0.00    -0.042 OA 
HETATM   13  O   UNL     1      -6.461   5.438  65.995  1.00  0.00    -0.041 OA 
HETATM   14  O   UNL     1      -8.633   6.479  68.219  1.00  0.00    -0.116 OA 
BRANCH  13  15
HETATM   15  C   UNL     1      -6.937   4.884  64.835  1.00  0.00    -0.057 A  
HETATM   16  C   UNL     1      -7.797   3.903  62.374  1.00  0.00    -0.062 A  
HETATM   17  C   UNL     1      -6.066   4.876  63.747  1.00  0.00    -0.022 A  
HETATM   18  C   UNL     1      -8.227   4.369  64.708  1.00  0.00    -0.105 A  
HETATM   19  C   UNL     1      -6.497   4.391  62.513  1.00  0.00    -0.026 A  
HETATM   20  C   UNL     1      -8.657   3.885  63.471  1.00  0.00    -0.096 A  
ENDBRANCH  13  15
BRANCH  12  21
HETATM   21  C   UNL     1      -6.867   4.705  69.346  1.00  0.00    -0.049 C  
BRANCH  21  22
HETATM   22  C   UNL     1      -7.376   5.210  70.730  1.00  0.00    -0.069 C  
HETATM   23  O   UNL     1      -8.601   5.959  70.571  1.00  0.00    -0.132 OA 
HETATM   24  C   UNL     1      -8.981   4.602  72.460  1.00  0.00    -0.120 C  
HETATM   25  H   UNL     1      -6.868   3.249  73.389  1.00  0.00     0.000 HD 
HETATM   26  C   UNL     1      -7.695   4.113  71.774  1.00  0.00    -0.074 C  
HETATM   27  O   UNL     1      -6.672   3.923  72.747  1.00  0.00    -0.037 OA 
HETATM   28  F   UNL     1      -8.816   4.609  73.812  1.00  0.00    -0.105 F  
HETATM   29  C   UNL     1     -10.128   3.656  72.146  1.00  0.00    -0.212 C  
HETATM   30  C   UNL     1      -9.131   6.023  71.913  1.00  0.00    -0.141 C  
BRANCH  30  31
HETATM   31  N   UNL     1     -10.484   6.589  71.896  1.00  0.00    -0.204 N  
HETATM   32  C   UNL     1     -11.298   6.464  70.784  1.00  0.00    -0.350 C  
HETATM   33  C   UNL     1     -12.488   7.056  70.706  1.00  0.00    -0.253 C  
HETATM   34  C   UNL     1     -12.941   7.886  71.833  1.00  0.00    -0.298 C  
HETATM   35  O   UNL     1     -13.958   8.562  71.749  1.00  0.00    -0.393 OA 
HETATM   36  N   UNL     1     -12.150   7.853  72.943  1.00  0.00    -0.613 N  
HETATM   37  H   UNL     1     -12.520   8.288  73.789  1.00  0.00     0.000 HD 
HETATM   38  C   UNL     1     -10.903   7.288  73.024  1.00  0.00    -0.355 C  
HETATM   39  O   UNL     1     -10.224   7.439  74.033  1.00  0.00    -0.262 OA 
ENDBRANCH  30  31
ENDBRANCH  21  22
ENDBRANCH  12  21
ENDBRANCH   7   9
ENDBRANCH   5   7
ENDBRANCH   4   5
ENDBRANCH   2   4
TORSDOF 8
ENDMDL
MODEL      191
REMARK 921   NORMALIZED FREE ENERGY PREDICTED BY IDOCK:   -1.68 KCAL/MOL
REMARK 922        TOTAL FREE ENERGY PREDICTED BY IDOCK:   -5.02 KCAL/MOL
REMARK 923 INTER-LIGAND FREE ENERGY PREDICTED BY IDOCK:   -7.06 KCAL/MOL
REMARK 924 INTRA-LIGAND FREE ENERGY PREDICTED BY IDOCK:    2.04 KCAL/MOL
REMARK 927      BINDING AFFINITY PREDICTED BY RF-SCORE:    0.00 PKD
ROOT
HETATM    1  C   UNL     1      -8.572   5.962  70.488  1.00  0.00    -0.136 C  
HETATM    2  C   UNL     1      -9.796   5.074  70.299  1.00  0.00    -0.234 C  
HETATM    3  C   UNL     1     -10.941   5.566  71.182  1.00  0.00    -0.196 C  
ENDROOT
BRANCH   2   4
HETATM    4  O   UNL     1     -10.238   5.138  68.928  1.00  0.00    -0.189 OA 
BRANCH   4   5
HETATM    5  C   UNL     1     -10.743   6.340  68.513  1.00  0.00    -0.292 C  
HETATM    6  O   UNL     1     -10.891   7.325  69.226  1.00  0.00    -0.220 OA 
BRANCH   5   7
HETATM    7  C   UNL     1     -11.031   6.295  67.010  1.00  0.00    -0.364 C  
HETATM    8  C   UNL     1     -10.702   4.891  66.504  1.00  0.00    -0.120 C  
BRANCH   7   9
HETATM    9  N   UNL     1     -10.286   7.366  66.303  1.00  0.00    -0.396 NA 
HETATM   10  P   UNL     1      -8.678   7.559  66.801  1.00  0.00    -0.145 P  
HETATM   11  H   UNL     1     -10.787   8.252  66.375  1.00  0.00     0.000 HD 
HETATM   12  O   UNL     1      -8.050   8.769  65.853  1.00  0.00    -0.103 OA 
HETATM   13  O   UNL     1      -8.225   6.412  65.588  1.00  0.00    -0.127 OA 
HETATM   14  O   UNL     1      -9.084   8.586  67.887  1.00  0.00    -0.139 OA 
BRANCH  13  15
HETATM   15  C   UNL     1      -7.941   5.130  65.983  1.00  0.00    -0.107 A  
HETATM   16  C   UNL     1      -7.192   2.599  66.874  1.00  0.00    -0.057 A  
HETATM   17  C   UNL     1      -7.337   4.983  67.230  1.00  0.00    -0.082 A  
HETATM   18  C   UNL     1      -8.206   4.012  65.192  1.00  0.00    -0.101 A  
HETATM   19  C   UNL     1      -6.956   3.717  67.674  1.00  0.00    -0.054 A  
HETATM   20  C   UNL     1      -7.823   2.745  65.640  1.00  0.00    -0.081 A  
ENDBRANCH  13  15
BRANCH  12  21
HETATM   21  C   UNL     1      -6.956   9.514  66.421  1.00  0.00    -0.088 C  
BRANCH  21  22
HETATM   22  C   UNL     1      -7.164  11.035  66.693  1.00  0.00    -0.143 C  
HETATM   23  O   UNL     1      -8.215  11.556  65.850  1.00  0.00    -0.006 OA 
HETATM   24  C   UNL     1      -8.624  12.519  67.961  1.00  0.00    -0.185 C  
HETATM   25  H   UNL     1      -6.741  12.132  69.822  1.00  0.00     0.000 HD 
HETATM   26  C   UNL     1      -7.570  11.414  68.138  1.00  0.00    -0.114 C  
HETATM   27  O   UNL     1      -6.493  11.899  68.935  1.00  0.00    -0.069 OA 
HETATM   28  F   UNL     1      -8.289  13.609  68.705  1.00  0.00    -0.145 F  
HETATM   29  C   UNL     1      -9.976  12.028  68.456  1.00  0.00    -0.188 C  
HETATM   30  C   UNL     1      -8.541  12.821  66.464  1.00  0.00     0.090 C  
BRANCH  30  31
HETATM   31  N   UNL     1      -9.736  13.395  65.835  1.00  0.00    -0.230 N  
HETATM   32  C   UNL     1     -10.680  12.590  65.224  1.00  0.00    -0.286 C  
HETATM   33  C   UNL     1     -11.718  13.094  64.559  1.00  0.00    -0.417 C  
HETATM   34  C   UNL     1     -11.851  14.555  64.455  1.00  0.00    -0.403 C  
HETATM   35  O   UNL     1     -12.704  15.060  63.736  1.00  0.00    -0.741 OA 
HETATM   36  N   UNL     1     -10.963  15.281  65.191  1.00  0.00    -0.392 N  
HETATM   37  H   UNL     1     -11.131  16.285  65.265  1.00  0.00     0.000 HD 
HETATM   38  C   UNL     1      -9.863  14.782  65.843  1.00  0.00    -0.334 C  
HETATM   39  O   UNL     1      -9.056  15.545  66.360  1.00  0.00    -0.267 OA 
ENDBRANCH  30  31
ENDBRANCH  21  22
ENDBRANCH  12  21
ENDBRANCH   7   9
ENDBRANCH   5   7
ENDBRANCH   4   5
ENDBRANCH   2   4
TORSDOF 8
ENDMDL
MODEL      192
REMARK 921   NORMALIZED FREE ENERGY PREDICTED BY IDOCK:   -1.68 KCAL/MOL
REMARK 922        TOTAL FREE ENERGY PREDICTED BY IDOCK:   -5.02 KCAL/MOL
REMARK 923 INTER-LIGAND FREE ENERGY PREDICTED BY IDOCK:   -5.20 KCAL/MOL
REMARK 924 INTRA-LIGAND FREE ENERGY PREDICTED BY IDOCK:    0.18 KCAL/MOL
REMARK 927      BINDING AFFINITY PREDICTED BY RF-SCORE:    0.00 PKD
ROOT
HETATM    1  C   UNL     1     -10.376   4.347  65.474  1.00  0.00    -0.247 C  
HETATM    2  C   UNL     1      -9.300   4.770  66.466  1.00  0.00    -0.144 C  
HETATM    3  C   UNL     1      -8.665   6.085  66.019  1.00  0.00    -0.154 C  
ENDROOT
BRANCH   2   4
HETATM    4  O   UNL     1      -9.889   4.984  67.764  1.00  0.00    -0.146 OA 
BRANCH   4   5
HETATM    5  C   UNL     1      -9.088   5.578  68.700  1.00  0.00    -0.117 C  
HETATM    6  O   UNL     1      -7.936   5.249  68.950  1.00  0.00    -0.085 OA 
BRANCH   5   7
HETATM    7  C   UNL     1      -9.820   6.761  69.340  1.00  0.00    -0.156 C  
HETATM    8  C   UNL     1     -11.233   6.816  68.760  1.00  0.00    -0.178 C  
BRANCH   7   9
HETATM    9  N   UNL     1      -9.053   8.016  69.146  1.00  0.00    -0.145 NA 
HETATM   10  P   UNL     1     -10.003   9.396  68.891  1.00  0.00    -0.194 P  
HETATM   11  H   UNL     1      -8.379   7.906  68.388  1.00  0.00     0.000 HD 
HETATM   12  O   UNL     1      -8.939  10.661  68.744  1.00  0.00    -0.157 OA 
HETATM   13  O   UNL     1     -10.012   9.638  70.603  1.00  0.00    -0.273 OA 
HETATM   14  O   UNL     1      -9.997   9.179  67.357  1.00  0.00    -0.178 OA 
BRANCH  13  15
HETATM   15  C   UNL     1     -11.137   9.286  71.302  1.00  0.00    -0.357 A  
HETATM   16  C   UNL     1     -13.396   8.376  72.655  1.00  0.00    -0.099 A  
HETATM   17  C   UNL     1     -11.128   8.028  71.901  1.00  0.00    -0.333 A  
HETATM   18  C   UNL     1     -12.259  10.109  71.407  1.00  0.00    -0.492 A  
HETATM   19  C   UNL     1     -12.261   7.570  72.574  1.00  0.00    -0.096 A  
HETATM   20  C   UNL     1     -13.392   9.646  72.081  1.00  0.00    -0.545 A  
ENDBRANCH  13  15
BRANCH  12  21
HETATM   21  C   UNL     1      -9.397  11.787  67.971  1.00  0.00    -0.184 C  
BRANCH  21  22
HETATM   22  C   UNL     1      -8.799  11.993  66.546  1.00  0.00    -0.172 C  
HETATM   23  O   UNL     1      -7.919  10.898  66.208  1.00  0.00    -0.155 OA 
HETATM   24  C   UNL     1      -9.170  11.274  64.247  1.00  0.00    -0.044 C  
HETATM   25  H   UNL     1     -10.732  13.446  64.239  1.00  0.00     0.000 HD 
HETATM   26  C   UNL     1      -9.822  12.071  65.388  1.00  0.00    -0.220 C  
HETATM   27  O   UNL     1     -10.103  13.398  64.950  1.00  0.00    -0.304 OA 
HETATM   28  F   UNL     1      -9.146  12.021  63.108  1.00  0.00    -0.162 F  
HETATM   29  C   UNL     1      -9.986  10.025  63.954  1.00  0.00     0.212 C  
HETATM   30  C   UNL     1      -7.757  11.027  64.779  1.00  0.00     0.506 C  
BRANCH  30  31
HETATM   31  N   UNL     1      -7.040   9.865  64.244  1.00  0.00    -0.127 N  
HETATM   32  C   UNL     1      -6.831   9.716  62.884  1.00  0.00    -0.104 C  
HETATM   33  C   UNL     1      -6.276   8.622  62.368  1.00  0.00    -0.095 C  
HETATM   34  C   UNL     1      -5.891   7.528  63.273  1.00  0.00    -0.050 C  
HETATM   35  O   UNL     1      -5.511   6.451  62.833  1.00  0.00    -0.021 OA 
HETATM   36  N   UNL     1      -6.002   7.799  64.604  1.00  0.00    -0.041 N  
HETATM   37  H   UNL     1      -5.594   7.124  65.251  1.00  0.00     0.000 HD 
HETATM   38  C   UNL     1      -6.613   8.899  65.151  1.00  0.00    -0.065 C  
HETATM   39  O   UNL     1      -6.777   8.972  66.363  1.00  0.00    -0.072 OA 
ENDBRANCH  30  31
ENDBRANCH  21  22
ENDBRANCH  12  21
ENDBRANCH   7   9
ENDBRANCH   5   7
ENDBRANCH   4   5
ENDBRANCH   2   4
TORSDOF 8
ENDMDL
MODEL      193
REMARK 921   NORMALIZED FREE ENERGY PREDICTED BY IDOCK:   -1.57 KCAL/MOL
REMARK 922        TOTAL FREE ENERGY PREDICTED BY IDOCK:   -4.85 KCAL/MOL
REMARK 923 INTER-LIGAND FREE ENERGY PREDICTED BY IDOCK:   -6.12 KCAL/MOL
REMARK 924 INTRA-LIGAND FREE ENERGY PREDICTED BY IDOCK:    1.27 KCAL/MOL
REMARK 927      BINDING AFFINITY PREDICTED BY RF-SCORE:    0.00 PKD
ROOT
HETATM    1  C   UNL     1      -5.702   9.849  62.373  1.00  0.00    -0.092 C  
HETATM    2  C   UNL     1      -6.377   8.506  62.625  1.00  0.00    -0.088 C  
HETATM    3  C   UNL     1      -5.546   7.678  63.602  1.00  0.00    -0.045 C  
ENDROOT
BRANCH   2   4
HETATM    4  O   UNL     1      -7.674   8.716  63.218  1.00  0.00    -0.120 OA 
BRANCH   4   5
HETATM    5  C   UNL     1      -7.683   9.108  64.529  1.00  0.00    -0.114 C  
HETATM    6  O   UNL     1      -7.057  10.059  64.982  1.00  0.00    -0.125 OA 
BRANCH   5   7
HETATM    7  C   UNL     1      -8.642   8.227  65.333  1.00  0.00    -0.151 C  
HETATM    8  C   UNL     1      -9.812   9.095  65.795  1.00  0.00    -0.248 C  
BRANCH   7   9
HETATM    9  N   UNL     1      -7.926   7.559  66.448  1.00  0.00    -0.104 NA 
HETATM   10  P   UNL     1      -8.733   6.222  67.109  1.00  0.00    -0.110 P  
HETATM   11  H   UNL     1      -7.702   8.234  67.180  1.00  0.00     0.000 HD 
HETATM   12  O   UNL     1      -7.733   5.629  68.294  1.00  0.00    -0.087 OA 
HETATM   13  O   UNL     1      -7.912   5.228  65.956  1.00  0.00    -0.102 OA 
HETATM   14  O   UNL     1      -9.468   7.113  68.141  1.00  0.00    -0.133 OA 
BRANCH  13  15
HETATM   15  C   UNL     1      -8.610   4.801  64.856  1.00  0.00    -0.145 A  
HETATM   16  C   UNL     1     -10.102   3.778  62.738  1.00  0.00    -0.171 A  
HETATM   17  C   UNL     1      -9.875   4.266  65.092  1.00  0.00    -0.208 A  
HETATM   18  C   UNL     1      -8.100   4.861  63.559  1.00  0.00    -0.101 A  
HETATM   19  C   UNL     1     -10.620   3.749  64.032  1.00  0.00    -0.274 A  
HETATM   20  C   UNL     1      -8.849   4.341  62.501  1.00  0.00    -0.108 A  
ENDBRANCH  13  15
BRANCH  12  21
HETATM   21  C   UNL     1      -8.377   4.910  69.364  1.00  0.00    -0.084 C  
BRANCH  21  22
HETATM   22  C   UNL     1      -8.534   5.625  70.740  1.00  0.00    -0.124 C  
HETATM   23  O   UNL     1      -9.327   6.825  70.595  1.00  0.00    -0.161 OA 
HETATM   24  C   UNL     1     -10.135   5.821  72.568  1.00  0.00    -0.180 C  
HETATM   25  H   UNL     1      -8.755   3.715  73.474  1.00  0.00     0.000 HD 
HETATM   26  C   UNL     1      -9.228   4.805  71.853  1.00  0.00    -0.137 C  
HETATM   27  O   UNL     1      -8.329   4.219  72.790  1.00  0.00    -0.098 OA 
HETATM   28  F   UNL     1      -9.900   5.794  73.909  1.00  0.00    -0.147 F  
HETATM   29  C   UNL     1     -11.594   5.453  72.353  1.00  0.00    -0.167 C  
HETATM   30  C   UNL     1      -9.693   7.150  71.953  1.00  0.00    -0.156 C  
BRANCH  30  31
HETATM   31  N   UNL     1     -10.671   8.244  71.965  1.00  0.00    -0.273 N  
HETATM   32  C   UNL     1     -11.895   8.103  72.594  1.00  0.00    -0.326 C  
HETATM   33  C   UNL     1     -12.837   9.041  72.529  1.00  0.00    -0.408 C  
HETATM   34  C   UNL     1     -12.573  10.258  71.746  1.00  0.00    -0.389 C  
HETATM   35  O   UNL     1     -13.457  11.079  71.541  1.00  0.00    -0.229 OA 
HETATM   36  N   UNL     1     -11.303  10.386  71.269  1.00  0.00    -0.175 N  
HETATM   37  H   UNL     1     -11.048  11.287  70.862  1.00  0.00     0.000 HD 
HETATM   38  C   UNL     1     -10.337   9.412  71.285  1.00  0.00    -0.292 C  
HETATM   39  O   UNL     1      -9.273   9.591  70.704  1.00  0.00    -0.245 OA 
ENDBRANCH  30  31
ENDBRANCH  21  22
ENDBRANCH  12  21
ENDBRANCH   7   9
ENDBRANCH   5   7
ENDBRANCH   4   5
ENDBRANCH   2   4
TORSDOF 8
ENDMDL
MODEL      194
REMARK 921   NORMALIZED FREE ENERGY PREDICTED BY IDOCK:   -1.53 KCAL/MOL
REMARK 922        TOTAL FREE ENERGY PREDICTED BY IDOCK:   -4.80 KCAL/MOL
REMARK 923 INTER-LIGAND FREE ENERGY PREDICTED BY IDOCK:   -5.36 KCAL/MOL
REMARK 924 INTRA-LIGAND FREE ENERGY PREDICTED BY IDOCK:    0.56 KCAL/MOL
REMARK 927      BINDING AFFINITY PREDICTED BY RF-SCORE:    0.00 PKD
ROOT
HETATM    1  C   UNL     1      -6.415   9.814  64.692  1.00  0.00    -0.111 C  
HETATM    2  C   UNL     1      -6.325   8.507  63.912  1.00  0.00    -0.072 C  
HETATM    3  C   UNL     1      -5.518   8.717  62.633  1.00  0.00    -0.071 C  
ENDROOT
BRANCH   2   4
HETATM    4  O   UNL     1      -5.645   7.513  64.704  1.00  0.00    -0.033 OA 
BRANCH   4   5
HETATM    5  C   UNL     1      -6.259   6.294  64.798  1.00  0.00    -0.030 C  
HETATM    6  O   UNL     1      -7.375   6.034  64.365  1.00  0.00    -0.060 OA 
BRANCH   5   7
HETATM    7  C   UNL     1      -5.319   5.284  65.462  1.00  0.00    -0.013 C  
HETATM    8  C   UNL     1      -5.750   3.882  65.034  1.00  0.00    -0.018 C  
BRANCH   7   9
HETATM    9  N   UNL     1      -5.304   5.474  66.933  1.00  0.00    -0.008 NA 
HETATM   10  P   UNL     1      -6.616   6.353  67.549  1.00  0.00    -0.058 P  
HETATM   11  H   UNL     1      -4.425   5.900  67.226  1.00  0.00     0.000 HD 
HETATM   12  O   UNL     1      -6.402   6.397  69.194  1.00  0.00    -0.032 OA 
HETATM   13  O   UNL     1      -7.463   4.855  67.727  1.00  0.00    -0.077 OA 
HETATM   14  O   UNL     1      -5.858   7.694  67.388  1.00  0.00    -0.034 OA 
BRANCH  13  15
HETATM   15  C   UNL     1      -8.421   4.538  66.799  1.00  0.00    -0.105 A  
HETATM   16  C   UNL     1     -10.505   3.988  65.035  1.00  0.00    -0.152 A  
HETATM   17  C   UNL     1      -9.427   5.481  66.596  1.00  0.00    -0.154 A  
HETATM   18  C   UNL     1      -8.431   3.333  66.095  1.00  0.00    -0.111 A  
HETATM   19  C   UNL     1     -10.474   5.203  65.718  1.00  0.00    -0.088 A  
HETATM   20  C   UNL     1      -9.482   3.059  65.216  1.00  0.00    -0.084 A  
ENDBRANCH  13  15
BRANCH  12  21
HETATM   21  C   UNL     1      -6.998   7.515  69.880  1.00  0.00    -0.059 C  
BRANCH  21  22
HETATM   22  C   UNL     1      -8.268   7.255  70.746  1.00  0.00    -0.112 C  
HETATM   23  O   UNL     1      -9.028   8.475  70.900  1.00  0.00    -0.146 OA 
HETATM   24  C   UNL     1     -10.651   6.820  70.476  1.00  0.00    -0.225 C  
HETATM   25  H   UNL     1      -9.780   4.290  70.446  1.00  0.00     0.000 HD 
HETATM   26  C   UNL     1      -9.267   6.215  70.185  1.00  0.00    -0.155 C  
HETATM   27  O   UNL     1      -9.167   4.929  70.790  1.00  0.00    -0.134 OA 
HETATM   28  F   UNL     1     -11.428   5.914  71.131  1.00  0.00    -0.347 F  
HETATM   29  C   UNL     1     -11.351   7.161  69.171  1.00  0.00     0.084 C  
HETATM   30  C   UNL     1     -10.311   8.012  71.373  1.00  0.00    -0.200 C  
BRANCH  30  31
HETATM   31  N   UNL     1     -11.272   9.120  71.395  1.00  0.00    -0.320 N  
HETATM   32  C   UNL     1     -11.118  10.218  70.566  1.00  0.00    -0.306 C  
HETATM   33  C   UNL     1     -11.916  11.280  70.641  1.00  0.00    -0.435 C  
HETATM   34  C   UNL     1     -12.984  11.294  71.652  1.00  0.00    -0.432 C  
HETATM   35  O   UNL     1     -13.648  12.303  71.854  1.00  0.00    -0.319 OA 
HETATM   36  N   UNL     1     -13.159  10.130  72.339  1.00  0.00    -0.494 N  
HETATM   37  H   UNL     1     -13.989  10.059  72.929  1.00  0.00     0.000 HD 
HETATM   38  C   UNL     1     -12.319   9.045  72.308  1.00  0.00    -0.332 C  
HETATM   39  O   UNL     1     -12.502   8.105  73.072  1.00  0.00    -0.117 OA 
ENDBRANCH  30  31
ENDBRANCH  21  22
ENDBRANCH  12  21
ENDBRANCH   7   9
ENDBRANCH   5   7
ENDBRANCH   4   5
ENDBRANCH   2   4
TORSDOF 8
ENDMDL
MODEL      195
REMARK 921   NORMALIZED FREE ENERGY PREDICTED BY IDOCK:   -1.52 KCAL/MOL
REMARK 922        TOTAL FREE ENERGY PREDICTED BY IDOCK:   -4.77 KCAL/MOL
REMARK 923 INTER-LIGAND FREE ENERGY PREDICTED BY IDOCK:   -6.63 KCAL/MOL
REMARK 924 INTRA-LIGAND FREE ENERGY PREDICTED BY IDOCK:    1.86 KCAL/MOL
REMARK 927      BINDING AFFINITY PREDICTED BY RF-SCORE:    0.00 PKD
ROOT
HETATM    1  C   UNL     1      -7.984   8.086  73.842  1.00  0.00    -0.266 C  
HETATM    2  C   UNL     1      -8.841   6.844  73.633  1.00  0.00    -0.143 C  
HETATM    3  C   UNL     1     -10.321   7.214  73.686  1.00  0.00    -0.411 C  
ENDROOT
BRANCH   2   4
HETATM    4  O   UNL     1      -8.574   6.280  72.334  1.00  0.00    -0.122 OA 
BRANCH   4   5
HETATM    5  C   UNL     1      -9.592   5.564  71.765  1.00  0.00    -0.151 C  
HETATM    6  O   UNL     1     -10.040   4.511  72.202  1.00  0.00    -0.183 OA 
BRANCH   5   7
HETATM    7  C   UNL     1     -10.135   6.308  70.542  1.00  0.00    -0.189 C  
HETATM    8  C   UNL     1     -11.654   6.401  70.679  1.00  0.00    -0.412 C  
BRANCH   7   9
HETATM    9  N   UNL     1      -9.695   5.644  69.290  1.00  0.00    -0.147 NA 
HETATM   10  P   UNL     1      -9.337   6.702  68.015  1.00  0.00    -0.109 P  
HETATM   11  H   UNL     1     -10.385   4.954  68.994  1.00  0.00     0.000 HD 
HETATM   12  O   UNL     1      -8.836   5.743  66.756  1.00  0.00    -0.115 OA 
HETATM   13  O   UNL     1      -7.706   6.752  68.589  1.00  0.00    -0.108 OA 
HETATM   14  O   UNL     1     -10.798   6.657  67.501  1.00  0.00    -0.275 OA 
BRANCH  13  15
HETATM   15  C   UNL     1      -7.303   7.854  69.298  1.00  0.00    -0.082 A  
HETATM   16  C   UNL     1      -6.336   9.974  70.825  1.00  0.00    -0.074 A  
HETATM   17  C   UNL     1      -5.933   7.981  69.523  1.00  0.00    -0.033 A  
HETATM   18  C   UNL     1      -8.191   8.804  69.802  1.00  0.00    -0.117 A  
HETATM   19  C   UNL     1      -5.450   9.038  70.292  1.00  0.00    -0.027 A  
HETATM   20  C   UNL     1      -7.703   9.862  70.573  1.00  0.00     0.004 A  
ENDBRANCH  13  15
BRANCH  12  21
HETATM   21  C   UNL     1      -9.030   6.282  65.434  1.00  0.00     0.096 C  
BRANCH  21  22
HETATM   22  C   UNL     1      -8.377   7.657  65.097  1.00  0.00    -0.093 C  
HETATM   23  O   UNL     1      -9.385   8.599  64.667  1.00  0.00     0.296 OA 
HETATM   24  C   UNL     1      -7.999   9.840  66.113  1.00  0.00    -0.110 C  
HETATM   25  H   UNL     1      -5.756   8.630  66.929  1.00  0.00     0.000 HD 
HETATM   26  C   UNL     1      -7.631   8.354  66.260  1.00  0.00    -0.086 C  
HETATM   27  O   UNL     1      -6.215   8.202  66.215  1.00  0.00    -0.044 OA 
HETATM   28  F   UNL     1      -6.870  10.601  66.095  1.00  0.00    -0.106 F  
HETATM   29  C   UNL     1      -8.831  10.287  67.305  1.00  0.00    -0.136 C  
HETATM   30  C   UNL     1      -8.714   9.874  64.761  1.00  0.00    -0.189 C  
BRANCH  30  31
HETATM   31  N   UNL     1      -9.669  10.965  64.543  1.00  0.00    -0.257 N  
HETATM   32  C   UNL     1     -10.562  11.343  65.530  1.00  0.00    -0.271 C  
HETATM   33  C   UNL     1     -11.505  12.259  65.320  1.00  0.00    -0.399 C  
HETATM   34  C   UNL     1     -11.612  12.873  63.988  1.00  0.00    -0.426 C  
HETATM   35  O   UNL     1     -12.549  13.610  63.707  1.00  0.00    -0.705 OA 
HETATM   36  N   UNL     1     -10.620  12.552  63.110  1.00  0.00    -0.542 N  
HETATM   37  H   UNL     1     -10.580  13.083  62.240  1.00  0.00     0.000 HD 
HETATM   38  C   UNL     1      -9.670  11.578  63.293  1.00  0.00    -0.385 C  
HETATM   39  O   UNL     1      -8.910  11.282  62.379  1.00  0.00    -0.314 OA 
ENDBRANCH  30  31
ENDBRANCH  21  22
ENDBRANCH  12  21
ENDBRANCH   7   9
ENDBRANCH   5   7
ENDBRANCH   4   5
ENDBRANCH   2   4
TORSDOF 8
ENDMDL
MODEL      196
REMARK 921   NORMALIZED FREE ENERGY PREDICTED BY IDOCK:   -1.51 KCAL/MOL
REMARK 922        TOTAL FREE ENERGY PREDICTED BY IDOCK:   -4.77 KCAL/MOL
REMARK 923 INTER-LIGAND FREE ENERGY PREDICTED BY IDOCK:   -5.88 KCAL/MOL
REMARK 924 INTRA-LIGAND FREE ENERGY PREDICTED BY IDOCK:    1.12 KCAL/MOL
REMARK 927      BINDING AFFINITY PREDICTED BY RF-SCORE:    0.00 PKD
ROOT
HETATM    1  C   UNL     1     -12.371   6.663  70.973  1.00  0.00    -0.289 C  
HETATM    2  C   UNL     1     -10.851   6.558  70.993  1.00  0.00    -0.253 C  
HETATM    3  C   UNL     1     -10.373   5.672  69.845  1.00  0.00    -0.347 C  
ENDROOT
BRANCH   2   4
HETATM    4  O   UNL     1     -10.270   7.865  70.812  1.00  0.00    -0.193 OA 
BRANCH   4   5
HETATM    5  C   UNL     1      -9.486   8.029  69.703  1.00  0.00    -0.163 C  
HETATM    6  O   UNL     1      -8.261   8.020  69.699  1.00  0.00    -0.117 OA 
BRANCH   5   7
HETATM    7  C   UNL     1     -10.365   8.156  68.456  1.00  0.00    -0.198 C  
HETATM    8  C   UNL     1      -9.449   8.246  67.236  1.00  0.00    -0.193 C  
BRANCH   7   9
HETATM    9  N   UNL     1     -11.291   9.308  68.585  1.00  0.00    -0.332 NA 
HETATM   10  P   UNL     1     -10.700  10.593  69.519  1.00  0.00    -0.210 P  
HETATM   11  H   UNL     1     -12.195   8.997  68.942  1.00  0.00     0.000 HD 
HETATM   12  O   UNL     1     -11.878  11.761  69.484  1.00  0.00    -0.300 OA 
HETATM   13  O   UNL     1     -10.030  11.263  68.072  1.00  0.00    -0.170 OA 
HETATM   14  O   UNL     1     -11.299   9.992  70.815  1.00  0.00    -0.311 OA 
BRANCH  13  15
HETATM   15  C   UNL     1      -8.684  11.118  67.853  1.00  0.00    -0.136 A  
HETATM   16  C   UNL     1      -5.919  10.954  67.569  1.00  0.00    -0.045 A  
HETATM   17  C   UNL     1      -7.869  11.103  68.984  1.00  0.00    -0.103 A  
HETATM   18  C   UNL     1      -8.125  11.016  66.580  1.00  0.00    -0.161 A  
HETATM   19  C   UNL     1      -6.484  11.026  68.842  1.00  0.00    -0.054 A  
HETATM   20  C   UNL     1      -6.737  10.940  66.441  1.00  0.00    -0.134 A  
ENDBRANCH  13  15
BRANCH  12  21
HETATM   21  C   UNL     1     -11.912  12.660  70.609  1.00  0.00    -0.106 C  
BRANCH  21  22
HETATM   22  C   UNL     1     -11.483  14.141  70.380  1.00  0.00    -0.087 C  
HETATM   23  O   UNL     1     -10.141  14.199  69.848  1.00  0.00     0.431 OA 
HETATM   24  C   UNL     1     -11.342  15.785  68.586  1.00  0.00    -0.369 C  
HETATM   25  H   UNL     1     -13.832  16.313  69.412  1.00  0.00     0.000 HD 
HETATM   26  C   UNL     1     -12.353  14.952  69.390  1.00  0.00    -0.133 C  
HETATM   27  O   UNL     1     -13.297  15.815  70.019  1.00  0.00     0.028 OA 
HETATM   28  F   UNL     1     -11.697  17.100  68.609  1.00  0.00     0.026 F  
HETATM   29  C   UNL     1     -11.343  15.338  67.133  1.00  0.00    -0.247 C  
HETATM   30  C   UNL     1     -10.036  15.549  69.347  1.00  0.00    -0.266 C  
BRANCH  30  31
HETATM   31  N   UNL     1      -8.789  15.713  68.593  1.00  0.00    -0.189 N  
HETATM   32  C   UNL     1      -8.180  14.637  67.973  1.00  0.00    -0.145 C  
HETATM   33  C   UNL     1      -6.997  14.741  67.371  1.00  0.00    -0.141 C  
HETATM   34  C   UNL     1      -6.308  16.040  67.385  1.00  0.00    -0.172 C  
HETATM   35  O   UNL     1      -5.160  16.149  66.972  1.00  0.00    -0.326 OA 
HETATM   36  N   UNL     1      -7.025  17.082  67.894  1.00  0.00    -0.156 N  
HETATM   37  H   UNL     1      -6.637  18.018  67.770  1.00  0.00     0.000 HD 
HETATM   38  C   UNL     1      -8.222  16.984  68.558  1.00  0.00    -0.259 C  
HETATM   39  O   UNL     1      -8.710  17.972  69.094  1.00  0.00    -0.060 OA 
ENDBRANCH  30  31
ENDBRANCH  21  22
ENDBRANCH  12  21
ENDBRANCH   7   9
ENDBRANCH   5   7
ENDBRANCH   4   5
ENDBRANCH   2   4
TORSDOF 8
ENDMDL
MODEL      197
REMARK 921   NORMALIZED FREE ENERGY PREDICTED BY IDOCK:   -1.50 KCAL/MOL
REMARK 922        TOTAL FREE ENERGY PREDICTED BY IDOCK:   -4.75 KCAL/MOL
REMARK 923 INTER-LIGAND FREE ENERGY PREDICTED BY IDOCK:   -5.61 KCAL/MOL
REMARK 924 INTRA-LIGAND FREE ENERGY PREDICTED BY IDOCK:    0.86 KCAL/MOL
REMARK 927      BINDING AFFINITY PREDICTED BY RF-SCORE:    0.00 PKD
ROOT
HETATM    1  C   UNL     1     -11.359  13.397  68.966  1.00  0.00    -0.335 C  
HETATM    2  C   UNL     1     -11.704  12.976  67.543  1.00  0.00    -0.370 C  
HETATM    3  C   UNL     1     -12.094  14.199  66.716  1.00  0.00    -0.474 C  
ENDROOT
BRANCH   2   4
HETATM    4  O   UNL     1     -10.553  12.372  66.920  1.00  0.00    -0.226 OA 
BRANCH   4   5
HETATM    5  C   UNL     1     -10.431  11.017  67.062  1.00  0.00    -0.240 C  
HETATM    6  O   UNL     1     -11.270  10.286  67.575  1.00  0.00    -0.295 OA 
BRANCH   5   7
HETATM    7  C   UNL     1      -9.126  10.539  66.422  1.00  0.00    -0.162 C  
HETATM    8  C   UNL     1      -9.399   9.208  65.722  1.00  0.00    -0.309 C  
BRANCH   7   9
HETATM    9  N   UNL     1      -8.045  10.461  67.436  1.00  0.00    -0.107 NA 
HETATM   10  P   UNL     1      -7.231   8.976  67.494  1.00  0.00    -0.080 P  
HETATM   11  H   UNL     1      -8.408  10.701  68.359  1.00  0.00     0.000 HD 
HETATM   12  O   UNL     1      -6.060   9.144  68.658  1.00  0.00    -0.044 OA 
HETATM   13  O   UNL     1      -6.121   9.603  66.325  1.00  0.00    -0.061 OA 
HETATM   14  O   UNL     1      -8.226   8.414  68.540  1.00  0.00    -0.121 OA 
BRANCH  13  15
HETATM   15  C   UNL     1      -6.259   9.204  65.021  1.00  0.00    -0.065 A  
HETATM   16  C   UNL     1      -6.427   8.224  62.419  1.00  0.00    -0.088 A  
HETATM   17  C   UNL     1      -6.400   7.835  64.802  1.00  0.00    -0.044 A  
HETATM   18  C   UNL     1      -6.238  10.091  63.945  1.00  0.00    -0.132 A  
HETATM   19  C   UNL     1      -6.478   7.343  63.499  1.00  0.00    -0.053 A  
HETATM   20  C   UNL     1      -6.317   9.596  62.642  1.00  0.00    -0.100 A  
ENDBRANCH  13  15
BRANCH  12  21
HETATM   21  C   UNL     1      -5.634   7.930  69.307  1.00  0.00    -0.027 C  
BRANCH  21  22
HETATM   22  C   UNL     1      -6.123   7.664  70.764  1.00  0.00    -0.034 C  
HETATM   23  O   UNL     1      -7.444   8.217  70.958  1.00  0.00    -0.060 OA 
HETATM   24  C   UNL     1      -7.529   6.106  72.003  1.00  0.00    -0.095 C  
HETATM   25  H   UNL     1      -5.205   4.800  72.219  1.00  0.00     0.000 HD 
HETATM   26  C   UNL     1      -6.233   6.178  71.179  1.00  0.00    -0.039 C  
HETATM   27  O   UNL     1      -5.138   5.713  71.963  1.00  0.00    -0.015 OA 
HETATM   28  F   UNL     1      -7.287   5.516  73.205  1.00  0.00    -0.087 F  
HETATM   29  C   UNL     1      -8.558   5.255  71.276  1.00  0.00    -0.132 C  
HETATM   30  C   UNL     1      -7.898   7.582  72.172  1.00  0.00    -0.093 C  
BRANCH  30  31
HETATM   31  N   UNL     1      -9.312   7.889  72.407  1.00  0.00    -0.168 N  
HETATM   32  C   UNL     1     -10.071   7.141  73.289  1.00  0.00    -0.276 C  
HETATM   33  C   UNL     1     -11.379   7.336  73.440  1.00  0.00     0.114 C  
HETATM   34  C   UNL     1     -12.041   8.367  72.627  1.00  0.00    -0.257 C  
HETATM   35  O   UNL     1     -13.260   8.483  72.627  1.00  0.00    -0.280 OA 
HETATM   36  N   UNL     1     -11.212   9.151  71.882  1.00  0.00    -0.370 N  
HETATM   37  H   UNL     1     -11.624   9.970  71.435  1.00  0.00     0.000 HD 
HETATM   38  C   UNL     1      -9.872   8.936  71.678  1.00  0.00    -0.317 C  
HETATM   39  O   UNL     1      -9.253   9.627  70.878  1.00  0.00    -0.167 OA 
ENDBRANCH  30  31
ENDBRANCH  21  22
ENDBRANCH  12  21
ENDBRANCH   7   9
ENDBRANCH   5   7
ENDBRANCH   4   5
ENDBRANCH   2   4
TORSDOF 8
ENDMDL
MODEL      198
REMARK 921   NORMALIZED FREE ENERGY PREDICTED BY IDOCK:   -1.46 KCAL/MOL
REMARK 922        TOTAL FREE ENERGY PREDICTED BY IDOCK:   -4.69 KCAL/MOL
REMARK 923 INTER-LIGAND FREE ENERGY PREDICTED BY IDOCK:   -6.31 KCAL/MOL
REMARK 924 INTRA-LIGAND FREE ENERGY PREDICTED BY IDOCK:    1.62 KCAL/MOL
REMARK 927      BINDING AFFINITY PREDICTED BY RF-SCORE:    0.00 PKD
ROOT
HETATM    1  C   UNL     1      -7.055   3.745  70.547  1.00  0.00    -0.037 C  
HETATM    2  C   UNL     1      -8.242   4.102  71.432  1.00  0.00    -0.078 C  
HETATM    3  C   UNL     1      -8.161   3.338  72.751  1.00  0.00    -0.072 C  
ENDROOT
BRANCH   2   4
HETATM    4  O   UNL     1      -8.217   5.511  71.736  1.00  0.00    -0.116 OA 
BRANCH   4   5
HETATM    5  C   UNL     1      -7.194   5.937  72.538  1.00  0.00    -0.086 C  
HETATM    6  O   UNL     1      -6.033   5.555  72.459  1.00  0.00    -0.028 OA 
BRANCH   5   7
HETATM    7  C   UNL     1      -7.699   7.013  73.503  1.00  0.00    -0.085 C  
HETATM    8  C   UNL     1      -9.218   6.885  73.607  1.00  0.00    -0.190 C  
BRANCH   7   9
HETATM    9  N   UNL     1      -7.248   8.358  73.067  1.00  0.00    -0.252 NA 
HETATM   10  P   UNL     1      -7.335   8.629  71.396  1.00  0.00    -0.076 P  
HETATM   11  H   UNL     1      -6.304   8.542  73.407  1.00  0.00     0.000 HD 
HETATM   12  O   UNL     1      -6.825  10.190  71.161  1.00  0.00    -0.314 OA 
HETATM   13  O   UNL     1      -8.944   9.218  71.633  1.00  0.00    -0.311 OA 
HETATM   14  O   UNL     1      -5.895   8.100  71.185  1.00  0.00    -0.033 OA 
BRANCH  13  15
HETATM   15  C   UNL     1      -9.990   8.393  71.311  1.00  0.00    -0.204 A  
HETATM   16  C   UNL     1     -12.058   6.733  70.458  1.00  0.00    -0.332 A  
HETATM   17  C   UNL     1      -9.775   7.495  70.267  1.00  0.00    -0.179 A  
HETATM   18  C   UNL     1     -11.226   8.440  71.956  1.00  0.00    -0.404 A  
HETATM   19  C   UNL     1     -10.812   6.668  69.835  1.00  0.00    -0.329 A  
HETATM   20  C   UNL     1     -12.262   7.611  71.521  1.00  0.00    -0.351 A  
ENDBRANCH  13  15
BRANCH  12  21
HETATM   21  C   UNL     1      -6.257  10.483  69.871  1.00  0.00    -0.090 C  
BRANCH  21  22
HETATM   22  C   UNL     1      -6.757   9.663  68.643  1.00  0.00    -0.052 C  
HETATM   23  O   UNL     1      -7.842  10.356  67.985  1.00  0.00    -0.102 OA 
HETATM   24  C   UNL     1      -6.486   9.577  66.222  1.00  0.00    -0.070 C  
HETATM   25  H   UNL     1      -4.497   7.922  66.902  1.00  0.00     0.000 HD 
HETATM   26  C   UNL     1      -5.710   9.393  67.537  1.00  0.00    -0.041 C  
HETATM   27  O   UNL     1      -5.141   8.088  67.582  1.00  0.00    -0.030 OA 
HETATM   28  F   UNL     1      -6.319   8.486  65.424  1.00  0.00    -0.053 F  
HETATM   29  C   UNL     1      -5.947  10.781  65.466  1.00  0.00    -0.081 C  
HETATM   30  C   UNL     1      -7.933   9.696  66.705  1.00  0.00    -0.109 C  
BRANCH  30  31
HETATM   31  N   UNL     1      -8.867  10.414  65.831  1.00  0.00    -0.157 N  
HETATM   32  C   UNL     1      -9.342  11.669  66.169  1.00  0.00    -0.224 C  
HETATM   33  C   UNL     1     -10.267  12.295  65.445  1.00  0.00    -0.297 C  
HETATM   34  C   UNL     1     -10.816  11.620  64.259  1.00  0.00    -0.359 C  
HETATM   35  O   UNL     1     -11.766  12.093  63.648  1.00  0.00    -0.427 OA 
HETATM   36  N   UNL     1     -10.207  10.450  63.914  1.00  0.00    -0.455 N  
HETATM   37  H   UNL     1     -10.458  10.045  63.012  1.00  0.00     0.000 HD 
HETATM   38  C   UNL     1      -9.287   9.770  64.671  1.00  0.00    -0.256 C  
HETATM   39  O   UNL     1      -8.909   8.657  64.325  1.00  0.00    -0.034 OA 
ENDBRANCH  30  31
ENDBRANCH  21  22
ENDBRANCH  12  21
ENDBRANCH   7   9
ENDBRANCH   5   7
ENDBRANCH   4   5
ENDBRANCH   2   4
TORSDOF 8
ENDMDL
MODEL      199
REMARK 921   NORMALIZED FREE ENERGY PREDICTED BY IDOCK:   -1.42 KCAL/MOL
REMARK 922        TOTAL FREE ENERGY PREDICTED BY IDOCK:   -4.63 KCAL/MOL
REMARK 923 INTER-LIGAND FREE ENERGY PREDICTED BY IDOCK:   -6.82 KCAL/MOL
REMARK 924 INTRA-LIGAND FREE ENERGY PREDICTED BY IDOCK:    2.19 KCAL/MOL
REMARK 927      BINDING AFFINITY PREDICTED BY RF-SCORE:    0.00 PKD
ROOT
HETATM    1  C   UNL     1      -8.489   7.902  73.548  1.00  0.00    -0.284 C  
HETATM    2  C   UNL     1      -9.180   6.555  73.371  1.00  0.00    -0.132 C  
HETATM    3  C   UNL     1     -10.494   6.536  74.148  1.00  0.00    -0.261 C  
ENDROOT
BRANCH   2   4
HETATM    4  O   UNL     1      -9.488   6.345  71.979  1.00  0.00    -0.152 OA 
BRANCH   4   5
HETATM    5  C   UNL     1     -10.387   7.212  71.421  1.00  0.00    -0.196 C  
HETATM    6  O   UNL     1     -10.768   8.256  71.936  1.00  0.00    -0.243 OA 
BRANCH   5   7
HETATM    7  C   UNL     1     -10.793   6.722  70.029  1.00  0.00    -0.266 C  
HETATM    8  C   UNL     1     -10.326   5.275  69.879  1.00  0.00    -0.374 C  
BRANCH   7   9
HETATM    9  N   UNL     1     -10.260   7.627  68.981  1.00  0.00    -0.202 NA 
HETATM   10  P   UNL     1      -8.693   8.205  69.273  1.00  0.00    -0.140 P  
HETATM   11  H   UNL     1     -10.901   8.405  68.825  1.00  0.00     0.000 HD 
HETATM   12  O   UNL     1      -8.306   9.149  67.963  1.00  0.00    -0.119 OA 
HETATM   13  O   UNL     1      -8.087   6.826  68.424  1.00  0.00    -0.117 OA 
HETATM   14  O   UNL     1      -9.237   9.440  70.034  1.00  0.00    -0.184 OA 
BRANCH  13  15
HETATM   15  C   UNL     1      -7.580   5.784  69.158  1.00  0.00    -0.089 A  
HETATM   16  C   UNL     1      -6.689   3.546  70.555  1.00  0.00    -0.033 A  
HETATM   17  C   UNL     1      -7.520   4.547  68.521  1.00  0.00    -0.064 A  
HETATM   18  C   UNL     1      -7.162   5.917  70.482  1.00  0.00    -0.083 A  
HETATM   19  C   UNL     1      -7.079   3.424  69.221  1.00  0.00    -0.045 A  
HETATM   20  C   UNL     1      -6.722   4.790  71.181  1.00  0.00    -0.031 A  
ENDBRANCH  13  15
BRANCH  12  21
HETATM   21  C   UNL     1      -7.338  10.189  68.198  1.00  0.00    -0.082 C  
BRANCH  21  22
HETATM   22  C   UNL     1      -7.642  11.615  67.646  1.00  0.00    -0.128 C  
HETATM   23  O   UNL     1      -8.609  11.543  66.575  1.00  0.00    -0.173 OA 
HETATM   24  C   UNL     1      -9.302  13.386  67.869  1.00  0.00    -0.216 C  
HETATM   25  H   UNL     1      -7.632  14.161  69.811  1.00  0.00     0.000 HD 
HETATM   26  C   UNL     1      -8.228  12.623  68.663  1.00  0.00     0.008 C  
HETATM   27  O   UNL     1      -7.273  13.542  69.186  1.00  0.00    -0.080 OA 
HETATM   28  F   UNL     1      -9.102  14.728  67.983  1.00  0.00    -0.166 F  
HETATM   29  C   UNL     1     -10.679  13.081  68.436  1.00  0.00    -0.273 C  
HETATM   30  C   UNL     1      -9.059  12.907  66.436  1.00  0.00    -0.074 C  
BRANCH  30  31
HETATM   31  N   UNL     1     -10.196  12.974  65.513  1.00  0.00    -0.288 N  
HETATM   32  C   UNL     1     -10.908  11.838  65.170  1.00  0.00    -0.297 C  
HETATM   33  C   UNL     1     -11.876  11.856  64.256  1.00  0.00    -0.367 C  
HETATM   34  C   UNL     1     -12.184  13.123  63.576  1.00  0.00    -0.476 C  
HETATM   35  O   UNL     1     -12.963  13.159  62.632  1.00  0.00     0.179 OA 
HETATM   36  N   UNL     1     -11.538  14.223  64.058  1.00  0.00    -0.639 N  
HETATM   37  H   UNL     1     -11.849  15.132  63.715  1.00  0.00     0.000 HD 
HETATM   38  C   UNL     1     -10.507  14.215  64.964  1.00  0.00    -0.425 C  
HETATM   39  O   UNL     1      -9.909  15.252  65.223  1.00  0.00    -0.307 OA 
ENDBRANCH  30  31
ENDBRANCH  21  22
ENDBRANCH  12  21
ENDBRANCH   7   9
ENDBRANCH   5   7
ENDBRANCH   4   5
ENDBRANCH   2   4
TORSDOF 8
ENDMDL
MODEL      200
REMARK 921   NORMALIZED FREE ENERGY PREDICTED BY IDOCK:   -1.38 KCAL/MOL
REMARK 922        TOTAL FREE ENERGY PREDICTED BY IDOCK:   -4.58 KCAL/MOL
REMARK 923 INTER-LIGAND FREE ENERGY PREDICTED BY IDOCK:   -5.36 KCAL/MOL
REMARK 924 INTRA-LIGAND FREE ENERGY PREDICTED BY IDOCK:    0.78 KCAL/MOL
REMARK 927      BINDING AFFINITY PREDICTED BY RF-SCORE:    0.00 PKD
ROOT
HETATM    1  C   UNL     1     -11.900  12.163  68.748  1.00  0.00    -0.356 C  
HETATM    2  C   UNL     1     -11.421  11.816  67.343  1.00  0.00    -0.305 C  
HETATM    3  C   UNL     1     -11.801  12.930  66.371  1.00  0.00    -0.478 C  
ENDROOT
BRANCH   2   4
HETATM    4  O   UNL     1      -9.985  11.694  67.334  1.00  0.00    -0.182 OA 
BRANCH   4   5
HETATM    5  C   UNL     1      -9.469  10.588  67.952  1.00  0.00    -0.147 C  
HETATM    6  O   UNL     1      -9.842  10.149  69.033  1.00  0.00    -0.184 OA 
BRANCH   5   7
HETATM    7  C   UNL     1      -8.406   9.938  67.062  1.00  0.00    -0.121 C  
HETATM    8  C   UNL     1      -9.113   9.002  66.083  1.00  0.00    -0.246 C  
BRANCH   7   9
HETATM    9  N   UNL     1      -7.377   9.260  67.889  1.00  0.00    -0.080 NA 
HETATM   10  P   UNL     1      -6.966   7.700  67.371  1.00  0.00    -0.088 P  
HETATM   11  H   UNL     1      -7.664   9.244  68.868  1.00  0.00     0.000 HD 
HETATM   12  O   UNL     1      -5.786   7.171  68.412  1.00  0.00    -0.021 OA 
HETATM   13  O   UNL     1      -5.738   8.412  66.384  1.00  0.00    -0.038 OA 
HETATM   14  O   UNL     1      -8.067   7.062  68.255  1.00  0.00    -0.120 OA 
BRANCH  13  15
HETATM   15  C   UNL     1      -5.977   8.535  65.040  1.00  0.00    -0.052 A  
HETATM   16  C   UNL     1      -6.539   8.975  62.347  1.00  0.00    -0.094 A  
HETATM   17  C   UNL     1      -5.794   9.803  64.490  1.00  0.00    -0.091 A  
HETATM   18  C   UNL     1      -6.406   7.475  64.241  1.00  0.00    -0.048 A  
HETATM   19  C   UNL     1      -6.081  10.025  63.143  1.00  0.00    -0.131 A  
HETATM   20  C   UNL     1      -6.693   7.701  62.892  1.00  0.00    -0.071 A  
ENDBRANCH  13  15
BRANCH  12  21
HETATM   21  C   UNL     1      -5.680   5.744  68.575  1.00  0.00    -0.012 C  
BRANCH  21  22
HETATM   22  C   UNL     1      -6.440   5.081  69.765  1.00  0.00    -0.035 C  
HETATM   23  O   UNL     1      -7.418   5.995  70.307  1.00  0.00    -0.085 OA 
HETATM   24  C   UNL     1      -8.533   3.921  70.224  1.00  0.00    -0.060 C  
HETATM   25  H   UNL     1      -7.033   1.796  69.598  1.00  0.00     0.000 HD 
HETATM   26  C   UNL     1      -7.223   3.789  69.430  1.00  0.00    -0.046 C  
HETATM   27  O   UNL     1      -6.552   2.590  69.804  1.00  0.00    -0.032 OA 
HETATM   28  F   UNL     1      -8.739   2.805  70.976  1.00  0.00    -0.082 F  
HETATM   29  C   UNL     1      -9.708   4.049  69.268  1.00  0.00    -0.191 C  
HETATM   30  C   UNL     1      -8.266   5.143  71.106  1.00  0.00    -0.116 C  
BRANCH  30  31
HETATM   31  N   UNL     1      -9.437   5.891  71.575  1.00  0.00    -0.152 N  
HETATM   32  C   UNL     1     -10.429   6.293  70.698  1.00  0.00    -0.223 C  
HETATM   33  C   UNL     1     -11.447   7.060  71.081  1.00  0.00    -0.333 C  
HETATM   34  C   UNL     1     -11.506   7.511  72.479  1.00  0.00    -0.327 C  
HETATM   35  O   UNL     1     -12.340   8.331  72.843  1.00  0.00    -0.229 OA 
HETATM   36  N   UNL     1     -10.573   6.970  73.313  1.00  0.00    -0.313 N  
HETATM   37  H   UNL     1     -10.689   7.140  74.313  1.00  0.00     0.000 HD 
HETATM   38  C   UNL     1      -9.493   6.217  72.927  1.00  0.00    -0.150 C  
HETATM   39  O   UNL     1      -8.642   5.897  73.749  1.00  0.00    -0.121 OA 
ENDBRANCH  30  31
ENDBRANCH  21  22
ENDBRANCH  12  21
ENDBRANCH   7   9
ENDBRANCH   5   7
ENDBRANCH   4   5
ENDBRANCH   2   4
TORSDOF 8
ENDMDL
MODEL      201
REMARK 921   NORMALIZED FREE ENERGY PREDICTED BY IDOCK:   -1.29 KCAL/MOL
REMARK 922        TOTAL FREE ENERGY PREDICTED BY IDOCK:   -4.44 KCAL/MOL
REMARK 923 INTER-LIGAND FREE ENERGY PREDICTED BY IDOCK:   -7.23 KCAL/MOL
REMARK 924 INTRA-LIGAND FREE ENERGY PREDICTED BY IDOCK:    2.79 KCAL/MOL
REMARK 927      BINDING AFFINITY PREDICTED BY RF-SCORE:    0.00 PKD
ROOT
HETATM    1  C   UNL     1      -7.483  19.481  68.281  1.00  0.00    -0.350 C  
HETATM    2  C   UNL     1      -6.981  18.043  68.341  1.00  0.00    -0.236 C  
HETATM    3  C   UNL     1      -6.381  17.755  69.715  1.00  0.00    -0.118 C  
ENDROOT
BRANCH   2   4
HETATM    4  O   UNL     1      -8.082  17.134  68.141  1.00  0.00    -0.204 OA 
BRANCH   4   5
HETATM    5  C   UNL     1      -7.833  16.053  67.340  1.00  0.00    -0.161 C  
HETATM    6  O   UNL     1      -6.889  15.283  67.470  1.00  0.00    -0.171 OA 
BRANCH   5   7
HETATM    7  C   UNL     1      -8.947  15.906  66.300  1.00  0.00    -0.346 C  
HETATM    8  C   UNL     1     -10.221  16.522  66.876  1.00  0.00    -0.296 C  
BRANCH   7   9
HETATM    9  N   UNL     1      -9.106  14.485  65.903  1.00  0.00    -0.470 NA 
HETATM   10  P   UNL     1      -8.765  13.363  67.127  1.00  0.00    -0.154 P  
HETATM   11  H   UNL     1      -8.546  14.284  65.074  1.00  0.00     0.000 HD 
HETATM   12  O   UNL     1      -9.048  11.868  66.466  1.00  0.00    -0.204 OA 
HETATM   13  O   UNL     1     -10.430  13.446  67.588  1.00  0.00    -0.236 OA 
HETATM   14  O   UNL     1      -7.273  13.291  66.715  1.00  0.00     0.293 OA 
BRANCH  13  15
HETATM   15  C   UNL     1     -10.761  14.188  68.692  1.00  0.00    -0.254 A  
HETATM   16  C   UNL     1     -11.574  15.797  70.815  1.00  0.00    -0.429 A  
HETATM   17  C   UNL     1     -12.105  14.530  68.830  1.00  0.00    -0.256 A  
HETATM   18  C   UNL     1      -9.824  14.617  69.632  1.00  0.00     0.165 A  
HETATM   19  C   UNL     1     -12.511  15.340  69.890  1.00  0.00    -0.275 A  
HETATM   20  C   UNL     1     -10.235  15.429  70.692  1.00  0.00     0.210 A  
ENDBRANCH  13  15
BRANCH  12  21
HETATM   21  C   UNL     1      -8.313  10.771  67.043  1.00  0.00    -0.129 C  
BRANCH  21  22
HETATM   22  C   UNL     1      -8.328  10.611  68.594  1.00  0.00    -0.137 C  
HETATM   23  O   UNL     1      -9.675  10.371  69.060  1.00  0.00    -0.187 OA 
HETATM   24  C   UNL     1      -8.349   8.857  70.286  1.00  0.00    -0.147 C  
HETATM   25  H   UNL     1      -5.699   9.133  70.034  1.00  0.00     0.000 HD 
HETATM   26  C   UNL     1      -7.482   9.446  69.161  1.00  0.00    -0.073 C  
HETATM   27  O   UNL     1      -6.220   9.848  69.686  1.00  0.00    -0.043 OA 
HETATM   28  F   UNL     1      -7.629   8.781  71.440  1.00  0.00    -0.087 F  
HETATM   29  C   UNL     1      -8.777   7.444  69.923  1.00  0.00    -0.141 C  
HETATM   30  C   UNL     1      -9.481   9.879  70.404  1.00  0.00    -0.028 C  
BRANCH  30  31
HETATM   31  N   UNL     1     -10.753   9.400  70.955  1.00  0.00    -0.311 N  
HETATM   32  C   UNL     1     -10.796   8.327  71.828  1.00  0.00    -0.267 C  
HETATM   33  C   UNL     1     -11.944   7.810  72.259  1.00  0.00    -0.356 C  
HETATM   34  C   UNL     1     -13.207   8.386  71.775  1.00  0.00    -0.355 C  
HETATM   35  O   UNL     1     -14.281   7.855  72.030  1.00  0.00    -0.364 OA 
HETATM   36  N   UNL     1     -13.088   9.519  71.027  1.00  0.00    -0.542 N  
HETATM   37  H   UNL     1     -13.947  10.027  70.813  1.00  0.00     0.000 HD 
HETATM   38  C   UNL     1     -11.917  10.038  70.536  1.00  0.00    -0.272 C  
HETATM   39  O   UNL     1     -11.942  10.985  69.760  1.00  0.00    -0.301 OA 
ENDBRANCH  30  31
ENDBRANCH  21  22
ENDBRANCH  12  21
ENDBRANCH   7   9
ENDBRANCH   5   7
ENDBRANCH   4   5
ENDBRANCH   2   4
TORSDOF 8
ENDMDL
MODEL      202
REMARK 921   NORMALIZED FREE ENERGY PREDICTED BY IDOCK:   -1.28 KCAL/MOL
REMARK 922        TOTAL FREE ENERGY PREDICTED BY IDOCK:   -4.43 KCAL/MOL
REMARK 923 INTER-LIGAND FREE ENERGY PREDICTED BY IDOCK:   -7.26 KCAL/MOL
REMARK 924 INTRA-LIGAND FREE ENERGY PREDICTED BY IDOCK:    2.83 KCAL/MOL
REMARK 927      BINDING AFFINITY PREDICTED BY RF-SCORE:    0.00 PKD
ROOT
HETATM    1  C   UNL     1     -10.725  13.396  64.220  1.00  0.00    -0.374 C  
HETATM    2  C   UNL     1     -12.010  14.180  64.459  1.00  0.00    -0.458 C  
HETATM    3  C   UNL     1     -12.757  13.606  65.661  1.00  0.00    -0.505 C  
ENDROOT
BRANCH   2   4
HETATM    4  O   UNL     1     -11.695  15.556  64.751  1.00  0.00    -0.294 OA 
BRANCH   4   5
HETATM    5  C   UNL     1     -10.550  15.774  65.468  1.00  0.00    -0.406 C  
HETATM    6  O   UNL     1      -9.413  15.670  65.025  1.00  0.00    -0.096 OA 
BRANCH   5   7
HETATM    7  C   UNL     1     -10.900  16.233  66.886  1.00  0.00    -0.151 C  
HETATM    8  C   UNL     1     -10.399  17.667  67.058  1.00  0.00    -0.330 C  
BRANCH   7   9
HETATM    9  N   UNL     1     -10.349  15.290  67.891  1.00  0.00    -0.243 NA 
HETATM   10  P   UNL     1      -8.780  14.741  67.563  1.00  0.00    -0.211 P  
HETATM   11  H   UNL     1     -10.981  14.499  68.018  1.00  0.00     0.000 HD 
HETATM   12  O   UNL     1      -8.372  13.747  68.829  1.00  0.00    -0.102 OA 
HETATM   13  O   UNL     1      -8.181  16.090  68.465  1.00  0.00    -0.164 OA 
HETATM   14  O   UNL     1      -9.317  13.534  66.755  1.00  0.00    -0.247 OA 
BRANCH  13  15
HETATM   15  C   UNL     1      -7.690  17.166  67.772  1.00  0.00    -0.177 A  
HETATM   16  C   UNL     1      -6.853  19.464  66.440  1.00  0.00    -0.214 A  
HETATM   17  C   UNL     1      -7.824  18.412  68.383  1.00  0.00    -0.323 A  
HETATM   18  C   UNL     1      -7.105  17.060  66.511  1.00  0.00    -0.307 A  
HETATM   19  C   UNL     1      -7.411  19.563  67.714  1.00  0.00    -0.297 A  
HETATM   20  C   UNL     1      -6.692  18.215  65.843  1.00  0.00    -0.327 A  
ENDBRANCH  13  15
BRANCH  12  21
HETATM   21  C   UNL     1      -7.396  12.728  68.543  1.00  0.00    -0.115 C  
BRANCH  21  22
HETATM   22  C   UNL     1      -7.847  11.237  68.613  1.00  0.00    -0.139 C  
HETATM   23  O   UNL     1      -7.868  10.657  67.289  1.00  0.00    -0.108 OA 
HETATM   24  C   UNL     1      -6.884   8.998  68.644  1.00  0.00    -0.063 C  
HETATM   25  H   UNL     1      -6.919   9.450  71.280  1.00  0.00     0.000 HD 
HETATM   26  C   UNL     1      -6.954  10.299  69.460  1.00  0.00    -0.096 C  
HETATM   27  O   UNL     1      -7.468  10.026  70.760  1.00  0.00    -0.298 OA 
HETATM   28  F   UNL     1      -7.226   7.937  69.426  1.00  0.00    -0.070 F  
HETATM   29  C   UNL     1      -5.462   8.766  68.158  1.00  0.00    -0.035 C  
HETATM   30  C   UNL     1      -7.924   9.237  67.547  1.00  0.00    -0.099 C  
BRANCH  30  31
HETATM   31  N   UNL     1      -7.754   8.490  66.296  1.00  0.00    -0.093 N  
HETATM   32  C   UNL     1      -6.935   8.961  65.286  1.00  0.00    -0.076 C  
HETATM   33  C   UNL     1      -6.845   8.354  64.105  1.00  0.00    -0.074 C  
HETATM   34  C   UNL     1      -7.660   7.155  63.861  1.00  0.00    -0.109 C  
HETATM   35  O   UNL     1      -7.719   6.648  62.748  1.00  0.00    -0.088 OA 
HETATM   36  N   UNL     1      -8.337   6.673  64.942  1.00  0.00    -0.297 N  
HETATM   37  H   UNL     1      -8.779   5.759  64.844  1.00  0.00     0.000 HD 
HETATM   38  C   UNL     1      -8.477   7.310  66.150  1.00  0.00    -0.142 C  
HETATM   39  O   UNL     1      -9.223   6.847  67.004  1.00  0.00    -0.133 OA 
ENDBRANCH  30  31
ENDBRANCH  21  22
ENDBRANCH  12  21
ENDBRANCH   7   9
ENDBRANCH   5   7
ENDBRANCH   4   5
ENDBRANCH   2   4
TORSDOF 8
ENDMDL
MODEL      203
REMARK 921   NORMALIZED FREE ENERGY PREDICTED BY IDOCK:   -1.26 KCAL/MOL
REMARK 922        TOTAL FREE ENERGY PREDICTED BY IDOCK:   -4.40 KCAL/MOL
REMARK 923 INTER-LIGAND FREE ENERGY PREDICTED BY IDOCK:   -9.07 KCAL/MOL
REMARK 924 INTRA-LIGAND FREE ENERGY PREDICTED BY IDOCK:    4.67 KCAL/MOL
REMARK 927      BINDING AFFINITY PREDICTED BY RF-SCORE:    0.00 PKD
ROOT
HETATM    1  C   UNL     1     -13.843  13.136  72.412  1.00  0.00    -0.583 C  
HETATM    2  C   UNL     1     -14.359  14.467  71.878  1.00  0.00    -0.565 C  
HETATM    3  C   UNL     1     -13.888  15.609  72.776  1.00  0.00    -0.628 C  
ENDROOT
BRANCH   2   4
HETATM    4  O   UNL     1     -13.833  14.700  70.557  1.00  0.00     0.091 OA 
BRANCH   4   5
HETATM    5  C   UNL     1     -12.691  14.020  70.234  1.00  0.00    -0.210 C  
HETATM    6  O   UNL     1     -12.632  12.821  69.989  1.00  0.00    -0.045 OA 
BRANCH   5   7
HETATM    7  C   UNL     1     -11.508  14.989  70.156  1.00  0.00    -0.277 C  
HETATM    8  C   UNL     1     -11.225  15.507  71.565  1.00  0.00    -0.399 C  
BRANCH   7   9
HETATM    9  N   UNL     1     -11.782  16.067  69.174  1.00  0.00    -0.344 NA 
HETATM   10  P   UNL     1     -10.473  16.463  68.172  1.00  0.00    -0.329 P  
HETATM   11  H   UNL     1     -12.126  16.901  69.651  1.00  0.00     0.000 HD 
HETATM   12  O   UNL     1     -11.026  17.647  67.149  1.00  0.00    -0.174 OA 
HETATM   13  O   UNL     1     -11.041  15.271  67.056  1.00  0.00    -0.327 OA 
HETATM   14  O   UNL     1      -9.964  17.530  69.173  1.00  0.00    -0.281 OA 
BRANCH  13  15
HETATM   15  C   UNL     1     -10.396  14.061  67.015  1.00  0.00    -0.267 A  
HETATM   16  C   UNL     1      -9.271  11.514  66.967  1.00  0.00    -0.180 A  
HETATM   17  C   UNL     1     -11.093  13.005  66.433  1.00  0.00    -0.313 A  
HETATM   18  C   UNL     1      -9.120  13.859  67.543  1.00  0.00    -0.201 A  
HETATM   19  C   UNL     1     -10.533  11.728  66.413  1.00  0.00    -0.271 A  
HETATM   20  C   UNL     1      -8.562  12.578  67.522  1.00  0.00    -0.183 A  
ENDBRANCH  13  15
BRANCH  12  21
HETATM   21  C   UNL     1     -10.029  18.544  66.622  1.00  0.00    -0.372 C  
BRANCH  21  22
HETATM   22  C   UNL     1      -8.868  18.989  67.564  1.00  0.00    -0.289 C  
HETATM   23  O   UNL     1      -8.467  17.894  68.416  1.00  0.00    -0.282 OA 
HETATM   24  C   UNL     1      -6.439  18.867  67.714  1.00  0.00    -0.211 C  
HETATM   25  H   UNL     1      -6.637  21.170  66.366  1.00  0.00     0.000 HD 
HETATM   26  C   UNL     1      -7.573  19.462  66.863  1.00  0.00    -0.243 C  
HETATM   27  O   UNL     1      -7.433  20.878  66.797  1.00  0.00    -0.216 OA 
HETATM   28  F   UNL     1      -5.560  19.844  68.070  1.00  0.00    -0.199 F  
HETATM   29  C   UNL     1      -5.670  17.836  66.903  1.00  0.00    -0.177 C  
HETATM   30  C   UNL     1      -7.188  18.322  68.932  1.00  0.00    -0.269 C  
BRANCH  30  31
HETATM   31  N   UNL     1      -6.548  17.228  69.669  1.00  0.00    -0.185 N  
HETATM   32  C   UNL     1      -6.845  15.906  69.390  1.00  0.00    -0.200 C  
HETATM   33  C   UNL     1      -6.356  14.901  70.114  1.00  0.00    -0.162 C  
HETATM   34  C   UNL     1      -5.487  15.210  71.259  1.00  0.00    -0.001 C  
HETATM   35  O   UNL     1      -5.132  14.333  72.036  1.00  0.00    -0.142 OA 
HETATM   36  N   UNL     1      -5.131  16.519  71.392  1.00  0.00    -0.290 N  
HETATM   37  H   UNL     1      -4.407  16.737  72.077  1.00  0.00     0.000 HD 
HETATM   38  C   UNL     1      -5.661  17.571  70.686  1.00  0.00    -0.094 C  
HETATM   39  O   UNL     1      -5.365  18.721  70.984  1.00  0.00    -0.252 OA 
ENDBRANCH  30  31
ENDBRANCH  21  22
ENDBRANCH  12  21
ENDBRANCH   7   9
ENDBRANCH   5   7
ENDBRANCH   4   5
ENDBRANCH   2   4
TORSDOF 8
ENDMDL
MODEL      204
REMARK 921   NORMALIZED FREE ENERGY PREDICTED BY IDOCK:   -1.22 KCAL/MOL
REMARK 922        TOTAL FREE ENERGY PREDICTED BY IDOCK:   -4.35 KCAL/MOL
REMARK 923 INTER-LIGAND FREE ENERGY PREDICTED BY IDOCK:   -8.26 KCAL/MOL
REMARK 924 INTRA-LIGAND FREE ENERGY PREDICTED BY IDOCK:    3.92 KCAL/MOL
REMARK 927      BINDING AFFINITY PREDICTED BY RF-SCORE:    0.00 PKD
ROOT
HETATM    1  C   UNL     1     -10.706  11.919  63.245  1.00  0.00    -0.415 C  
HETATM    2  C   UNL     1     -12.024  12.677  63.348  1.00  0.00    -0.528 C  
HETATM    3  C   UNL     1     -13.010  11.897  64.214  1.00  0.00     0.031 C  
ENDROOT
BRANCH   2   4
HETATM    4  O   UNL     1     -11.803  13.957  63.974  1.00  0.00    -0.401 OA 
BRANCH   4   5
HETATM    5  C   UNL     1     -10.955  13.965  65.047  1.00  0.00    -0.368 C  
HETATM    6  O   UNL     1      -9.785  13.604  65.021  1.00  0.00    -0.107 OA 
BRANCH   5   7
HETATM    7  C   UNL     1     -11.663  14.556  66.269  1.00  0.00    -0.358 C  
HETATM    8  C   UNL     1     -10.873  15.779  66.731  1.00  0.00    -0.254 C  
BRANCH   7   9
HETATM    9  N   UNL     1     -11.828  13.526  67.325  1.00  0.00    -0.376 NA 
HETATM   10  P   UNL     1     -10.454  12.576  67.611  1.00  0.00    -0.226 P  
HETATM   11  H   UNL     1     -12.632  12.933  67.118  1.00  0.00     0.000 HD 
HETATM   12  O   UNL     1     -10.865  11.541  68.842  1.00  0.00    -0.202 OA 
HETATM   13  O   UNL     1      -9.964  13.741  68.791  1.00  0.00    -0.203 OA 
HETATM   14  O   UNL     1     -10.893  11.533  66.554  1.00  0.00    -0.266 OA 
BRANCH  13  15
HETATM   15  C   UNL     1      -8.980  14.634  68.451  1.00  0.00    -0.180 A  
HETATM   16  C   UNL     1      -6.845  16.292  67.780  1.00  0.00    -0.155 A  
HETATM   17  C   UNL     1      -7.929  14.137  67.682  1.00  0.00    -0.187 A  
HETATM   18  C   UNL     1      -8.987  15.969  68.856  1.00  0.00    -0.239 A  
HETATM   19  C   UNL     1      -6.857  14.966  67.351  1.00  0.00    -0.121 A  
HETATM   20  C   UNL     1      -7.912  16.795  68.523  1.00  0.00    -0.235 A  
ENDBRANCH  13  15
BRANCH  12  21
HETATM   21  C   UNL     1     -10.146  10.294  68.887  1.00  0.00    -0.204 C  
BRANCH  21  22
HETATM   22  C   UNL     1      -9.552   9.836  70.254  1.00  0.00    -0.208 C  
HETATM   23  O   UNL     1     -10.370   8.795  70.833  1.00  0.00    -0.199 OA 
HETATM   24  C   UNL     1      -8.157   8.065  71.180  1.00  0.00    -0.095 C  
HETATM   25  H   UNL     1      -6.226   9.817  70.582  1.00  0.00     0.000 HD 
HETATM   26  C   UNL     1      -8.118   9.255  70.208  1.00  0.00    -0.154 C  
HETATM   27  O   UNL     1      -7.107  10.174  70.610  1.00  0.00    -0.312 OA 
HETATM   28  F   UNL     1      -7.144   8.167  72.084  1.00  0.00    -0.062 F  
HETATM   29  C   UNL     1      -7.958   6.765  70.417  1.00  0.00    -0.115 C  
HETATM   30  C   UNL     1      -9.521   8.230  71.854  1.00  0.00    -0.220 C  
BRANCH  30  31
HETATM   31  N   UNL     1     -10.136   7.021  72.412  1.00  0.00    -0.172 N  
HETATM   32  C   UNL     1      -9.362   5.985  72.902  1.00  0.00    -0.147 C  
HETATM   33  C   UNL     1      -9.894   4.837  73.317  1.00  0.00    -0.171 C  
HETATM   34  C   UNL     1     -11.351   4.660  73.232  1.00  0.00    -0.304 C  
HETATM   35  O   UNL     1     -11.869   3.576  73.466  1.00  0.00    -0.039 OA 
HETATM   36  N   UNL     1     -12.058   5.767  72.866  1.00  0.00    -0.518 N  
HETATM   37  H   UNL     1     -13.074   5.719  72.953  1.00  0.00     0.000 HD 
HETATM   38  C   UNL     1     -11.526   6.940  72.392  1.00  0.00    -0.259 C  
HETATM   39  O   UNL     1     -12.262   7.820  71.964  1.00  0.00    -0.295 OA 
ENDBRANCH  30  31
ENDBRANCH  21  22
ENDBRANCH  12  21
ENDBRANCH   7   9
ENDBRANCH   5   7
ENDBRANCH   4   5
ENDBRANCH   2   4
TORSDOF 8
ENDMDL
MODEL      205
REMARK 921   NORMALIZED FREE ENERGY PREDICTED BY IDOCK:   -1.22 KCAL/MOL
REMARK 922        TOTAL FREE ENERGY PREDICTED BY IDOCK:   -4.34 KCAL/MOL
REMARK 923 INTER-LIGAND FREE ENERGY PREDICTED BY IDOCK:   -5.85 KCAL/MOL
REMARK 924 INTRA-LIGAND FREE ENERGY PREDICTED BY IDOCK:    1.51 KCAL/MOL
REMARK 927      BINDING AFFINITY PREDICTED BY RF-SCORE:    0.00 PKD
ROOT
HETATM    1  C   UNL     1      -8.055   6.375  64.292  1.00  0.00    -0.063 C  
HETATM    2  C   UNL     1      -6.859   6.360  65.236  1.00  0.00    -0.048 C  
HETATM    3  C   UNL     1      -5.578   6.663  64.461  1.00  0.00    -0.030 C  
ENDROOT
BRANCH   2   4
HETATM    4  O   UNL     1      -7.017   7.381  66.241  1.00  0.00    -0.066 OA 
BRANCH   4   5
HETATM    5  C   UNL     1      -6.840   8.672  65.823  1.00  0.00    -0.068 C  
HETATM    6  O   UNL     1      -5.755   9.198  65.609  1.00  0.00    -0.048 OA 
BRANCH   5   7
HETATM    7  C   UNL     1      -8.198   9.340  65.596  1.00  0.00    -0.118 C  
HETATM    8  C   UNL     1      -8.035  10.841  65.835  1.00  0.00    -0.140 C  
BRANCH   7   9
HETATM    9  N   UNL     1      -9.237   8.716  66.452  1.00  0.00    -0.178 NA 
HETATM   10  P   UNL     1      -9.820   9.706  67.698  1.00  0.00    -0.184 P  
HETATM   11  H   UNL     1      -8.897   7.832  66.832  1.00  0.00     0.000 HD 
HETATM   12  O   UNL     1     -10.982   8.816  68.480  1.00  0.00    -0.032 OA 
HETATM   13  O   UNL     1     -11.031  10.275  66.603  1.00  0.00    -0.108 OA 
HETATM   14  O   UNL     1      -8.734   9.197  68.679  1.00  0.00    -0.127 OA 
BRANCH  13  15
HETATM   15  C   UNL     1     -10.858  11.508  66.029  1.00  0.00    -0.276 A  
HETATM   16  C   UNL     1     -10.418  13.917  64.702  1.00  0.00    -0.419 A  
HETATM   17  C   UNL     1     -10.993  11.573  64.643  1.00  0.00    -0.353 A  
HETATM   18  C   UNL     1     -10.539  12.652  66.760  1.00  0.00    -0.254 A  
HETATM   19  C   UNL     1     -10.767  12.778  63.978  1.00  0.00    -0.457 A  
HETATM   20  C   UNL     1     -10.312  13.857  66.091  1.00  0.00    -0.303 A  
ENDBRANCH  13  15
BRANCH  12  21
HETATM   21  C   UNL     1     -11.211   9.150  69.863  1.00  0.00    -0.102 C  
BRANCH  21  22
HETATM   22  C   UNL     1     -11.516   7.990  70.859  1.00  0.00    -0.276 C  
HETATM   23  O   UNL     1     -10.979   6.745  70.359  1.00  0.00    -0.249 OA 
HETATM   24  C   UNL     1     -10.437   6.741  72.652  1.00  0.00    -0.213 C  
HETATM   25  H   UNL     1     -11.512   8.698  74.125  1.00  0.00     0.000 HD 
HETATM   26  C   UNL     1     -10.929   8.149  72.282  1.00  0.00    -0.332 C  
HETATM   27  O   UNL     1     -11.872   8.600  73.251  1.00  0.00     0.283 OA 
HETATM   28  F   UNL     1     -10.951   6.367  73.856  1.00  0.00    -0.228 F  
HETATM   29  C   UNL     1      -8.922   6.740  72.784  1.00  0.00    -0.139 C  
HETATM   30  C   UNL     1     -10.999   5.883  71.517  1.00  0.00    -0.262 C  
BRANCH  30  31
HETATM   31  N   UNL     1     -10.298   4.628  71.224  1.00  0.00    -0.133 N  
HETATM   32  C   UNL     1      -9.968   3.740  72.233  1.00  0.00    -0.168 C  
HETATM   33  C   UNL     1      -9.243   2.647  72.007  1.00  0.00    -0.156 C  
HETATM   34  C   UNL     1      -8.761   2.387  70.642  1.00  0.00    -0.062 C  
HETATM   35  O   UNL     1      -7.976   1.476  70.414  1.00  0.00    -0.041 OA 
HETATM   36  N   UNL     1      -9.236   3.228  69.680  1.00  0.00    -0.138 N  
HETATM   37  H   UNL     1      -9.047   2.976  68.709  1.00  0.00     0.000 HD 
HETATM   38  C   UNL     1      -9.943   4.383  69.901  1.00  0.00    -0.162 C  
HETATM   39  O   UNL     1     -10.200   5.134  68.968  1.00  0.00    -0.202 OA 
ENDBRANCH  30  31
ENDBRANCH  21  22
ENDBRANCH  12  21
ENDBRANCH   7   9
ENDBRANCH   5   7
ENDBRANCH   4   5
ENDBRANCH   2   4
TORSDOF 8
ENDMDL
MODEL      206
REMARK 921   NORMALIZED FREE ENERGY PREDICTED BY IDOCK:   -1.22 KCAL/MOL
REMARK 922        TOTAL FREE ENERGY PREDICTED BY IDOCK:   -4.34 KCAL/MOL
REMARK 923 INTER-LIGAND FREE ENERGY PREDICTED BY IDOCK:   -3.97 KCAL/MOL
REMARK 924 INTRA-LIGAND FREE ENERGY PREDICTED BY IDOCK:   -0.37 KCAL/MOL
REMARK 927      BINDING AFFINITY PREDICTED BY RF-SCORE:    0.00 PKD
ROOT
HETATM    1  C   UNL     1     -14.003  10.110  72.323  1.00  0.00     0.139 C  
HETATM    2  C   UNL     1     -13.196  11.034  71.419  1.00  0.00    -0.229 C  
HETATM    3  C   UNL     1     -13.158  12.442  72.009  1.00  0.00    -0.470 C  
ENDROOT
BRANCH   2   4
HETATM    4  O   UNL     1     -11.839  10.559  71.323  1.00  0.00    -0.328 OA 
BRANCH   4   5
HETATM    5  C   UNL     1     -11.206  10.776  70.129  1.00  0.00    -0.267 C  
HETATM    6  O   UNL     1     -11.313  11.791  69.451  1.00  0.00    -0.257 OA 
BRANCH   5   7
HETATM    7  C   UNL     1     -10.291   9.594  69.799  1.00  0.00    -0.241 C  
HETATM    8  C   UNL     1     -11.155   8.466  69.236  1.00  0.00     0.142 C  
BRANCH   7   9
HETATM    9  N   UNL     1      -9.503   9.195  70.991  1.00  0.00    -0.272 NA 
HETATM   10  P   UNL     1      -8.882   7.619  70.937  1.00  0.00    -0.148 P  
HETATM   11  H   UNL     1     -10.054   9.329  71.840  1.00  0.00     0.000 HD 
HETATM   12  O   UNL     1      -8.018   7.422  72.340  1.00  0.00    -0.096 OA 
HETATM   13  O   UNL     1      -7.464   8.265  70.186  1.00  0.00    -0.058 OA 
HETATM   14  O   UNL     1     -10.153   7.041  71.608  1.00  0.00    -0.183 OA 
BRANCH  13  15
HETATM   15  C   UNL     1      -7.321   8.111  68.831  1.00  0.00    -0.090 A  
HETATM   16  C   UNL     1      -6.967   7.603  66.116  1.00  0.00    -0.065 A  
HETATM   17  C   UNL     1      -7.645   6.860  68.310  1.00  0.00    -0.107 A  
HETATM   18  C   UNL     1      -6.853   9.123  67.994  1.00  0.00    -0.069 A  
HETATM   19  C   UNL     1      -7.463   6.603  66.952  1.00  0.00    -0.087 A  
HETATM   20  C   UNL     1      -6.671   8.863  66.634  1.00  0.00    -0.072 A  
ENDBRANCH  13  15
BRANCH  12  21
HETATM   21  C   UNL     1      -7.889   6.069  72.818  1.00  0.00    -0.107 C  
BRANCH  21  22
HETATM   22  C   UNL     1      -8.670   4.946  72.070  1.00  0.00    -0.128 C  
HETATM   23  O   UNL     1      -8.011   4.619  70.827  1.00  0.00    -0.073 OA 
HETATM   24  C   UNL     1      -8.607   2.532  71.744  1.00  0.00    -0.064 C  
HETATM   25  H   UNL     1     -10.170   2.597  73.915  1.00  0.00     0.000 HD 
HETATM   26  C   UNL     1      -8.813   3.604  72.826  1.00  0.00    -0.093 C  
HETATM   27  O   UNL     1     -10.081   3.421  73.450  1.00  0.00    -0.111 OA 
HETATM   28  F   UNL     1      -9.640   1.645  71.761  1.00  0.00    -0.133 F  
HETATM   29  C   UNL     1      -7.333   1.752  72.023  1.00  0.00    -0.039 C  
HETATM   30  C   UNL     1      -8.605   3.357  70.455  1.00  0.00    -0.070 C  
BRANCH  30  31
HETATM   31  N   UNL     1      -7.899   2.786  69.303  1.00  0.00    -0.046 N  
HETATM   32  C   UNL     1      -6.553   3.030  69.095  1.00  0.00    -0.033 C  
HETATM   33  C   UNL     1      -5.917   2.609  68.004  1.00  0.00    -0.024 C  
HETATM   34  C   UNL     1      -6.676   1.878  66.978  1.00  0.00    -0.038 C  
HETATM   35  O   UNL     1      -6.170   1.598  65.899  1.00  0.00    -0.021 OA 
HETATM   36  N   UNL     1      -7.959   1.560  67.311  1.00  0.00    -0.064 N  
HETATM   37  H   UNL     1      -8.455   0.919  66.690  1.00  0.00     0.000 HD 
HETATM   38  C   UNL     1      -8.643   2.023  68.407  1.00  0.00    -0.071 C  
HETATM   39  O   UNL     1      -9.837   1.781  68.534  1.00  0.00    -0.092 OA 
ENDBRANCH  30  31
ENDBRANCH  21  22
ENDBRANCH  12  21
ENDBRANCH   7   9
ENDBRANCH   5   7
ENDBRANCH   4   5
ENDBRANCH   2   4
TORSDOF 8
ENDMDL
MODEL      207
REMARK 921   NORMALIZED FREE ENERGY PREDICTED BY IDOCK:   -1.04 KCAL/MOL
REMARK 922        TOTAL FREE ENERGY PREDICTED BY IDOCK:   -4.08 KCAL/MOL
REMARK 923 INTER-LIGAND FREE ENERGY PREDICTED BY IDOCK:   -5.78 KCAL/MOL
REMARK 924 INTRA-LIGAND FREE ENERGY PREDICTED BY IDOCK:    1.69 KCAL/MOL
REMARK 927      BINDING AFFINITY PREDICTED BY RF-SCORE:    0.00 PKD
ROOT
HETATM    1  C   UNL     1      -5.192   7.367  64.608  1.00  0.00    -0.029 C  
HETATM    2  C   UNL     1      -5.234   8.837  64.208  1.00  0.00    -0.051 C  
HETATM    3  C   UNL     1      -6.217   9.038  63.057  1.00  0.00    -0.090 C  
ENDROOT
BRANCH   2   4
HETATM    4  O   UNL     1      -5.689   9.632  65.320  1.00  0.00    -0.058 OA 
BRANCH   4   5
HETATM    5  C   UNL     1      -6.409   8.974  66.279  1.00  0.00    -0.065 C  
HETATM    6  O   UNL     1      -7.368   8.244  66.060  1.00  0.00    -0.077 OA 
BRANCH   5   7
HETATM    7  C   UNL     1      -5.797   9.227  67.659  1.00  0.00    -0.045 C  
HETATM    8  C   UNL     1      -5.971   7.960  68.496  1.00  0.00    -0.039 C  
BRANCH   7   9
HETATM    9  N   UNL     1      -6.397  10.433  68.283  1.00  0.00    -0.051 NA 
HETATM   10  P   UNL     1      -8.037  10.674  67.929  1.00  0.00    -0.115 P  
HETATM   11  H   UNL     1      -5.856  11.263  68.039  1.00  0.00     0.000 HD 
HETATM   12  O   UNL     1      -8.485  12.039  68.759  1.00  0.00    -0.068 OA 
HETATM   13  O   UNL     1      -8.419   9.731  69.328  1.00  0.00    -0.128 OA 
HETATM   14  O   UNL     1      -7.694  11.517  66.676  1.00  0.00    -0.151 OA 
BRANCH  13  15
HETATM   15  C   UNL     1      -8.818   8.432  69.146  1.00  0.00    -0.142 A  
HETATM   16  C   UNL     1      -9.814   5.867  68.718  1.00  0.00    -0.177 A  
HETATM   17  C   UNL     1      -9.689   8.193  68.085  1.00  0.00    -0.180 A  
HETATM   18  C   UNL     1      -8.412   7.386  69.974  1.00  0.00    -0.138 A  
HETATM   19  C   UNL     1     -10.193   6.910  67.874  1.00  0.00    -0.212 A  
HETATM   20  C   UNL     1      -8.919   6.102  69.760  1.00  0.00    -0.138 A  
ENDBRANCH  13  15
BRANCH  12  21
HETATM   21  C   UNL     1      -9.590  12.780  68.207  1.00  0.00    -0.211 C  
BRANCH  21  22
HETATM   22  C   UNL     1      -9.714  14.293  68.565  1.00  0.00    -0.225 C  
HETATM   23  O   UNL     1      -8.622  15.037  67.980  1.00  0.00    -0.151 OA 
HETATM   24  C   UNL     1     -10.521  16.378  67.595  1.00  0.00    -0.302 C  
HETATM   25  H   UNL     1     -12.783  15.597  68.791  1.00  0.00     0.000 HD 
HETATM   26  C   UNL     1     -11.001  15.000  68.079  1.00  0.00    -0.284 C  
HETATM   27  O   UNL     1     -11.992  15.162  69.090  1.00  0.00    -0.307 OA 
HETATM   28  F   UNL     1     -11.253  17.362  68.185  1.00  0.00    -0.327 F  
HETATM   29  C   UNL     1     -10.723  16.499  66.093  1.00  0.00    -0.155 C  
HETATM   30  C   UNL     1      -9.066  16.408  68.068  1.00  0.00    -0.200 C  
BRANCH  30  31
HETATM   31  N   UNL     1      -8.148  17.285  67.334  1.00  0.00    -0.188 N  
HETATM   32  C   UNL     1      -7.145  16.765  66.535  1.00  0.00    -0.219 C  
HETATM   33  C   UNL     1      -6.237  17.537  65.943  1.00  0.00    -0.126 C  
HETATM   34  C   UNL     1      -6.292  18.990  66.163  1.00  0.00    -0.190 C  
HETATM   35  O   UNL     1      -5.398  19.723  65.759  1.00  0.00    -0.156 OA 
HETATM   36  N   UNL     1      -7.380  19.441  66.849  1.00  0.00    -0.213 N  
HETATM   37  H   UNL     1      -7.526  20.451  66.878  1.00  0.00     0.000 HD 
HETATM   38  C   UNL     1      -8.298  18.659  67.504  1.00  0.00    -0.265 C  
HETATM   39  O   UNL     1      -9.159  19.177  68.203  1.00  0.00    -0.302 OA 
ENDBRANCH  30  31
ENDBRANCH  21  22
ENDBRANCH  12  21
ENDBRANCH   7   9
ENDBRANCH   5   7
ENDBRANCH   4   5
ENDBRANCH   2   4
TORSDOF 8
ENDMDL
MODEL      208
REMARK 921   NORMALIZED FREE ENERGY PREDICTED BY IDOCK:   -0.93 KCAL/MOL
REMARK 922        TOTAL FREE ENERGY PREDICTED BY IDOCK:   -3.91 KCAL/MOL
REMARK 923 INTER-LIGAND FREE ENERGY PREDICTED BY IDOCK:   -6.79 KCAL/MOL
REMARK 924 INTRA-LIGAND FREE ENERGY PREDICTED BY IDOCK:    2.87 KCAL/MOL
REMARK 927      BINDING AFFINITY PREDICTED BY RF-SCORE:    0.00 PKD
ROOT
HETATM    1  C   UNL     1      -9.918  11.603  66.376  1.00  0.00    -0.235 C  
HETATM    2  C   UNL     1      -9.985  10.190  65.810  1.00  0.00    -0.271 C  
HETATM    3  C   UNL     1      -9.705  10.214  64.309  1.00  0.00    -0.326 C  
ENDROOT
BRANCH   2   4
HETATM    4  O   UNL     1      -8.980   9.366  66.433  1.00  0.00    -0.142 OA 
BRANCH   4   5
HETATM    5  C   UNL     1      -7.682   9.645  66.103  1.00  0.00    -0.102 C  
HETATM    6  O   UNL     1      -7.331  10.348  65.163  1.00  0.00    -0.139 OA 
BRANCH   5   7
HETATM    7  C   UNL     1      -6.734   9.006  67.121  1.00  0.00    -0.066 C  
HETATM    8  C   UNL     1      -7.571   8.187  68.102  1.00  0.00    -0.105 C  
BRANCH   7   9
HETATM    9  N   UNL     1      -5.900  10.042  67.779  1.00  0.00    -0.042 NA 
HETATM   10  P   UNL     1      -6.754  11.402  68.322  1.00  0.00    -0.067 P  
HETATM   11  H   UNL     1      -5.137  10.326  67.163  1.00  0.00     0.000 HD 
HETATM   12  O   UNL     1      -5.631  12.385  69.047  1.00  0.00    -0.062 OA 
HETATM   13  O   UNL     1      -6.977  10.589  69.832  1.00  0.00    -0.129 OA 
HETATM   14  O   UNL     1      -6.555  12.129  66.969  1.00  0.00    -0.147 OA 
BRANCH  13  15
HETATM   15  C   UNL     1      -8.198  10.019  70.087  1.00  0.00    -0.053 A  
HETATM   16  C   UNL     1     -10.760   9.051  70.595  1.00  0.00    -0.292 A  
HETATM   17  C   UNL     1      -9.296  10.587  69.443  1.00  0.00    -0.139 A  
HETATM   18  C   UNL     1      -8.370   8.943  70.958  1.00  0.00    -0.233 A  
HETATM   19  C   UNL     1     -10.579  10.106  69.701  1.00  0.00    -0.286 A  
HETATM   20  C   UNL     1      -9.657   8.465  71.215  1.00  0.00    -0.239 A  
ENDBRANCH  13  15
BRANCH  12  21
HETATM   21  C   UNL     1      -5.939  13.792  69.065  1.00  0.00    -0.083 C  
BRANCH  21  22
HETATM   22  C   UNL     1      -7.191  14.281  68.275  1.00  0.00    -0.117 C  
HETATM   23  O   UNL     1      -8.369  14.212  69.108  1.00  0.00     0.014 OA 
HETATM   24  C   UNL     1      -8.556  16.281  67.997  1.00  0.00    -0.176 C  
HETATM   25  H   UNL     1      -6.770  16.748  66.059  1.00  0.00     0.000 HD 
HETATM   26  C   UNL     1      -7.137  15.739  67.758  1.00  0.00    -0.151 C  
HETATM   27  O   UNL     1      -6.804  15.853  66.377  1.00  0.00     0.038 OA 
HETATM   28  F   UNL     1      -9.050  16.819  66.848  1.00  0.00    -0.209 F  
HETATM   29  C   UNL     1      -8.518  17.388  69.038  1.00  0.00    -0.056 C  
HETATM   30  C   UNL     1      -9.329  15.024  68.399  1.00  0.00    -0.193 C  
BRANCH  30  31
HETATM   31  N   UNL     1     -10.530  15.218  69.218  1.00  0.00    -0.245 N  
HETATM   32  C   UNL     1     -10.440  15.447  70.580  1.00  0.00    -0.108 C  
HETATM   33  C   UNL     1     -11.516  15.523  71.359  1.00  0.00    -0.478 C  
HETATM   34  C   UNL     1     -12.843  15.337  70.754  1.00  0.00    -0.437 C  
HETATM   35  O   UNL     1     -13.847  15.256  71.450  1.00  0.00    -0.474 OA 
HETATM   36  N   UNL     1     -12.863  15.250  69.394  1.00  0.00    -0.349 N  
HETATM   37  H   UNL     1     -13.777  15.282  68.940  1.00  0.00     0.000 HD 
HETATM   38  C   UNL     1     -11.765  15.124  68.581  1.00  0.00    -0.341 C  
HETATM   39  O   UNL     1     -11.908  14.915  67.383  1.00  0.00    -0.348 OA 
ENDBRANCH  30  31
ENDBRANCH  21  22
ENDBRANCH  12  21
ENDBRANCH   7   9
ENDBRANCH   5   7
ENDBRANCH   4   5
ENDBRANCH   2   4
TORSDOF 8
ENDMDL
MODEL      209
REMARK 921   NORMALIZED FREE ENERGY PREDICTED BY IDOCK:   -0.90 KCAL/MOL
REMARK 922        TOTAL FREE ENERGY PREDICTED BY IDOCK:   -3.87 KCAL/MOL
REMARK 923 INTER-LIGAND FREE ENERGY PREDICTED BY IDOCK:   -4.29 KCAL/MOL
REMARK 924 INTRA-LIGAND FREE ENERGY PREDICTED BY IDOCK:    0.42 KCAL/MOL
REMARK 927      BINDING AFFINITY PREDICTED BY RF-SCORE:    0.00 PKD
ROOT
HETATM    1  C   UNL     1     -14.002   9.115  72.027  1.00  0.00    -0.434 C  
HETATM    2  C   UNL     1     -13.489  10.401  71.390  1.00  0.00    -0.174 C  
HETATM    3  C   UNL     1     -13.766  11.588  72.310  1.00  0.00     0.163 C  
ENDROOT
BRANCH   2   4
HETATM    4  O   UNL     1     -12.063  10.315  71.198  1.00  0.00    -0.341 OA 
BRANCH   4   5
HETATM    5  C   UNL     1     -11.554  11.005  70.132  1.00  0.00    -0.334 C  
HETATM    6  O   UNL     1     -11.878  12.143  69.812  1.00  0.00    -0.314 OA 
BRANCH   5   7
HETATM    7  C   UNL     1     -10.472  10.174  69.438  1.00  0.00    -0.233 C  
HETATM    8  C   UNL     1     -11.047   9.645  68.125  1.00  0.00    -0.109 C  
BRANCH   7   9
HETATM    9  N   UNL     1      -9.978   9.104  70.340  1.00  0.00    -0.201 NA 
HETATM   10  P   UNL     1      -8.924   7.993  69.612  1.00  0.00    -0.144 P  
HETATM   11  H   UNL     1     -10.762   8.616  70.773  1.00  0.00     0.000 HD 
HETATM   12  O   UNL     1      -8.482   6.934  70.811  1.00  0.00    -0.132 OA 
HETATM   13  O   UNL     1      -7.612   9.021  70.075  1.00  0.00    -0.059 OA 
HETATM   14  O   UNL     1     -10.100   7.074  69.198  1.00  0.00    -0.171 OA 
BRANCH  13  15
HETATM   15  C   UNL     1      -7.046   9.821  69.116  1.00  0.00    -0.067 A  
HETATM   16  C   UNL     1      -5.987  11.608  67.261  1.00  0.00    -0.112 A  
HETATM   17  C   UNL     1      -6.619  11.081  69.531  1.00  0.00    -0.118 A  
HETATM   18  C   UNL     1      -6.914   9.435  67.782  1.00  0.00    -0.080 A  
HETATM   19  C   UNL     1      -6.094  11.978  68.602  1.00  0.00    -0.053 A  
HETATM   20  C   UNL     1      -6.388  10.337  66.854  1.00  0.00    -0.069 A  
ENDBRANCH  13  15
BRANCH  12  21
HETATM   21  C   UNL     1      -8.095   5.615  70.378  1.00  0.00    -0.105 C  
BRANCH  21  22
HETATM   22  C   UNL     1      -8.579   5.128  68.978  1.00  0.00    -0.089 C  
HETATM   23  O   UNL     1      -7.863   5.821  67.932  1.00  0.00    -0.096 OA 
HETATM   24  C   UNL     1      -7.925   3.577  67.216  1.00  0.00    -0.082 C  
HETATM   25  H   UNL     1      -9.450   1.918  68.658  1.00  0.00     0.000 HD 
HETATM   26  C   UNL     1      -8.386   3.622  68.682  1.00  0.00    -0.077 C  
HETATM   27  O   UNL     1      -9.568   2.843  68.840  1.00  0.00    -0.144 OA 
HETATM   28  F   UNL     1      -8.709   2.719  66.506  1.00  0.00    -0.097 F  
HETATM   29  C   UNL     1      -6.497   3.061  67.137  1.00  0.00    -0.036 C  
HETATM   30  C   UNL     1      -8.129   5.023  66.759  1.00  0.00    -0.108 C  
BRANCH  30  31
HETATM   31  N   UNL     1      -7.308   5.486  65.635  1.00  0.00    -0.072 N  
HETATM   32  C   UNL     1      -6.115   6.153  65.847  1.00  0.00    -0.033 C  
HETATM   33  C   UNL     1      -5.406   6.673  64.848  1.00  0.00    -0.026 C  
HETATM   34  C   UNL     1      -5.919   6.548  63.475  1.00  0.00    -0.030 C  
HETATM   35  O   UNL     1      -5.377   7.131  62.544  1.00  0.00    -0.035 OA 
HETATM   36  N   UNL     1      -7.026   5.766  63.329  1.00  0.00    -0.040 N  
HETATM   37  H   UNL     1      -7.308   5.533  62.377  1.00  0.00     0.000 HD 
HETATM   38  C   UNL     1      -7.794   5.263  64.349  1.00  0.00    -0.100 C  
HETATM   39  O   UNL     1      -8.845   4.686  64.100  1.00  0.00    -0.142 OA 
ENDBRANCH  30  31
ENDBRANCH  21  22
ENDBRANCH  12  21
ENDBRANCH   7   9
ENDBRANCH   5   7
ENDBRANCH   4   5
ENDBRANCH   2   4
TORSDOF 8
ENDMDL
MODEL      210
REMARK 921   NORMALIZED FREE ENERGY PREDICTED BY IDOCK:   -0.87 KCAL/MOL
REMARK 922        TOTAL FREE ENERGY PREDICTED BY IDOCK:   -3.83 KCAL/MOL
REMARK 923 INTER-LIGAND FREE ENERGY PREDICTED BY IDOCK:   -6.90 KCAL/MOL
REMARK 924 INTRA-LIGAND FREE ENERGY PREDICTED BY IDOCK:    3.07 KCAL/MOL
REMARK 927      BINDING AFFINITY PREDICTED BY RF-SCORE:    0.00 PKD
ROOT
HETATM    1  C   UNL     1      -7.760  20.293  67.471  1.00  0.00    -0.340 C  
HETATM    2  C   UNL     1      -7.369  19.025  68.221  1.00  0.00    -0.284 C  
HETATM    3  C   UNL     1      -7.118  19.345  69.693  1.00  0.00    -0.162 C  
ENDROOT
BRANCH   2   4
HETATM    4  O   UNL     1      -8.445  18.068  68.155  1.00  0.00    -0.254 OA 
BRANCH   4   5
HETATM    5  C   UNL     1      -8.133  16.845  67.627  1.00  0.00    -0.182 C  
HETATM    6  O   UNL     1      -7.187  16.150  67.976  1.00  0.00    -0.123 OA 
BRANCH   5   7
HETATM    7  C   UNL     1      -9.180  16.442  66.586  1.00  0.00    -0.253 C  
HETATM    8  C   UNL     1     -10.559  16.812  67.130  1.00  0.00    -0.256 C  
BRANCH   7   9
HETATM    9  N   UNL     1      -9.047  15.005  66.242  1.00  0.00    -0.419 NA 
HETATM   10  P   UNL     1      -8.564  14.009  67.526  1.00  0.00    -0.216 P  
HETATM   11  H   UNL     1      -8.418  14.888  65.447  1.00  0.00     0.000 HD 
HETATM   12  O   UNL     1      -8.526  12.466  66.915  1.00  0.00    -0.190 OA 
HETATM   13  O   UNL     1     -10.236  13.787  67.908  1.00  0.00    -0.235 OA 
HETATM   14  O   UNL     1      -7.067  14.209  67.184  1.00  0.00    -0.119 OA 
BRANCH  13  15
HETATM   15  C   UNL     1     -10.758  14.489  68.964  1.00  0.00    -0.251 A  
HETATM   16  C   UNL     1     -11.986  15.952  70.991  1.00  0.00    -0.453 A  
HETATM   17  C   UNL     1     -12.137  14.402  69.147  1.00  0.00    -0.316 A  
HETATM   18  C   UNL     1      -9.983  15.277  69.815  1.00  0.00    -0.210 A  
HETATM   19  C   UNL     1     -12.753  15.139  70.158  1.00  0.00    -0.273 A  
HETATM   20  C   UNL     1     -10.603  16.014  70.826  1.00  0.00     0.193 A  
ENDBRANCH  13  15
BRANCH  12  21
HETATM   21  C   UNL     1      -7.628  11.549  67.570  1.00  0.00    -0.121 C  
BRANCH  21  22
HETATM   22  C   UNL     1      -8.244  10.400  68.424  1.00  0.00    -0.114 C  
HETATM   23  O   UNL     1      -8.792   9.375  67.565  1.00  0.00    -0.119 OA 
HETATM   24  C   UNL     1      -7.668   8.184  69.260  1.00  0.00    -0.104 C  
HETATM   25  H   UNL     1      -6.751   9.632  71.314  1.00  0.00     0.000 HD 
HETATM   26  C   UNL     1      -7.267   9.664  69.372  1.00  0.00    -0.071 C  
HETATM   27  O   UNL     1      -7.351  10.084  70.731  1.00  0.00    -0.323 OA 
HETATM   28  F   UNL     1      -7.881   7.662  70.499  1.00  0.00    -0.087 F  
HETATM   29  C   UNL     1      -6.541   7.390  68.618  1.00  0.00    -0.045 C  
HETATM   30  C   UNL     1      -8.967   8.251  68.455  1.00  0.00    -0.136 C  
BRANCH  30  31
HETATM   31  N   UNL     1      -9.338   7.055  67.691  1.00  0.00    -0.122 N  
HETATM   32  C   UNL     1      -8.667   6.710  66.531  1.00  0.00    -0.135 C  
HETATM   33  C   UNL     1      -9.051   5.689  65.768  1.00  0.00    -0.139 C  
HETATM   34  C   UNL     1     -10.239   4.917  66.161  1.00  0.00    -0.277 C  
HETATM   35  O   UNL     1     -10.712   4.065  65.419  1.00  0.00    -0.060 OA 
HETATM   36  N   UNL     1     -10.766   5.228  67.379  1.00  0.00    -0.173 N  
HETATM   37  H   UNL     1     -11.487   4.606  67.746  1.00  0.00     0.000 HD 
HETATM   38  C   UNL     1     -10.414   6.304  68.156  1.00  0.00    -0.226 C  
HETATM   39  O   UNL     1     -11.050   6.564  69.170  1.00  0.00    -0.305 OA 
ENDBRANCH  30  31
ENDBRANCH  21  22
ENDBRANCH  12  21
ENDBRANCH   7   9
ENDBRANCH   5   7
ENDBRANCH   4   5
ENDBRANCH   2   4
TORSDOF 8
ENDMDL
MODEL      211
REMARK 921   NORMALIZED FREE ENERGY PREDICTED BY IDOCK:   -0.84 KCAL/MOL
REMARK 922        TOTAL FREE ENERGY PREDICTED BY IDOCK:   -3.78 KCAL/MOL
REMARK 923 INTER-LIGAND FREE ENERGY PREDICTED BY IDOCK:   -5.42 KCAL/MOL
REMARK 924 INTRA-LIGAND FREE ENERGY PREDICTED BY IDOCK:    1.64 KCAL/MOL
REMARK 927      BINDING AFFINITY PREDICTED BY RF-SCORE:    0.00 PKD
ROOT
HETATM    1  C   UNL     1     -12.949  10.092  70.581  1.00  0.00    -0.296 C  
HETATM    2  C   UNL     1     -12.790  11.432  69.874  1.00  0.00     0.236 C  
HETATM    3  C   UNL     1     -11.707  12.261  70.561  1.00  0.00     0.009 C  
ENDROOT
BRANCH   2   4
HETATM    4  O   UNL     1     -12.381  11.218  68.508  1.00  0.00    -0.543 OA 
BRANCH   4   5
HETATM    5  C   UNL     1     -11.148  10.653  68.329  1.00  0.00    -0.279 C  
HETATM    6  O   UNL     1     -10.879   9.474  68.526  1.00  0.00    -0.203 OA 
BRANCH   5   7
HETATM    7  C   UNL     1     -10.170  11.695  67.780  1.00  0.00    -0.186 C  
HETATM    8  C   UNL     1      -8.797  11.431  68.397  1.00  0.00    -0.167 C  
BRANCH   7   9
HETATM    9  N   UNL     1     -10.675  13.067  68.029  1.00  0.00    -0.226 NA 
HETATM   10  P   UNL     1     -10.314  14.189  66.810  1.00  0.00    -0.282 P  
HETATM   11  H   UNL     1     -10.344  13.408  68.932  1.00  0.00     0.000 HD 
HETATM   12  O   UNL     1     -11.007  15.619  67.288  1.00  0.00    -0.311 OA 
HETATM   13  O   UNL     1     -11.804  13.753  66.047  1.00  0.00    -0.353 OA 
HETATM   14  O   UNL     1      -8.980  14.577  67.493  1.00  0.00    -0.174 OA 
BRANCH  13  15
HETATM   15  C   UNL     1     -11.756  12.919  64.961  1.00  0.00    -0.344 A  
HETATM   16  C   UNL     1     -11.826  11.125  62.831  1.00  0.00     1.022 A  
HETATM   17  C   UNL     1     -12.981  12.497  64.447  1.00  0.00    -0.248 A  
HETATM   18  C   UNL     1     -10.563  12.476  64.390  1.00  0.00    -0.376 A  
HETATM   19  C   UNL     1     -13.017  11.594  63.385  1.00  0.00    -0.024 A  
HETATM   20  C   UNL     1     -10.602  11.571  63.327  1.00  0.00    -0.405 A  
ENDBRANCH  13  15
BRANCH  12  21
HETATM   21  C   UNL     1     -10.394  16.820  66.780  1.00  0.00    -0.293 C  
BRANCH  21  22
HETATM   22  C   UNL     1      -9.206  17.435  67.580  1.00  0.00    -0.234 C  
HETATM   23  O   UNL     1      -8.739  16.502  68.580  1.00  0.00    -0.222 OA 
HETATM   24  C   UNL     1      -6.770  17.385  67.633  1.00  0.00    -0.154 C  
HETATM   25  H   UNL     1      -7.087  19.431  65.939  1.00  0.00     0.000 HD 
HETATM   26  C   UNL     1      -7.955  17.811  66.751  1.00  0.00    -0.238 C  
HETATM   27  O   UNL     1      -7.855  19.199  66.448  1.00  0.00    -0.262 OA 
HETATM   28  F   UNL     1      -5.902  18.423  67.783  1.00  0.00    -0.157 F  
HETATM   29  C   UNL     1      -6.010  16.249  66.966  1.00  0.00    -0.043 C  
HETATM   30  C   UNL     1      -7.450  17.033  68.958  1.00  0.00    -0.211 C  
BRANCH  30  31
HETATM   31  N   UNL     1      -6.750  16.088  69.833  1.00  0.00    -0.111 N  
HETATM   32  C   UNL     1      -7.092  14.747  69.858  1.00  0.00    -0.086 C  
HETATM   33  C   UNL     1      -6.542  13.891  70.717  1.00  0.00     0.374 C  
HETATM   34  C   UNL     1      -5.554  14.394  71.683  1.00  0.00    -0.145 C  
HETATM   35  O   UNL     1      -5.131  13.677  72.581  1.00  0.00    -0.197 OA 
HETATM   36  N   UNL     1      -5.170  15.690  71.512  1.00  0.00    -0.070 N  
HETATM   37  H   UNL     1      -4.375  16.015  72.063  1.00  0.00     0.000 HD 
HETATM   38  C   UNL     1      -5.757  16.597  70.666  1.00  0.00     0.044 C  
HETATM   39  O   UNL     1      -5.417  17.773  70.694  1.00  0.00    -0.259 OA 
ENDBRANCH  30  31
ENDBRANCH  21  22
ENDBRANCH  12  21
ENDBRANCH   7   9
ENDBRANCH   5   7
ENDBRANCH   4   5
ENDBRANCH   2   4
TORSDOF 8
ENDMDL
MODEL      212
REMARK 921   NORMALIZED FREE ENERGY PREDICTED BY IDOCK:   -0.82 KCAL/MOL
REMARK 922        TOTAL FREE ENERGY PREDICTED BY IDOCK:   -3.76 KCAL/MOL
REMARK 923 INTER-LIGAND FREE ENERGY PREDICTED BY IDOCK:   -6.07 KCAL/MOL
REMARK 924 INTRA-LIGAND FREE ENERGY PREDICTED BY IDOCK:    2.31 KCAL/MOL
REMARK 927      BINDING AFFINITY PREDICTED BY RF-SCORE:    0.00 PKD
ROOT
HETATM    1  C   UNL     1      -5.418   7.179  63.489  1.00  0.00    -0.033 C  
HETATM    2  C   UNL     1      -5.566   8.682  63.695  1.00  0.00    -0.067 C  
HETATM    3  C   UNL     1      -6.482   9.269  62.624  1.00  0.00    -0.093 C  
ENDROOT
BRANCH   2   4
HETATM    4  O   UNL     1      -6.166   8.941  64.979  1.00  0.00    -0.063 OA 
BRANCH   4   5
HETATM    5  C   UNL     1      -6.806   7.887  65.570  1.00  0.00    -0.055 C  
HETATM    6  O   UNL     1      -7.674   7.204  65.040  1.00  0.00    -0.100 OA 
BRANCH   5   7
HETATM    7  C   UNL     1      -6.230   7.641  66.967  1.00  0.00    -0.053 C  
HETATM    8  C   UNL     1      -6.322   6.144  67.262  1.00  0.00    -0.041 C  
BRANCH   7   9
HETATM    9  N   UNL     1      -6.921   8.485  67.973  1.00  0.00    -0.073 NA 
HETATM   10  P   UNL     1      -8.596   8.624  67.752  1.00  0.00    -0.137 P  
HETATM   11  H   UNL     1      -6.492   9.409  68.014  1.00  0.00     0.000 HD 
HETATM   12  O   UNL     1      -9.142   9.568  69.004  1.00  0.00    -0.136 OA 
HETATM   13  O   UNL     1      -8.787   7.229  68.756  1.00  0.00    -0.128 OA 
HETATM   14  O   UNL     1      -8.424   9.873  66.852  1.00  0.00    -0.124 OA 
BRANCH  13  15
HETATM   15  C   UNL     1      -9.050   6.027  68.152  1.00  0.00    -0.118 A  
HETATM   16  C   UNL     1      -9.405   3.513  67.006  1.00  0.00    -0.221 A  
HETATM   17  C   UNL     1      -8.667   4.883  68.852  1.00  0.00    -0.103 A  
HETATM   18  C   UNL     1      -9.644   5.918  66.895  1.00  0.00    -0.156 A  
HETATM   19  C   UNL     1      -8.840   3.625  68.275  1.00  0.00    -0.151 A  
HETATM   20  C   UNL     1      -9.815   4.657  66.321  1.00  0.00    -0.241 A  
ENDBRANCH  13  15
BRANCH  12  21
HETATM   21  C   UNL     1     -10.354  10.307  68.756  1.00  0.00    -0.195 C  
BRANCH  21  22
HETATM   22  C   UNL     1     -10.464  11.752  69.329  1.00  0.00     0.060 C  
HETATM   23  O   UNL     1      -9.629  12.657  68.572  1.00  0.00    -0.195 OA 
HETATM   24  C   UNL     1     -11.639  13.844  68.899  1.00  0.00    -0.316 C  
HETATM   25  H   UNL     1     -13.418  12.724  70.554  1.00  0.00     0.000 HD 
HETATM   26  C   UNL     1     -11.877  12.382  69.310  1.00  0.00    -0.304 C  
HETATM   27  O   UNL     1     -12.549  12.338  70.565  1.00  0.00    -0.206 OA 
HETATM   28  F   UNL     1     -12.233  14.683  69.791  1.00  0.00    -0.319 F  
HETATM   29  C   UNL     1     -12.264  14.108  67.538  1.00  0.00    -0.258 C  
HETATM   30  C   UNL     1     -10.114  13.961  68.957  1.00  0.00    -0.018 C  
BRANCH  30  31
HETATM   31  N   UNL     1      -9.496  14.997  68.122  1.00  0.00    -0.192 N  
HETATM   32  C   UNL     1      -9.371  16.299  68.573  1.00  0.00    -0.213 C  
HETATM   33  C   UNL     1      -8.910  17.277  67.796  1.00  0.00    -0.234 C  
HETATM   34  C   UNL     1      -8.540  16.964  66.408  1.00  0.00    -0.293 C  
HETATM   35  O   UNL     1      -8.247  17.852  65.617  1.00  0.00    -0.476 OA 
HETATM   36  N   UNL     1      -8.562  15.641  66.076  1.00  0.00    -0.342 N  
HETATM   37  H   UNL     1      -8.159  15.381  65.175  1.00  0.00     0.000 HD 
HETATM   38  C   UNL     1      -9.077  14.630  66.847  1.00  0.00    -0.252 C  
HETATM   39  O   UNL     1      -9.170  13.496  66.391  1.00  0.00    -0.220 OA 
ENDBRANCH  30  31
ENDBRANCH  21  22
ENDBRANCH  12  21
ENDBRANCH   7   9
ENDBRANCH   5   7
ENDBRANCH   4   5
ENDBRANCH   2   4
TORSDOF 8
ENDMDL
MODEL      213
REMARK 921   NORMALIZED FREE ENERGY PREDICTED BY IDOCK:   -0.76 KCAL/MOL
REMARK 922        TOTAL FREE ENERGY PREDICTED BY IDOCK:   -3.66 KCAL/MOL
REMARK 923 INTER-LIGAND FREE ENERGY PREDICTED BY IDOCK:   -4.60 KCAL/MOL
REMARK 924 INTRA-LIGAND FREE ENERGY PREDICTED BY IDOCK:    0.94 KCAL/MOL
REMARK 927      BINDING AFFINITY PREDICTED BY RF-SCORE:    0.00 PKD
ROOT
HETATM    1  C   UNL     1     -14.017   7.828  71.135  1.00  0.00    -0.229 C  
HETATM    2  C   UNL     1     -13.528   9.257  71.341  1.00  0.00    -0.319 C  
HETATM    3  C   UNL     1     -13.875   9.730  72.751  1.00  0.00     0.200 C  
ENDROOT
BRANCH   2   4
HETATM    4  O   UNL     1     -12.095   9.307  71.199  1.00  0.00    -0.297 OA 
BRANCH   4   5
HETATM    5  C   UNL     1     -11.602  10.308  70.407  1.00  0.00    -0.328 C  
HETATM    6  O   UNL     1     -11.814  11.503  70.571  1.00  0.00    -0.346 OA 
BRANCH   5   7
HETATM    7  C   UNL     1     -10.689   9.720  69.328  1.00  0.00    -0.224 C  
HETATM    8  C   UNL     1     -11.325   9.994  67.966  1.00  0.00    -0.069 C  
BRANCH   7   9
HETATM    9  N   UNL     1     -10.439   8.280  69.584  1.00  0.00    -0.220 NA 
HETATM   10  P   UNL     1      -9.479   7.508  68.419  1.00  0.00    -0.151 P  
HETATM   11  H   UNL     1     -11.322   7.783  69.700  1.00  0.00     0.000 HD 
HETATM   12  O   UNL     1      -9.309   5.940  68.935  1.00  0.00    -0.124 OA 
HETATM   13  O   UNL     1      -8.092   7.940  69.357  1.00  0.00    -0.120 OA 
HETATM   14  O   UNL     1     -10.722   7.123  67.578  1.00  0.00    -0.254 OA 
BRANCH  13  15
HETATM   15  C   UNL     1      -7.329   8.998  68.937  1.00  0.00    -0.074 A  
HETATM   16  C   UNL     1      -5.848  11.112  67.891  1.00  0.00    -0.042 A  
HETATM   17  C   UNL     1      -7.865   9.786  67.921  1.00  0.00    -0.090 A  
HETATM   18  C   UNL     1      -6.068   9.284  69.460  1.00  0.00    -0.040 A  
HETATM   19  C   UNL     1      -7.122  10.841  67.393  1.00  0.00    -0.091 A  
HETATM   20  C   UNL     1      -5.325  10.341  68.928  1.00  0.00    -0.034 A  
ENDBRANCH  13  15
BRANCH  12  21
HETATM   21  C   UNL     1      -9.065   4.959  67.909  1.00  0.00    -0.113 C  
BRANCH  21  22
HETATM   22  C   UNL     1      -9.210   5.399  66.421  1.00  0.00    -0.147 C  
HETATM   23  O   UNL     1      -8.432   6.591  66.173  1.00  0.00    -0.125 OA 
HETATM   24  C   UNL     1      -8.021   5.221  64.300  1.00  0.00    -0.111 C  
HETATM   25  H   UNL     1      -9.509   3.005  64.108  1.00  0.00     0.000 HD 
HETATM   26  C   UNL     1      -8.739   4.373  65.363  1.00  0.00    -0.125 C  
HETATM   27  O   UNL     1      -9.797   3.636  64.758  1.00  0.00    -0.171 OA 
HETATM   28  F   UNL     1      -8.524   4.946  63.065  1.00  0.00    -0.095 F  
HETATM   29  C   UNL     1      -6.540   4.876  64.276  1.00  0.00    -0.042 C  
HETATM   30  C   UNL     1      -8.358   6.650  64.732  1.00  0.00    -0.006 C  
BRANCH  30  31
HETATM   31  N   UNL     1      -7.429   7.705  64.315  1.00  0.00    -0.093 N  
HETATM   32  C   UNL     1      -6.334   8.042  65.091  1.00  0.00    -0.045 C  
HETATM   33  C   UNL     1      -5.537   9.064  64.786  1.00  0.00    -0.061 C  
HETATM   34  C   UNL     1      -5.844   9.871  63.596  1.00  0.00    -0.117 C  
HETATM   35  O   UNL     1      -5.227  10.902  63.357  1.00  0.00    -0.172 OA 
HETATM   36  N   UNL     1      -6.854   9.401  62.810  1.00  0.00    -0.096 N  
HETATM   37  H   UNL     1      -6.982   9.848  61.902  1.00  0.00     0.000 HD 
HETATM   38  C   UNL     1      -7.713   8.381  63.132  1.00  0.00    -0.136 C  
HETATM   39  O   UNL     1      -8.670   8.133  62.409  1.00  0.00    -0.091 OA 
ENDBRANCH  30  31
ENDBRANCH  21  22
ENDBRANCH  12  21
ENDBRANCH   7   9
ENDBRANCH   5   7
ENDBRANCH   4   5
ENDBRANCH   2   4
TORSDOF 8
ENDMDL
MODEL      214
REMARK 921   NORMALIZED FREE ENERGY PREDICTED BY IDOCK:   -0.65 KCAL/MOL
REMARK 922        TOTAL FREE ENERGY PREDICTED BY IDOCK:   -3.50 KCAL/MOL
REMARK 923 INTER-LIGAND FREE ENERGY PREDICTED BY IDOCK:   -5.53 KCAL/MOL
REMARK 924 INTRA-LIGAND FREE ENERGY PREDICTED BY IDOCK:    2.03 KCAL/MOL
REMARK 927      BINDING AFFINITY PREDICTED BY RF-SCORE:    0.00 PKD
ROOT
HETATM    1  C   UNL     1      -5.182   8.110  66.113  1.00  0.00    -0.025 C  
HETATM    2  C   UNL     1      -5.527   9.507  66.615  1.00  0.00    -0.046 C  
HETATM    3  C   UNL     1      -6.679  10.087  65.797  1.00  0.00    -0.106 C  
ENDROOT
BRANCH   2   4
HETATM    4  O   UNL     1      -5.953   9.440  67.990  1.00  0.00    -0.047 OA 
BRANCH   4   5
HETATM    5  C   UNL     1      -6.818   8.428  68.305  1.00  0.00    -0.066 C  
HETATM    6  O   UNL     1      -7.342   7.673  67.495  1.00  0.00    -0.090 OA 
BRANCH   5   7
HETATM    7  C   UNL     1      -6.981   8.333  69.824  1.00  0.00    -0.048 C  
HETATM    8  C   UNL     1      -7.299   6.880  70.179  1.00  0.00    -0.081 C  
BRANCH   7   9
HETATM    9  N   UNL     1      -8.006   9.294  70.300  1.00  0.00    -0.127 NA 
HETATM   10  P   UNL     1      -9.178   9.710  69.149  1.00  0.00    -0.190 P  
HETATM   11  H   UNL     1      -7.559  10.134  70.669  1.00  0.00     0.000 HD 
HETATM   12  O   UNL     1     -10.221  10.749  69.916  1.00  0.00    -0.084 OA 
HETATM   13  O   UNL     1     -10.127   8.381  69.717  1.00  0.00    -0.189 OA 
HETATM   14  O   UNL     1      -8.327  10.900  68.639  1.00  0.00    -0.133 OA 
BRANCH  13  15
HETATM   15  C   UNL     1     -10.147   7.232  68.970  1.00  0.00    -0.186 A  
HETATM   16  C   UNL     1     -10.344   4.980  67.343  1.00  0.00    -0.174 A  
HETATM   17  C   UNL     1     -10.445   7.376  67.616  1.00  0.00    -0.310 A  
HETATM   18  C   UNL     1      -9.910   5.967  69.508  1.00  0.00    -0.216 A  
HETATM   19  C   UNL     1     -10.550   6.248  66.803  1.00  0.00    -0.335 A  
HETATM   20  C   UNL     1     -10.016   4.840  68.691  1.00  0.00    -0.170 A  
ENDBRANCH  13  15
BRANCH  12  21
HETATM   21  C   UNL     1     -10.925  11.678  69.070  1.00  0.00    -0.233 C  
BRANCH  21  22
HETATM   22  C   UNL     1     -10.887  13.190  69.446  1.00  0.00     0.084 C  
HETATM   23  O   UNL     1      -9.780  13.844  68.786  1.00  0.00    -0.192 OA 
HETATM   24  C   UNL     1     -11.577  15.351  68.553  1.00  0.00    -0.359 C  
HETATM   25  H   UNL     1     -13.804  14.755  69.911  1.00  0.00     0.000 HD 
HETATM   26  C   UNL     1     -12.140  14.014  69.062  1.00  0.00    -0.323 C  
HETATM   27  O   UNL     1     -13.034  14.249  70.146  1.00  0.00    -0.204 OA 
HETATM   28  F   UNL     1     -12.173  16.388  69.204  1.00  0.00    -0.174 F  
HETATM   29  C   UNL     1     -11.878  15.509  67.071  1.00  0.00     0.310 C  
HETATM   30  C   UNL     1     -10.094  15.247  68.916  1.00  0.00    -0.225 C  
BRANCH  30  31
HETATM   31  N   UNL     1      -9.158  16.050  68.122  1.00  0.00    -0.186 N  
HETATM   32  C   UNL     1      -8.289  15.457  67.223  1.00  0.00    -0.199 C  
HETATM   33  C   UNL     1      -7.362  16.152  66.569  1.00  0.00    -0.042 C  
HETATM   34  C   UNL     1      -7.247  17.596  66.825  1.00  0.00    -0.212 C  
HETATM   35  O   UNL     1      -6.322  18.248  66.357  1.00  0.00    -0.170 OA 
HETATM   36  N   UNL     1      -8.219  18.132  67.616  1.00  0.00    -0.240 N  
HETATM   37  H   UNL     1      -8.257  19.150  67.680  1.00  0.00     0.000 HD 
HETATM   38  C   UNL     1      -9.151  17.426  68.334  1.00  0.00    -0.274 C  
HETATM   39  O   UNL     1      -9.890  18.006  69.121  1.00  0.00    -0.269 OA 
ENDBRANCH  30  31
ENDBRANCH  21  22
ENDBRANCH  12  21
ENDBRANCH   7   9
ENDBRANCH   5   7
ENDBRANCH   4   5
ENDBRANCH   2   4
TORSDOF 8
ENDMDL
MODEL      215
REMARK 921   NORMALIZED FREE ENERGY PREDICTED BY IDOCK:   -0.65 KCAL/MOL
REMARK 922        TOTAL FREE ENERGY PREDICTED BY IDOCK:   -3.50 KCAL/MOL
REMARK 923 INTER-LIGAND FREE ENERGY PREDICTED BY IDOCK:   -5.28 KCAL/MOL
REMARK 924 INTRA-LIGAND FREE ENERGY PREDICTED BY IDOCK:    1.78 KCAL/MOL
REMARK 927      BINDING AFFINITY PREDICTED BY RF-SCORE:    0.00 PKD
ROOT
HETATM    1  C   UNL     1     -10.609  16.415  65.467  1.00  0.00    -0.346 C  
HETATM    2  C   UNL     1     -11.832  15.512  65.561  1.00  0.00     0.344 C  
HETATM    3  C   UNL     1     -12.399  15.251  64.168  1.00  0.00    -0.065 C  
ENDROOT
BRANCH   2   4
HETATM    4  O   UNL     1     -11.457  14.241  66.129  1.00  0.00    -0.338 OA 
BRANCH   4   5
HETATM    5  C   UNL     1     -10.226  13.761  65.774  1.00  0.00    -0.311 C  
HETATM    6  O   UNL     1      -9.245  14.454  65.531  1.00  0.00     0.105 OA 
BRANCH   5   7
HETATM    7  C   UNL     1     -10.234  12.231  65.794  1.00  0.00    -0.255 C  
HETATM    8  C   UNL     1     -10.928  11.743  64.523  1.00  0.00    -0.382 C  
BRANCH   7   9
HETATM    9  N   UNL     1     -10.864  11.728  67.040  1.00  0.00    -0.249 NA 
HETATM   10  P   UNL     1      -9.793  10.999  68.133  1.00  0.00    -0.188 P  
HETATM   11  H   UNL     1     -11.630  11.092  66.818  1.00  0.00     0.000 HD 
HETATM   12  O   UNL     1     -10.711  10.561  69.445  1.00  0.00    -0.211 OA 
HETATM   13  O   UNL     1      -9.557  12.554  68.851  1.00  0.00     0.026 OA 
HETATM   14  O   UNL     1     -10.005   9.607  67.488  1.00  0.00    -0.164 OA 
BRANCH  13  15
HETATM   15  C   UNL     1      -8.407  13.238  68.552  1.00  0.00    -0.075 A  
HETATM   16  C   UNL     1      -6.190  14.775  67.858  1.00  0.00    -0.171 A  
HETATM   17  C   UNL     1      -8.472  14.628  68.635  1.00  0.00    -0.164 A  
HETATM   18  C   UNL     1      -7.226  12.610  68.158  1.00  0.00    -0.109 A  
HETATM   19  C   UNL     1      -7.364  15.398  68.282  1.00  0.00    -0.113 A  
HETATM   20  C   UNL     1      -6.118  13.384  67.805  1.00  0.00    -0.152 A  
ENDBRANCH  13  15
BRANCH  12  21
HETATM   21  C   UNL     1     -10.216   9.453  70.221  1.00  0.00    -0.247 C  
BRANCH  21  22
HETATM   22  C   UNL     1     -10.671   8.016  69.826  1.00  0.00    -0.231 C  
HETATM   23  O   UNL     1      -9.833   7.497  68.769  1.00  0.00    -0.159 OA 
HETATM   24  C   UNL     1     -10.087   5.690  70.260  1.00  0.00    -0.222 C  
HETATM   25  H   UNL     1     -11.849   6.032  72.244  1.00  0.00     0.000 HD 
HETATM   26  C   UNL     1     -10.618   6.956  70.952  1.00  0.00    -0.218 C  
HETATM   27  O   UNL     1     -11.881   6.683  71.552  1.00  0.00    -0.306 OA 
HETATM   28  F   UNL     1     -10.915   4.638  70.509  1.00  0.00     0.017 F  
HETATM   29  C   UNL     1      -8.717   5.332  70.814  1.00  0.00    -0.140 C  
HETATM   30  C   UNL     1     -10.116   6.082  68.781  1.00  0.00    -0.168 C  
BRANCH  30  31
HETATM   31  N   UNL     1      -9.193   5.373  67.888  1.00  0.00    -0.109 N  
HETATM   32  C   UNL     1      -9.511   4.130  67.370  1.00  0.00    -0.187 C  
HETATM   33  C   UNL     1      -8.648   3.424  66.643  1.00  0.00    -0.115 C  
HETATM   34  C   UNL     1      -7.306   3.976  66.401  1.00  0.00    -0.076 C  
HETATM   35  O   UNL     1      -6.436   3.305  65.863  1.00  0.00    -0.031 OA 
HETATM   36  N   UNL     1      -7.111   5.257  66.827  1.00  0.00    -0.068 N  
HETATM   37  H   UNL     1      -6.250   5.718  66.532  1.00  0.00     0.000 HD 
HETATM   38  C   UNL     1      -7.970   5.980  67.616  1.00  0.00    -0.102 C  
HETATM   39  O   UNL     1      -7.631   7.073  68.052  1.00  0.00    -0.106 OA 
ENDBRANCH  30  31
ENDBRANCH  21  22
ENDBRANCH  12  21
ENDBRANCH   7   9
ENDBRANCH   5   7
ENDBRANCH   4   5
ENDBRANCH   2   4
TORSDOF 8
ENDMDL
MODEL      216
REMARK 921   NORMALIZED FREE ENERGY PREDICTED BY IDOCK:   -0.52 KCAL/MOL
REMARK 922        TOTAL FREE ENERGY PREDICTED BY IDOCK:   -3.31 KCAL/MOL
REMARK 923 INTER-LIGAND FREE ENERGY PREDICTED BY IDOCK:   -3.79 KCAL/MOL
REMARK 924 INTRA-LIGAND FREE ENERGY PREDICTED BY IDOCK:    0.48 KCAL/MOL
REMARK 927      BINDING AFFINITY PREDICTED BY RF-SCORE:    0.00 PKD
ROOT
HETATM    1  C   UNL     1      -7.753   6.762  67.728  1.00  0.00    -0.111 C  
HETATM    2  C   UNL     1      -7.024   7.878  66.990  1.00  0.00    -0.074 C  
HETATM    3  C   UNL     1      -5.537   7.551  66.882  1.00  0.00    -0.027 C  
ENDROOT
BRANCH   2   4
HETATM    4  O   UNL     1      -7.547   8.001  65.652  1.00  0.00    -0.078 OA 
BRANCH   4   5
HETATM    5  C   UNL     1      -8.810   8.514  65.543  1.00  0.00    -0.154 C  
HETATM    6  O   UNL     1      -9.234   9.138  64.577  1.00  0.00    -0.111 OA 
BRANCH   5   7
HETATM    7  C   UNL     1      -9.638   8.134  66.773  1.00  0.00    -0.217 C  
HETATM    8  C   UNL     1     -10.167   6.715  66.572  1.00  0.00    -0.129 C  
BRANCH   7   9
HETATM    9  N   UNL     1     -10.708   9.135  67.011  1.00  0.00    -0.253 NA 
HETATM   10  P   UNL     1     -10.596   9.955  68.490  1.00  0.00    -0.211 P  
HETATM   11  H   UNL     1     -11.626   8.700  66.917  1.00  0.00     0.000 HD 
HETATM   12  O   UNL     1     -11.859  11.032  68.509  1.00  0.00    -0.460 OA 
HETATM   13  O   UNL     1      -9.628  11.146  67.692  1.00  0.00    -0.167 OA 
HETATM   14  O   UNL     1     -11.462   8.888  69.205  1.00  0.00     0.293 OA 
BRANCH  13  15
HETATM   15  C   UNL     1      -8.271  11.112  67.882  1.00  0.00    -0.121 A  
HETATM   16  C   UNL     1      -5.550  11.064  68.473  1.00  0.00    -0.043 A  
HETATM   17  C   UNL     1      -7.821  10.467  69.033  1.00  0.00    -0.129 A  
HETATM   18  C   UNL     1      -7.362  11.702  67.004  1.00  0.00    -0.143 A  
HETATM   19  C   UNL     1      -6.459  10.448  69.332  1.00  0.00    -0.057 A  
HETATM   20  C   UNL     1      -5.999  11.681  67.307  1.00  0.00    -0.112 A  
ENDBRANCH  13  15
BRANCH  12  21
HETATM   21  C   UNL     1     -12.342  11.418  69.810  1.00  0.00    -0.184 C  
BRANCH  21  22
HETATM   22  C   UNL     1     -11.822  12.754  70.422  1.00  0.00    -0.155 C  
HETATM   23  O   UNL     1     -11.288  13.606  69.384  1.00  0.00    -0.262 OA 
HETATM   24  C   UNL     1     -12.544  15.059  70.750  1.00  0.00    -0.370 C  
HETATM   25  H   UNL     1     -13.479  14.023  73.032  1.00  0.00     0.000 HD 
HETATM   26  C   UNL     1     -12.876  13.615  71.160  1.00  0.00    -0.323 C  
HETATM   27  O   UNL     1     -12.832  13.495  72.579  1.00  0.00    -0.264 OA 
HETATM   28  F   UNL     1     -12.413  15.841  71.857  1.00  0.00    -0.377 F  
HETATM   29  C   UNL     1     -13.679  15.635  69.917  1.00  0.00     1.642 C  
HETATM   30  C   UNL     1     -11.208  14.900  70.021  1.00  0.00    -0.259 C  
BRANCH  30  31
HETATM   31  N   UNL     1     -10.864  15.929  69.034  1.00  0.00    -0.247 N  
HETATM   32  C   UNL     1     -10.909  15.663  67.677  1.00  0.00    -0.307 C  
HETATM   33  C   UNL     1     -10.503  16.546  66.768  1.00  0.00    -0.269 C  
HETATM   34  C   UNL     1      -9.970  17.839  67.224  1.00  0.00    -0.324 C  
HETATM   35  O   UNL     1      -9.454  18.622  66.437  1.00  0.00    -0.317 OA 
HETATM   36  N   UNL     1     -10.080  18.082  68.561  1.00  0.00    -0.377 N  
HETATM   37  H   UNL     1      -9.867  19.027  68.880  1.00  0.00     0.000 HD 
HETATM   38  C   UNL     1     -10.452  17.168  69.515  1.00  0.00    -0.122 C  
HETATM   39  O   UNL     1     -10.384  17.459  70.703  1.00  0.00     1.027 OA 
ENDBRANCH  30  31
ENDBRANCH  21  22
ENDBRANCH  12  21
ENDBRANCH   7   9
ENDBRANCH   5   7
ENDBRANCH   4   5
ENDBRANCH   2   4
TORSDOF 8
ENDMDL
MODEL      217
REMARK 921   NORMALIZED FREE ENERGY PREDICTED BY IDOCK:   -0.47 KCAL/MOL
REMARK 922        TOTAL FREE ENERGY PREDICTED BY IDOCK:   -3.24 KCAL/MOL
REMARK 923 INTER-LIGAND FREE ENERGY PREDICTED BY IDOCK:   -6.54 KCAL/MOL
REMARK 924 INTRA-LIGAND FREE ENERGY PREDICTED BY IDOCK:    3.30 KCAL/MOL
REMARK 927      BINDING AFFINITY PREDICTED BY RF-SCORE:    0.00 PKD
ROOT
HETATM    1  C   UNL     1      -9.742  10.334  65.469  1.00  0.00    -0.326 C  
HETATM    2  C   UNL     1      -9.363   9.136  64.608  1.00  0.00     0.164 C  
HETATM    3  C   UNL     1      -8.978   9.601  63.205  1.00  0.00    -0.251 C  
ENDROOT
BRANCH   2   4
HETATM    4  O   UNL     1      -8.222   8.466  65.179  1.00  0.00    -0.141 OA 
BRANCH   4   5
HETATM    5  C   UNL     1      -7.035   9.144  65.127  1.00  0.00    -0.087 C  
HETATM    6  O   UNL     1      -6.853  10.198  64.529  1.00  0.00    -0.129 OA 
BRANCH   5   7
HETATM    7  C   UNL     1      -5.986   8.429  65.981  1.00  0.00    -0.044 C  
HETATM    8  C   UNL     1      -6.557   7.075  66.402  1.00  0.00    -0.052 C  
BRANCH   7   9
HETATM    9  N   UNL     1      -5.578   9.279  67.127  1.00  0.00    -0.041 NA 
HETATM   10  P   UNL     1      -6.860  10.016  67.956  1.00  0.00    -0.068 P  
HETATM   11  H   UNL     1      -4.903   9.982  66.823  1.00  0.00     0.000 HD 
HETATM   12  O   UNL     1      -6.167  10.869  69.200  1.00  0.00    -0.042 OA 
HETATM   13  O   UNL     1      -6.922   8.624  68.981  1.00  0.00    -0.062 OA 
HETATM   14  O   UNL     1      -6.805  11.261  67.037  1.00  0.00    -0.106 OA 
BRANCH  13  15
HETATM   15  C   UNL     1      -7.911   7.700  68.761  1.00  0.00    -0.120 A  
HETATM   16  C   UNL     1     -10.057   5.966  68.382  1.00  0.00    -0.206 A  
HETATM   17  C   UNL     1      -9.129   8.193  68.296  1.00  0.00    -0.135 A  
HETATM   18  C   UNL     1      -7.748   6.336  69.004  1.00  0.00    -0.100 A  
HETATM   19  C   UNL     1     -10.205   7.326  68.111  1.00  0.00    -0.222 A  
HETATM   20  C   UNL     1      -8.829   5.471  68.818  1.00  0.00    -0.109 A  
ENDBRANCH  13  15
BRANCH  12  21
HETATM   21  C   UNL     1      -6.910  12.006  69.678  1.00  0.00     0.085 C  
BRANCH  21  22
HETATM   22  C   UNL     1      -6.988  13.270  68.767  1.00  0.00    -0.103 C  
HETATM   23  O   UNL     1      -8.126  13.180  67.882  1.00  0.00    -0.132 OA 
HETATM   24  C   UNL     1      -8.147  15.410  68.644  1.00  0.00    -0.156 C  
HETATM   25  H   UNL     1      -6.022  16.192  70.069  1.00  0.00     0.000 HD 
HETATM   26  C   UNL     1      -7.141  14.623  69.501  1.00  0.00    -0.152 C  
HETATM   27  O   UNL     1      -5.928  15.361  69.619  1.00  0.00    -0.116 OA 
HETATM   28  F   UNL     1      -7.639  16.635  68.333  1.00  0.00    -0.166 F  
HETATM   29  C   UNL     1      -9.430  15.635  69.427  1.00  0.00    -0.279 C  
HETATM   30  C   UNL     1      -8.281  14.532  67.398  1.00  0.00    -0.202 C  
BRANCH  30  31
HETATM   31  N   UNL     1      -9.525  14.655  66.631  1.00  0.00    -0.265 N  
HETATM   32  C   UNL     1     -10.516  13.693  66.714  1.00  0.00    -0.270 C  
HETATM   33  C   UNL     1     -11.606  13.730  65.950  1.00  0.00    -0.346 C  
HETATM   34  C   UNL     1     -11.749  14.819  64.973  1.00  0.00    -0.364 C  
HETATM   35  O   UNL     1     -12.659  14.815  64.154  1.00  0.00    -0.784 OA 
HETATM   36  N   UNL     1     -10.803  15.799  65.040  1.00  0.00    -0.443 N  
HETATM   37  H   UNL     1     -10.966  16.640  64.486  1.00  0.00     0.000 HD 
HETATM   38  C   UNL     1      -9.652  15.754  65.786  1.00  0.00    -0.320 C  
HETATM   39  O   UNL     1      -8.807  16.632  65.664  1.00  0.00    -0.448 OA 
ENDBRANCH  30  31
ENDBRANCH  21  22
ENDBRANCH  12  21
ENDBRANCH   7   9
ENDBRANCH   5   7
ENDBRANCH   4   5
ENDBRANCH   2   4
TORSDOF 8
ENDMDL
MODEL      218
REMARK 921   NORMALIZED FREE ENERGY PREDICTED BY IDOCK:   -0.37 KCAL/MOL
REMARK 922        TOTAL FREE ENERGY PREDICTED BY IDOCK:   -3.09 KCAL/MOL
REMARK 923 INTER-LIGAND FREE ENERGY PREDICTED BY IDOCK:   -5.03 KCAL/MOL
REMARK 924 INTRA-LIGAND FREE ENERGY PREDICTED BY IDOCK:    1.94 KCAL/MOL
REMARK 927      BINDING AFFINITY PREDICTED BY RF-SCORE:    0.00 PKD
ROOT
HETATM    1  C   UNL     1     -12.334  15.378  64.259  1.00  0.00    -0.077 C  
HETATM    2  C   UNL     1     -10.904  15.491  64.776  1.00  0.00    -0.363 C  
HETATM    3  C   UNL     1     -10.695  16.848  65.444  1.00  0.00    -0.161 C  
ENDROOT
BRANCH   2   4
HETATM    4  O   UNL     1     -10.662  14.470  65.765  1.00  0.00    -0.293 OA 
BRANCH   4   5
HETATM    5  C   UNL     1     -10.938  13.185  65.386  1.00  0.00    -0.279 C  
HETATM    6  O   UNL     1     -10.626  12.686  64.312  1.00  0.00    -0.335 OA 
BRANCH   5   7
HETATM    7  C   UNL     1     -11.633  12.441  66.529  1.00  0.00    -0.387 C  
HETATM    8  C   UNL     1     -11.790  13.408  67.701  1.00  0.00    -0.394 C  
BRANCH   7   9
HETATM    9  N   UNL     1     -10.887  11.206  66.878  1.00  0.00    -0.275 NA 
HETATM   10  P   UNL     1      -9.280  11.173  66.341  1.00  0.00    -0.194 P  
HETATM   11  H   UNL     1     -11.389  10.383  66.545  1.00  0.00     0.000 HD 
HETATM   12  O   UNL     1      -8.651   9.734  66.878  1.00  0.00    -0.123 OA 
HETATM   13  O   UNL     1      -8.822  11.902  67.841  1.00  0.00    -0.157 OA 
HETATM   14  O   UNL     1      -9.690  10.521  64.997  1.00  0.00    -0.242 OA 
BRANCH  13  15
HETATM   15  C   UNL     1      -8.539  13.243  67.850  1.00  0.00    -0.188 A  
HETATM   16  C   UNL     1      -8.156  16.001  67.938  1.00  0.00    -0.149 A  
HETATM   17  C   UNL     1      -9.099  13.990  68.885  1.00  0.00     0.048 A  
HETATM   18  C   UNL     1      -7.756  13.864  66.876  1.00  0.00     0.360 A  
HETATM   19  C   UNL     1      -8.913  15.371  68.926  1.00  0.00    -0.208 A  
HETATM   20  C   UNL     1      -7.572  15.248  66.920  1.00  0.00    -0.051 A  
ENDBRANCH  13  15
BRANCH  12  21
HETATM   21  C   UNL     1      -7.559   9.194  66.109  1.00  0.00    -0.095 C  
BRANCH  21  22
HETATM   22  C   UNL     1      -7.085   7.742  66.422  1.00  0.00    -0.071 C  
HETATM   23  O   UNL     1      -7.246   7.454  67.828  1.00  0.00    -0.085 OA 
HETATM   24  C   UNL     1      -8.008   5.509  66.739  1.00  0.00    -0.101 C  
HETATM   25  H   UNL     1      -7.604   5.399  64.096  1.00  0.00     0.000 HD 
HETATM   26  C   UNL     1      -7.839   6.612  65.681  1.00  0.00    -0.105 C  
HETATM   27  O   UNL     1      -7.142   6.093  64.552  1.00  0.00    -0.052 OA 
HETATM   28  F   UNL     1      -7.546   4.322  66.255  1.00  0.00    -0.083 F  
HETATM   29  C   UNL     1      -9.482   5.325  67.064  1.00  0.00    -0.137 C  
HETATM   30  C   UNL     1      -7.138   6.016  67.890  1.00  0.00    -0.074 C  
BRANCH  30  31
HETATM   31  N   UNL     1      -7.475   5.540  69.236  1.00  0.00    -0.076 N  
HETATM   32  C   UNL     1      -6.990   4.336  69.713  1.00  0.00    -0.042 C  
HETATM   33  C   UNL     1      -7.365   3.835  70.888  1.00  0.00    -0.037 C  
HETATM   34  C   UNL     1      -8.342   4.580  71.695  1.00  0.00    -0.103 C  
HETATM   35  O   UNL     1      -8.823   4.093  72.711  1.00  0.00    -0.102 OA 
HETATM   36  N   UNL     1      -8.673   5.817  71.227  1.00  0.00    -0.132 N  
HETATM   37  H   UNL     1      -9.221   6.416  71.845  1.00  0.00     0.000 HD 
HETATM   38  C   UNL     1      -8.333   6.327  69.999  1.00  0.00    -0.129 C  
HETATM   39  O   UNL     1      -8.801   7.397  69.628  1.00  0.00    -0.140 OA 
ENDBRANCH  30  31
ENDBRANCH  21  22
ENDBRANCH  12  21
ENDBRANCH   7   9
ENDBRANCH   5   7
ENDBRANCH   4   5
ENDBRANCH   2   4
TORSDOF 8
ENDMDL
MODEL      219
REMARK 921   NORMALIZED FREE ENERGY PREDICTED BY IDOCK:   -0.29 KCAL/MOL
REMARK 922        TOTAL FREE ENERGY PREDICTED BY IDOCK:   -2.98 KCAL/MOL
REMARK 923 INTER-LIGAND FREE ENERGY PREDICTED BY IDOCK:   -5.71 KCAL/MOL
REMARK 924 INTRA-LIGAND FREE ENERGY PREDICTED BY IDOCK:    2.72 KCAL/MOL
REMARK 927      BINDING AFFINITY PREDICTED BY RF-SCORE:    0.00 PKD
ROOT
HETATM    1  C   UNL     1     -10.528  17.248  65.324  1.00  0.00     0.054 C  
HETATM    2  C   UNL     1      -9.840  18.193  66.303  1.00  0.00    -0.310 C  
HETATM    3  C   UNL     1     -10.614  19.505  66.395  1.00  0.00    -0.571 C  
ENDROOT
BRANCH   2   4
HETATM    4  O   UNL     1      -9.816  17.601  67.617  1.00  0.00    -0.277 OA 
BRANCH   4   5
HETATM    5  C   UNL     1     -10.695  16.575  67.832  1.00  0.00    -0.337 C  
HETATM    6  O   UNL     1     -11.190  15.877  66.955  1.00  0.00    -0.168 OA 
BRANCH   5   7
HETATM    7  C   UNL     1     -10.915  16.381  69.334  1.00  0.00    -0.325 C  
HETATM    8  C   UNL     1     -10.042  17.391  70.078  1.00  0.00     0.716 C  
BRANCH   7   9
HETATM    9  N   UNL     1     -10.651  14.973  69.723  1.00  0.00    -0.363 NA 
HETATM   10  P   UNL     1      -9.902  14.035  68.527  1.00  0.00    -0.157 P  
HETATM   11  H   UNL     1     -11.512  14.525  70.037  1.00  0.00     0.000 HD 
HETATM   12  O   UNL     1      -9.676  12.535  69.200  1.00  0.00     0.234 OA 
HETATM   13  O   UNL     1      -8.376  14.526  69.177  1.00  0.00    -0.110 OA 
HETATM   14  O   UNL     1     -11.268  13.596  67.945  1.00  0.00    -0.255 OA 
BRANCH  13  15
HETATM   15  C   UNL     1      -7.673  15.499  68.515  1.00  0.00    -0.132 A  
HETATM   16  C   UNL     1      -6.320  17.614  67.308  1.00  0.00    -0.169 A  
HETATM   17  C   UNL     1      -7.134  16.518  69.299  1.00  0.00    -0.219 A  
HETATM   18  C   UNL     1      -7.508  15.513  67.130  1.00  0.00    -0.244 A  
HETATM   19  C   UNL     1      -6.461  17.579  68.694  1.00  0.00    -0.194 A  
HETATM   20  C   UNL     1      -6.834  16.579  66.528  1.00  0.00    -0.042 A  
ENDBRANCH  13  15
BRANCH  12  21
HETATM   21  C   UNL     1      -9.614  11.430  68.278  1.00  0.00    -0.192 C  
BRANCH  21  22
HETATM   22  C   UNL     1     -10.360  10.114  68.655  1.00  0.00    -0.188 C  
HETATM   23  O   UNL     1      -9.416   9.035  68.829  1.00  0.00    -0.146 OA 
HETATM   24  C   UNL     1     -10.926   8.790  70.621  1.00  0.00    -0.238 C  
HETATM   25  H   UNL     1     -13.090  10.361  70.567  1.00  0.00     0.000 HD 
HETATM   26  C   UNL     1     -11.185  10.155  69.963  1.00  0.00    -0.299 C  
HETATM   27  O   UNL     1     -12.584  10.336  69.763  1.00  0.00    -0.062 OA 
HETATM   28  F   UNL     1     -12.108   8.187  70.928  1.00  0.00    -0.304 F  
HETATM   29  C   UNL     1     -10.159   8.977  71.920  1.00  0.00    -0.323 C  
HETATM   30  C   UNL     1     -10.183   8.027  69.522  1.00  0.00    -0.209 C  
BRANCH  30  31
HETATM   31  N   UNL     1      -9.307   6.931  69.951  1.00  0.00    -0.151 N  
HETATM   32  C   UNL     1      -7.954   7.134  70.156  1.00  0.00    -0.113 C  
HETATM   33  C   UNL     1      -7.123   6.135  70.444  1.00  0.00    -0.071 C  
HETATM   34  C   UNL     1      -7.660   4.769  70.527  1.00  0.00    -0.058 C  
HETATM   35  O   UNL     1      -6.914   3.805  70.647  1.00  0.00    -0.033 OA 
HETATM   36  N   UNL     1      -9.017   4.663  70.446  1.00  0.00    -0.097 N  
HETATM   37  H   UNL     1      -9.425   3.753  70.659  1.00  0.00     0.000 HD 
HETATM   38  C   UNL     1      -9.881   5.672  70.104  1.00  0.00    -0.190 C  
HETATM   39  O   UNL     1     -11.069   5.430  69.929  1.00  0.00    -0.164 OA 
ENDBRANCH  30  31
ENDBRANCH  21  22
ENDBRANCH  12  21
ENDBRANCH   7   9
ENDBRANCH   5   7
ENDBRANCH   4   5
ENDBRANCH   2   4
TORSDOF 8
ENDMDL
MODEL      220
REMARK 921   NORMALIZED FREE ENERGY PREDICTED BY IDOCK:   -0.25 KCAL/MOL
REMARK 922        TOTAL FREE ENERGY PREDICTED BY IDOCK:   -2.91 KCAL/MOL
REMARK 923 INTER-LIGAND FREE ENERGY PREDICTED BY IDOCK:   -4.27 KCAL/MOL
REMARK 924 INTRA-LIGAND FREE ENERGY PREDICTED BY IDOCK:    1.36 KCAL/MOL
REMARK 927      BINDING AFFINITY PREDICTED BY RF-SCORE:    0.00 PKD
ROOT
HETATM    1  C   UNL     1     -11.650  17.200  69.118  1.00  0.00     1.024 C  
HETATM    2  C   UNL     1     -10.737  17.733  68.020  1.00  0.00    -0.308 C  
HETATM    3  C   UNL     1     -10.897  19.247  67.897  1.00  0.00    -0.319 C  
ENDROOT
BRANCH   2   4
HETATM    4  O   UNL     1      -9.362  17.461  68.354  1.00  0.00    -0.268 OA 
BRANCH   4   5
HETATM    5  C   UNL     1      -8.647  16.745  67.433  1.00  0.00    -0.193 C  
HETATM    6  O   UNL     1      -7.427  16.755  67.327  1.00  0.00    -0.150 OA 
BRANCH   5   7
HETATM    7  C   UNL     1      -9.592  15.875  66.599  1.00  0.00    -0.246 C  
HETATM    8  C   UNL     1     -10.273  16.771  65.564  1.00  0.00    -0.188 C  
BRANCH   7   9
HETATM    9  N   UNL     1     -10.547  15.154  67.475  1.00  0.00    -0.264 NA 
HETATM   10  P   UNL     1     -10.251  13.492  67.632  1.00  0.00    -0.247 P  
HETATM   11  H   UNL     1     -11.505  15.314  67.162  1.00  0.00     0.000 HD 
HETATM   12  O   UNL     1     -11.408  12.920  68.676  1.00  0.00    -0.249 OA 
HETATM   13  O   UNL     1      -9.244  13.857  68.990  1.00  0.00     0.016 OA 
HETATM   14  O   UNL     1     -11.152  13.166  66.415  1.00  0.00    -0.282 OA 
BRANCH  13  15
HETATM   15  C   UNL     1      -7.885  13.839  68.813  1.00  0.00    -0.059 A  
HETATM   16  C   UNL     1      -5.147  13.623  68.347  1.00  0.00    -0.098 A  
HETATM   17  C   UNL     1      -7.424  13.346  67.593  1.00  0.00    -0.182 A  
HETATM   18  C   UNL     1      -6.983  14.259  69.790  1.00  0.00    -0.011 A  
HETATM   19  C   UNL     1      -6.053  13.232  67.362  1.00  0.00     0.014 A  
HETATM   20  C   UNL     1      -5.611  14.144  69.555  1.00  0.00    -0.093 A  
ENDBRANCH  13  15
BRANCH  12  21
HETATM   21  C   UNL     1     -11.755  11.529  68.535  1.00  0.00    -0.313 C  
BRANCH  21  22
HETATM   22  C   UNL     1     -10.603  10.504  68.302  1.00  0.00    -0.206 C  
HETATM   23  O   UNL     1      -9.897  10.254  69.538  1.00  0.00    -0.224 OA 
HETATM   24  C   UNL     1     -10.146   8.124  68.562  1.00  0.00    -0.200 C  
HETATM   25  H   UNL     1     -11.109   8.072  66.066  1.00  0.00     0.000 HD 
HETATM   26  C   UNL     1     -11.033   9.110  67.785  1.00  0.00     0.037 C  
HETATM   27  O   UNL     1     -10.845   8.928  66.385  1.00  0.00     0.117 OA 
HETATM   28  F   UNL     1      -9.517   7.280  67.698  1.00  0.00    -0.130 F  
HETATM   29  C   UNL     1     -11.004   7.273  69.485  1.00  0.00    -0.182 C  
HETATM   30  C   UNL     1      -9.149   9.051  69.259  1.00  0.00    -0.145 C  
BRANCH  30  31
HETATM   31  N   UNL     1      -8.522   8.550  70.486  1.00  0.00    -0.128 N  
HETATM   32  C   UNL     1      -9.226   8.485  71.675  1.00  0.00    -0.236 C  
HETATM   33  C   UNL     1      -8.650   8.131  72.822  1.00  0.00    -0.269 C  
HETATM   34  C   UNL     1      -7.213   7.820  72.826  1.00  0.00    -0.083 C  
HETATM   35  O   UNL     1      -6.612   7.630  73.876  1.00  0.00    -0.079 OA 
HETATM   36  N   UNL     1      -6.617   7.775  71.601  1.00  0.00    -0.042 N  
HETATM   37  H   UNL     1      -5.665   7.407  71.561  1.00  0.00     0.000 HD 
HETATM   38  C   UNL     1      -7.181   8.180  70.418  1.00  0.00    -0.048 C  
HETATM   39  O   UNL     1      -6.505   8.223  69.398  1.00  0.00    -0.037 OA 
ENDBRANCH  30  31
ENDBRANCH  21  22
ENDBRANCH  12  21
ENDBRANCH   7   9
ENDBRANCH   5   7
ENDBRANCH   4   5
ENDBRANCH   2   4
TORSDOF 8
ENDMDL
MODEL      221
REMARK 921   NORMALIZED FREE ENERGY PREDICTED BY IDOCK:   -0.18 KCAL/MOL
REMARK 922        TOTAL FREE ENERGY PREDICTED BY IDOCK:   -2.81 KCAL/MOL
REMARK 923 INTER-LIGAND FREE ENERGY PREDICTED BY IDOCK:   -5.21 KCAL/MOL
REMARK 924 INTRA-LIGAND FREE ENERGY PREDICTED BY IDOCK:    2.40 KCAL/MOL
REMARK 927      BINDING AFFINITY PREDICTED BY RF-SCORE:    0.00 PKD
ROOT
HETATM    1  C   UNL     1     -10.720  17.151  65.778  1.00  0.00    -0.140 C  
HETATM    2  C   UNL     1     -10.060  18.259  66.591  1.00  0.00    -0.375 C  
HETATM    3  C   UNL     1     -11.078  19.352  66.908  1.00  0.00    -0.247 C  
ENDROOT
BRANCH   2   4
HETATM    4  O   UNL     1      -9.580  17.728  67.841  1.00  0.00    -0.267 OA 
BRANCH   4   5
HETATM    5  C   UNL     1     -10.307  16.701  68.379  1.00  0.00    -0.299 C  
HETATM    6  O   UNL     1     -11.373  16.288  67.939  1.00  0.00    -0.269 OA 
BRANCH   5   7
HETATM    7  C   UNL     1      -9.559  16.097  69.570  1.00  0.00    -0.150 C  
HETATM    8  C   UNL     1      -8.278  16.902  69.785  1.00  0.00     1.011 C  
BRANCH   7   9
HETATM    9  N   UNL     1      -9.316  14.649  69.354  1.00  0.00    -0.412 NA 
HETATM   10  P   UNL     1      -9.030  14.209  67.742  1.00  0.00    -0.211 P  
HETATM   11  H   UNL     1     -10.085  14.100  69.739  1.00  0.00     0.000 HD 
HETATM   12  O   UNL     1      -8.750  12.574  67.760  1.00  0.00    -0.159 OA 
HETATM   13  O   UNL     1      -7.345  14.473  68.029  1.00  0.00    -0.110 OA 
HETATM   14  O   UNL     1     -10.539  13.974  67.486  1.00  0.00    -0.257 OA 
BRANCH  13  15
HETATM   15  C   UNL     1      -6.782  15.632  67.561  1.00  0.00    -0.191 A  
HETATM   16  C   UNL     1      -5.608  18.044  66.809  1.00  0.00    -0.175 A  
HETATM   17  C   UNL     1      -5.711  16.142  68.293  1.00  0.00    -0.107 A  
HETATM   18  C   UNL     1      -7.246  16.305  66.431  1.00  0.00     0.114 A  
HETATM   19  C   UNL     1      -5.127  17.353  67.921  1.00  0.00    -0.122 A  
HETATM   20  C   UNL     1      -6.660  17.517  66.060  1.00  0.00    -0.241 A  
ENDBRANCH  13  15
BRANCH  12  21
HETATM   21  C   UNL     1      -9.055  11.867  66.542  1.00  0.00    -0.211 C  
BRANCH  21  22
HETATM   22  C   UNL     1      -9.834  10.521  66.648  1.00  0.00    -0.199 C  
HETATM   23  O   UNL     1      -8.987   9.419  66.251  1.00  0.00    -0.143 OA 
HETATM   24  C   UNL     1     -10.106   8.639  68.173  1.00  0.00    -0.197 C  
HETATM   25  H   UNL     1     -12.065  10.199  69.115  1.00  0.00     0.000 HD 
HETATM   26  C   UNL     1     -10.358  10.151  68.056  1.00  0.00    -0.190 C  
HETATM   27  O   UNL     1     -11.743  10.426  68.250  1.00  0.00    -0.342 OA 
HETATM   28  F   UNL     1     -11.252   8.001  68.539  1.00  0.00     0.018 F  
HETATM   29  C   UNL     1      -9.070   8.369  69.252  1.00  0.00    -0.150 C  
HETATM   30  C   UNL     1      -9.689   8.260  66.750  1.00  0.00    -0.239 C  
BRANCH  30  31
HETATM   31  N   UNL     1      -8.858   7.061  66.600  1.00  0.00    -0.126 N  
HETATM   32  C   UNL     1      -7.484   7.154  66.473  1.00  0.00    -0.088 C  
HETATM   33  C   UNL     1      -6.721   6.090  66.232  1.00  0.00    -0.060 C  
HETATM   34  C   UNL     1      -7.364   4.777  66.075  1.00  0.00    -0.077 C  
HETATM   35  O   UNL     1      -6.722   3.800  65.713  1.00  0.00    -0.043 OA 
HETATM   36  N   UNL     1      -8.700   4.741  66.345  1.00  0.00    -0.112 N  
HETATM   37  H   UNL     1      -9.138   3.821  66.400  1.00  0.00     0.000 HD 
HETATM   38  C   UNL     1      -9.508   5.831  66.548  1.00  0.00    -0.153 C  
HETATM   39  O   UNL     1     -10.721   5.687  66.646  1.00  0.00    -0.293 OA 
ENDBRANCH  30  31
ENDBRANCH  21  22
ENDBRANCH  12  21
ENDBRANCH   7   9
ENDBRANCH   5   7
ENDBRANCH   4   5
ENDBRANCH   2   4
TORSDOF 8
ENDMDL
MODEL      222
REMARK 921   NORMALIZED FREE ENERGY PREDICTED BY IDOCK:   -0.08 KCAL/MOL
REMARK 922        TOTAL FREE ENERGY PREDICTED BY IDOCK:   -2.66 KCAL/MOL
REMARK 923 INTER-LIGAND FREE ENERGY PREDICTED BY IDOCK:   -6.85 KCAL/MOL
REMARK 924 INTRA-LIGAND FREE ENERGY PREDICTED BY IDOCK:    4.19 KCAL/MOL
REMARK 927      BINDING AFFINITY PREDICTED BY RF-SCORE:    0.00 PKD
ROOT
HETATM    1  C   UNL     1     -12.160  12.236  65.631  1.00  0.00    -0.306 C  
HETATM    2  C   UNL     1     -12.066  11.749  64.190  1.00  0.00    -0.214 C  
HETATM    3  C   UNL     1     -11.520  12.861  63.297  1.00  0.00    -0.241 C  
ENDROOT
BRANCH   2   4
HETATM    4  O   UNL     1     -11.158  10.633  64.110  1.00  0.00     0.238 OA 
BRANCH   4   5
HETATM    5  C   UNL     1      -9.851  10.937  63.842  1.00  0.00    -0.331 C  
HETATM    6  O   UNL     1      -9.474  11.731  62.990  1.00  0.00    -0.344 OA 
BRANCH   5   7
HETATM    7  C   UNL     1      -8.931  10.190  64.812  1.00  0.00    -0.203 C  
HETATM    8  C   UNL     1      -9.803   9.508  65.865  1.00  0.00    -0.360 C  
BRANCH   7   9
HETATM    9  N   UNL     1      -7.922  11.112  65.388  1.00  0.00    -0.360 NA 
HETATM   10  P   UNL     1      -8.436  11.957  66.765  1.00  0.00    -0.087 P  
HETATM   11  H   UNL     1      -7.591  11.765  64.677  1.00  0.00     0.000 HD 
HETATM   12  O   UNL     1      -7.141  12.879  67.243  1.00  0.00    -0.144 OA 
HETATM   13  O   UNL     1      -7.826  10.652  67.723  1.00  0.00    -0.106 OA 
HETATM   14  O   UNL     1      -8.983  13.124  65.907  1.00  0.00     0.194 OA 
BRANCH  13  15
HETATM   15  C   UNL     1      -8.722   9.750  68.236  1.00  0.00    -0.119 A  
HETATM   16  C   UNL     1     -10.479   7.784  69.131  1.00  0.00    -0.219 A  
HETATM   17  C   UNL     1      -8.331   8.412  68.226  1.00  0.00    -0.131 A  
HETATM   18  C   UNL     1      -9.976  10.115  68.726  1.00  0.00    -0.187 A  
HETATM   19  C   UNL     1      -9.213   7.427  68.669  1.00  0.00    -0.143 A  
HETATM   20  C   UNL     1     -10.857   9.125  69.169  1.00  0.00    -0.131 A  
ENDBRANCH  13  15
BRANCH  12  21
HETATM   21  C   UNL     1      -7.455  14.076  67.980  1.00  0.00    -0.141 C  
BRANCH  21  22
HETATM   22  C   UNL     1      -8.897  14.656  67.861  1.00  0.00    -0.170 C  
HETATM   23  O   UNL     1      -9.583  14.560  69.129  1.00  0.00    -0.146 OA 
HETATM   24  C   UNL     1     -10.125  16.709  68.329  1.00  0.00    -0.268 C  
HETATM   25  H   UNL     1      -9.366  17.265  65.825  1.00  0.00     0.000 HD 
HETATM   26  C   UNL     1      -8.996  16.145  67.452  1.00  0.00    -0.191 C  
HETATM   27  O   UNL     1      -9.306  16.350  66.077  1.00  0.00    -0.320 OA 
HETATM   28  F   UNL     1     -11.048  17.343  67.554  1.00  0.00    -0.297 F  
HETATM   29  C   UNL     1      -9.564  17.735  69.301  1.00  0.00     0.060 C  
HETATM   30  C   UNL     1     -10.710  15.448  68.969  1.00  0.00    -0.242 C  
BRANCH  30  31
HETATM   31  N   UNL     1     -11.407  15.615  70.248  1.00  0.00    -0.311 N  
HETATM   32  C   UNL     1     -11.167  16.712  71.057  1.00  0.00     0.201 C  
HETATM   33  C   UNL     1     -11.709  16.833  72.267  1.00  0.00     0.025 C  
HETATM   34  C   UNL     1     -12.576  15.756  72.766  1.00  0.00    -0.446 C  
HETATM   35  O   UNL     1     -12.979  15.756  73.922  1.00  0.00    -0.525 OA 
HETATM   36  N   UNL     1     -12.874  14.775  71.867  1.00  0.00    -0.310 N  
HETATM   37  H   UNL     1     -13.596  14.105  72.132  1.00  0.00     0.000 HD 
HETATM   38  C   UNL     1     -12.290  14.610  70.636  1.00  0.00    -0.331 C  
HETATM   39  O   UNL     1     -12.536  13.614  69.967  1.00  0.00    -0.243 OA 
ENDBRANCH  30  31
ENDBRANCH  21  22
ENDBRANCH  12  21
ENDBRANCH   7   9
ENDBRANCH   5   7
ENDBRANCH   4   5
ENDBRANCH   2   4
TORSDOF 8
ENDMDL
MODEL      223
REMARK 921   NORMALIZED FREE ENERGY PREDICTED BY IDOCK:   -0.03 KCAL/MOL
REMARK 922        TOTAL FREE ENERGY PREDICTED BY IDOCK:   -2.60 KCAL/MOL
REMARK 923 INTER-LIGAND FREE ENERGY PREDICTED BY IDOCK:   -4.75 KCAL/MOL
REMARK 924 INTRA-LIGAND FREE ENERGY PREDICTED BY IDOCK:    2.15 KCAL/MOL
REMARK 927      BINDING AFFINITY PREDICTED BY RF-SCORE:    0.00 PKD
ROOT
HETATM    1  C   UNL     1      -6.583   9.751  65.910  1.00  0.00    -0.083 C  
HETATM    2  C   UNL     1      -7.144   9.843  67.324  1.00  0.00    -0.085 C  
HETATM    3  C   UNL     1      -6.458  10.973  68.087  1.00  0.00    -0.057 C  
ENDROOT
BRANCH   2   4
HETATM    4  O   UNL     1      -8.554  10.139  67.271  1.00  0.00    -0.125 OA 
BRANCH   4   5
HETATM    5  C   UNL     1      -9.306   9.686  68.320  1.00  0.00    -0.133 C  
HETATM    6  O   UNL     1      -8.863   9.101  69.301  1.00  0.00    -0.137 OA 
BRANCH   5   7
HETATM    7  C   UNL     1     -10.772  10.079  68.122  1.00  0.00    -0.239 C  
HETATM    8  C   UNL     1     -11.000  10.327  66.632  1.00  0.00    -0.030 C  
BRANCH   7   9
HETATM    9  N   UNL     1     -11.120  11.242  68.975  1.00  0.00    -0.225 NA 
HETATM   10  P   UNL     1     -10.297  12.674  68.594  1.00  0.00    -0.057 P  
HETATM   11  H   UNL     1     -10.990  11.010  69.960  1.00  0.00     0.000 HD 
HETATM   12  O   UNL     1     -10.876  13.824  69.641  1.00  0.00    -0.055 OA 
HETATM   13  O   UNL     1     -11.584  13.057  67.504  1.00  0.00    -0.313 OA 
HETATM   14  O   UNL     1      -9.144  12.329  69.569  1.00  0.00     0.995 OA 
BRANCH  13  15
HETATM   15  C   UNL     1     -11.377  12.864  66.162  1.00  0.00    -0.317 A  
HETATM   16  C   UNL     1     -11.125  12.351  63.436  1.00  0.00    -0.465 A  
HETATM   17  C   UNL     1     -12.516  12.772  65.364  1.00  0.00    -0.478 A  
HETATM   18  C   UNL     1     -10.108  12.736  65.597  1.00  0.00    -0.281 A  
HETATM   19  C   UNL     1     -12.390  12.509  64.001  1.00  0.00    -0.557 A  
HETATM   20  C   UNL     1      -9.986  12.473  64.231  1.00  0.00    -0.217 A  
ENDBRANCH  13  15
BRANCH  12  21
HETATM   21  C   UNL     1      -9.985  14.917  69.935  1.00  0.00     0.103 C  
BRANCH  21  22
HETATM   22  C   UNL     1     -10.235  16.282  69.223  1.00  0.00    -0.269 C  
HETATM   23  O   UNL     1      -8.983  16.858  68.789  1.00  0.00    -0.260 OA 
HETATM   24  C   UNL     1     -10.449  17.201  66.976  1.00  0.00    -0.282 C  
HETATM   25  H   UNL     1     -13.022  16.606  67.406  1.00  0.00     0.000 HD 
HETATM   26  C   UNL     1     -11.126  16.232  67.959  1.00  0.00    -0.299 C  
HETATM   27  O   UNL     1     -12.474  16.636  68.183  1.00  0.00     1.217 OA 
HETATM   28  F   UNL     1     -11.355  18.104  66.510  1.00  0.00     0.165 F  
HETATM   29  C   UNL     1      -9.914  16.432  65.778  1.00  0.00    -0.331 C  
HETATM   30  C   UNL     1      -9.391  17.876  67.851  1.00  0.00    -0.271 C  
BRANCH  30  31
HETATM   31  N   UNL     1      -8.218  18.430  67.165  1.00  0.00    -0.240 N  
HETATM   32  C   UNL     1      -8.292  19.626  66.473  1.00  0.00    -0.332 C  
HETATM   33  C   UNL     1      -7.273  20.096  65.758  1.00  0.00    -0.302 C  
HETATM   34  C   UNL     1      -6.034  19.306  65.687  1.00  0.00    -0.189 C  
HETATM   35  O   UNL     1      -5.126  19.626  64.931  1.00  0.00    -0.149 OA 
HETATM   36  N   UNL     1      -5.987  18.212  66.498  1.00  0.00    -0.152 N  
HETATM   37  H   UNL     1      -5.086  17.739  66.588  1.00  0.00     0.000 HD 
HETATM   38  C   UNL     1      -7.041  17.688  67.203  1.00  0.00    -0.173 C  
HETATM   39  O   UNL     1      -6.918  16.621  67.791  1.00  0.00    -0.127 OA 
ENDBRANCH  30  31
ENDBRANCH  21  22
ENDBRANCH  12  21
ENDBRANCH   7   9
ENDBRANCH   5   7
ENDBRANCH   4   5
ENDBRANCH   2   4
TORSDOF 8
ENDMDL
MODEL      224
REMARK 921   NORMALIZED FREE ENERGY PREDICTED BY IDOCK:    0.01 KCAL/MOL
REMARK 922        TOTAL FREE ENERGY PREDICTED BY IDOCK:   -2.53 KCAL/MOL
REMARK 923 INTER-LIGAND FREE ENERGY PREDICTED BY IDOCK:   -6.73 KCAL/MOL
REMARK 924 INTRA-LIGAND FREE ENERGY PREDICTED BY IDOCK:    4.20 KCAL/MOL
REMARK 927      BINDING AFFINITY PREDICTED BY RF-SCORE:    0.00 PKD
ROOT
HETATM    1  C   UNL     1     -10.667  12.587  63.462  1.00  0.00    -0.417 C  
HETATM    2  C   UNL     1     -12.052  13.221  63.508  1.00  0.00    -0.482 C  
HETATM    3  C   UNL     1     -13.051  12.251  64.133  1.00  0.00    -0.144 C  
ENDROOT
BRANCH   2   4
HETATM    4  O   UNL     1     -12.018  14.408  64.326  1.00  0.00    -0.445 OA 
BRANCH   4   5
HETATM    5  C   UNL     1     -11.123  14.402  65.360  1.00  0.00    -0.331 C  
HETATM    6  O   UNL     1      -9.905  14.392  65.235  1.00  0.00    -0.319 OA 
BRANCH   5   7
HETATM    7  C   UNL     1     -11.866  14.482  66.696  1.00  0.00    -0.366 C  
HETATM    8  C   UNL     1     -11.368  15.718  67.445  1.00  0.00    -0.106 C  
BRANCH   7   9
HETATM    9  N   UNL     1     -11.700  13.222  67.462  1.00  0.00    -0.348 NA 
HETATM   10  P   UNL     1     -10.188  12.477  67.284  1.00  0.00    -0.218 P  
HETATM   11  H   UNL     1     -12.447  12.566  67.230  1.00  0.00     0.000 HD 
HETATM   12  O   UNL     1     -10.229  11.129  68.252  1.00  0.00    -0.170 OA 
HETATM   13  O   UNL     1      -9.638  13.400  68.639  1.00  0.00    -0.172 OA 
HETATM   14  O   UNL     1     -10.681  11.652  66.070  1.00  0.00    -0.264 OA 
BRANCH  13  15
HETATM   15  C   UNL     1      -8.856  14.501  68.400  1.00  0.00    -0.180 A  
HETATM   16  C   UNL     1      -7.111  16.606  67.870  1.00  0.00    -0.153 A  
HETATM   17  C   UNL     1      -7.921  14.386  67.373  1.00  0.00    -0.220 A  
HETATM   18  C   UNL     1      -8.948  15.679  69.141  1.00  0.00    -0.257 A  
HETATM   19  C   UNL     1      -7.043  15.438  67.111  1.00  0.00    -0.135 A  
HETATM   20  C   UNL     1      -8.067  16.729  68.877  1.00  0.00    -0.230 A  
ENDBRANCH  13  15
BRANCH  12  21
HETATM   21  C   UNL     1      -9.362  10.046  67.865  1.00  0.00    -0.140 C  
BRANCH  21  22
HETATM   22  C   UNL     1      -8.587   9.287  68.985  1.00  0.00    -0.134 C  
HETATM   23  O   UNL     1      -9.162   7.978  69.193  1.00  0.00    -0.151 OA 
HETATM   24  C   UNL     1      -6.834   7.612  69.232  1.00  0.00    -0.052 C  
HETATM   25  H   UNL     1      -5.293   9.799  69.225  1.00  0.00     0.000 HD 
HETATM   26  C   UNL     1      -7.083   9.040  68.718  1.00  0.00    -0.070 C  
HETATM   27  O   UNL     1      -6.217   9.951  69.388  1.00  0.00    -0.043 OA 
HETATM   28  F   UNL     1      -5.783   7.603  70.098  1.00  0.00    -0.023 F  
HETATM   29  C   UNL     1      -6.475   6.699  68.070  1.00  0.00    -0.056 C  
HETATM   30  C   UNL     1      -8.146   7.282  69.947  1.00  0.00    -0.127 C  
BRANCH  30  31
HETATM   31  N   UNL     1      -8.493   5.863  70.074  1.00  0.00    -0.124 N  
HETATM   32  C   UNL     1      -7.515   4.897  70.225  1.00  0.00    -0.058 C  
HETATM   33  C   UNL     1      -7.798   3.596  70.238  1.00  0.00    -0.047 C  
HETATM   34  C   UNL     1      -9.196   3.174  70.067  1.00  0.00    -0.150 C  
HETATM   35  O   UNL     1      -9.486   1.992  69.930  1.00  0.00    -0.113 OA 
HETATM   36  N   UNL     1     -10.118   4.179  70.059  1.00  0.00    -0.055 N  
HETATM   37  H   UNL     1     -11.101   3.908  70.102  1.00  0.00     0.000 HD 
HETATM   38  C   UNL     1      -9.841   5.522  69.997  1.00  0.00    -0.198 C  
HETATM   39  O   UNL     1     -10.750   6.330  69.856  1.00  0.00    -0.235 OA 
ENDBRANCH  30  31
ENDBRANCH  21  22
ENDBRANCH  12  21
ENDBRANCH   7   9
ENDBRANCH   5   7
ENDBRANCH   4   5
ENDBRANCH   2   4
TORSDOF 8
ENDMDL
MODEL      225
REMARK 921   NORMALIZED FREE ENERGY PREDICTED BY IDOCK:    0.02 KCAL/MOL
REMARK 922        TOTAL FREE ENERGY PREDICTED BY IDOCK:   -2.52 KCAL/MOL
REMARK 923 INTER-LIGAND FREE ENERGY PREDICTED BY IDOCK:   -3.06 KCAL/MOL
REMARK 924 INTRA-LIGAND FREE ENERGY PREDICTED BY IDOCK:    0.54 KCAL/MOL
REMARK 927      BINDING AFFINITY PREDICTED BY RF-SCORE:    0.00 PKD
ROOT
HETATM    1  C   UNL     1      -6.961  12.068  67.195  1.00  0.00    -0.134 C  
HETATM    2  C   UNL     1      -6.023  11.740  68.350  1.00  0.00    -0.049 C  
HETATM    3  C   UNL     1      -5.885  12.948  69.272  1.00  0.00    -0.087 C  
ENDROOT
BRANCH   2   4
HETATM    4  O   UNL     1      -6.566  10.653  69.126  1.00  0.00    -0.051 OA 
BRANCH   4   5
HETATM    5  C   UNL     1      -6.343   9.394  68.639  1.00  0.00    -0.048 C  
HETATM    6  O   UNL     1      -5.286   9.003  68.157  1.00  0.00    -0.034 OA 
BRANCH   5   7
HETATM    7  C   UNL     1      -7.584   8.523  68.850  1.00  0.00    -0.096 C  
HETATM    8  C   UNL     1      -8.281   8.355  67.500  1.00  0.00    -0.125 C  
BRANCH   7   9
HETATM    9  N   UNL     1      -8.459   9.106  69.897  1.00  0.00    -0.133 NA 
HETATM   10  P   UNL     1     -10.022   9.504  69.376  1.00  0.00    -0.220 P  
HETATM   11  H   UNL     1      -8.010   9.919  70.321  1.00  0.00     0.000 HD 
HETATM   12  O   UNL     1     -10.811  10.091  70.713  1.00  0.00    -0.312 OA 
HETATM   13  O   UNL     1     -10.515   7.907  69.820  1.00  0.00    -0.224 OA 
HETATM   14  O   UNL     1      -9.579  10.934  68.978  1.00  0.00    -0.200 OA 
BRANCH  13  15
HETATM   15  C   UNL     1     -10.679   6.979  68.824  1.00  0.00    -0.194 A  
HETATM   16  C   UNL     1     -10.834   5.006  66.864  1.00  0.00     0.112 A  
HETATM   17  C   UNL     1     -10.269   5.679  69.113  1.00  0.00    -0.305 A  
HETATM   18  C   UNL     1     -11.201   7.291  67.569  1.00  0.00     0.057 A  
HETATM   19  C   UNL     1     -10.341   4.692  68.130  1.00  0.00     0.092 A  
HETATM   20  C   UNL     1     -11.271   6.301  66.587  1.00  0.00     0.039 A  
ENDBRANCH  13  15
BRANCH  12  21
HETATM   21  C   UNL     1     -11.891  11.010  70.458  1.00  0.00    -0.367 C  
BRANCH  21  22
HETATM   22  C   UNL     1     -11.797  12.443  71.064  1.00  0.00     0.588 C  
HETATM   23  O   UNL     1     -11.222  13.357  70.105  1.00  0.00     0.043 OA 
HETATM   24  C   UNL     1     -13.015  14.554  71.056  1.00  0.00    -0.358 C  
HETATM   25  H   UNL     1     -14.216  13.412  73.157  1.00  0.00     0.000 HD 
HETATM   26  C   UNL     1     -13.138  13.085  71.493  1.00  0.00    -0.310 C  
HETATM   27  O   UNL     1     -13.392  13.018  72.893  1.00  0.00    -0.424 OA 
HETATM   28  F   UNL     1     -13.294  15.378  72.104  1.00  0.00    -0.374 F  
HETATM   29  C   UNL     1     -14.024  14.854  69.959  1.00  0.00     1.729 C  
HETATM   30  C   UNL     1     -11.545  14.656  70.645  1.00  0.00    -0.250 C  
BRANCH  30  31
HETATM   31  N   UNL     1     -11.198  15.705  69.680  1.00  0.00    -0.283 N  
HETATM   32  C   UNL     1     -10.669  16.914  70.097  1.00  0.00     0.153 C  
HETATM   33  C   UNL     1     -10.443  17.918  69.252  1.00  0.00     0.113 C  
HETATM   34  C   UNL     1     -10.787  17.741  67.833  1.00  0.00    -0.218 C  
HETATM   35  O   UNL     1     -10.731  18.680  67.049  1.00  0.00    -0.408 OA 
HETATM   36  N   UNL     1     -11.176  16.485  67.474  1.00  0.00    -0.073 N  
HETATM   37  H   UNL     1     -11.266  16.294  66.476  1.00  0.00     0.000 HD 
HETATM   38  C   UNL     1     -11.458  15.454  68.336  1.00  0.00    -0.355 C  
HETATM   39  O   UNL     1     -11.932  14.409  67.909  1.00  0.00    -0.353 OA 
ENDBRANCH  30  31
ENDBRANCH  21  22
ENDBRANCH  12  21
ENDBRANCH   7   9
ENDBRANCH   5   7
ENDBRANCH   4   5
ENDBRANCH   2   4
TORSDOF 8
ENDMDL
MODEL      226
REMARK 921   NORMALIZED FREE ENERGY PREDICTED BY IDOCK:    0.02 KCAL/MOL
REMARK 922        TOTAL FREE ENERGY PREDICTED BY IDOCK:   -2.52 KCAL/MOL
REMARK 923 INTER-LIGAND FREE ENERGY PREDICTED BY IDOCK:   -3.44 KCAL/MOL
REMARK 924 INTRA-LIGAND FREE ENERGY PREDICTED BY IDOCK:    0.93 KCAL/MOL
REMARK 927      BINDING AFFINITY PREDICTED BY RF-SCORE:    0.00 PKD
ROOT
HETATM    1  C   UNL     1     -13.475   9.844  72.105  1.00  0.00    -0.454 C  
HETATM    2  C   UNL     1     -12.897   8.487  71.721  1.00  0.00    -0.348 C  
HETATM    3  C   UNL     1     -14.025   7.494  71.456  1.00  0.00    -0.522 C  
ENDROOT
BRANCH   2   4
HETATM    4  O   UNL     1     -12.125   8.612  70.509  1.00  0.00    -0.072 OA 
BRANCH   4   5
HETATM    5  C   UNL     1     -11.712   7.441  69.934  1.00  0.00     0.163 C  
HETATM    6  O   UNL     1     -12.152   6.978  68.889  1.00  0.00     0.900 OA 
BRANCH   5   7
HETATM    7  C   UNL     1     -10.571   6.830  70.752  1.00  0.00    -0.222 C  
HETATM    8  C   UNL     1      -9.481   7.890  70.913  1.00  0.00    -0.167 C  
BRANCH   7   9
HETATM    9  N   UNL     1     -10.088   5.578  70.120  1.00  0.00    -0.218 NA 
HETATM   10  P   UNL     1      -8.419   5.528  69.827  1.00  0.00    -0.106 P  
HETATM   11  H   UNL     1     -10.604   5.395  69.259  1.00  0.00     0.000 HD 
HETATM   12  O   UNL     1      -8.118   4.037  69.163  1.00  0.00    -0.062 OA 
HETATM   13  O   UNL     1      -8.221   4.838  71.400  1.00  0.00    -0.099 OA 
HETATM   14  O   UNL     1      -8.597   6.147  68.418  1.00  0.00    -0.113 OA 
BRANCH  13  15
HETATM   15  C   UNL     1      -7.776   5.649  72.412  1.00  0.00    -0.102 A  
HETATM   16  C   UNL     1      -6.685   7.210  74.445  1.00  0.00    -0.085 A  
HETATM   17  C   UNL     1      -6.476   6.135  72.293  1.00  0.00    -0.058 A  
HETATM   18  C   UNL     1      -8.549   5.970  73.528  1.00  0.00    -0.119 A  
HETATM   19  C   UNL     1      -5.927   6.912  73.313  1.00  0.00    -0.057 A  
HETATM   20  C   UNL     1      -7.996   6.748  74.548  1.00  0.00    -0.143 A  
ENDBRANCH  13  15
BRANCH  12  21
HETATM   21  C   UNL     1      -6.960   3.946  68.312  1.00  0.00    -0.051 C  
BRANCH  21  22
HETATM   22  C   UNL     1      -7.165   4.091  66.773  1.00  0.00    -0.071 C  
HETATM   23  O   UNL     1      -7.828   5.339  66.471  1.00  0.00    -0.098 OA 
HETATM   24  C   UNL     1      -6.128   5.167  64.847  1.00  0.00    -0.026 C  
HETATM   25  H   UNL     1      -4.807   2.843  64.761  1.00  0.00     0.000 HD 
HETATM   26  C   UNL     1      -5.877   4.091  65.916  1.00  0.00    -0.023 C  
HETATM   27  O   UNL     1      -5.598   2.843  65.287  1.00  0.00    -0.016 OA 
HETATM   28  F   UNL     1      -5.905   4.655  63.606  1.00  0.00    -0.015 F  
HETATM   29  C   UNL     1      -5.163   6.326  65.042  1.00  0.00    -0.014 C  
HETATM   30  C   UNL     1      -7.608   5.501  65.053  1.00  0.00    -0.081 C  
BRANCH  30  31
HETATM   31  N   UNL     1      -8.055   6.828  64.620  1.00  0.00    -0.116 N  
HETATM   32  C   UNL     1      -8.477   7.776  65.536  1.00  0.00    -0.133 C  
HETATM   33  C   UNL     1      -8.984   8.948  65.160  1.00  0.00    -0.189 C  
HETATM   34  C   UNL     1      -9.117   9.235  63.724  1.00  0.00     0.075 C  
HETATM   35  O   UNL     1      -9.706  10.235  63.333  1.00  0.00    -0.301 OA 
HETATM   36  N   UNL     1      -8.559   8.316  62.886  1.00  0.00    -0.421 N  
HETATM   37  H   UNL     1      -8.496   8.566  61.898  1.00  0.00     0.000 HD 
HETATM   38  C   UNL     1      -8.076   7.085  63.252  1.00  0.00    -0.007 C  
HETATM   39  O   UNL     1      -7.723   6.284  62.395  1.00  0.00    -0.071 OA 
ENDBRANCH  30  31
ENDBRANCH  21  22
ENDBRANCH  12  21
ENDBRANCH   7   9
ENDBRANCH   5   7
ENDBRANCH   4   5
ENDBRANCH   2   4
TORSDOF 8
ENDMDL
MODEL      227
REMARK 921   NORMALIZED FREE ENERGY PREDICTED BY IDOCK:    0.03 KCAL/MOL
REMARK 922        TOTAL FREE ENERGY PREDICTED BY IDOCK:   -2.50 KCAL/MOL
REMARK 923 INTER-LIGAND FREE ENERGY PREDICTED BY IDOCK:   -6.82 KCAL/MOL
REMARK 924 INTRA-LIGAND FREE ENERGY PREDICTED BY IDOCK:    4.32 KCAL/MOL
REMARK 927      BINDING AFFINITY PREDICTED BY RF-SCORE:    0.00 PKD
ROOT
HETATM    1  C   UNL     1     -10.072  13.568  65.169  1.00  0.00    -0.278 C  
HETATM    2  C   UNL     1     -11.277  14.454  65.461  1.00  0.00    -0.330 C  
HETATM    3  C   UNL     1     -12.238  13.736  66.404  1.00  0.00    -0.480 C  
ENDROOT
BRANCH   2   4
HETATM    4  O   UNL     1     -10.844  15.666  66.112  1.00  0.00    -0.314 OA 
BRANCH   4   5
HETATM    5  C   UNL     1      -9.619  15.620  66.719  1.00  0.00    -0.240 C  
HETATM    6  O   UNL     1      -8.545  15.566  66.132  1.00  0.00    -0.265 OA 
BRANCH   5   7
HETATM    7  C   UNL     1      -9.784  15.717  68.238  1.00  0.00    -0.201 C  
HETATM    8  C   UNL     1      -9.018  16.948  68.722  1.00  0.00    -0.256 C  
BRANCH   7   9
HETATM    9  N   UNL     1      -9.350  14.458  68.892  1.00  0.00    -0.354 NA 
HETATM   10  P   UNL     1      -7.956  13.758  68.229  1.00  0.00    -0.154 P  
HETATM   11  H   UNL     1     -10.115  13.782  68.901  1.00  0.00     0.000 HD 
HETATM   12  O   UNL     1      -7.651  12.403  69.139  1.00  0.00     0.049 OA 
HETATM   13  O   UNL     1      -7.024  14.688  69.350  1.00  0.00    -0.143 OA 
HETATM   14  O   UNL     1      -8.791  12.925  67.224  1.00  0.00    -0.189 OA 
BRANCH  13  15
HETATM   15  C   UNL     1      -6.388  15.812  68.889  1.00  0.00    -0.116 A  
HETATM   16  C   UNL     1      -5.239  18.207  68.053  1.00  0.00    -0.156 A  
HETATM   17  C   UNL     1      -6.355  16.905  69.753  1.00  0.00    -0.157 A  
HETATM   18  C   UNL     1      -5.816  15.898  67.620  1.00  0.00    -0.171 A  
HETATM   19  C   UNL     1      -5.785  18.106  69.332  1.00  0.00    -0.227 A  
HETATM   20  C   UNL     1      -5.247  17.103  67.202  1.00  0.00    -0.178 A  
ENDBRANCH  13  15
BRANCH  12  21
HETATM   21  C   UNL     1      -6.926  11.348  68.478  1.00  0.00    -0.080 C  
BRANCH  21  22
HETATM   22  C   UNL     1      -7.627   9.964  68.316  1.00  0.00    -0.080 C  
HETATM   23  O   UNL     1      -7.547   9.215  69.549  1.00  0.00    -0.073 OA 
HETATM   24  C   UNL     1      -9.757   8.886  68.802  1.00  0.00    -0.164 C  
HETATM   25  H   UNL     1     -10.327   9.803  66.354  1.00  0.00     0.000 HD 
HETATM   26  C   UNL     1      -9.131  10.006  67.956  1.00  0.00    -0.131 C  
HETATM   27  O   UNL     1      -9.403   9.778  66.576  1.00  0.00    -0.151 OA 
HETATM   28  F   UNL     1     -10.489   8.055  68.009  1.00  0.00    -0.234 F  
HETATM   29  C   UNL     1     -10.703   9.482  69.832  1.00  0.00    -0.268 C  
HETATM   30  C   UNL     1      -8.529   8.172  69.371  1.00  0.00    -0.127 C  
BRANCH  30  31
HETATM   31  N   UNL     1      -8.714   7.431  70.623  1.00  0.00    -0.141 N  
HETATM   32  C   UNL     1      -9.322   6.189  70.638  1.00  0.00    -0.165 C  
HETATM   33  C   UNL     1      -9.593   5.545  71.771  1.00  0.00    -0.183 C  
HETATM   34  C   UNL     1      -9.252   6.187  73.049  1.00  0.00    -0.133 C  
HETATM   35  O   UNL     1      -9.609   5.700  74.114  1.00  0.00    -0.139 OA 
HETATM   36  N   UNL     1      -8.536   7.343  72.955  1.00  0.00    -0.121 N  
HETATM   37  H   UNL     1      -8.150   7.723  73.820  1.00  0.00     0.000 HD 
HETATM   38  C   UNL     1      -8.290   8.043  71.800  1.00  0.00    -0.127 C  
HETATM   39  O   UNL     1      -7.753   9.143  71.851  1.00  0.00    -0.339 OA 
ENDBRANCH  30  31
ENDBRANCH  21  22
ENDBRANCH  12  21
ENDBRANCH   7   9
ENDBRANCH   5   7
ENDBRANCH   4   5
ENDBRANCH   2   4
TORSDOF 8
ENDMDL
MODEL      228
REMARK 921   NORMALIZED FREE ENERGY PREDICTED BY IDOCK:    0.11 KCAL/MOL
REMARK 922        TOTAL FREE ENERGY PREDICTED BY IDOCK:   -2.39 KCAL/MOL
REMARK 923 INTER-LIGAND FREE ENERGY PREDICTED BY IDOCK:   -5.47 KCAL/MOL
REMARK 924 INTRA-LIGAND FREE ENERGY PREDICTED BY IDOCK:    3.08 KCAL/MOL
REMARK 927      BINDING AFFINITY PREDICTED BY RF-SCORE:    0.00 PKD
ROOT
HETATM    1  C   UNL     1      -6.153  17.005  69.745  1.00  0.00    -0.227 C  
HETATM    2  C   UNL     1      -7.110  16.284  68.804  1.00  0.00    -0.164 C  
HETATM    3  C   UNL     1      -6.663  16.472  67.356  1.00  0.00    -0.195 C  
ENDROOT
BRANCH   2   4
HETATM    4  O   UNL     1      -7.099  14.870  69.088  1.00  0.00    -0.125 OA 
BRANCH   4   5
HETATM    5  C   UNL     1      -6.842  14.044  68.029  1.00  0.00    -0.145 C  
HETATM    6  O   UNL     1      -6.072  14.297  67.110  1.00  0.00    -0.196 OA 
BRANCH   5   7
HETATM    7  C   UNL     1      -7.606  12.727  68.194  1.00  0.00    -0.134 C  
HETATM    8  C   UNL     1      -6.859  11.869  69.214  1.00  0.00    -0.080 C  
BRANCH   7   9
HETATM    9  N   UNL     1      -7.787  12.060  66.881  1.00  0.00    -0.301 NA 
HETATM   10  P   UNL     1      -7.970  10.377  66.960  1.00  0.00    -0.121 P  
HETATM   11  H   UNL     1      -7.021  12.304  66.252  1.00  0.00     0.000 HD 
HETATM   12  O   UNL     1      -8.194   9.870  65.395  1.00  0.00    -0.128 OA 
HETATM   13  O   UNL     1      -9.676  10.625  67.095  1.00  0.00    -0.166 OA 
HETATM   14  O   UNL     1      -6.441  10.155  66.840  1.00  0.00    -0.067 OA 
BRANCH  13  15
HETATM   15  C   UNL     1     -10.252  10.505  68.333  1.00  0.00    -0.172 A  
HETATM   16  C   UNL     1     -11.313  10.085  70.874  1.00  0.00    -0.439 A  
HETATM   17  C   UNL     1      -9.446   9.989  69.346  1.00  0.00    -0.237 A  
HETATM   18  C   UNL     1     -11.579  10.847  68.594  1.00  0.00    -0.373 A  
HETATM   19  C   UNL     1      -9.978   9.774  70.617  1.00  0.00    -0.215 A  
HETATM   20  C   UNL     1     -12.109  10.629  69.867  1.00  0.00    -0.372 A  
ENDBRANCH  13  15
BRANCH  12  21
HETATM   21  C   UNL     1      -7.800   8.515  65.106  1.00  0.00    -0.116 C  
BRANCH  21  22
HETATM   22  C   UNL     1      -8.713   7.359  65.616  1.00  0.00    -0.075 C  
HETATM   23  O   UNL     1      -7.917   6.199  65.945  1.00  0.00    -0.103 OA 
HETATM   24  C   UNL     1      -9.470   6.366  67.709  1.00  0.00    -0.115 C  
HETATM   25  H   UNL     1     -11.415   8.179  67.405  1.00  0.00     0.000 HD 
HETATM   26  C   UNL     1      -9.543   7.663  66.886  1.00  0.00    -0.193 C  
HETATM   27  O   UNL     1     -10.904   7.992  66.625  1.00  0.00    -0.115 OA 
HETATM   28  F   UNL     1     -10.724   5.959  68.052  1.00  0.00    -0.230 F  
HETATM   29  C   UNL     1      -8.703   6.614  68.999  1.00  0.00    -0.129 C  
HETATM   30  C   UNL     1      -8.816   5.388  66.731  1.00  0.00    -0.112 C  
BRANCH  30  31
HETATM   31  N   UNL     1      -8.094   4.251  67.313  1.00  0.00    -0.099 N  
HETATM   32  C   UNL     1      -8.600   3.563  68.401  1.00  0.00    -0.093 C  
HETATM   33  C   UNL     1      -7.916   2.597  69.010  1.00  0.00    -0.062 C  
HETATM   34  C   UNL     1      -6.569   2.266  68.520  1.00  0.00    -0.029 C  
HETATM   35  O   UNL     1      -5.849   1.488  69.133  1.00  0.00    -0.021 OA 
HETATM   36  N   UNL     1      -6.193   2.889  67.367  1.00  0.00    -0.031 N  
HETATM   37  H   UNL     1      -5.336   2.562  66.921  1.00  0.00     0.000 HD 
HETATM   38  C   UNL     1      -6.863   3.918  66.755  1.00  0.00    -0.058 C  
HETATM   39  O   UNL     1      -6.361   4.495  65.798  1.00  0.00    -0.034 OA 
ENDBRANCH  30  31
ENDBRANCH  21  22
ENDBRANCH  12  21
ENDBRANCH   7   9
ENDBRANCH   5   7
ENDBRANCH   4   5
ENDBRANCH   2   4
TORSDOF 8
ENDMDL
MODEL      229
REMARK 921   NORMALIZED FREE ENERGY PREDICTED BY IDOCK:    0.29 KCAL/MOL
REMARK 922        TOTAL FREE ENERGY PREDICTED BY IDOCK:   -2.12 KCAL/MOL
REMARK 923 INTER-LIGAND FREE ENERGY PREDICTED BY IDOCK:   -3.49 KCAL/MOL
REMARK 924 INTRA-LIGAND FREE ENERGY PREDICTED BY IDOCK:    1.37 KCAL/MOL
REMARK 927      BINDING AFFINITY PREDICTED BY RF-SCORE:    0.00 PKD
ROOT
HETATM    1  C   UNL     1     -11.541  16.330  71.890  1.00  0.00    -0.430 C  
HETATM    2  C   UNL     1     -11.829  14.931  71.357  1.00  0.00    -0.350 C  
HETATM    3  C   UNL     1     -13.064  14.957  70.459  1.00  0.00    -0.299 C  
ENDROOT
BRANCH   2   4
HETATM    4  O   UNL     1     -10.716  14.473  70.563  1.00  0.00     0.122 OA 
BRANCH   4   5
HETATM    5  C   UNL     1     -10.445  15.194  69.432  1.00  0.00    -0.255 C  
HETATM    6  O   UNL     1     -10.107  16.371  69.412  1.00  0.00    -0.258 OA 
BRANCH   5   7
HETATM    7  C   UNL     1     -10.559  14.294  68.198  1.00  0.00    -0.245 C  
HETATM    8  C   UNL     1     -11.997  14.369  67.686  1.00  0.00    -0.378 C  
BRANCH   7   9
HETATM    9  N   UNL     1     -10.117  12.914  68.517  1.00  0.00    -0.329 NA 
HETATM   10  P   UNL     1      -8.789  12.368  67.617  1.00  0.00    -0.200 P  
HETATM   11  H   UNL     1     -10.898  12.263  68.425  1.00  0.00     0.000 HD 
HETATM   12  O   UNL     1      -8.461  10.839  68.171  1.00  0.00    -0.117 OA 
HETATM   13  O   UNL     1      -7.761  13.007  68.852  1.00  0.00    -0.045 OA 
HETATM   14  O   UNL     1      -9.709  11.797  66.509  1.00  0.00    -0.197 OA 
BRANCH  13  15
HETATM   15  C   UNL     1      -7.127  14.200  68.616  1.00  0.00    -0.110 A  
HETATM   16  C   UNL     1      -5.789  16.549  67.947  1.00  0.00    -0.141 A  
HETATM   17  C   UNL     1      -7.204  14.697  67.316  1.00  0.00    -0.082 A  
HETATM   18  C   UNL     1      -6.412  14.891  69.594  1.00  0.00    -0.154 A  
HETATM   19  C   UNL     1      -6.530  15.870  66.979  1.00  0.00     0.024 A  
HETATM   20  C   UNL     1      -5.737  16.065  69.253  1.00  0.00    -0.119 A  
ENDBRANCH  13  15
BRANCH  12  21
HETATM   21  C   UNL     1      -7.809   9.954  67.239  1.00  0.00    -0.102 C  
BRANCH  21  22
HETATM   22  C   UNL     1      -8.700   9.012  66.374  1.00  0.00    -0.132 C  
HETATM   23  O   UNL     1      -8.100   7.701  66.280  1.00  0.00    -0.103 OA 
HETATM   24  C   UNL     1     -10.388   7.275  66.645  1.00  0.00    -0.158 C  
HETATM   25  H   UNL     1     -12.015   9.397  66.556  1.00  0.00     0.000 HD 
HETATM   26  C   UNL     1     -10.136   8.771  66.897  1.00  0.00    -0.278 C  
HETATM   27  O   UNL     1     -11.132   9.545  66.235  1.00  0.00     0.405 OA 
HETATM   28  F   UNL     1     -11.551   7.106  65.958  1.00  0.00     1.419 F  
HETATM   29  C   UNL     1     -10.533   6.544  67.971  1.00  0.00    -0.265 C  
HETATM   30  C   UNL     1      -9.179   6.871  65.799  1.00  0.00     0.132 C  
BRANCH  30  31
HETATM   31  N   UNL     1      -8.786   5.459  65.835  1.00  0.00    -0.140 N  
HETATM   32  C   UNL     1      -9.457   4.510  65.084  1.00  0.00    -0.162 C  
HETATM   33  C   UNL     1      -9.186   3.210  65.179  1.00  0.00    -0.150 C  
HETATM   34  C   UNL     1      -8.153   2.769  66.128  1.00  0.00    -0.084 C  
HETATM   35  O   UNL     1      -7.971   1.579  66.353  1.00  0.00    -0.069 OA 
HETATM   36  N   UNL     1      -7.445   3.764  66.732  1.00  0.00    -0.078 N  
HETATM   37  H   UNL     1      -6.622   3.489  67.269  1.00  0.00     0.000 HD 
HETATM   38  C   UNL     1      -7.740   5.104  66.682  1.00  0.00    -0.092 C  
HETATM   39  O   UNL     1      -7.115   5.897  67.376  1.00  0.00    -0.071 OA 
ENDBRANCH  30  31
ENDBRANCH  21  22
ENDBRANCH  12  21
ENDBRANCH   7   9
ENDBRANCH   5   7
ENDBRANCH   4   5
ENDBRANCH   2   4
TORSDOF 8
ENDMDL
MODEL      230
REMARK 921   NORMALIZED FREE ENERGY PREDICTED BY IDOCK:    0.53 KCAL/MOL
REMARK 922        TOTAL FREE ENERGY PREDICTED BY IDOCK:   -1.78 KCAL/MOL
REMARK 923 INTER-LIGAND FREE ENERGY PREDICTED BY IDOCK:   -3.63 KCAL/MOL
REMARK 924 INTRA-LIGAND FREE ENERGY PREDICTED BY IDOCK:    1.85 KCAL/MOL
REMARK 927      BINDING AFFINITY PREDICTED BY RF-SCORE:    0.00 PKD
ROOT
HETATM    1  C   UNL     1      -6.642  10.645  66.364  1.00  0.00    -0.120 C  
HETATM    2  C   UNL     1      -7.389  10.223  67.624  1.00  0.00    -0.088 C  
HETATM    3  C   UNL     1      -7.120  11.219  68.750  1.00  0.00    -0.096 C  
ENDROOT
BRANCH   2   4
HETATM    4  O   UNL     1      -8.808  10.216  67.371  1.00  0.00    -0.131 OA 
BRANCH   4   5
HETATM    5  C   UNL     1      -9.535   9.271  68.041  1.00  0.00    -0.137 C  
HETATM    6  O   UNL     1      -9.085   8.505  68.885  1.00  0.00    -0.145 OA 
BRANCH   5   7
HETATM    7  C   UNL     1     -11.008   9.358  67.634  1.00  0.00    -0.036 C  
HETATM    8  C   UNL     1     -11.083  10.018  66.257  1.00  0.00     0.443 C  
BRANCH   7   9
HETATM    9  N   UNL     1     -11.796  10.067  68.672  1.00  0.00    -0.471 NA 
HETATM   10  P   UNL     1     -11.183  11.583  69.116  1.00  0.00    -0.296 P  
HETATM   11  H   UNL     1     -11.909   9.476  69.496  1.00  0.00     0.000 HD 
HETATM   12  O   UNL     1     -12.240  12.189  70.243  1.00  0.00    -0.316 OA 
HETATM   13  O   UNL     1     -12.156  12.280  67.868  1.00  0.00    -0.466 OA 
HETATM   14  O   UNL     1     -10.310  10.959  70.233  1.00  0.00     0.253 OA 
BRANCH  13  15
HETATM   15  C   UNL     1     -11.544  12.644  66.696  1.00  0.00    -0.381 A  
HETATM   16  C   UNL     1     -10.188  13.517  64.425  1.00  0.00    -0.194 A  
HETATM   17  C   UNL     1     -10.188  12.953  66.773  1.00  0.00    -0.243 A  
HETATM   18  C   UNL     1     -12.220  12.733  65.479  1.00  0.00    -0.519 A  
HETATM   19  C   UNL     1      -9.509  13.396  65.638  1.00  0.00     0.100 A  
HETATM   20  C   UNL     1     -11.537  13.178  64.344  1.00  0.00    -0.422 A  
ENDBRANCH  13  15
BRANCH  12  21
HETATM   21  C   UNL     1     -11.691  13.134  71.182  1.00  0.00     0.912 C  
BRANCH  21  22
HETATM   22  C   UNL     1     -11.714  14.646  70.802  1.00  0.00    -0.279 C  
HETATM   23  O   UNL     1     -10.377  15.110  70.509  1.00  0.00    -0.134 OA 
HETATM   24  C   UNL     1     -11.716  16.072  68.826  1.00  0.00    -0.299 C  
HETATM   25  H   UNL     1     -14.361  15.792  69.115  1.00  0.00     0.000 HD 
HETATM   26  C   UNL     1     -12.561  15.020  69.562  1.00  0.00     0.008 C  
HETATM   27  O   UNL     1     -13.840  15.562  69.876  1.00  0.00     0.690 OA 
HETATM   28  F   UNL     1     -12.464  17.184  68.581  1.00  0.00     1.117 F  
HETATM   29  C   UNL     1     -11.262  15.524  67.482  1.00  0.00    -0.272 C  
HETATM   30  C   UNL     1     -10.599  16.364  69.829  1.00  0.00    -0.288 C  
BRANCH  30  31
HETATM   31  N   UNL     1      -9.336  16.875  69.286  1.00  0.00    -0.113 N  
HETATM   32  C   UNL     1      -8.190  16.101  69.287  1.00  0.00    -0.183 C  
HETATM   33  C   UNL     1      -7.011  16.578  68.896  1.00  0.00    -0.191 C  
HETATM   34  C   UNL     1      -6.922  17.982  68.467  1.00  0.00    -0.245 C  
HETATM   35  O   UNL     1      -5.838  18.503  68.236  1.00  0.00    -0.188 OA 
HETATM   36  N   UNL     1      -8.110  18.642  68.365  1.00  0.00    -0.323 N  
HETATM   37  H   UNL     1      -8.094  19.561  67.920  1.00  0.00     0.000 HD 
HETATM   38  C   UNL     1      -9.325  18.182  68.807  1.00  0.00    -0.247 C  
HETATM   39  O   UNL     1     -10.305  18.918  68.788  1.00  0.00    -0.325 OA 
ENDBRANCH  30  31
ENDBRANCH  21  22
ENDBRANCH  12  21
ENDBRANCH   7   9
ENDBRANCH   5   7
ENDBRANCH   4   5
ENDBRANCH   2   4
TORSDOF 8
ENDMDL
MODEL      231
REMARK 921   NORMALIZED FREE ENERGY PREDICTED BY IDOCK:    0.88 KCAL/MOL
REMARK 922        TOTAL FREE ENERGY PREDICTED BY IDOCK:   -1.27 KCAL/MOL
REMARK 923 INTER-LIGAND FREE ENERGY PREDICTED BY IDOCK:   -7.37 KCAL/MOL
REMARK 924 INTRA-LIGAND FREE ENERGY PREDICTED BY IDOCK:    6.10 KCAL/MOL
REMARK 927      BINDING AFFINITY PREDICTED BY RF-SCORE:    0.00 PKD
ROOT
HETATM    1  C   UNL     1      -6.429   7.598  69.066  1.00  0.00    -0.040 C  
HETATM    2  C   UNL     1      -7.254   8.874  69.182  1.00  0.00    -0.067 C  
HETATM    3  C   UNL     1      -8.378   8.866  68.149  1.00  0.00    -0.125 C  
ENDROOT
BRANCH   2   4
HETATM    4  O   UNL     1      -7.856   8.949  70.489  1.00  0.00    -0.084 OA 
BRANCH   4   5
HETATM    5  C   UNL     1      -8.124   7.754  71.099  1.00  0.00    -0.095 C  
HETATM    6  O   UNL     1      -7.948   6.652  70.594  1.00  0.00    -0.107 OA 
BRANCH   5   7
HETATM    7  C   UNL     1      -8.611   7.995  72.530  1.00  0.00    -0.169 C  
HETATM    8  C   UNL     1      -8.666   6.646  73.247  1.00  0.00    -0.135 C  
BRANCH   7   9
HETATM    9  N   UNL     1      -9.909   8.715  72.526  1.00  0.00    -0.256 NA 
HETATM   10  P   UNL     1     -10.595   8.933  70.992  1.00  0.00    -0.303 P  
HETATM   11  H   UNL     1      -9.817   9.612  73.004  1.00  0.00     0.000 HD 
HETATM   12  O   UNL     1     -12.037   9.714  71.245  1.00  0.00    -0.319 OA 
HETATM   13  O   UNL     1     -11.407   7.421  71.202  1.00  0.00    -0.256 OA 
HETATM   14  O   UNL     1      -9.866  10.287  70.803  1.00  0.00     0.327 OA 
BRANCH  13  15
HETATM   15  C   UNL     1     -10.905   6.320  70.557  1.00  0.00    -0.288 A  
HETATM   16  C   UNL     1      -9.755   4.059  69.406  1.00  0.00    -0.205 A  
HETATM   17  C   UNL     1     -10.523   5.249  71.362  1.00  0.00    -0.273 A  
HETATM   18  C   UNL     1     -10.749   6.252  69.172  1.00  0.00    -0.362 A  
HETATM   19  C   UNL     1      -9.942   4.119  70.787  1.00  0.00    -0.192 A  
HETATM   20  C   UNL     1     -10.166   5.120  68.600  1.00  0.00    -0.192 A  
ENDBRANCH  13  15
BRANCH  12  21
HETATM   21  C   UNL     1     -12.523  10.516  70.151  1.00  0.00    -0.226 C  
BRANCH  21  22
HETATM   22  C   UNL     1     -11.521  11.478  69.442  1.00  0.00    -0.309 C  
HETATM   23  O   UNL     1     -11.141  10.945  68.154  1.00  0.00    -0.235 OA 
HETATM   24  C   UNL     1     -11.504  13.239  67.758  1.00  0.00    -0.317 C  
HETATM   25  H   UNL     1     -11.910  14.762  69.920  1.00  0.00     0.000 HD 
HETATM   26  C   UNL     1     -12.042  12.907  69.160  1.00  0.00    -0.168 C  
HETATM   27  O   UNL     1     -11.591  13.884  70.093  1.00  0.00    -0.251 OA 
HETATM   28  F   UNL     1     -10.843  14.430  67.781  1.00  0.00    -0.247 F  
HETATM   29  C   UNL     1     -12.659  13.378  66.780  1.00  0.00     0.036 C  
HETATM   30  C   UNL     1     -10.546  12.078  67.486  1.00  0.00    -0.221 C  
BRANCH  30  31
HETATM   31  N   UNL     1     -10.279  11.753  66.081  1.00  0.00    -0.214 N  
HETATM   32  C   UNL     1     -10.287  10.444  65.634  1.00  0.00    -0.190 C  
HETATM   33  C   UNL     1      -9.947  10.117  64.389  1.00  0.00    -0.229 C  
HETATM   34  C   UNL     1      -9.531  11.183  63.466  1.00  0.00    -0.276 C  
HETATM   35  O   UNL     1      -9.075  10.917  62.361  1.00  0.00    -0.288 OA 
HETATM   36  N   UNL     1      -9.676  12.456  63.932  1.00  0.00    -0.590 N  
HETATM   37  H   UNL     1      -9.547  13.214  63.261  1.00  0.00     0.000 HD 
HETATM   38  C   UNL     1      -9.979  12.808  65.223  1.00  0.00    -0.185 C  
HETATM   39  O   UNL     1      -9.949  13.985  65.562  1.00  0.00    -0.316 OA 
ENDBRANCH  30  31
ENDBRANCH  21  22
ENDBRANCH  12  21
ENDBRANCH   7   9
ENDBRANCH   5   7
ENDBRANCH   4   5
ENDBRANCH   2   4
TORSDOF 8
ENDMDL
MODEL      232
REMARK 921   NORMALIZED FREE ENERGY PREDICTED BY IDOCK:    1.28 KCAL/MOL
REMARK 922        TOTAL FREE ENERGY PREDICTED BY IDOCK:   -0.67 KCAL/MOL
REMARK 923 INTER-LIGAND FREE ENERGY PREDICTED BY IDOCK:   -5.18 KCAL/MOL
REMARK 924 INTRA-LIGAND FREE ENERGY PREDICTED BY IDOCK:    4.51 KCAL/MOL
REMARK 927      BINDING AFFINITY PREDICTED BY RF-SCORE:    0.00 PKD
ROOT
HETATM    1  C   UNL     1      -8.926   2.494  68.428  1.00  0.00    -0.183 C  
HETATM    2  C   UNL     1      -8.269   2.927  69.733  1.00  0.00    -0.044 C  
HETATM    3  C   UNL     1      -6.812   2.472  69.761  1.00  0.00    -0.033 C  
ENDROOT
BRANCH   2   4
HETATM    4  O   UNL     1      -8.284   4.364  69.833  1.00  0.00    -0.062 OA 
BRANCH   4   5
HETATM    5  C   UNL     1      -8.008   5.052  68.683  1.00  0.00    -0.085 C  
HETATM    6  O   UNL     1      -7.366   4.612  67.737  1.00  0.00    -0.071 OA 
BRANCH   5   7
HETATM    7  C   UNL     1      -8.677   6.429  68.723  1.00  0.00    -0.122 C  
HETATM    8  C   UNL     1      -9.917   6.329  69.610  1.00  0.00    -0.201 C  
BRANCH   7   9
HETATM    9  N   UNL     1      -8.970   6.906  67.349  1.00  0.00    -0.117 NA 
HETATM   10  P   UNL     1      -9.172   8.583  67.209  1.00  0.00    -0.150 P  
HETATM   11  H   UNL     1      -9.783   6.419  66.972  1.00  0.00     0.000 HD 
HETATM   12  O   UNL     1      -9.446   8.875  65.598  1.00  0.00    -0.229 OA 
HETATM   13  O   UNL     1      -7.472   8.706  66.914  1.00  0.00    -0.082 OA 
HETATM   14  O   UNL     1     -10.694   8.473  67.474  1.00  0.00    -0.248 OA 
BRANCH  13  15
HETATM   15  C   UNL     1      -6.666   9.131  67.938  1.00  0.00    -0.068 A  
HETATM   16  C   UNL     1      -5.164   9.910  70.151  1.00  0.00    -0.037 A  
HETATM   17  C   UNL     1      -6.579   8.294  69.049  1.00  0.00    -0.048 A  
HETATM   18  C   UNL     1      -5.975  10.343  67.913  1.00  0.00    -0.044 A  
HETATM   19  C   UNL     1      -5.832   8.686  70.159  1.00  0.00    -0.027 A  
HETATM   20  C   UNL     1      -5.229  10.733  69.027  1.00  0.00    -0.041 A  
ENDBRANCH  13  15
BRANCH  12  21
HETATM   21  C   UNL     1     -10.202  10.062  65.290  1.00  0.00    -0.126 C  
BRANCH  21  22
HETATM   22  C   UNL     1      -9.922  11.350  66.123  1.00  0.00    -0.227 C  
HETATM   23  O   UNL     1     -10.977  11.564  67.087  1.00  0.00    -0.255 OA 
HETATM   24  C   UNL     1      -8.994  12.011  68.278  1.00  0.00    -0.186 C  
HETATM   25  H   UNL     1      -6.740  12.084  66.837  1.00  0.00     0.000 HD 
HETATM   26  C   UNL     1      -8.609  11.353  66.942  1.00  0.00    -0.154 C  
HETATM   27  O   UNL     1      -7.547  12.082  66.334  1.00  0.00     0.107 OA 
HETATM   28  F   UNL     1      -8.141  13.035  68.557  1.00  0.00    -0.141 F  
HETATM   29  C   UNL     1      -8.876  10.999  69.407  1.00  0.00     0.201 C  
HETATM   30  C   UNL     1     -10.407  12.526  68.000  1.00  0.00    -0.222 C  
BRANCH  30  31
HETATM   31  N   UNL     1     -11.288  12.706  69.159  1.00  0.00    -0.280 N  
HETATM   32  C   UNL     1     -11.563  11.658  70.019  1.00  0.00    -0.255 C  
HETATM   33  C   UNL     1     -12.438  11.770  71.016  1.00  0.00    -0.411 C  
HETATM   34  C   UNL     1     -13.150  13.044  71.194  1.00  0.00    -0.103 C  
HETATM   35  O   UNL     1     -14.063  13.149  72.003  1.00  0.00    -0.287 OA 
HETATM   36  N   UNL     1     -12.731  14.069  70.398  1.00  0.00    -0.300 N  
HETATM   37  H   UNL     1     -13.093  14.999  70.609  1.00  0.00     0.000 HD 
HETATM   38  C   UNL     1     -11.867  13.960  69.338  1.00  0.00    -0.334 C  
HETATM   39  O   UNL     1     -11.668  14.922  68.606  1.00  0.00    -0.318 OA 
ENDBRANCH  30  31
ENDBRANCH  21  22
ENDBRANCH  12  21
ENDBRANCH   7   9
ENDBRANCH   5   7
ENDBRANCH   4   5
ENDBRANCH   2   4
TORSDOF 8
ENDMDL
MODEL      233
REMARK 921   NORMALIZED FREE ENERGY PREDICTED BY IDOCK:    1.28 KCAL/MOL
REMARK 922        TOTAL FREE ENERGY PREDICTED BY IDOCK:   -0.67 KCAL/MOL
REMARK 923 INTER-LIGAND FREE ENERGY PREDICTED BY IDOCK:   -0.80 KCAL/MOL
REMARK 924 INTRA-LIGAND FREE ENERGY PREDICTED BY IDOCK:    0.13 KCAL/MOL
REMARK 927      BINDING AFFINITY PREDICTED BY RF-SCORE:    0.00 PKD
ROOT
HETATM    1  C   UNL     1     -12.332  16.070  69.528  1.00  0.00     0.138 C  
HETATM    2  C   UNL     1     -10.949  16.126  70.168  1.00  0.00    -0.358 C  
HETATM    3  C   UNL     1     -10.177  14.846  69.857  1.00  0.00    -0.016 C  
ENDROOT
BRANCH   2   4
HETATM    4  O   UNL     1     -10.205  17.234  69.623  1.00  0.00    -0.121 OA 
BRANCH   4   5
HETATM    5  C   UNL     1     -10.343  17.452  68.280  1.00  0.00    -0.374 C  
HETATM    6  O   UNL     1     -11.411  17.600  67.698  1.00  0.00     0.266 OA 
BRANCH   5   7
HETATM    7  C   UNL     1      -8.966  17.553  67.621  1.00  0.00    -0.231 C  
HETATM    8  C   UNL     1      -9.163  17.568  66.106  1.00  0.00    -0.162 C  
BRANCH   7   9
HETATM    9  N   UNL     1      -8.080  16.459  68.091  1.00  0.00    -0.161 NA 
HETATM   10  P   UNL     1      -7.256  15.635  66.860  1.00  0.00     0.338 P  
HETATM   11  H   UNL     1      -8.606  15.801  68.666  1.00  0.00     0.000 HD 
HETATM   12  O   UNL     1      -6.314  14.502  67.623  1.00  0.00    -0.213 OA 
HETATM   13  O   UNL     1      -5.971  16.779  67.031  1.00  0.00    -0.159 OA 
HETATM   14  O   UNL     1      -8.408  14.610  66.706  1.00  0.00    -0.184 OA 
BRANCH  13  15
HETATM   15  C   UNL     1      -5.867  17.781  66.101  1.00  0.00    -0.214 A  
HETATM   16  C   UNL     1      -5.821  19.904  64.299  1.00  0.00    -0.300 A  
HETATM   17  C   UNL     1      -6.185  19.067  66.534  1.00  0.00    -0.195 A  
HETATM   18  C   UNL     1      -5.491  17.556  64.777  1.00  0.00     1.209 A  
HETATM   19  C   UNL     1      -6.168  20.129  65.631  1.00  0.00    -0.241 A  
HETATM   20  C   UNL     1      -5.475  18.622  63.875  1.00  0.00    -0.037 A  
ENDBRANCH  13  15
BRANCH  12  21
HETATM   21  C   UNL     1      -5.984  13.331  66.852  1.00  0.00     1.163 C  
BRANCH  21  22
HETATM   22  C   UNL     1      -6.399  11.937  67.416  1.00  0.00    -0.128 C  
HETATM   23  O   UNL     1      -7.768  11.970  67.874  1.00  0.00    -0.115 OA 
HETATM   24  C   UNL     1      -7.582   9.923  66.721  1.00  0.00    -0.095 C  
HETATM   25  H   UNL     1      -5.118   9.219  65.953  1.00  0.00     0.000 HD 
HETATM   26  C   UNL     1      -6.325  10.756  66.419  1.00  0.00    -0.122 C  
HETATM   27  O   UNL     1      -5.163   9.945  66.565  1.00  0.00    -0.042 OA 
HETATM   28  F   UNL     1      -7.241   8.622  66.933  1.00  0.00    -0.072 F  
HETATM   29  C   UNL     1      -8.526   9.959  65.529  1.00  0.00    -0.148 C  
HETATM   30  C   UNL     1      -8.112  10.573  68.001  1.00  0.00    -0.111 C  
BRANCH  30  31
HETATM   31  N   UNL     1      -9.546  10.428  68.273  1.00  0.00    -0.141 N  
HETATM   32  C   UNL     1     -10.419  11.488  68.102  1.00  0.00    -0.193 C  
HETATM   33  C   UNL     1     -11.704  11.411  68.441  1.00  0.00    -0.373 C  
HETATM   34  C   UNL     1     -12.205  10.164  69.036  1.00  0.00     0.681 C  
HETATM   35  O   UNL     1     -13.339  10.095  69.493  1.00  0.00     0.597 OA 
HETATM   36  N   UNL     1     -11.325   9.123  69.051  1.00  0.00    -0.360 N  
HETATM   37  H   UNL     1     -11.694   8.206  69.309  1.00  0.00     0.000 HD 
HETATM   38  C   UNL     1      -9.989   9.197  68.750  1.00  0.00    -0.176 C  
HETATM   39  O   UNL     1      -9.263   8.227  68.930  1.00  0.00    -0.147 OA 
ENDBRANCH  30  31
ENDBRANCH  21  22
ENDBRANCH  12  21
ENDBRANCH   7   9
ENDBRANCH   5   7
ENDBRANCH   4   5
ENDBRANCH   2   4
TORSDOF 8
ENDMDL
MODEL      234
REMARK 921   NORMALIZED FREE ENERGY PREDICTED BY IDOCK:    1.98 KCAL/MOL
REMARK 922        TOTAL FREE ENERGY PREDICTED BY IDOCK:    0.36 KCAL/MOL
REMARK 923 INTER-LIGAND FREE ENERGY PREDICTED BY IDOCK:   -1.60 KCAL/MOL
REMARK 924 INTRA-LIGAND FREE ENERGY PREDICTED BY IDOCK:    1.96 KCAL/MOL
REMARK 927      BINDING AFFINITY PREDICTED BY RF-SCORE:    0.00 PKD
ROOT
HETATM    1  C   UNL     1      -7.866   5.974  73.458  1.00  0.00    -0.100 C  
HETATM    2  C   UNL     1      -8.627   6.588  72.289  1.00  0.00    -0.123 C  
HETATM    3  C   UNL     1      -8.115   8.000  72.014  1.00  0.00    -0.164 C  
ENDROOT
BRANCH   2   4
HETATM    4  O   UNL     1      -8.411   5.801  71.100  1.00  0.00    -0.124 OA 
BRANCH   4   5
HETATM    5  C   UNL     1      -9.529   5.471  70.384  1.00  0.00    -0.163 C  
HETATM    6  O   UNL     1     -10.336   4.606  70.700  1.00  0.00    -0.182 OA 
BRANCH   5   7
HETATM    7  C   UNL     1      -9.660   6.389  69.166  1.00  0.00    -0.136 C  
HETATM    8  C   UNL     1      -9.201   5.612  67.933  1.00  0.00    -0.108 C  
BRANCH   7   9
HETATM    9  N   UNL     1      -8.910   7.652  69.381  1.00  0.00    -0.139 NA 
HETATM   10  P   UNL     1      -9.707   9.050  68.847  1.00  0.00    -0.172 P  
HETATM   11  H   UNL     1      -7.984   7.589  68.958  1.00  0.00     0.000 HD 
HETATM   12  O   UNL     1      -8.704  10.317  69.227  1.00  0.00    -0.160 OA 
HETATM   13  O   UNL     1     -10.417   9.176  70.419  1.00  0.00    -0.196 OA 
HETATM   14  O   UNL     1      -9.071   8.935  67.440  1.00  0.00    -0.131 OA 
BRANCH  13  15
HETATM   15  C   UNL     1     -11.721   8.783  70.575  1.00  0.00    -0.094 A  
HETATM   16  C   UNL     1     -14.351   8.028  71.094  1.00  0.00    -0.281 A  
HETATM   17  C   UNL     1     -12.478   9.495  71.504  1.00  0.00    -0.463 A  
HETATM   18  C   UNL     1     -12.285   7.716  69.876  1.00  0.00     0.830 A  
HETATM   19  C   UNL     1     -13.793   9.113  71.768  1.00  0.00    -0.425 A  
HETATM   20  C   UNL     1     -13.602   7.336  70.143  1.00  0.00     2.261 A  
ENDBRANCH  13  15
BRANCH  12  21
HETATM   21  C   UNL     1      -8.834  11.494  68.407  1.00  0.00    -0.163 C  
BRANCH  21  22
HETATM   22  C   UNL     1     -10.174  12.288  68.467  1.00  0.00    -0.206 C  
HETATM   23  O   UNL     1      -9.984  13.631  67.969  1.00  0.00    -0.232 OA 
HETATM   24  C   UNL     1     -12.025  12.935  67.019  1.00  0.00    -0.325 C  
HETATM   25  H   UNL     1     -13.009  10.610  67.905  1.00  0.00     0.000 HD 
HETATM   26  C   UNL     1     -11.345  11.704  67.641  1.00  0.00    -0.295 C  
HETATM   27  O   UNL     1     -12.290  10.969  68.413  1.00  0.00    -0.528 OA 
HETATM   28  F   UNL     1     -13.360  12.916  67.287  1.00  0.00     1.954 F  
HETATM   29  C   UNL     1     -11.864  12.907  65.507  1.00  0.00    -0.455 C  
HETATM   30  C   UNL     1     -11.331  14.095  67.734  1.00  0.00    -0.306 C  
BRANCH  30  31
HETATM   31  N   UNL     1     -11.307  15.385  67.037  1.00  0.00    -0.240 N  
HETATM   32  C   UNL     1     -11.467  15.461  65.665  1.00  0.00    -0.049 C  
HETATM   33  C   UNL     1     -11.346  16.607  64.999  1.00  0.00     0.102 C  
HETATM   34  C   UNL     1     -11.012  17.828  65.746  1.00  0.00     0.224 C  
HETATM   35  O   UNL     1     -10.751  18.873  65.162  1.00  0.00    -0.438 OA 
HETATM   36  N   UNL     1     -11.002  17.704  67.103  1.00  0.00    -0.086 N  
HETATM   37  H   UNL     1     -10.932  18.564  67.648  1.00  0.00     0.000 HD 
HETATM   38  C   UNL     1     -11.078  16.526  67.802  1.00  0.00    -0.179 C  
HETATM   39  O   UNL     1     -10.921  16.521  69.017  1.00  0.00    -0.309 OA 
ENDBRANCH  30  31
ENDBRANCH  21  22
ENDBRANCH  12  21
ENDBRANCH   7   9
ENDBRANCH   5   7
ENDBRANCH   4   5
ENDBRANCH   2   4
TORSDOF 8
ENDMDL
MODEL      235
REMARK 921   NORMALIZED FREE ENERGY PREDICTED BY IDOCK:    2.05 KCAL/MOL
REMARK 922        TOTAL FREE ENERGY PREDICTED BY IDOCK:    0.46 KCAL/MOL
REMARK 923 INTER-LIGAND FREE ENERGY PREDICTED BY IDOCK:   -5.26 KCAL/MOL
REMARK 924 INTRA-LIGAND FREE ENERGY PREDICTED BY IDOCK:    5.72 KCAL/MOL
REMARK 927      BINDING AFFINITY PREDICTED BY RF-SCORE:    0.00 PKD
ROOT
HETATM    1  C   UNL     1      -8.494  17.582  68.177  1.00  0.00    -0.254 C  
HETATM    2  C   UNL     1      -7.489  16.437  68.169  1.00  0.00    -0.149 C  
HETATM    3  C   UNL     1      -6.570  16.539  69.384  1.00  0.00    -0.213 C  
ENDROOT
BRANCH   2   4
HETATM    4  O   UNL     1      -8.185  15.177  68.247  1.00  0.00    -0.136 OA 
BRANCH   4   5
HETATM    5  C   UNL     1      -8.312  14.484  67.075  1.00  0.00    -0.167 C  
HETATM    6  O   UNL     1      -7.741  13.432  66.814  1.00  0.00     0.194 OA 
BRANCH   5   7
HETATM    7  C   UNL     1      -9.326  15.179  66.163  1.00  0.00    -0.311 C  
HETATM    8  C   UNL     1     -10.313  15.943  67.045  1.00  0.00    -0.297 C  
BRANCH   7   9
HETATM    9  N   UNL     1      -9.978  14.197  65.262  1.00  0.00    -0.552 NA 
HETATM   10  P   UNL     1     -10.194  12.655  65.931  1.00  0.00    -0.276 P  
HETATM   11  H   UNL     1      -9.467  14.132  64.381  1.00  0.00     0.000 HD 
HETATM   12  O   UNL     1     -10.966  11.758  64.767  1.00  0.00    -0.295 OA 
HETATM   13  O   UNL     1     -11.736  13.183  66.509  1.00  0.00    -0.345 OA 
HETATM   14  O   UNL     1      -8.812  12.182  65.414  1.00  0.00     0.274 OA 
BRANCH  13  15
HETATM   15  C   UNL     1     -11.853  13.512  67.834  1.00  0.00    -0.362 A  
HETATM   16  C   UNL     1     -12.063  14.378  70.473  1.00  0.00    -0.404 A  
HETATM   17  C   UNL     1     -12.489  14.718  68.122  1.00  0.00     0.320 A  
HETATM   18  C   UNL     1     -11.352  12.716  68.865  1.00  0.00    -0.345 A  
HETATM   19  C   UNL     1     -12.589  15.155  69.442  1.00  0.00     0.040 A  
HETATM   20  C   UNL     1     -11.454  13.157  70.186  1.00  0.00    -0.020 A  
ENDBRANCH  13  15
BRANCH  12  21
HETATM   21  C   UNL     1     -10.755  10.334  64.821  1.00  0.00     0.583 C  
BRANCH  21  22
HETATM   22  C   UNL     1      -9.581   9.798  65.696  1.00  0.00    -0.263 C  
HETATM   23  O   UNL     1     -10.002   9.662  67.071  1.00  0.00    -0.182 OA 
HETATM   24  C   UNL     1      -8.766   7.703  66.639  1.00  0.00    -0.141 C  
HETATM   25  H   UNL     1      -7.467   7.617  64.302  1.00  0.00     0.000 HD 
HETATM   26  C   UNL     1      -9.020   8.411  65.298  1.00  0.00    -0.003 C  
HETATM   27  O   UNL     1      -7.812   8.468  64.546  1.00  0.00    -0.121 OA 
HETATM   28  F   UNL     1      -7.489   7.232  66.684  1.00  0.00    -0.080 F  
HETATM   29  C   UNL     1      -9.697   6.510  66.780  1.00  0.00    -0.208 C  
HETATM   30  C   UNL     1      -8.979   8.828  67.655  1.00  0.00    -0.135 C  
BRANCH  30  31
HETATM   31  N   UNL     1      -9.363   8.431  69.013  1.00  0.00    -0.147 N  
HETATM   32  C   UNL     1     -10.576   7.815  69.263  1.00  0.00    -0.192 C  
HETATM   33  C   UNL     1     -10.991   7.540  70.498  1.00  0.00    -0.266 C  
HETATM   34  C   UNL     1     -10.138   7.923  71.633  1.00  0.00    -0.181 C  
HETATM   35  O   UNL     1     -10.539   7.820  72.786  1.00  0.00    -0.281 OA 
HETATM   36  N   UNL     1      -8.903   8.401  71.307  1.00  0.00    -0.151 N  
HETATM   37  H   UNL     1      -8.236   8.522  72.070  1.00  0.00     0.000 HD 
HETATM   38  C   UNL     1      -8.479   8.733  70.045  1.00  0.00    -0.133 C  
HETATM   39  O   UNL     1      -7.396   9.284  69.887  1.00  0.00    -0.059 OA 
ENDBRANCH  30  31
ENDBRANCH  21  22
ENDBRANCH  12  21
ENDBRANCH   7   9
ENDBRANCH   5   7
ENDBRANCH   4   5
ENDBRANCH   2   4
TORSDOF 8
ENDMDL
MODEL      236
REMARK 921   NORMALIZED FREE ENERGY PREDICTED BY IDOCK:    2.51 KCAL/MOL
REMARK 922        TOTAL FREE ENERGY PREDICTED BY IDOCK:    1.13 KCAL/MOL
REMARK 923 INTER-LIGAND FREE ENERGY PREDICTED BY IDOCK:   -6.93 KCAL/MOL
REMARK 924 INTRA-LIGAND FREE ENERGY PREDICTED BY IDOCK:    8.06 KCAL/MOL
REMARK 927      BINDING AFFINITY PREDICTED BY RF-SCORE:    0.00 PKD
ROOT
HETATM    1  C   UNL     1      -8.302   8.303  62.398  1.00  0.00    -0.160 C  
HETATM    2  C   UNL     1      -7.934   8.056  63.857  1.00  0.00    -0.128 C  
HETATM    3  C   UNL     1      -6.416   8.020  64.014  1.00  0.00    -0.066 C  
ENDROOT
BRANCH   2   4
HETATM    4  O   UNL     1      -8.437   9.130  64.675  1.00  0.00    -0.163 OA 
BRANCH   4   5
HETATM    5  C   UNL     1      -8.960  10.204  64.007  1.00  0.00    -0.238 C  
HETATM    6  O   UNL     1      -9.306  10.201  62.832  1.00  0.00    -0.279 OA 
BRANCH   5   7
HETATM    7  C   UNL     1      -9.115  11.390  64.963  1.00  0.00    -0.013 C  
HETATM    8  C   UNL     1      -7.960  11.349  65.963  1.00  0.00     0.095 C  
BRANCH   7   9
HETATM    9  N   UNL     1     -10.452  11.372  65.605  1.00  0.00    -0.256 NA 
HETATM   10  P   UNL     1     -10.426  11.309  67.298  1.00  0.00    -0.239 P  
HETATM   11  H   UNL     1     -11.014  10.607  65.230  1.00  0.00     0.000 HD 
HETATM   12  O   UNL     1     -12.014  11.339  67.779  1.00  0.00    -0.637 OA 
HETATM   13  O   UNL     1     -10.419  13.038  67.307  1.00  0.00    -0.237 OA 
HETATM   14  O   UNL     1     -10.432   9.760  67.290  1.00  0.00    -0.238 OA 
BRANCH  13  15
HETATM   15  C   UNL     1      -9.232  13.680  67.552  1.00  0.00    -0.218 A  
HETATM   16  C   UNL     1      -6.781  14.970  67.847  1.00  0.00    -0.172 A  
HETATM   17  C   UNL     1      -8.790  14.564  66.570  1.00  0.00    -0.156 A  
HETATM   18  C   UNL     1      -8.471  13.464  68.701  1.00  0.00     0.001 A  
HETATM   19  C   UNL     1      -7.560  15.206  66.714  1.00  0.00     0.188 A  
HETATM   20  C   UNL     1      -7.240  14.108  68.842  1.00  0.00    -0.118 A  
ENDBRANCH  13  15
BRANCH  12  21
HETATM   21  C   UNL     1     -12.302  10.728  69.051  1.00  0.00     0.197 C  
BRANCH  21  22
HETATM   22  C   UNL     1     -11.105  10.384  69.990  1.00  0.00    -0.314 C  
HETATM   23  O   UNL     1     -11.499   9.389  70.961  1.00  0.00    -0.281 OA 
HETATM   24  C   UNL     1      -9.361   8.700  70.246  1.00  0.00    -0.167 C  
HETATM   25  H   UNL     1      -8.033  10.409  68.673  1.00  0.00     0.000 HD 
HETATM   26  C   UNL     1      -9.847   9.809  69.297  1.00  0.00    -0.199 C  
HETATM   27  O   UNL     1      -8.807  10.762  69.098  1.00  0.00    -0.156 OA 
HETATM   28  F   UNL     1      -8.044   8.880  70.539  1.00  0.00    -0.083 F  
HETATM   29  C   UNL     1      -9.497   7.345  69.571  1.00  0.00    -0.155 C  
HETATM   30  C   UNL     1     -10.239   8.912  71.481  1.00  0.00    -0.328 C  
BRANCH  30  31
HETATM   31  N   UNL     1     -10.458   7.749  72.347  1.00  0.00    -0.241 N  
HETATM   32  C   UNL     1      -9.601   7.466  73.396  1.00  0.00    -0.249 C  
HETATM   33  C   UNL     1      -9.719   6.361  74.129  1.00  0.00    -0.269 C  
HETATM   34  C   UNL     1     -10.784   5.402  73.799  1.00  0.00    -0.280 C  
HETATM   35  O   UNL     1     -10.842   4.310  74.351  1.00  0.00    -0.223 OA 
HETATM   36  N   UNL     1     -11.668   5.809  72.845  1.00  0.00    -0.528 N  
HETATM   37  H   UNL     1     -12.503   5.238  72.711  1.00  0.00     0.000 HD 
HETATM   38  C   UNL     1     -11.536   6.919  72.049  1.00  0.00    -0.274 C  
HETATM   39  O   UNL     1     -12.322   7.114  71.131  1.00  0.00    -0.347 OA 
ENDBRANCH  30  31
ENDBRANCH  21  22
ENDBRANCH  12  21
ENDBRANCH   7   9
ENDBRANCH   5   7
ENDBRANCH   4   5
ENDBRANCH   2   4
TORSDOF 8
ENDMDL
MODEL      237
REMARK 921   NORMALIZED FREE ENERGY PREDICTED BY IDOCK:    4.07 KCAL/MOL
REMARK 922        TOTAL FREE ENERGY PREDICTED BY IDOCK:    3.42 KCAL/MOL
REMARK 923 INTER-LIGAND FREE ENERGY PREDICTED BY IDOCK:   -3.01 KCAL/MOL
REMARK 924 INTRA-LIGAND FREE ENERGY PREDICTED BY IDOCK:    6.43 KCAL/MOL
REMARK 927      BINDING AFFINITY PREDICTED BY RF-SCORE:    0.00 PKD
ROOT
HETATM    1  C   UNL     1      -9.088  15.081  66.356  1.00  0.00    -0.312 C  
HETATM    2  C   UNL     1     -10.388  14.486  65.828  1.00  0.00    -0.331 C  
HETATM    3  C   UNL     1     -10.277  14.237  64.326  1.00  0.00     0.715 C  
ENDROOT
BRANCH   2   4
HETATM    4  O   UNL     1     -10.640  13.220  66.468  1.00  0.00    -0.281 OA 
BRANCH   4   5
HETATM    5  C   UNL     1      -9.554  12.406  66.645  1.00  0.00    -0.229 C  
HETATM    6  O   UNL     1      -8.394  12.791  66.734  1.00  0.00    -0.113 OA 
BRANCH   5   7
HETATM    7  C   UNL     1     -10.007  10.951  66.785  1.00  0.00    -0.205 C  
HETATM    8  C   UNL     1     -11.035  10.666  65.690  1.00  0.00     0.110 C  
BRANCH   7   9
HETATM    9  N   UNL     1     -10.516  10.692  68.154  1.00  0.00    -0.174 NA 
HETATM   10  P   UNL     1      -9.452   9.834  69.156  1.00  0.00    -0.212 P  
HETATM   11  H   UNL     1     -11.420  10.221  68.113  1.00  0.00     0.000 HD 
HETATM   12  O   UNL     1     -10.214   9.704  70.625  1.00  0.00    -0.276 OA 
HETATM   13  O   UNL     1      -8.794  11.351  69.662  1.00  0.00     0.581 OA 
HETATM   14  O   UNL     1     -10.040   8.475  68.702  1.00  0.00    -0.180 OA 
BRANCH  13  15
HETATM   15  C   UNL     1      -7.594  11.747  69.131  1.00  0.00     0.081 A  
HETATM   16  C   UNL     1      -5.135  12.358  67.974  1.00  0.00    -0.073 A  
HETATM   17  C   UNL     1      -7.259  11.215  67.887  1.00  0.00    -0.090 A  
HETATM   18  C   UNL     1      -6.718  12.614  69.785  1.00  0.00     0.157 A  
HETATM   19  C   UNL     1      -6.026  11.516  67.310  1.00  0.00    -0.100 A  
HETATM   20  C   UNL     1      -5.484  12.913  69.205  1.00  0.00    -0.071 A  
ENDBRANCH  13  15
BRANCH  12  21
HETATM   21  C   UNL     1      -9.834   8.578  71.438  1.00  0.00    -0.228 C  
BRANCH  21  22
HETATM   22  C   UNL     1     -10.248   7.152  70.961  1.00  0.00    -0.196 C  
HETATM   23  O   UNL     1      -9.220   6.586  70.118  1.00  0.00    -0.156 OA 
HETATM   24  C   UNL     1      -9.868   4.813  71.528  1.00  0.00    -0.187 C  
HETATM   25  H   UNL     1     -12.007   5.251  73.073  1.00  0.00     0.000 HD 
HETATM   26  C   UNL     1     -10.487   6.108  72.078  1.00  0.00    -0.211 C  
HETATM   27  O   UNL     1     -11.860   5.892  72.387  1.00  0.00    -0.311 OA 
HETATM   28  F   UNL     1     -10.772   3.797  71.596  1.00  0.00    -0.014 F  
HETATM   29  C   UNL     1      -8.669   4.412  72.373  1.00  0.00    -0.121 C  
HETATM   30  C   UNL     1      -9.556   5.183  70.076  1.00  0.00    -0.181 C  
BRANCH  30  31
HETATM   31  N   UNL     1      -8.488   4.427  69.414  1.00  0.00    -0.073 N  
HETATM   32  C   UNL     1      -8.678   3.114  69.021  1.00  0.00    -0.086 C  
HETATM   33  C   UNL     1      -7.693   2.376  68.513  1.00  0.00    -0.054 C  
HETATM   34  C   UNL     1      -6.355   2.973  68.384  1.00  0.00    -0.029 C  
HETATM   35  O   UNL     1      -5.391   2.293  68.057  1.00  0.00    -0.012 OA 
HETATM   36  N   UNL     1      -6.275   4.305  68.664  1.00  0.00    -0.031 N  
HETATM   37  H   UNL     1      -5.401   4.777  68.431  1.00  0.00     0.000 HD 
HETATM   38  C   UNL     1      -7.265   5.067  69.231  1.00  0.00    -0.057 C  
HETATM   39  O   UNL     1      -7.035   6.223  69.565  1.00  0.00    -0.066 OA 
ENDBRANCH  30  31
ENDBRANCH  21  22
ENDBRANCH  12  21
ENDBRANCH   7   9
ENDBRANCH   5   7
ENDBRANCH   4   5
ENDBRANCH   2   4
TORSDOF 8
ENDMDL
MODEL      238
REMARK 921   NORMALIZED FREE ENERGY PREDICTED BY IDOCK:    4.77 KCAL/MOL
REMARK 922        TOTAL FREE ENERGY PREDICTED BY IDOCK:    4.45 KCAL/MOL
REMARK 923 INTER-LIGAND FREE ENERGY PREDICTED BY IDOCK:   -4.54 KCAL/MOL
REMARK 924 INTRA-LIGAND FREE ENERGY PREDICTED BY IDOCK:    8.99 KCAL/MOL
REMARK 927      BINDING AFFINITY PREDICTED BY RF-SCORE:    0.00 PKD
ROOT
HETATM    1  C   UNL     1      -9.380  14.854  66.461  1.00  0.00    -0.308 C  
HETATM    2  C   UNL     1      -9.976  15.843  65.467  1.00  0.00    -0.278 C  
HETATM    3  C   UNL     1     -11.402  16.204  65.878  1.00  0.00     0.333 C  
ENDROOT
BRANCH   2   4
HETATM    4  O   UNL     1      -9.199  17.057  65.460  1.00  0.00    -0.416 OA 
BRANCH   4   5
HETATM    5  C   UNL     1      -8.171  17.120  66.360  1.00  0.00    -0.292 C  
HETATM    6  O   UNL     1      -6.983  17.022  66.079  1.00  0.00    -0.166 OA 
BRANCH   5   7
HETATM    7  C   UNL     1      -8.719  17.402  67.761  1.00  0.00    -0.232 C  
HETATM    8  C   UNL     1      -8.137  18.731  68.242  1.00  0.00    -0.353 C  
BRANCH   7   9
HETATM    9  N   UNL     1      -8.430  16.267  68.673  1.00  0.00    -0.209 NA 
HETATM   10  P   UNL     1      -6.785  15.895  68.844  1.00  0.00    -0.155 P  
HETATM   11  H   UNL     1      -8.952  15.439  68.384  1.00  0.00     0.000 HD 
HETATM   12  O   UNL     1      -6.713  14.639  69.926  1.00  0.00    -0.163 OA 
HETATM   13  O   UNL     1      -6.730  17.005  70.169  1.00  0.00     0.239 OA 
HETATM   14  O   UNL     1      -6.835  14.902  67.656  1.00  0.00    -0.159 OA 
BRANCH  13  15
HETATM   15  C   UNL     1      -6.181  18.243  69.955  1.00  0.00    -0.040 A  
HETATM   16  C   UNL     1      -5.141  20.815  69.707  1.00  0.00    -0.385 A  
HETATM   17  C   UNL     1      -5.658  18.892  71.072  1.00  0.00    -0.146 A  
HETATM   18  C   UNL     1      -6.154  18.860  68.705  1.00  0.00    -0.233 A  
HETATM   19  C   UNL     1      -5.142  20.181  70.950  1.00  0.00    -0.268 A  
HETATM   20  C   UNL     1      -5.638  20.152  68.586  1.00  0.00    -0.278 A  
ENDBRANCH  13  15
BRANCH  12  21
HETATM   21  C   UNL     1      -5.568  13.772  69.813  1.00  0.00    -0.101 C  
BRANCH  21  22
HETATM   22  C   UNL     1      -5.749  12.405  69.085  1.00  0.00    -0.071 C  
HETATM   23  O   UNL     1      -5.835  11.332  70.048  1.00  0.00    -0.086 OA 
HETATM   24  C   UNL     1      -7.512  10.841  68.467  1.00  0.00    -0.100 C  
HETATM   25  H   UNL     1      -7.546  12.365  66.268  1.00  0.00     0.000 HD 
HETATM   26  C   UNL     1      -7.013  12.271  68.203  1.00  0.00    -0.087 C  
HETATM   27  O   UNL     1      -6.770  12.447  66.810  1.00  0.00     0.007 OA 
HETATM   28  F   UNL     1      -7.689  10.183  67.288  1.00  0.00    -0.094 F  
HETATM   29  C   UNL     1      -8.860  10.885  69.171  1.00  0.00    -0.050 C  
HETATM   30  C   UNL     1      -6.366  10.233  69.277  1.00  0.00    -0.047 C  
BRANCH  30  31
HETATM   31  N   UNL     1      -6.701   9.110  70.160  1.00  0.00    -0.045 N  
HETATM   32  C   UNL     1      -7.523   9.284  71.259  1.00  0.00     0.050 C  
HETATM   33  C   UNL     1      -7.757   8.306  72.131  1.00  0.00    -0.162 C  
HETATM   34  C   UNL     1      -7.102   7.006  71.930  1.00  0.00    -0.069 C  
HETATM   35  O   UNL     1      -7.173   6.126  72.778  1.00  0.00    -0.083 OA 
HETATM   36  N   UNL     1      -6.417   6.867  70.760  1.00  0.00    -0.047 N  
HETATM   37  H   UNL     1      -6.089   5.930  70.521  1.00  0.00     0.000 HD 
HETATM   38  C   UNL     1      -6.127   7.874  69.874  1.00  0.00    -0.026 C  
HETATM   39  O   UNL     1      -5.386   7.662  68.923  1.00  0.00    -0.021 OA 
ENDBRANCH  30  31
ENDBRANCH  21  22
ENDBRANCH  12  21
ENDBRANCH   7   9
ENDBRANCH   5   7
ENDBRANCH   4   5
ENDBRANCH   2   4
TORSDOF 8
ENDMDL
MODEL      239
REMARK 921   NORMALIZED FREE ENERGY PREDICTED BY IDOCK:    5.33 KCAL/MOL
REMARK 922        TOTAL FREE ENERGY PREDICTED BY IDOCK:    5.27 KCAL/MOL
REMARK 923 INTER-LIGAND FREE ENERGY PREDICTED BY IDOCK:   -4.53 KCAL/MOL
REMARK 924 INTRA-LIGAND FREE ENERGY PREDICTED BY IDOCK:    9.80 KCAL/MOL
REMARK 927      BINDING AFFINITY PREDICTED BY RF-SCORE:    0.00 PKD
ROOT
HETATM    1  C   UNL     1      -8.782   5.482  64.370  1.00  0.00     0.039 C  
HETATM    2  C   UNL     1      -7.789   5.391  65.523  1.00  0.00    -0.098 C  
HETATM    3  C   UNL     1      -6.594   6.303  65.257  1.00  0.00    -0.043 C  
ENDROOT
BRANCH   2   4
HETATM    4  O   UNL     1      -8.417   5.832  66.743  1.00  0.00    -0.112 OA 
BRANCH   4   5
HETATM    5  C   UNL     1      -8.402   7.180  66.977  1.00  0.00    -0.118 C  
HETATM    6  O   UNL     1      -7.417   7.824  67.316  1.00  0.00    -0.089 OA 
BRANCH   5   7
HETATM    7  C   UNL     1      -9.781   7.777  66.684  1.00  0.00    -0.222 C  
HETATM    8  C   UNL     1      -9.591   9.240  66.288  1.00  0.00    -0.313 C  
BRANCH   7   9
HETATM    9  N   UNL     1     -10.687   7.592  67.844  1.00  0.00    -0.429 NA 
HETATM   10  P   UNL     1     -10.058   8.122  69.327  1.00  0.00    -0.207 P  
HETATM   11  H   UNL     1     -10.980   6.617  67.913  1.00  0.00     0.000 HD 
HETATM   12  O   UNL     1     -11.251   7.852  70.449  1.00  0.00    -0.269 OA 
HETATM   13  O   UNL     1     -10.751   9.672  69.002  1.00  0.00    -0.217 OA 
HETATM   14  O   UNL     1      -9.437   6.733  69.616  1.00  0.00    -0.147 OA 
BRANCH  13  15
HETATM   15  C   UNL     1      -9.923  10.674  68.567  1.00  0.00    -0.167 A  
HETATM   16  C   UNL     1      -8.156  12.713  67.873  1.00  0.00    -0.165 A  
HETATM   17  C   UNL     1      -8.624  10.670  69.071  1.00  0.00    -0.150 A  
HETATM   18  C   UNL     1     -10.334  11.675  67.686  1.00  0.00    -0.210 A  
HETATM   19  C   UNL     1      -7.741  11.693  68.729  1.00  0.00    -0.111 A  
HETATM   20  C   UNL     1      -9.447  12.699  67.345  1.00  0.00    -0.189 A  
ENDBRANCH  13  15
BRANCH  12  21
HETATM   21  C   UNL     1     -10.810   7.658  71.806  1.00  0.00    -0.229 C  
BRANCH  21  22
HETATM   22  C   UNL     1      -9.625   6.677  72.062  1.00  0.00    -0.148 C  
HETATM   23  O   UNL     1      -9.572   5.673  71.024  1.00  0.00    -0.162 OA 
HETATM   24  C   UNL     1      -7.325   6.306  71.346  1.00  0.00    -0.085 C  
HETATM   25  H   UNL     1      -6.838   7.921  73.423  1.00  0.00     0.000 HD 
HETATM   26  C   UNL     1      -8.215   7.314  72.092  1.00  0.00    -0.101 C  
HETATM   27  O   UNL     1      -7.704   7.530  73.404  1.00  0.00    -0.093 OA 
HETATM   28  F   UNL     1      -6.240   5.990  72.105  1.00  0.00    -0.037 F  
HETATM   29  C   UNL     1      -6.814   6.924  70.054  1.00  0.00    -0.057 C  
HETATM   30  C   UNL     1      -8.255   5.103  71.177  1.00  0.00    -0.116 C  
BRANCH  30  31
HETATM   31  N   UNL     1      -7.966   4.192  70.064  1.00  0.00    -0.055 N  
HETATM   32  C   UNL     1      -6.753   4.235  69.400  1.00  0.00    -0.045 C  
HETATM   33  C   UNL     1      -6.507   3.492  68.324  1.00  0.00    -0.037 C  
HETATM   34  C   UNL     1      -7.568   2.611  67.814  1.00  0.00    -0.056 C  
HETATM   35  O   UNL     1      -7.439   2.019  66.750  1.00  0.00    -0.062 OA 
HETATM   36  N   UNL     1      -8.683   2.520  68.593  1.00  0.00    -0.080 N  
HETATM   37  H   UNL     1      -9.364   1.800  68.348  1.00  0.00     0.000 HD 
HETATM   38  C   UNL     1      -8.972   3.311  69.676  1.00  0.00    -0.111 C  
HETATM   39  O   UNL     1     -10.067   3.233  70.219  1.00  0.00     0.163 OA 
ENDBRANCH  30  31
ENDBRANCH  21  22
ENDBRANCH  12  21
ENDBRANCH   7   9
ENDBRANCH   5   7
ENDBRANCH   4   5
ENDBRANCH   2   4
TORSDOF 8
ENDMDL
MODEL      240
REMARK 921   NORMALIZED FREE ENERGY PREDICTED BY IDOCK:    5.59 KCAL/MOL
REMARK 922        TOTAL FREE ENERGY PREDICTED BY IDOCK:    5.65 KCAL/MOL
REMARK 923 INTER-LIGAND FREE ENERGY PREDICTED BY IDOCK:   -5.27 KCAL/MOL
REMARK 924 INTRA-LIGAND FREE ENERGY PREDICTED BY IDOCK:   10.92 KCAL/MOL
REMARK 927      BINDING AFFINITY PREDICTED BY RF-SCORE:    0.00 PKD
ROOT
HETATM    1  C   UNL     1     -11.763  11.332  70.315  1.00  0.00    -0.415 C  
HETATM    2  C   UNL     1     -11.326  10.698  69.000  1.00  0.00    -0.277 C  
HETATM    3  C   UNL     1     -12.095  11.321  67.837  1.00  0.00     0.136 C  
ENDROOT
BRANCH   2   4
HETATM    4  O   UNL     1      -9.922  10.945  68.782  1.00  0.00    -0.182 OA 
BRANCH   4   5
HETATM    5  C   UNL     1      -9.055  10.198  69.531  1.00  0.00    -0.195 C  
HETATM    6  O   UNL     1      -8.767  10.418  70.701  1.00  0.00     0.552 OA 
BRANCH   5   7
HETATM    7  C   UNL     1      -8.551   9.005  68.714  1.00  0.00    -0.132 C  
HETATM    8  C   UNL     1      -9.680   7.979  68.624  1.00  0.00    -0.163 C  
BRANCH   7   9
HETATM    9  N   UNL     1      -7.303   8.459  69.303  1.00  0.00    -0.070 NA 
HETATM   10  P   UNL     1      -7.429   6.874  69.890  1.00  0.00    -0.098 P  
HETATM   11  H   UNL     1      -6.955   9.081  70.034  1.00  0.00     0.000 HD 
HETATM   12  O   UNL     1      -5.920   6.477  70.454  1.00  0.00    -0.022 OA 
HETATM   13  O   UNL     1      -6.961   6.316  68.322  1.00  0.00    -0.074 OA 
HETATM   14  O   UNL     1      -7.849   7.374  71.295  1.00  0.00    -0.093 OA 
BRANCH  13  15
HETATM   15  C   UNL     1      -7.935   5.830  67.489  1.00  0.00    -0.102 A  
HETATM   16  C   UNL     1      -9.782   4.866  65.640  1.00  0.00    -0.161 A  
HETATM   17  C   UNL     1      -7.506   5.034  66.429  1.00  0.00    -0.087 A  
HETATM   18  C   UNL     1      -9.291   6.117  67.651  1.00  0.00    -0.112 A  
HETATM   19  C   UNL     1      -8.430   4.556  65.500  1.00  0.00    -0.121 A  
HETATM   20  C   UNL     1     -10.213   5.637  66.719  1.00  0.00    -0.276 A  
ENDBRANCH  13  15
BRANCH  12  21
HETATM   21  C   UNL     1      -5.874   5.477  71.491  1.00  0.00    -0.024 C  
BRANCH  21  22
HETATM   22  C   UNL     1      -7.189   4.712  71.833  1.00  0.00    -0.062 C  
HETATM   23  O   UNL     1      -8.312   5.621  71.834  1.00  0.00    -0.118 OA 
HETATM   24  C   UNL     1      -9.105   3.705  70.713  1.00  0.00    -0.112 C  
HETATM   25  H   UNL     1      -7.494   1.569  70.738  1.00  0.00     0.000 HD 
HETATM   26  C   UNL     1      -7.581   3.573  70.862  1.00  0.00    -0.040 C  
HETATM   27  O   UNL     1      -7.254   2.269  71.334  1.00  0.00    -0.031 OA 
HETATM   28  F   UNL     1      -9.705   2.509  70.966  1.00  0.00    -0.207 F  
HETATM   29  C   UNL     1      -9.454   4.097  69.286  1.00  0.00    -0.258 C  
HETATM   30  C   UNL     1      -9.455   4.740  71.785  1.00  0.00    -0.149 C  
BRANCH  30  31
HETATM   31  N   UNL     1     -10.683   5.516  71.581  1.00  0.00    -0.245 N  
HETATM   32  C   UNL     1     -10.880   6.256  70.429  1.00  0.00    -0.299 C  
HETATM   33  C   UNL     1     -11.938   7.048  70.267  1.00  0.00    -0.197 C  
HETATM   34  C   UNL     1     -12.917   7.154  71.359  1.00  0.00    -0.368 C  
HETATM   35  O   UNL     1     -13.825   7.975  71.314  1.00  0.00    -0.267 OA 
HETATM   36  N   UNL     1     -12.729   6.298  72.404  1.00  0.00    -0.516 N  
HETATM   37  H   UNL     1     -13.477   6.238  73.095  1.00  0.00     0.000 HD 
HETATM   38  C   UNL     1     -11.624   5.511  72.608  1.00  0.00    -0.232 C  
HETATM   39  O   UNL     1     -11.501   4.883  73.652  1.00  0.00    -0.251 OA 
ENDBRANCH  30  31
ENDBRANCH  21  22
ENDBRANCH  12  21
ENDBRANCH   7   9
ENDBRANCH   5   7
ENDBRANCH   4   5
ENDBRANCH   2   4
TORSDOF 8
ENDMDL
MODEL      241
REMARK 921   NORMALIZED FREE ENERGY PREDICTED BY IDOCK:    5.77 KCAL/MOL
REMARK 922        TOTAL FREE ENERGY PREDICTED BY IDOCK:    5.92 KCAL/MOL
REMARK 923 INTER-LIGAND FREE ENERGY PREDICTED BY IDOCK:   -3.30 KCAL/MOL
REMARK 924 INTRA-LIGAND FREE ENERGY PREDICTED BY IDOCK:    9.23 KCAL/MOL
REMARK 927      BINDING AFFINITY PREDICTED BY RF-SCORE:    0.00 PKD
ROOT
HETATM    1  C   UNL     1      -8.104  11.286  64.622  1.00  0.00     0.683 C  
HETATM    2  C   UNL     1      -9.582  11.126  64.288  1.00  0.00    -0.252 C  
HETATM    3  C   UNL     1     -10.010   9.675  64.492  1.00  0.00     0.396 C  
ENDROOT
BRANCH   2   4
HETATM    4  O   UNL     1     -10.373  11.947  65.169  1.00  0.00    -0.257 OA 
BRANCH   4   5
HETATM    5  C   UNL     1     -10.178  13.298  65.072  1.00  0.00    -0.297 C  
HETATM    6  O   UNL     1      -9.898  13.896  64.040  1.00  0.00     0.463 OA 
BRANCH   5   7
HETATM    7  C   UNL     1     -10.428  13.962  66.428  1.00  0.00    -0.284 C  
HETATM    8  C   UNL     1      -9.384  15.061  66.620  1.00  0.00    -0.290 C  
BRANCH   7   9
HETATM    9  N   UNL     1     -10.426  12.950  67.513  1.00  0.00    -0.222 NA 
HETATM   10  P   UNL     1      -8.938  12.174  67.757  1.00  0.00    -0.196 P  
HETATM   11  H   UNL     1     -11.162  12.261  67.357  1.00  0.00     0.000 HD 
HETATM   12  O   UNL     1      -9.171  11.133  69.028  1.00  0.00    -0.140 OA 
HETATM   13  O   UNL     1      -8.537  13.420  68.886  1.00  0.00     0.047 OA 
HETATM   14  O   UNL     1      -9.298  11.058  66.744  1.00  0.00    -0.176 OA 
BRANCH  13  15
HETATM   15  C   UNL     1      -7.681  14.412  68.481  1.00  0.00    -0.135 A  
HETATM   16  C   UNL     1      -5.788  16.318  67.747  1.00  0.00    -0.158 A  
HETATM   17  C   UNL     1      -6.406  14.009  68.090  1.00  0.00    -0.128 A  
HETATM   18  C   UNL     1      -8.028  15.763  68.472  1.00  0.00    -0.141 A  
HETATM   19  C   UNL     1      -5.455  14.964  67.728  1.00  0.00    -0.060 A  
HETATM   20  C   UNL     1      -7.074  16.716  68.110  1.00  0.00    -0.157 A  
ENDBRANCH  13  15
BRANCH  12  21
HETATM   21  C   UNL     1      -8.309   9.979  69.067  1.00  0.00    -0.134 C  
BRANCH  21  22
HETATM   22  C   UNL     1      -7.864   9.440  70.461  1.00  0.00    -0.164 C  
HETATM   23  O   UNL     1      -8.780   8.420  70.919  1.00  0.00    -0.134 OA 
HETATM   24  C   UNL     1      -6.644   7.567  71.432  1.00  0.00    -0.042 C  
HETATM   25  H   UNL     1      -4.587   9.243  71.083  1.00  0.00     0.000 HD 
HETATM   26  C   UNL     1      -6.461   8.790  70.518  1.00  0.00    -0.040 C  
HETATM   27  O   UNL     1      -5.449   9.641  71.048  1.00  0.00    -0.047 OA 
HETATM   28  F   UNL     1      -5.713   7.584  72.426  1.00  0.00    -0.037 F  
HETATM   29  C   UNL     1      -6.435   6.290  70.634  1.00  0.00    -0.044 C  
HETATM   30  C   UNL     1      -8.054   7.774  71.987  1.00  0.00    -0.106 C  
BRANCH  30  31
HETATM   31  N   UNL     1      -8.773   6.577  72.435  1.00  0.00    -0.126 N  
HETATM   32  C   UNL     1     -10.090   6.355  72.073  1.00  0.00    -0.178 C  
HETATM   33  C   UNL     1     -10.793   5.331  72.551  1.00  0.00    -0.301 C  
HETATM   34  C   UNL     1     -10.154   4.419  73.511  1.00  0.00    -0.150 C  
HETATM   35  O   UNL     1     -10.801   3.551  74.084  1.00  0.00    -0.200 OA 
HETATM   36  N   UNL     1      -8.821   4.620  73.717  1.00  0.00    -0.105 N  
HETATM   37  H   UNL     1      -8.321   3.908  74.250  1.00  0.00     0.000 HD 
HETATM   38  C   UNL     1      -8.094   5.694  73.271  1.00  0.00    -0.114 C  
HETATM   39  O   UNL     1      -6.932   5.842  73.631  1.00  0.00    -0.079 OA 
ENDBRANCH  30  31
ENDBRANCH  21  22
ENDBRANCH  12  21
ENDBRANCH   7   9
ENDBRANCH   5   7
ENDBRANCH   4   5
ENDBRANCH   2   4
TORSDOF 8
ENDMDL
MODEL      242
REMARK 921   NORMALIZED FREE ENERGY PREDICTED BY IDOCK:    6.91 KCAL/MOL
REMARK 922        TOTAL FREE ENERGY PREDICTED BY IDOCK:    7.59 KCAL/MOL
REMARK 923 INTER-LIGAND FREE ENERGY PREDICTED BY IDOCK:   -2.80 KCAL/MOL
REMARK 924 INTRA-LIGAND FREE ENERGY PREDICTED BY IDOCK:   10.39 KCAL/MOL
REMARK 927      BINDING AFFINITY PREDICTED BY RF-SCORE:    0.00 PKD
ROOT
HETATM    1  C   UNL     1     -12.713  12.488  62.555  1.00  0.00     1.731 C  
HETATM    2  C   UNL     1     -12.338  13.210  63.843  1.00  0.00    -0.365 C  
HETATM    3  C   UNL     1     -13.302  14.367  64.094  1.00  0.00     1.905 C  
ENDROOT
BRANCH   2   4
HETATM    4  O   UNL     1     -12.439  12.302  64.958  1.00  0.00    -0.535 OA 
BRANCH   4   5
HETATM    5  C   UNL     1     -11.274  12.024  65.618  1.00  0.00    -0.327 C  
HETATM    6  O   UNL     1     -11.198  11.615  66.770  1.00  0.00    -0.297 OA 
BRANCH   5   7
HETATM    7  C   UNL     1     -10.080  12.233  64.683  1.00  0.00    -0.250 C  
HETATM    8  C   UNL     1      -8.901  11.430  65.230  1.00  0.00     0.059 C  
BRANCH   7   9
HETATM    9  N   UNL     1      -9.787  13.679  64.526  1.00  0.00    -0.633 NA 
HETATM   10  P   UNL     1     -10.034  14.609  65.922  1.00  0.00    -0.328 P  
HETATM   11  H   UNL     1     -10.318  14.066  63.745  1.00  0.00     0.000 HD 
HETATM   12  O   UNL     1      -9.607  16.161  65.516  1.00  0.00    -0.447 OA 
HETATM   13  O   UNL     1      -8.388  14.298  66.352  1.00  0.00     0.223 OA 
HETATM   14  O   UNL     1     -11.508  14.887  65.537  1.00  0.00    -0.347 OA 
BRANCH  13  15
HETATM   15  C   UNL     1      -8.137  13.355  67.315  1.00  0.00    -0.137 A  
HETATM   16  C   UNL     1      -7.455  11.388  69.166  1.00  0.00    -0.057 A  
HETATM   17  C   UNL     1      -6.799  13.147  67.647  1.00  0.00    -0.160 A  
HETATM   18  C   UNL     1      -9.140  12.608  67.932  1.00  0.00    -0.200 A  
HETATM   19  C   UNL     1      -6.457  12.159  68.569  1.00  0.00    -0.059 A  
HETATM   20  C   UNL     1      -8.794  11.618  68.854  1.00  0.00     0.078 A  
ENDBRANCH  13  15
BRANCH  12  21
HETATM   21  C   UNL     1     -10.243  17.210  66.272  1.00  0.00    -0.334 C  
BRANCH  21  22
HETATM   22  C   UNL     1      -9.959  17.289  67.803  1.00  0.00    -0.301 C  
HETATM   23  O   UNL     1     -11.141  16.924  68.551  1.00  0.00    -0.327 OA 
HETATM   24  C   UNL     1      -9.376  15.833  69.668  1.00  0.00    -0.176 C  
HETATM   25  H   UNL     1      -6.902  16.462  68.868  1.00  0.00     0.000 HD 
HETATM   26  C   UNL     1      -8.836  16.366  68.331  1.00  0.00    -0.214 C  
HETATM   27  O   UNL     1      -7.592  17.029  68.544  1.00  0.00    -0.209 OA 
HETATM   28  F   UNL     1      -8.465  16.045  70.658  1.00  0.00     1.193 F  
HETATM   29  C   UNL     1      -9.605  14.333  69.573  1.00  0.00     0.436 C  
HETATM   30  C   UNL     1     -10.633  16.679  69.880  1.00  0.00    -0.168 C  
BRANCH  30  31
HETATM   31  N   UNL     1     -11.685  16.105  70.725  1.00  0.00    -0.360 N  
HETATM   32  C   UNL     1     -11.919  16.583  72.002  1.00  0.00    -0.202 C  
HETATM   33  C   UNL     1     -12.796  16.011  72.824  1.00  0.00    -0.527 C  
HETATM   34  C   UNL     1     -13.524  14.820  72.365  1.00  0.00    -0.428 C  
HETATM   35  O   UNL     1     -14.231  14.178  73.132  1.00  0.00    -0.013 OA 
HETATM   36  N   UNL     1     -13.343  14.487  71.055  1.00  0.00    -0.396 N  
HETATM   37  H   UNL     1     -13.954  13.766  70.670  1.00  0.00     0.000 HD 
HETATM   38  C   UNL     1     -12.411  15.034  70.210  1.00  0.00    -0.342 C  
HETATM   39  O   UNL     1     -12.243  14.563  69.092  1.00  0.00    -0.284 OA 
ENDBRANCH  30  31
ENDBRANCH  21  22
ENDBRANCH  12  21
ENDBRANCH   7   9
ENDBRANCH   5   7
ENDBRANCH   4   5
ENDBRANCH   2   4
TORSDOF 8
ENDMDL
MODEL      243
REMARK 921   NORMALIZED FREE ENERGY PREDICTED BY IDOCK:    7.04 KCAL/MOL
REMARK 922        TOTAL FREE ENERGY PREDICTED BY IDOCK:    7.78 KCAL/MOL
REMARK 923 INTER-LIGAND FREE ENERGY PREDICTED BY IDOCK:   -0.63 KCAL/MOL
REMARK 924 INTRA-LIGAND FREE ENERGY PREDICTED BY IDOCK:    8.41 KCAL/MOL
REMARK 927      BINDING AFFINITY PREDICTED BY RF-SCORE:    0.00 PKD
ROOT
HETATM    1  C   UNL     1     -11.594   8.975  67.442  1.00  0.00     2.060 C  
HETATM    2  C   UNL     1     -10.287   8.622  68.141  1.00  0.00    -0.216 C  
HETATM    3  C   UNL     1     -10.211   9.325  69.494  1.00  0.00    -0.214 C  
ENDROOT
BRANCH   2   4
HETATM    4  O   UNL     1     -10.228   7.202  68.379  1.00  0.00    -0.163 OA 
BRANCH   4   5
HETATM    5  C   UNL     1     -10.027   6.414  67.279  1.00  0.00    -0.146 C  
HETATM    6  O   UNL     1     -10.815   6.289  66.349  1.00  0.00    -0.139 OA 
BRANCH   5   7
HETATM    7  C   UNL     1      -8.642   5.765  67.346  1.00  0.00    -0.105 C  
HETATM    8  C   UNL     1      -8.173   5.794  68.801  1.00  0.00    -0.101 C  
BRANCH   7   9
HETATM    9  N   UNL     1      -7.705   6.437  66.412  1.00  0.00    -0.097 NA 
HETATM   10  P   UNL     1      -7.292   8.024  66.839  1.00  0.00    -0.092 P  
HETATM   11  H   UNL     1      -8.075   6.412  65.461  1.00  0.00     0.000 HD 
HETATM   12  O   UNL     1      -6.219   8.542  65.683  1.00  0.00    -0.048 OA 
HETATM   13  O   UNL     1      -5.965   7.376  67.740  1.00  0.00    -0.032 OA 
HETATM   14  O   UNL     1      -8.480   8.604  66.033  1.00  0.00    -0.126 OA 
BRANCH  13  15
HETATM   15  C   UNL     1      -6.085   7.295  69.104  1.00  0.00    -0.030 A  
HETATM   16  C   UNL     1      -6.319   6.925  71.854  1.00  0.00    -0.048 A  
HETATM   17  C   UNL     1      -5.362   6.284  69.732  1.00  0.00    -0.013 A  
HETATM   18  C   UNL     1      -6.899   8.148  69.850  1.00  0.00    -0.044 A  
HETATM   19  C   UNL     1      -5.483   6.094  71.109  1.00  0.00    -0.018 A  
HETATM   20  C   UNL     1      -7.018   7.955  71.228  1.00  0.00    -0.050 A  
ENDBRANCH  13  15
BRANCH  12  21
HETATM   21  C   UNL     1      -6.165   9.965  65.463  1.00  0.00    -0.084 C  
BRANCH  21  22
HETATM   22  C   UNL     1      -6.024  10.896  66.705  1.00  0.00    -0.087 C  
HETATM   23  O   UNL     1      -6.343  12.260  66.348  1.00  0.00     0.155 OA 
HETATM   24  C   UNL     1      -7.407  11.932  68.425  1.00  0.00    -0.095 C  
HETATM   25  H   UNL     1      -6.844   9.645  69.694  1.00  0.00     0.000 HD 
HETATM   26  C   UNL     1      -6.938  10.562  67.908  1.00  0.00    -0.077 C  
HETATM   27  O   UNL     1      -6.283   9.851  68.955  1.00  0.00    -0.041 OA 
HETATM   28  F   UNL     1      -7.165  12.036  69.761  1.00  0.00     0.045 F  
HETATM   29  C   UNL     1      -8.907  12.076  68.220  1.00  0.00    -0.182 C  
HETATM   30  C   UNL     1      -6.537  12.904  67.625  1.00  0.00    -0.155 C  
BRANCH  30  31
HETATM   31  N   UNL     1      -7.062  14.260  67.433  1.00  0.00    -0.159 N  
HETATM   32  C   UNL     1      -8.023  14.527  66.474  1.00  0.00     0.719 C  
HETATM   33  C   UNL     1      -8.438  15.764  66.211  1.00  0.00    -0.245 C  
HETATM   34  C   UNL     1      -7.840  16.884  66.952  1.00  0.00    -0.217 C  
HETATM   35  O   UNL     1      -8.085  18.044  66.647  1.00  0.00    -0.239 OA 
HETATM   36  N   UNL     1      -7.003  16.537  67.970  1.00  0.00    -0.139 N  
HETATM   37  H   UNL     1      -6.701  17.282  68.599  1.00  0.00     0.000 HD 
HETATM   38  C   UNL     1      -6.529  15.274  68.224  1.00  0.00    -0.112 C  
HETATM   39  O   UNL     1      -5.672  15.101  69.082  1.00  0.00    -0.097 OA 
ENDBRANCH  30  31
ENDBRANCH  21  22
ENDBRANCH  12  21
ENDBRANCH   7   9
ENDBRANCH   5   7
ENDBRANCH   4   5
ENDBRANCH   2   4
TORSDOF 8
ENDMDL
MODEL      244
REMARK 921   NORMALIZED FREE ENERGY PREDICTED BY IDOCK:    7.60 KCAL/MOL
REMARK 922        TOTAL FREE ENERGY PREDICTED BY IDOCK:    8.60 KCAL/MOL
REMARK 923 INTER-LIGAND FREE ENERGY PREDICTED BY IDOCK:   -2.15 KCAL/MOL
REMARK 924 INTRA-LIGAND FREE ENERGY PREDICTED BY IDOCK:   10.75 KCAL/MOL
REMARK 927      BINDING AFFINITY PREDICTED BY RF-SCORE:    0.00 PKD
ROOT
HETATM    1  C   UNL     1      -8.311   7.654  68.748  1.00  0.00    -0.129 C  
HETATM    2  C   UNL     1      -7.802   8.956  68.140  1.00  0.00    -0.101 C  
HETATM    3  C   UNL     1      -7.063   9.773  69.196  1.00  0.00    -0.067 C  
ENDROOT
BRANCH   2   4
HETATM    4  O   UNL     1      -6.874   8.667  67.076  1.00  0.00    -0.065 OA 
BRANCH   4   5
HETATM    5  C   UNL     1      -6.261   9.746  66.500  1.00  0.00    -0.068 C  
HETATM    6  O   UNL     1      -5.226   9.700  65.847  1.00  0.00    -0.035 OA 
BRANCH   5   7
HETATM    7  C   UNL     1      -7.095  11.008  66.734  1.00  0.00    -0.135 C  
HETATM    8  C   UNL     1      -6.153  12.125  67.182  1.00  0.00    -0.143 C  
BRANCH   7   9
HETATM    9  N   UNL     1      -8.191  10.738  67.697  1.00  0.00    -0.114 NA 
HETATM   10  P   UNL     1      -9.478  11.839  67.633  1.00  0.00    -0.190 P  
HETATM   11  H   UNL     1      -7.821  10.681  68.647  1.00  0.00     0.000 HD 
HETATM   12  O   UNL     1     -10.581  11.314  68.757  1.00  0.00    -0.188 OA 
HETATM   13  O   UNL     1     -10.225  10.810  66.460  1.00  0.00    -0.220 OA 
HETATM   14  O   UNL     1      -8.809  12.760  68.683  1.00  0.00    -0.083 OA 
BRANCH  13  15
HETATM   15  C   UNL     1     -10.160  11.178  65.141  1.00  0.00    -0.281 A  
HETATM   16  C   UNL     1     -10.065  11.726  62.412  1.00  0.00     1.143 A  
HETATM   17  C   UNL     1     -11.026  10.520  64.270  1.00  0.00     0.808 A  
HETATM   18  C   UNL     1      -9.270  12.138  64.659  1.00  0.00     0.451 A  
HETATM   19  C   UNL     1     -10.975  10.790  62.903  1.00  0.00     0.964 A  
HETATM   20  C   UNL     1      -9.221  12.405  63.289  1.00  0.00     1.224 A  
ENDBRANCH  13  15
BRANCH  12  21
HETATM   21  C   UNL     1     -11.445  12.323  69.315  1.00  0.00    -0.292 C  
BRANCH  21  22
HETATM   22  C   UNL     1     -11.724  13.602  68.469  1.00  0.00    -0.357 C  
HETATM   23  O   UNL     1     -10.856  14.679  68.886  1.00  0.00    -0.234 OA 
HETATM   24  C   UNL     1     -10.838  14.787  66.533  1.00  0.00    -0.319 C  
HETATM   25  H   UNL     1     -12.574  13.196  65.263  1.00  0.00     0.000 HD 
HETATM   26  C   UNL     1     -11.507  13.465  66.944  1.00  0.00    -0.342 C  
HETATM   27  O   UNL     1     -12.708  13.280  66.200  1.00  0.00    -0.336 OA 
HETATM   28  F   UNL     1     -11.519  15.353  65.498  1.00  0.00    -0.315 F  
HETATM   29  C   UNL     1      -9.419  14.523  66.053  1.00  0.00    -0.262 C  
HETATM   30  C   UNL     1     -10.957  15.629  67.804  1.00  0.00    -0.316 C  
BRANCH  30  31
HETATM   31  N   UNL     1      -9.976  16.705  67.982  1.00  0.00    -0.251 N  
HETATM   32  C   UNL     1     -10.150  17.939  67.381  1.00  0.00    -0.340 C  
HETATM   33  C   UNL     1      -9.225  18.894  67.443  1.00  0.00    -0.313 C  
HETATM   34  C   UNL     1      -7.969  18.619  68.157  1.00  0.00    -0.289 C  
HETATM   35  O   UNL     1      -7.036  19.410  68.118  1.00  0.00    -0.255 OA 
HETATM   36  N   UNL     1      -7.924  17.437  68.834  1.00  0.00    -0.231 N  
HETATM   37  H   UNL     1      -7.134  17.292  69.464  1.00  0.00     0.000 HD 
HETATM   38  C   UNL     1      -8.845  16.424  68.744  1.00  0.00    -0.246 C  
HETATM   39  O   UNL     1      -8.633  15.349  69.292  1.00  0.00    -0.224 OA 
ENDBRANCH  30  31
ENDBRANCH  21  22
ENDBRANCH  12  21
ENDBRANCH   7   9
ENDBRANCH   5   7
ENDBRANCH   4   5
ENDBRANCH   2   4
TORSDOF 8
ENDMDL
MODEL      245
REMARK 921   NORMALIZED FREE ENERGY PREDICTED BY IDOCK:    7.73 KCAL/MOL
REMARK 922        TOTAL FREE ENERGY PREDICTED BY IDOCK:    8.80 KCAL/MOL
REMARK 923 INTER-LIGAND FREE ENERGY PREDICTED BY IDOCK:    3.04 KCAL/MOL
REMARK 924 INTRA-LIGAND FREE ENERGY PREDICTED BY IDOCK:    5.76 KCAL/MOL
REMARK 927      BINDING AFFINITY PREDICTED BY RF-SCORE:    0.00 PKD
ROOT
HETATM    1  C   UNL     1      -9.965   6.287  64.410  1.00  0.00     3.136 C  
HETATM    2  C   UNL     1      -8.800   7.264  64.518  1.00  0.00     0.672 C  
HETATM    3  C   UNL     1      -9.197   8.618  63.934  1.00  0.00     0.882 C  
ENDROOT
BRANCH   2   4
HETATM    4  O   UNL     1      -8.458   7.464  65.903  1.00  0.00    -0.139 OA 
BRANCH   4   5
HETATM    5  C   UNL     1      -7.296   8.144  66.146  1.00  0.00    -0.070 C  
HETATM    6  O   UNL     1      -6.661   8.772  65.308  1.00  0.00    -0.066 OA 
BRANCH   5   7
HETATM    7  C   UNL     1      -6.943   8.063  67.633  1.00  0.00    -0.075 C  
HETATM    8  C   UNL     1      -7.123   6.614  68.087  1.00  0.00    -0.083 C  
BRANCH   7   9
HETATM    9  N   UNL     1      -7.751   9.031  68.416  1.00  0.00    -0.097 NA 
HETATM   10  P   UNL     1      -9.252   8.443  68.939  1.00  0.00    -0.146 P  
HETATM   11  H   UNL     1      -7.874   9.896  67.889  1.00  0.00     0.000 HD 
HETATM   12  O   UNL     1      -9.942   9.673  69.813  1.00  0.00    -0.198 OA 
HETATM   13  O   UNL     1      -8.470   7.894  70.381  1.00  0.00    -0.127 OA 
HETATM   14  O   UNL     1      -9.951   8.933  67.647  1.00  0.00    -0.172 OA 
BRANCH  13  15
HETATM   15  C   UNL     1      -8.178   6.559  70.493  1.00  0.00    -0.118 A  
HETATM   16  C   UNL     1      -7.764   3.808  70.621  1.00  0.00    -0.047 A  
HETATM   17  C   UNL     1      -8.555   5.749  69.423  1.00  0.00    -0.111 A  
HETATM   18  C   UNL     1      -7.560   6.004  71.614  1.00  0.00    -0.100 A  
HETATM   19  C   UNL     1      -8.354   4.371  69.489  1.00  0.00    -0.074 A  
HETATM   20  C   UNL     1      -7.361   4.623  71.677  1.00  0.00    -0.069 A  
ENDBRANCH  13  15
BRANCH  12  21
HETATM   21  C   UNL     1     -11.382   9.679  69.869  1.00  0.00    -0.159 C  
BRANCH  21  22
HETATM   22  C   UNL     1     -12.135  10.921  69.305  1.00  0.00    -0.261 C  
HETATM   23  O   UNL     1     -12.445  11.847  70.370  1.00  0.00    -0.253 OA 
HETATM   24  C   UNL     1     -11.689  13.213  68.606  1.00  0.00    -0.326 C  
HETATM   25  H   UNL     1     -11.300  11.999  66.254  1.00  0.00     0.000 HD 
HETATM   26  C   UNL     1     -11.371  11.753  68.247  1.00  0.00    -0.282 C  
HETATM   27  O   UNL     1     -11.769  11.489  66.904  1.00  0.00    -0.533 OA 
HETATM   28  F   UNL     1     -12.156  13.873  67.510  1.00  0.00    -0.386 F  
HETATM   29  C   UNL     1     -10.423  13.922  69.060  1.00  0.00    -0.147 C  
HETATM   30  C   UNL     1     -12.778  13.065  69.670  1.00  0.00     0.508 C  
BRANCH  30  31
HETATM   31  N   UNL     1     -12.931  14.170  70.622  1.00  0.00    -0.286 N  
HETATM   32  C   UNL     1     -13.048  13.934  71.981  1.00  0.00    -0.393 C  
HETATM   33  C   UNL     1     -13.291  14.911  72.852  1.00  0.00    -0.576 C  
HETATM   34  C   UNL     1     -13.459  16.282  72.349  1.00  0.00     0.358 C  
HETATM   35  O   UNL     1     -13.823  17.186  73.091  1.00  0.00     1.714 OA 
HETATM   36  N   UNL     1     -13.197  16.460  71.023  1.00  0.00     0.568 N  
HETATM   37  H   UNL     1     -13.150  17.421  70.683  1.00  0.00     0.000 HD 
HETATM   38  C   UNL     1     -12.993  15.460  70.104  1.00  0.00    -0.066 C  
HETATM   39  O   UNL     1     -12.903  15.730  68.913  1.00  0.00     0.564 OA 
ENDBRANCH  30  31
ENDBRANCH  21  22
ENDBRANCH  12  21
ENDBRANCH   7   9
ENDBRANCH   5   7
ENDBRANCH   4   5
ENDBRANCH   2   4
TORSDOF 8
ENDMDL
MODEL      246
REMARK 921   NORMALIZED FREE ENERGY PREDICTED BY IDOCK:    9.14 KCAL/MOL
REMARK 922        TOTAL FREE ENERGY PREDICTED BY IDOCK:   10.87 KCAL/MOL
REMARK 923 INTER-LIGAND FREE ENERGY PREDICTED BY IDOCK:    0.95 KCAL/MOL
REMARK 924 INTRA-LIGAND FREE ENERGY PREDICTED BY IDOCK:    9.91 KCAL/MOL
REMARK 927      BINDING AFFINITY PREDICTED BY RF-SCORE:    0.00 PKD
ROOT
HETATM    1  C   UNL     1     -11.356   8.753  66.411  1.00  0.00     2.560 C  
HETATM    2  C   UNL     1     -10.728   9.717  67.410  1.00  0.00    -0.249 C  
HETATM    3  C   UNL     1      -9.213   9.525  67.442  1.00  0.00    -0.152 C  
ENDROOT
BRANCH   2   4
HETATM    4  O   UNL     1     -10.991  11.076  67.008  1.00  0.00    -0.277 OA 
BRANCH   4   5
HETATM    5  C   UNL     1     -11.088  11.299  65.662  1.00  0.00    -0.072 C  
HETATM    6  O   UNL     1     -10.352  10.809  64.813  1.00  0.00    -0.321 OA 
BRANCH   5   7
HETATM    7  C   UNL     1     -12.293  12.195  65.364  1.00  0.00     0.081 C  
HETATM    8  C   UNL     1     -13.045  11.601  64.174  1.00  0.00     0.450 C  
BRANCH   7   9
HETATM    9  N   UNL     1     -11.860  13.598  65.149  1.00  0.00    -0.333 NA 
HETATM   10  P   UNL     1     -10.251  13.918  65.576  1.00  0.00    -0.297 P  
HETATM   11  H   UNL     1     -12.488  14.240  65.632  1.00  0.00     0.000 HD 
HETATM   12  O   UNL     1      -9.993  15.516  65.212  1.00  0.00    -0.320 OA 
HETATM   13  O   UNL     1      -9.799  13.504  63.959  1.00  0.00     0.046 OA 
HETATM   14  O   UNL     1     -10.657  14.286  67.025  1.00  0.00    -0.276 OA 
BRANCH  13  15
HETATM   15  C   UNL     1      -9.242  12.271  63.736  1.00  0.00     0.666 A  
HETATM   16  C   UNL     1      -7.933   9.842  63.360  1.00  0.00    -0.147 A  
HETATM   17  C   UNL     1      -8.307  11.834  64.672  1.00  0.00     1.310 A  
HETATM   18  C   UNL     1      -9.554  11.482  62.630  1.00  0.00    -0.074 A  
HETATM   19  C   UNL     1      -7.647  10.620  64.481  1.00  0.00     0.161 A  
HETATM   20  C   UNL     1      -8.891  10.267  62.441  1.00  0.00    -0.268 A  
ENDBRANCH  13  15
BRANCH  12  21
HETATM   21  C   UNL     1      -8.969  16.182  65.977  1.00  0.00    -0.298 C  
BRANCH  21  22
HETATM   22  C   UNL     1      -8.557  15.565  67.348  1.00  0.00    -0.178 C  
HETATM   23  O   UNL     1      -8.098  14.206  67.169  1.00  0.00    -0.182 OA 
HETATM   24  C   UNL     1      -6.558  15.153  68.680  1.00  0.00    -0.090 C  
HETATM   25  H   UNL     1      -7.158  17.588  69.610  1.00  0.00     0.000 HD 
HETATM   26  C   UNL     1      -7.414  16.290  68.099  1.00  0.00    -0.144 C  
HETATM   27  O   UNL     1      -7.860  17.143  69.149  1.00  0.00    -0.191 OA 
HETATM   28  F   UNL     1      -6.373  15.343  70.016  1.00  0.00    -0.145 F  
HETATM   29  C   UNL     1      -5.185  15.152  68.026  1.00  0.00    -0.127 C  
HETATM   30  C   UNL     1      -7.418  13.917  68.408  1.00  0.00    -0.117 C  
BRANCH  30  31
HETATM   31  N   UNL     1      -6.719  12.631  68.313  1.00  0.00    -0.073 N  
HETATM   32  C   UNL     1      -6.384  12.087  67.086  1.00  0.00    -0.149 C  
HETATM   33  C   UNL     1      -5.844  10.876  66.970  1.00  0.00    -0.064 C  
HETATM   34  C   UNL     1      -5.615  10.083  68.188  1.00  0.00    -0.038 C  
HETATM   35  O   UNL     1      -5.255   8.915  68.121  1.00  0.00    -0.034 OA 
HETATM   36  N   UNL     1      -5.843  10.733  69.364  1.00  0.00    -0.038 N  
HETATM   37  H   UNL     1      -5.542  10.264  70.220  1.00  0.00     0.000 HD 
HETATM   38  C   UNL     1      -6.442  11.960  69.501  1.00  0.00    -0.113 C  
HETATM   39  O   UNL     1      -6.721  12.387  70.615  1.00  0.00     0.446 OA 
ENDBRANCH  30  31
ENDBRANCH  21  22
ENDBRANCH  12  21
ENDBRANCH   7   9
ENDBRANCH   5   7
ENDBRANCH   4   5
ENDBRANCH   2   4
TORSDOF 8
ENDMDL
MODEL      247
REMARK 921   NORMALIZED FREE ENERGY PREDICTED BY IDOCK:    9.95 KCAL/MOL
REMARK 922        TOTAL FREE ENERGY PREDICTED BY IDOCK:   12.06 KCAL/MOL
REMARK 923 INTER-LIGAND FREE ENERGY PREDICTED BY IDOCK:   -0.38 KCAL/MOL
REMARK 924 INTRA-LIGAND FREE ENERGY PREDICTED BY IDOCK:   12.44 KCAL/MOL
REMARK 927      BINDING AFFINITY PREDICTED BY RF-SCORE:    0.00 PKD
ROOT
HETATM    1  C   UNL     1     -11.826   9.326  67.203  1.00  0.00     3.689 C  
HETATM    2  C   UNL     1     -10.404   9.454  67.738  1.00  0.00    -0.238 C  
HETATM    3  C   UNL     1     -10.391  10.341  68.981  1.00  0.00    -0.229 C  
ENDROOT
BRANCH   2   4
HETATM    4  O   UNL     1      -9.907   8.156  68.117  1.00  0.00    -0.158 OA 
BRANCH   4   5
HETATM    5  C   UNL     1      -9.189   7.483  67.167  1.00  0.00    -0.136 C  
HETATM    6  O   UNL     1      -9.192   7.742  65.970  1.00  0.00    -0.161 OA 
BRANCH   5   7
HETATM    7  C   UNL     1      -8.326   6.405  67.828  1.00  0.00    -0.118 C  
HETATM    8  C   UNL     1      -9.118   5.809  68.991  1.00  0.00    -0.123 C  
BRANCH   7   9
HETATM    9  N   UNL     1      -7.013   6.964  68.234  1.00  0.00    -0.077 NA 
HETATM   10  P   UNL     1      -7.066   8.556  68.813  1.00  0.00    -0.069 P  
HETATM   11  H   UNL     1      -6.344   6.889  67.466  1.00  0.00     0.000 HD 
HETATM   12  O   UNL     1      -5.508   8.939  69.235  1.00  0.00    -0.035 OA 
HETATM   13  O   UNL     1      -7.309   7.911  70.399  1.00  0.00    -0.065 OA 
HETATM   14  O   UNL     1      -6.851   9.133  67.392  1.00  0.00    -0.075 OA 
BRANCH  13  15
HETATM   15  C   UNL     1      -8.576   7.933  70.921  1.00  0.00    -0.128 A  
HETATM   16  C   UNL     1     -11.066   8.022  72.167  1.00  0.00    -0.372 A  
HETATM   17  C   UNL     1      -8.820   8.874  71.920  1.00  0.00    -0.122 A  
HETATM   18  C   UNL     1      -9.584   7.058  70.515  1.00  0.00    -0.169 A  
HETATM   19  C   UNL     1     -10.065   8.915  72.548  1.00  0.00     0.087 A  
HETATM   20  C   UNL     1     -10.829   7.101  71.147  1.00  0.00    -0.261 A  
ENDBRANCH  13  15
BRANCH  12  21
HETATM   21  C   UNL     1      -5.168  10.338  69.195  1.00  0.00    -0.038 C  
BRANCH  21  22
HETATM   22  C   UNL     1      -6.256  11.372  69.614  1.00  0.00    -0.118 C  
HETATM   23  O   UNL     1      -5.824  12.713  69.294  1.00  0.00    -0.075 OA 
HETATM   24  C   UNL     1      -8.087  12.652  68.638  1.00  0.00    -0.010 C  
HETATM   25  H   UNL     1      -9.460  10.464  69.335  1.00  0.00     0.000 HD 
HETATM   26  C   UNL     1      -7.638  11.212  68.937  1.00  0.00    -0.133 C  
HETATM   27  O   UNL     1      -8.611  10.563  69.750  1.00  0.00    -0.065 OA 
HETATM   28  F   UNL     1      -9.335  12.866  69.138  1.00  0.00     0.133 F  
HETATM   29  C   UNL     1      -8.154  12.871  67.135  1.00  0.00    -0.122 C  
HETATM   30  C   UNL     1      -7.040  13.487  69.379  1.00  0.00     0.112 C  
BRANCH  30  31
HETATM   31  N   UNL     1      -6.809  14.849  68.887  1.00  0.00    -0.098 N  
HETATM   32  C   UNL     1      -5.689  15.159  68.137  1.00  0.00    -0.133 C  
HETATM   33  C   UNL     1      -5.405  16.406  67.769  1.00  0.00    -0.142 C  
HETATM   34  C   UNL     1      -6.303  17.491  68.191  1.00  0.00    -0.173 C  
HETATM   35  O   UNL     1      -6.009  18.664  67.999  1.00  0.00    -0.191 OA 
HETATM   36  N   UNL     1      -7.452  17.097  68.810  1.00  0.00    -0.242 N  
HETATM   37  H   UNL     1      -8.163  17.812  68.969  1.00  0.00     0.000 HD 
HETATM   38  C   UNL     1      -7.738  15.825  69.238  1.00  0.00    -0.224 C  
HETATM   39  O   UNL     1      -8.743  15.613  69.906  1.00  0.00    -0.102 OA 
ENDBRANCH  30  31
ENDBRANCH  21  22
ENDBRANCH  12  21
ENDBRANCH   7   9
ENDBRANCH   5   7
ENDBRANCH   4   5
ENDBRANCH   2   4
TORSDOF 8
ENDMDL
MODEL      248
REMARK 921   NORMALIZED FREE ENERGY PREDICTED BY IDOCK:   10.25 KCAL/MOL
REMARK 922        TOTAL FREE ENERGY PREDICTED BY IDOCK:   12.49 KCAL/MOL
REMARK 923 INTER-LIGAND FREE ENERGY PREDICTED BY IDOCK:   -0.96 KCAL/MOL
REMARK 924 INTRA-LIGAND FREE ENERGY PREDICTED BY IDOCK:   13.45 KCAL/MOL
REMARK 927      BINDING AFFINITY PREDICTED BY RF-SCORE:    0.00 PKD
ROOT
HETATM    1  C   UNL     1      -9.796   5.876  63.534  1.00  0.00     2.538 C  
HETATM    2  C   UNL     1      -8.866   5.362  64.626  1.00  0.00     0.010 C  
HETATM    3  C   UNL     1      -7.659   6.287  64.763  1.00  0.00    -0.093 C  
ENDROOT
BRANCH   2   4
HETATM    4  O   UNL     1      -9.559   5.351  65.891  1.00  0.00    -0.155 OA 
BRANCH   4   5
HETATM    5  C   UNL     1      -9.364   6.441  66.695  1.00  0.00    -0.153 C  
HETATM    6  O   UNL     1      -8.270   6.894  67.012  1.00  0.00    -0.117 OA 
BRANCH   5   7
HETATM    7  C   UNL     1     -10.712   7.052  67.084  1.00  0.00    -0.363 C  
HETATM    8  C   UNL     1     -10.768   8.474  66.528  1.00  0.00     0.264 C  
BRANCH   7   9
HETATM    9  N   UNL     1     -10.911   6.985  68.553  1.00  0.00    -0.394 NA 
HETATM   10  P   UNL     1      -9.490   6.773  69.453  1.00  0.00    -0.145 P  
HETATM   11  H   UNL     1     -11.589   6.258  68.786  1.00  0.00     0.000 HD 
HETATM   12  O   UNL     1      -9.957   6.768  71.046  1.00  0.00    -0.182 OA 
HETATM   13  O   UNL     1      -9.348   8.495  69.528  1.00  0.00    -0.158 OA 
HETATM   14  O   UNL     1      -9.618   5.230  69.385  1.00  0.00    -0.133 OA 
BRANCH  13  15
HETATM   15  C   UNL     1      -8.445   9.107  68.697  1.00  0.00    -0.127 A  
HETATM   16  C   UNL     1      -6.762  10.365  66.868  1.00  0.00    -0.083 A  
HETATM   17  C   UNL     1      -8.940  10.123  67.882  1.00  0.00    -0.128 A  
HETATM   18  C   UNL     1      -7.101   8.740  68.628  1.00  0.00    -0.072 A  
HETATM   19  C   UNL     1      -8.099  10.749  66.962  1.00  0.00    -0.124 A  
HETATM   20  C   UNL     1      -6.262   9.368  67.705  1.00  0.00    -0.054 A  
ENDBRANCH  13  15
BRANCH  12  21
HETATM   21  C   UNL     1      -9.101   6.050  71.954  1.00  0.00    -0.141 C  
BRANCH  21  22
HETATM   22  C   UNL     1      -8.098   5.016  71.357  1.00  0.00    -0.112 C  
HETATM   23  O   UNL     1      -8.708   4.301  70.260  1.00  0.00    -0.074 OA 
HETATM   24  C   UNL     1      -6.531   4.794  69.504  1.00  0.00    -0.035 C  
HETATM   25  H   UNL     1      -4.857   5.831  71.315  1.00  0.00     0.000 HD 
HETATM   26  C   UNL     1      -6.783   5.600  70.789  1.00  0.00    -0.048 C  
HETATM   27  O   UNL     1      -5.665   5.473  71.664  1.00  0.00    -0.018 OA 
HETATM   28  F   UNL     1      -5.271   4.279  69.514  1.00  0.00    -0.006 F  
HETATM   29  C   UNL     1      -6.641   5.705  68.292  1.00  0.00    -0.049 C  
HETATM   30  C   UNL     1      -7.584   3.687  69.593  1.00  0.00    -0.051 C  
BRANCH  30  31
HETATM   31  N   UNL     1      -8.015   3.078  68.331  1.00  0.00    -0.057 N  
HETATM   32  C   UNL     1      -7.225   3.145  67.197  1.00  0.00    -0.058 C  
HETATM   33  C   UNL     1      -7.640   2.691  66.016  1.00  0.00    -0.072 C  
HETATM   34  C   UNL     1      -8.990   2.118  65.912  1.00  0.00    -0.106 C  
HETATM   35  O   UNL     1      -9.466   1.821  64.824  1.00  0.00    -0.127 OA 
HETATM   36  N   UNL     1      -9.657   1.963  67.091  1.00  0.00    -0.382 N  
HETATM   37  H   UNL     1     -10.524   1.426  67.067  1.00  0.00     0.000 HD 
HETATM   38  C   UNL     1      -9.265   2.466  68.306  1.00  0.00    -0.203 C  
HETATM   39  O   UNL     1     -10.012   2.384  69.274  1.00  0.00     0.244 OA 
ENDBRANCH  30  31
ENDBRANCH  21  22
ENDBRANCH  12  21
ENDBRANCH   7   9
ENDBRANCH   5   7
ENDBRANCH   4   5
ENDBRANCH   2   4
TORSDOF 8
ENDMDL
MODEL      249
REMARK 921   NORMALIZED FREE ENERGY PREDICTED BY IDOCK:   11.96 KCAL/MOL
REMARK 922        TOTAL FREE ENERGY PREDICTED BY IDOCK:   15.00 KCAL/MOL
REMARK 923 INTER-LIGAND FREE ENERGY PREDICTED BY IDOCK:    5.96 KCAL/MOL
REMARK 924 INTRA-LIGAND FREE ENERGY PREDICTED BY IDOCK:    9.04 KCAL/MOL
REMARK 927      BINDING AFFINITY PREDICTED BY RF-SCORE:    0.00 PKD
ROOT
HETATM    1  C   UNL     1     -11.246  11.603  67.179  1.00  0.00    -0.371 C  
HETATM    2  C   UNL     1     -11.355  12.672  66.098  1.00  0.00    -0.330 C  
HETATM    3  C   UNL     1     -12.470  13.656  66.447  1.00  0.00    -0.377 C  
ENDROOT
BRANCH   2   4
HETATM    4  O   UNL     1     -10.122  13.413  66.019  1.00  0.00    -0.293 OA 
BRANCH   4   5
HETATM    5  C   UNL     1     -10.233  14.739  65.701  1.00  0.00    -0.358 C  
HETATM    6  O   UNL     1      -9.747  15.266  64.707  1.00  0.00    -0.029 OA 
BRANCH   5   7
HETATM    7  C   UNL     1     -11.113  15.452  66.730  1.00  0.00    -0.244 C  
HETATM    8  C   UNL     1     -11.591  16.768  66.117  1.00  0.00     1.304 C  
BRANCH   7   9
HETATM    9  N   UNL     1     -10.381  15.629  68.009  1.00  0.00    -0.241 NA 
HETATM   10  P   UNL     1      -8.921  16.481  67.880  1.00  0.00    -0.210 P  
HETATM   11  H   UNL     1     -10.225  14.725  68.455  1.00  0.00     0.000 HD 
HETATM   12  O   UNL     1      -8.317  16.583  69.422  1.00  0.00    -0.141 OA 
HETATM   13  O   UNL     1      -9.811  17.937  68.160  1.00  0.00    -0.300 OA 
HETATM   14  O   UNL     1      -8.125  15.176  67.627  1.00  0.00    -0.140 OA 
BRANCH  13  15
HETATM   15  C   UNL     1     -10.097  18.739  67.086  1.00  0.00    -0.354 A  
HETATM   16  C   UNL     1     -10.472  20.401  64.883  1.00  0.00     0.964 A  
HETATM   17  C   UNL     1      -9.197  18.697  66.023  1.00  0.00     0.002 A  
HETATM   18  C   UNL     1     -11.206  19.584  67.038  1.00  0.00    -0.068 A  
HETATM   19  C   UNL     1      -9.382  19.533  64.922  1.00  0.00     2.750 A  
HETATM   20  C   UNL     1     -11.387  20.420  65.934  1.00  0.00     1.218 A  
ENDBRANCH  13  15
BRANCH  12  21
HETATM   21  C   UNL     1      -6.887  16.716  69.533  1.00  0.00    -0.157 C  
BRANCH  21  22
HETATM   22  C   UNL     1      -6.008  15.457  69.266  1.00  0.00    -0.110 C  
HETATM   23  O   UNL     1      -6.309  14.422  70.228  1.00  0.00    -0.168 OA 
HETATM   24  C   UNL     1      -6.148  13.285  68.170  1.00  0.00    -0.108 C  
HETATM   25  H   UNL     1      -5.264  14.720  66.092  1.00  0.00     0.000 HD 
HETATM   26  C   UNL     1      -6.181  14.794  67.879  1.00  0.00    -0.157 C  
HETATM   27  O   UNL     1      -5.158  15.127  66.944  1.00  0.00     0.192 OA 
HETATM   28  F   UNL     1      -5.228  12.675  67.372  1.00  0.00    -0.094 F  
HETATM   29  C   UNL     1      -7.502  12.667  67.858  1.00  0.00    -0.124 C  
HETATM   30  C   UNL     1      -5.726  13.239  69.640  1.00  0.00    -0.107 C  
BRANCH  30  31
HETATM   31  N   UNL     1      -6.115  12.050  70.405  1.00  0.00    -0.111 N  
HETATM   32  C   UNL     1      -6.712  10.965  69.788  1.00  0.00    -0.144 C  
HETATM   33  C   UNL     1      -7.166   9.920  70.476  1.00  0.00    -0.099 C  
HETATM   34  C   UNL     1      -7.047   9.930  71.941  1.00  0.00     1.465 C  
HETATM   35  O   UNL     1      -7.577   9.061  72.623  1.00  0.00    -0.336 OA 
HETATM   36  N   UNL     1      -6.332  10.964  72.467  1.00  0.00     2.460 N  
HETATM   37  H   UNL     1      -6.098  10.911  73.459  1.00  0.00     0.000 HD 
HETATM   38  C   UNL     1      -5.898  12.070  71.780  1.00  0.00     1.156 C  
HETATM   39  O   UNL     1      -5.382  13.004  72.383  1.00  0.00    -0.384 OA 
ENDBRANCH  30  31
ENDBRANCH  21  22
ENDBRANCH  12  21
ENDBRANCH   7   9
ENDBRANCH   5   7
ENDBRANCH   4   5
ENDBRANCH   2   4
TORSDOF 8
ENDMDL
MODEL      250
REMARK 921   NORMALIZED FREE ENERGY PREDICTED BY IDOCK:   12.19 KCAL/MOL
REMARK 922        TOTAL FREE ENERGY PREDICTED BY IDOCK:   15.34 KCAL/MOL
REMARK 923 INTER-LIGAND FREE ENERGY PREDICTED BY IDOCK:    2.05 KCAL/MOL
REMARK 924 INTRA-LIGAND FREE ENERGY PREDICTED BY IDOCK:   13.29 KCAL/MOL
REMARK 927      BINDING AFFINITY PREDICTED BY RF-SCORE:    0.00 PKD
ROOT
HETATM    1  C   UNL     1      -8.460   9.255  69.015  1.00  0.00    -0.132 C  
HETATM    2  C   UNL     1      -8.443   7.736  69.137  1.00  0.00    -0.138 C  
HETATM    3  C   UNL     1      -7.120   7.275  69.745  1.00  0.00    -0.072 C  
ENDROOT
BRANCH   2   4
HETATM    4  O   UNL     1      -9.504   7.305  70.012  1.00  0.00    -0.161 OA 
BRANCH   4   5
HETATM    5  C   UNL     1     -10.778   7.576  69.593  1.00  0.00    -0.230 C  
HETATM    6  O   UNL     1     -11.781   6.975  69.960  1.00  0.00    -0.233 OA 
BRANCH   5   7
HETATM    7  C   UNL     1     -10.775   8.785  68.654  1.00  0.00    -0.068 C  
HETATM    8  C   UNL     1     -10.975   8.278  67.226  1.00  0.00     0.095 C  
BRANCH   7   9
HETATM    9  N   UNL     1      -9.535   9.580  68.831  1.00  0.00    -0.152 NA 
HETATM   10  P   UNL     1      -9.727  11.251  68.621  1.00  0.00    -0.128 P  
HETATM   11  H   UNL     1      -8.799   9.229  68.217  1.00  0.00     0.000 HD 
HETATM   12  O   UNL     1      -8.234  11.919  68.904  1.00  0.00    -0.050 OA 
HETATM   13  O   UNL     1     -10.070  11.366  70.312  1.00  0.00     1.214 OA 
HETATM   14  O   UNL     1      -9.421  11.147  67.106  1.00  0.00    -0.170 OA 
BRANCH  13  15
HETATM   15  C   UNL     1     -11.377  11.507  70.701  1.00  0.00     0.603 A  
HETATM   16  C   UNL     1     -14.030  11.982  71.401  1.00  0.00     1.493 A  
HETATM   17  C   UNL     1     -12.215  12.194  69.824  1.00  0.00    -0.212 A  
HETATM   18  C   UNL     1     -11.869  11.024  71.913  1.00  0.00     1.297 A  
HETATM   19  C   UNL     1     -13.542  12.437  70.177  1.00  0.00     2.534 A  
HETATM   20  C   UNL     1     -13.198  11.270  72.264  1.00  0.00    -0.071 A  
ENDBRANCH  13  15
BRANCH  12  21
HETATM   21  C   UNL     1      -7.970  13.176  68.253  1.00  0.00    -0.148 C  
BRANCH  21  22
HETATM   22  C   UNL     1      -8.302  14.489  69.024  1.00  0.00    -0.061 C  
HETATM   23  O   UNL     1      -7.434  15.560  68.590  1.00  0.00    -0.120 OA 
HETATM   24  C   UNL     1      -9.566  16.553  68.735  1.00  0.00    -0.248 C  
HETATM   25  H   UNL     1     -11.495  15.059  69.832  1.00  0.00     0.000 HD 
HETATM   26  C   UNL     1      -9.742  15.030  68.851  1.00  0.00    -0.224 C  
HETATM   27  O   UNL     1     -10.611  14.727  69.939  1.00  0.00    -0.176 OA 
HETATM   28  F   UNL     1     -10.375  17.186  69.629  1.00  0.00    -0.266 F  
HETATM   29  C   UNL     1      -9.973  17.016  67.345  1.00  0.00    -0.278 C  
HETATM   30  C   UNL     1      -8.090  16.746  69.088  1.00  0.00    -0.109 C  
BRANCH  30  31
HETATM   31  N   UNL     1      -7.433  17.946  68.560  1.00  0.00    -0.262 N  
HETATM   32  C   UNL     1      -8.119  18.847  67.765  1.00  0.00    -0.259 C  
HETATM   33  C   UNL     1      -7.518  19.887  67.191  1.00  0.00    -0.292 C  
HETATM   34  C   UNL     1      -6.073  20.071  67.394  1.00  0.00    -0.184 C  
HETATM   35  O   UNL     1      -5.453  20.925  66.773  1.00  0.00    -0.169 OA 
HETATM   36  N   UNL     1      -5.493  19.226  68.293  1.00  0.00    -0.189 N  
HETATM   37  H   UNL     1      -4.533  19.432  68.571  1.00  0.00     0.000 HD 
HETATM   38  C   UNL     1      -6.084  18.123  68.856  1.00  0.00    -0.209 C  
HETATM   39  O   UNL     1      -5.423  17.357  69.546  1.00  0.00    -0.173 OA 
ENDBRANCH  30  31
ENDBRANCH  21  22
ENDBRANCH  12  21
ENDBRANCH   7   9
ENDBRANCH   5   7
ENDBRANCH   4   5
ENDBRANCH   2   4
TORSDOF 8
ENDMDL
MODEL      251
REMARK 921   NORMALIZED FREE ENERGY PREDICTED BY IDOCK:   12.46 KCAL/MOL
REMARK 922        TOTAL FREE ENERGY PREDICTED BY IDOCK:   15.73 KCAL/MOL
REMARK 923 INTER-LIGAND FREE ENERGY PREDICTED BY IDOCK:    5.92 KCAL/MOL
REMARK 924 INTRA-LIGAND FREE ENERGY PREDICTED BY IDOCK:    9.82 KCAL/MOL
REMARK 927      BINDING AFFINITY PREDICTED BY RF-SCORE:    0.00 PKD
ROOT
HETATM    1  C   UNL     1     -11.634  18.004  71.752  1.00  0.00     4.041 C  
HETATM    2  C   UNL     1     -11.914  16.867  70.777  1.00  0.00     1.642 C  
HETATM    3  C   UNL     1     -12.285  17.431  69.408  1.00  0.00     4.196 C  
ENDROOT
BRANCH   2   4
HETATM    4  O   UNL     1     -10.730  16.061  70.616  1.00  0.00    -0.229 OA 
BRANCH   4   5
HETATM    5  C   UNL     1      -9.980  16.307  69.498  1.00  0.00    -0.190 C  
HETATM    6  O   UNL     1      -9.358  17.341  69.283  1.00  0.00    -0.089 OA 
BRANCH   5   7
HETATM    7  C   UNL     1      -9.974  15.076  68.589  1.00  0.00    -0.220 C  
HETATM    8  C   UNL     1     -11.379  14.904  68.012  1.00  0.00    -0.337 C  
BRANCH   7   9
HETATM    9  N   UNL     1      -9.490  13.884  69.328  1.00  0.00    -0.277 NA 
HETATM   10  P   UNL     1      -8.003  13.271  68.792  1.00  0.00     0.214 P  
HETATM   11  H   UNL     1     -10.199  13.150  69.319  1.00  0.00     0.000 HD 
HETATM   12  O   UNL     1      -7.657  11.985  69.782  1.00  0.00     0.561 OA 
HETATM   13  O   UNL     1      -7.227  14.320  69.927  1.00  0.00     0.015 OA 
HETATM   14  O   UNL     1      -8.700  12.334  67.774  1.00  0.00    -0.157 OA 
BRANCH  13  15
HETATM   15  C   UNL     1      -6.650  15.471  69.457  1.00  0.00    -0.172 A  
HETATM   16  C   UNL     1      -5.412  17.700  68.336  1.00  0.00    -0.150 A  
HETATM   17  C   UNL     1      -6.675  15.659  68.076  1.00  0.00    -0.148 A  
HETATM   18  C   UNL     1      -6.039  16.412  70.285  1.00  0.00     0.005 A  
HETATM   19  C   UNL     1      -6.050  16.772  67.514  1.00  0.00    -0.179 A  
HETATM   20  C   UNL     1      -5.413  17.525  69.719  1.00  0.00    -0.217 A  
ENDBRANCH  13  15
BRANCH  12  21
HETATM   21  C   UNL     1      -6.809  10.965  69.221  1.00  0.00    -0.105 C  
BRANCH  21  22
HETATM   22  C   UNL     1      -7.228  10.325  67.862  1.00  0.00    -0.085 C  
HETATM   23  O   UNL     1      -7.196   8.884  67.955  1.00  0.00    -0.081 OA 
HETATM   24  C   UNL     1      -9.186   9.354  66.784  1.00  0.00    -0.143 C  
HETATM   25  H   UNL     1      -9.552  11.900  66.047  1.00  0.00     0.000 HD 
HETATM   26  C   UNL     1      -8.649  10.674  67.360  1.00  0.00    -0.122 C  
HETATM   27  O   UNL     1      -8.679  11.685  66.356  1.00  0.00    -0.192 OA 
HETATM   28  F   UNL     1      -9.641   9.548  65.515  1.00  0.00    -0.273 F  
HETATM   29  C   UNL     1     -10.358   8.863  67.618  1.00  0.00    -0.313 C  
HETATM   30  C   UNL     1      -7.946   8.457  66.798  1.00  0.00    -0.098 C  
BRANCH  30  31
HETATM   31  N   UNL     1      -8.176   7.009  66.850  1.00  0.00    -0.115 N  
HETATM   32  C   UNL     1      -7.950   6.208  65.745  1.00  0.00    -0.115 C  
HETATM   33  C   UNL     1      -8.249   4.911  65.737  1.00  0.00    -0.113 C  
HETATM   34  C   UNL     1      -8.857   4.316  66.936  1.00  0.00    -0.116 C  
HETATM   35  O   UNL     1      -9.279   3.166  66.925  1.00  0.00    -0.164 OA 
HETATM   36  N   UNL     1      -8.926   5.131  68.027  1.00  0.00    -0.109 N  
HETATM   37  H   UNL     1      -9.194   4.700  68.912  1.00  0.00     0.000 HD 
HETATM   38  C   UNL     1      -8.667   6.478  68.040  1.00  0.00    -0.116 C  
HETATM   39  O   UNL     1      -8.894   7.138  69.047  1.00  0.00    -0.132 OA 
ENDBRANCH  30  31
ENDBRANCH  21  22
ENDBRANCH  12  21
ENDBRANCH   7   9
ENDBRANCH   5   7
ENDBRANCH   4   5
ENDBRANCH   2   4
TORSDOF 8
ENDMDL
MODEL      252
REMARK 921   NORMALIZED FREE ENERGY PREDICTED BY IDOCK:   14.79 KCAL/MOL
REMARK 922        TOTAL FREE ENERGY PREDICTED BY IDOCK:   19.15 KCAL/MOL
REMARK 923 INTER-LIGAND FREE ENERGY PREDICTED BY IDOCK:    3.04 KCAL/MOL
REMARK 924 INTRA-LIGAND FREE ENERGY PREDICTED BY IDOCK:   16.11 KCAL/MOL
REMARK 927      BINDING AFFINITY PREDICTED BY RF-SCORE:    0.00 PKD
ROOT
HETATM    1  C   UNL     1      -8.424  10.145  65.646  1.00  0.00    -0.159 C  
HETATM    2  C   UNL     1      -9.682   9.423  65.180  1.00  0.00    -0.036 C  
HETATM    3  C   UNL     1      -9.639   7.961  65.620  1.00  0.00     0.382 C  
ENDROOT
BRANCH   2   4
HETATM    4  O   UNL     1     -10.844  10.029  65.781  1.00  0.00     0.130 OA 
BRANCH   4   5
HETATM    5  C   UNL     1     -11.021  11.364  65.537  1.00  0.00    -0.183 C  
HETATM    6  O   UNL     1     -11.053  11.877  64.425  1.00  0.00    -0.306 OA 
BRANCH   5   7
HETATM    7  C   UNL     1     -11.244  12.112  66.854  1.00  0.00    -0.320 C  
HETATM    8  C   UNL     1     -10.184  13.207  66.964  1.00  0.00    -0.250 C  
BRANCH   7   9
HETATM    9  N   UNL     1     -11.237  11.167  67.998  1.00  0.00    -0.272 NA 
HETATM   10  P   UNL     1     -10.109   9.908  67.873  1.00  0.00    -0.198 P  
HETATM   11  H   UNL     1     -12.173  10.789  68.151  1.00  0.00     0.000 HD 
HETATM   12  O   UNL     1     -10.261   9.021  69.267  1.00  0.00    -0.193 OA 
HETATM   13  O   UNL     1      -8.967  10.927  68.677  1.00  0.00    -0.150 OA 
HETATM   14  O   UNL     1     -11.133   8.996  67.151  1.00  0.00     0.016 OA 
BRANCH  13  15
HETATM   15  C   UNL     1      -8.003  11.543  67.921  1.00  0.00    -0.126 A  
HETATM   16  C   UNL     1      -5.904  12.716  66.515  1.00  0.00     1.391 A  
HETATM   17  C   UNL     1      -6.802  10.855  67.765  1.00  0.00    -0.072 A  
HETATM   18  C   UNL     1      -8.174  12.803  67.346  1.00  0.00    -0.186 A  
HETATM   19  C   UNL     1      -5.748  11.444  67.066  1.00  0.00    -0.106 A  
HETATM   20  C   UNL     1      -7.117  13.390  66.648  1.00  0.00     1.484 A  
ENDBRANCH  13  15
BRANCH  12  21
HETATM   21  C   UNL     1      -9.879   7.634  69.180  1.00  0.00    -0.171 C  
BRANCH  21  22
HETATM   22  C   UNL     1      -9.209   6.976  70.423  1.00  0.00    -0.156 C  
HETATM   23  O   UNL     1     -10.184   6.227  71.182  1.00  0.00    -0.191 OA 
HETATM   24  C   UNL     1      -8.286   4.833  71.127  1.00  0.00    -0.104 C  
HETATM   25  H   UNL     1      -6.056   5.910  70.114  1.00  0.00     0.000 HD 
HETATM   26  C   UNL     1      -8.064   5.978  70.125  1.00  0.00    -0.114 C  
HETATM   27  O   UNL     1      -6.759   6.523  70.297  1.00  0.00    -0.047 OA 
HETATM   28  F   UNL     1      -7.138   4.588  71.818  1.00  0.00    -0.046 F  
HETATM   29  C   UNL     1      -8.651   3.557  70.384  1.00  0.00    -0.107 C  
HETATM   30  C   UNL     1      -9.375   5.397  72.042  1.00  0.00    -0.144 C  
BRANCH  30  31
HETATM   31  N   UNL     1     -10.218   4.425  72.747  1.00  0.00    -0.170 N  
HETATM   32  C   UNL     1      -9.724   3.683  73.805  1.00  0.00    -0.104 C  
HETATM   33  C   UNL     1     -10.437   2.724  74.391  1.00  0.00    -0.213 C  
HETATM   34  C   UNL     1     -11.785   2.432  73.884  1.00  0.00     0.154 C  
HETATM   35  O   UNL     1     -12.419   1.469  74.296  1.00  0.00     0.284 OA 
HETATM   36  N   UNL     1     -12.255   3.288  72.933  1.00  0.00     0.888 N  
HETATM   37  H   UNL     1     -13.240   3.207  72.679  1.00  0.00     0.000 HD 
HETATM   38  C   UNL     1     -11.520   4.250  72.285  1.00  0.00     0.795 C  
HETATM   39  O   UNL     1     -12.009   4.871  71.350  1.00  0.00     1.640 OA 
ENDBRANCH  30  31
ENDBRANCH  21  22
ENDBRANCH  12  21
ENDBRANCH   7   9
ENDBRANCH   5   7
ENDBRANCH   4   5
ENDBRANCH   2   4
TORSDOF 8
ENDMDL
MODEL      253
REMARK 921   NORMALIZED FREE ENERGY PREDICTED BY IDOCK:   14.88 KCAL/MOL
REMARK 922        TOTAL FREE ENERGY PREDICTED BY IDOCK:   19.29 KCAL/MOL
REMARK 923 INTER-LIGAND FREE ENERGY PREDICTED BY IDOCK:   10.80 KCAL/MOL
REMARK 924 INTRA-LIGAND FREE ENERGY PREDICTED BY IDOCK:    8.49 KCAL/MOL
REMARK 927      BINDING AFFINITY PREDICTED BY RF-SCORE:    0.00 PKD
ROOT
HETATM    1  C   UNL     1      -9.351  15.895  69.993  1.00  0.00     0.370 C  
HETATM    2  C   UNL     1      -8.186  15.844  70.975  1.00  0.00     3.777 C  
HETATM    3  C   UNL     1      -7.263  14.677  70.632  1.00  0.00     0.758 C  
ENDROOT
BRANCH   2   4
HETATM    4  O   UNL     1      -7.415  17.058  70.881  1.00  0.00     3.417 OA 
BRANCH   4   5
HETATM    5  C   UNL     1      -7.682  17.861  69.806  1.00  0.00     0.961 C  
HETATM    6  O   UNL     1      -8.716  18.496  69.641  1.00  0.00     0.506 OA 
BRANCH   5   7
HETATM    7  C   UNL     1      -6.469  17.904  68.872  1.00  0.00    -0.228 C  
HETATM    8  C   UNL     1      -6.877  18.641  67.597  1.00  0.00    -0.210 C  
BRANCH   7   9
HETATM    9  N   UNL     1      -5.953  16.535  68.623  1.00  0.00    -0.130 NA 
HETATM   10  P   UNL     1      -6.506  15.817  67.191  1.00  0.00     0.289 P  
HETATM   11  H   UNL     1      -6.153  15.931  69.421  1.00  0.00     0.000 HD 
HETATM   12  O   UNL     1      -5.771  14.331  67.114  1.00  0.00    -0.152 OA 
HETATM   13  O   UNL     1      -5.138  16.505  66.386  1.00  0.00    -0.305 OA 
HETATM   14  O   UNL     1      -7.731  15.203  67.912  1.00  0.00    -0.117 OA 
BRANCH  13  15
HETATM   15  C   UNL     1      -5.333  17.623  65.617  1.00  0.00    -0.033 A  
HETATM   16  C   UNL     1      -5.868  19.960  64.198  1.00  0.00    -0.316 A  
HETATM   17  C   UNL     1      -5.568  18.814  66.302  1.00  0.00    -0.181 A  
HETATM   18  C   UNL     1      -5.329  17.601  64.222  1.00  0.00     1.367 A  
HETATM   19  C   UNL     1      -5.841  19.983  65.592  1.00  0.00    -0.204 A  
HETATM   20  C   UNL     1      -5.604  18.774  63.515  1.00  0.00     0.107 A  
ENDBRANCH  13  15
BRANCH  12  21
HETATM   21  C   UNL     1      -6.470  13.318  66.364  1.00  0.00     3.001 C  
BRANCH  21  22
HETATM   22  C   UNL     1      -6.208  11.824  66.725  1.00  0.00    -0.094 C  
HETATM   23  O   UNL     1      -7.038  11.424  67.837  1.00  0.00    -0.071 OA 
HETATM   24  C   UNL     1      -7.162   9.617  66.330  1.00  0.00    -0.094 C  
HETATM   25  H   UNL     1      -5.511   9.716  64.227  1.00  0.00     0.000 HD 
HETATM   26  C   UNL     1      -6.497  10.797  65.604  1.00  0.00    -0.042 C  
HETATM   27  O   UNL     1      -5.334  10.347  64.915  1.00  0.00    -0.102 OA 
HETATM   28  F   UNL     1      -6.520   8.456  66.021  1.00  0.00    -0.050 F  
HETATM   29  C   UNL     1      -8.605   9.474  65.873  1.00  0.00    -0.144 C  
HETATM   30  C   UNL     1      -6.971   9.982  67.803  1.00  0.00    -0.085 C  
BRANCH  30  31
HETATM   31  N   UNL     1      -7.925   9.408  68.758  1.00  0.00    -0.091 N  
HETATM   32  C   UNL     1      -8.761   8.367  68.397  1.00  0.00    -0.136 C  
HETATM   33  C   UNL     1      -9.705   7.900  69.212  1.00  0.00    -0.159 C  
HETATM   34  C   UNL     1      -9.876   8.527  70.531  1.00  0.00    -0.180 C  
HETATM   35  O   UNL     1     -10.818   8.228  71.253  1.00  0.00    -0.226 OA 
HETATM   36  N   UNL     1      -8.934   9.453  70.869  1.00  0.00    -0.206 N  
HETATM   37  H   UNL     1      -8.935   9.785  71.834  1.00  0.00     0.000 HD 
HETATM   38  C   UNL     1      -7.986   9.978  70.027  1.00  0.00    -0.150 C  
HETATM   39  O   UNL     1      -7.278  10.905  70.401  1.00  0.00    -0.051 OA 
ENDBRANCH  30  31
ENDBRANCH  21  22
ENDBRANCH  12  21
ENDBRANCH   7   9
ENDBRANCH   5   7
ENDBRANCH   4   5
ENDBRANCH   2   4
TORSDOF 8
ENDMDL
MODEL      254
REMARK 921   NORMALIZED FREE ENERGY PREDICTED BY IDOCK:   15.92 KCAL/MOL
REMARK 922        TOTAL FREE ENERGY PREDICTED BY IDOCK:   20.81 KCAL/MOL
REMARK 923 INTER-LIGAND FREE ENERGY PREDICTED BY IDOCK:   15.94 KCAL/MOL
REMARK 924 INTRA-LIGAND FREE ENERGY PREDICTED BY IDOCK:    4.87 KCAL/MOL
REMARK 927      BINDING AFFINITY PREDICTED BY RF-SCORE:    0.00 PKD
ROOT
HETATM    1  C   UNL     1      -8.959   2.812  68.673  1.00  0.00    -0.188 C  
HETATM    2  C   UNL     1      -8.770   3.073  70.162  1.00  0.00    -0.071 C  
HETATM    3  C   UNL     1      -7.323   2.794  70.562  1.00  0.00    -0.037 C  
ENDROOT
BRANCH   2   4
HETATM    4  O   UNL     1      -9.048   4.457  70.454  1.00  0.00    -0.093 OA 
BRANCH   4   5
HETATM    5  C   UNL     1      -8.540   5.374  69.575  1.00  0.00    -0.103 C  
HETATM    6  O   UNL     1      -7.612   5.167  68.802  1.00  0.00    -0.076 OA 
BRANCH   5   7
HETATM    7  C   UNL     1      -9.345   6.673  69.648  1.00  0.00    -0.143 C  
HETATM    8  C   UNL     1     -10.757   6.331  70.122  1.00  0.00    -0.346 C  
BRANCH   7   9
HETATM    9  N   UNL     1      -9.315   7.380  68.344  1.00  0.00    -0.144 NA 
HETATM   10  P   UNL     1     -10.032   8.917  68.353  1.00  0.00    -0.189 P  
HETATM   11  H   UNL     1      -9.734   6.800  67.617  1.00  0.00     0.000 HD 
HETATM   12  O   UNL     1      -9.842   9.516  66.817  1.00  0.00    -0.187 OA 
HETATM   13  O   UNL     1      -8.487   9.572  68.771  1.00  0.00    -0.118 OA 
HETATM   14  O   UNL     1     -11.415   8.329  67.980  1.00  0.00     0.746 OA 
BRANCH  13  15
HETATM   15  C   UNL     1      -8.266   9.931  70.076  1.00  0.00    -0.168 A  
HETATM   16  C   UNL     1      -7.619  10.694  72.675  1.00  0.00     7.836 A  
HETATM   17  C   UNL     1      -7.351  10.960  70.291  1.00  0.00     0.646 A  
HETATM   18  C   UNL     1      -8.888   9.304  71.155  1.00  0.00    -0.139 A  
HETATM   19  C   UNL     1      -7.023  11.338  71.592  1.00  0.00     4.512 A  
HETATM   20  C   UNL     1      -8.556   9.685  72.458  1.00  0.00     3.061 A  
ENDBRANCH  13  15
BRANCH  12  21
HETATM   21  C   UNL     1     -10.817  10.487  66.392  1.00  0.00    -0.024 C  
BRANCH  21  22
HETATM   22  C   UNL     1     -10.663  11.954  66.897  1.00  0.00    -0.246 C  
HETATM   23  O   UNL     1      -9.625  12.034  67.899  1.00  0.00    -0.183 OA 
HETATM   24  C   UNL     1      -9.265  13.916  66.527  1.00  0.00    -0.200 C  
HETATM   25  H   UNL     1     -11.148  14.421  64.695  1.00  0.00     0.000 HD 
HETATM   26  C   UNL     1     -10.283  13.002  65.824  1.00  0.00    -0.290 C  
HETATM   27  O   UNL     1     -11.382  13.777  65.354  1.00  0.00    -0.303 OA 
HETATM   28  F   UNL     1      -9.644  15.218  66.405  1.00  0.00    -0.238 F  
HETATM   29  C   UNL     1      -7.902  13.775  65.870  1.00  0.00     3.243 C  
HETATM   30  C   UNL     1      -9.347  13.448  67.982  1.00  0.00    -0.217 C  
BRANCH  30  31
HETATM   31  N   UNL     1      -8.168  13.683  68.822  1.00  0.00    -0.046 N  
HETATM   32  C   UNL     1      -7.024  12.918  68.681  1.00  0.00    -0.101 C  
HETATM   33  C   UNL     1      -5.982  13.044  69.499  1.00  0.00    -0.110 C  
HETATM   34  C   UNL     1      -6.059  14.015  70.600  1.00  0.00    -0.153 C  
HETATM   35  O   UNL     1      -5.187  14.065  71.459  1.00  0.00    -0.141 OA 
HETATM   36  N   UNL     1      -7.156  14.825  70.596  1.00  0.00    -0.073 N  
HETATM   37  H   UNL     1      -7.158  15.608  71.249  1.00  0.00     0.000 HD 
HETATM   38  C   UNL     1      -8.258  14.678  69.791  1.00  0.00     0.339 C  
HETATM   39  O   UNL     1      -9.245  15.381  69.968  1.00  0.00    -0.118 OA 
ENDBRANCH  30  31
ENDBRANCH  21  22
ENDBRANCH  12  21
ENDBRANCH   7   9
ENDBRANCH   5   7
ENDBRANCH   4   5
ENDBRANCH   2   4
TORSDOF 8
ENDMDL
MODEL      255
REMARK 921   NORMALIZED FREE ENERGY PREDICTED BY IDOCK:   16.76 KCAL/MOL
REMARK 922        TOTAL FREE ENERGY PREDICTED BY IDOCK:   22.05 KCAL/MOL
REMARK 923 INTER-LIGAND FREE ENERGY PREDICTED BY IDOCK:    5.07 KCAL/MOL
REMARK 924 INTRA-LIGAND FREE ENERGY PREDICTED BY IDOCK:   16.98 KCAL/MOL
REMARK 927      BINDING AFFINITY PREDICTED BY RF-SCORE:    0.00 PKD
ROOT
HETATM    1  C   UNL     1     -11.359   8.756  66.400  1.00  0.00     2.560 C  
HETATM    2  C   UNL     1     -10.728   9.744  67.374  1.00  0.00    -0.249 C  
HETATM    3  C   UNL     1      -9.213   9.557  67.401  1.00  0.00    -0.152 C  
ENDROOT
BRANCH   2   4
HETATM    4  O   UNL     1     -10.998  11.093  66.944  1.00  0.00    -0.278 OA 
BRANCH   4   5
HETATM    5  C   UNL     1     -11.108  11.285  65.594  1.00  0.00    -0.072 C  
HETATM    6  O   UNL     1     -10.381  10.775  64.749  1.00  0.00    -0.321 OA 
BRANCH   5   7
HETATM    7  C   UNL     1     -12.315  12.175  65.288  1.00  0.00     0.012 C  
HETATM    8  C   UNL     1     -13.082  11.552  64.122  1.00  0.00     0.756 C  
BRANCH   7   9
HETATM    9  N   UNL     1     -11.882  13.571  65.031  1.00  0.00    -0.338 NA 
HETATM   10  P   UNL     1     -10.268  13.899  65.431  1.00  0.00    -0.291 P  
HETATM   11  H   UNL     1     -12.504  14.227  65.505  1.00  0.00     0.000 HD 
HETATM   12  O   UNL     1     -10.012  15.487  65.023  1.00  0.00    -0.331 OA 
HETATM   13  O   UNL     1      -9.836  13.444  63.819  1.00  0.00     0.261 OA 
HETATM   14  O   UNL     1     -10.656  14.306  66.874  1.00  0.00    -0.271 OA 
BRANCH  13  15
HETATM   15  C   UNL     1      -9.284  12.204  63.622  1.00  0.00     0.515 A  
HETATM   16  C   UNL     1      -7.983   9.764  63.292  1.00  0.00    -0.145 A  
HETATM   17  C   UNL     1      -8.338  11.789  64.557  1.00  0.00     1.375 A  
HETATM   18  C   UNL     1      -9.610  11.388  62.539  1.00  0.00    -0.024 A  
HETATM   19  C   UNL     1      -7.683  10.570  64.390  1.00  0.00     0.040 A  
HETATM   20  C   UNL     1      -8.951  10.167  62.374  1.00  0.00    -0.287 A  
ENDBRANCH  13  15
BRANCH  12  21
HETATM   21  C   UNL     1      -8.978  16.170  65.758  1.00  0.00    -0.051 C  
BRANCH  21  22
HETATM   22  C   UNL     1      -8.736  15.759  67.242  1.00  0.00    -0.191 C  
HETATM   23  O   UNL     1      -9.954  15.247  67.826  1.00  0.00    -0.223 OA 
HETATM   24  C   UNL     1      -8.277  13.770  68.573  1.00  0.00    -0.124 C  
HETATM   25  H   UNL     1      -5.753  14.477  68.037  1.00  0.00     0.000 HD 
HETATM   26  C   UNL     1      -7.673  14.658  67.473  1.00  0.00    -0.195 C  
HETATM   27  O   UNL     1      -6.406  15.153  67.895  1.00  0.00    -0.134 OA 
HETATM   28  F   UNL     1      -7.386  13.616  69.591  1.00  0.00     0.039 F  
HETATM   29  C   UNL     1      -8.576  12.387  68.017  1.00  0.00    -0.180 C  
HETATM   30  C   UNL     1      -9.497  14.578  69.021  1.00  0.00    -0.085 C  
BRANCH  30  31
HETATM   31  N   UNL     1     -10.599  13.829  69.634  1.00  0.00     0.189 N  
HETATM   32  C   UNL     1     -10.391  12.586  70.204  1.00  0.00     2.288 C  
HETATM   33  C   UNL     1     -11.392  11.844  70.673  1.00  0.00     0.812 C  
HETATM   34  C   UNL     1     -12.765  12.357  70.563  1.00  0.00     0.027 C  
HETATM   35  O   UNL     1     -13.726  11.654  70.849  1.00  0.00     0.859 OA 
HETATM   36  N   UNL     1     -12.881  13.640  70.116  1.00  0.00    -0.075 N  
HETATM   37  H   UNL     1     -13.803  14.073  70.181  1.00  0.00     0.000 HD 
HETATM   38  C   UNL     1     -11.868  14.399  69.586  1.00  0.00    -0.321 C  
HETATM   39  O   UNL     1     -12.115  15.491  69.089  1.00  0.00    -0.326 OA 
ENDBRANCH  30  31
ENDBRANCH  21  22
ENDBRANCH  12  21
ENDBRANCH   7   9
ENDBRANCH   5   7
ENDBRANCH   4   5
ENDBRANCH   2   4
TORSDOF 8
ENDMDL
MODEL      256
REMARK 921   NORMALIZED FREE ENERGY PREDICTED BY IDOCK:   19.89 KCAL/MOL
REMARK 922        TOTAL FREE ENERGY PREDICTED BY IDOCK:   26.65 KCAL/MOL
REMARK 923 INTER-LIGAND FREE ENERGY PREDICTED BY IDOCK:   20.66 KCAL/MOL
REMARK 924 INTRA-LIGAND FREE ENERGY PREDICTED BY IDOCK:    5.99 KCAL/MOL
REMARK 927      BINDING AFFINITY PREDICTED BY RF-SCORE:    0.00 PKD
ROOT
HETATM    1  C   UNL     1      -9.338  16.247  70.245  1.00  0.00     1.306 C  
HETATM    2  C   UNL     1      -8.222  16.123  71.274  1.00  0.00     5.569 C  
HETATM    3  C   UNL     1      -7.394  14.870  70.999  1.00  0.00     1.504 C  
ENDROOT
BRANCH   2   4
HETATM    4  O   UNL     1      -7.343  17.261  71.181  1.00  0.00     4.222 OA 
BRANCH   4   5
HETATM    5  C   UNL     1      -7.516  18.070  70.091  1.00  0.00     1.696 C  
HETATM    6  O   UNL     1      -8.418  18.888  69.959  1.00  0.00     0.976 OA 
BRANCH   5   7
HETATM    7  C   UNL     1      -6.378  17.851  69.091  1.00  0.00    -0.236 C  
HETATM    8  C   UNL     1      -6.667  18.694  67.850  1.00  0.00    -0.222 C  
BRANCH   7   9
HETATM    9  N   UNL     1      -6.211  16.406  68.798  1.00  0.00    -0.128 NA 
HETATM   10  P   UNL     1      -7.025  15.864  67.413  1.00  0.00    -0.198 P  
HETATM   11  H   UNL     1      -6.480  15.847  69.608  1.00  0.00     0.000 HD 
HETATM   12  O   UNL     1      -6.660  14.251  67.273  1.00  0.00    -0.278 OA 
HETATM   13  O   UNL     1      -5.604  16.238  66.501  1.00  0.00    -0.214 OA 
HETATM   14  O   UNL     1      -8.298  15.531  68.231  1.00  0.00    -0.142 OA 
BRANCH  13  15
HETATM   15  C   UNL     1      -5.597  17.387  65.754  1.00  0.00     0.183 A  
HETATM   16  C   UNL     1      -5.523  19.607  64.073  1.00  0.00    -0.283 A  
HETATM   17  C   UNL     1      -6.008  17.269  64.427  1.00  0.00     4.045 A  
HETATM   18  C   UNL     1      -5.183  18.621  66.256  1.00  0.00    -0.169 A  
HETATM   19  C   UNL     1      -5.966  18.379  63.584  1.00  0.00     1.601 A  
HETATM   20  C   UNL     1      -5.141  19.730  65.408  1.00  0.00    -0.180 A  
ENDBRANCH  13  15
BRANCH  12  21
HETATM   21  C   UNL     1      -7.629  13.441  66.581  1.00  0.00     0.943 C  
BRANCH  21  22
HETATM   22  C   UNL     1      -7.209  12.005  66.142  1.00  0.00     0.841 C  
HETATM   23  O   UNL     1      -7.137  11.131  67.290  1.00  0.00    -0.095 OA 
HETATM   24  C   UNL     1      -8.212   9.843  65.635  1.00  0.00    -0.138 C  
HETATM   25  H   UNL     1      -8.291  10.900  63.179  1.00  0.00     0.000 HD 
HETATM   26  C   UNL     1      -8.157  11.298  65.144  1.00  0.00     0.466 C  
HETATM   27  O   UNL     1      -7.709  11.334  63.792  1.00  0.00     0.675 OA 
HETATM   28  F   UNL     1      -7.926   8.992  64.611  1.00  0.00    -0.105 F  
HETATM   29  C   UNL     1      -9.614   9.513  66.122  1.00  0.00    -0.302 C  
HETATM   30  C   UNL     1      -7.119   9.811  66.705  1.00  0.00    -0.089 C  
BRANCH  30  31
HETATM   31  N   UNL     1      -7.244   8.792  67.752  1.00  0.00    -0.083 N  
HETATM   32  C   UNL     1      -7.915   9.057  68.933  1.00  0.00    -0.100 C  
HETATM   33  C   UNL     1      -7.953   8.186  69.938  1.00  0.00    -0.109 C  
HETATM   34  C   UNL     1      -7.242   6.907  69.794  1.00  0.00    -0.079 C  
HETATM   35  O   UNL     1      -7.129   6.138  70.741  1.00  0.00    -0.065 OA 
HETATM   36  N   UNL     1      -6.719   6.660  68.560  1.00  0.00    -0.062 N  
HETATM   37  H   UNL     1      -6.362   5.719  68.386  1.00  0.00     0.000 HD 
HETATM   38  C   UNL     1      -6.630   7.563  67.530  1.00  0.00    -0.062 C  
HETATM   39  O   UNL     1      -6.016   7.273  66.510  1.00  0.00    -0.033 OA 
ENDBRANCH  30  31
ENDBRANCH  21  22
ENDBRANCH  12  21
ENDBRANCH   7   9
ENDBRANCH   5   7
ENDBRANCH   4   5
ENDBRANCH   2   4
TORSDOF 8
ENDMDL
MODEL      257
REMARK 921   NORMALIZED FREE ENERGY PREDICTED BY IDOCK:   20.08 KCAL/MOL
REMARK 922        TOTAL FREE ENERGY PREDICTED BY IDOCK:   26.91 KCAL/MOL
REMARK 923 INTER-LIGAND FREE ENERGY PREDICTED BY IDOCK:   19.60 KCAL/MOL
REMARK 924 INTRA-LIGAND FREE ENERGY PREDICTED BY IDOCK:    7.32 KCAL/MOL
REMARK 927      BINDING AFFINITY PREDICTED BY RF-SCORE:    0.00 PKD
ROOT
HETATM    1  C   UNL     1     -13.767  12.435  70.513  1.00  0.00     2.267 C  
HETATM    2  C   UNL     1     -13.498  13.379  71.679  1.00  0.00    -0.299 C  
HETATM    3  C   UNL     1     -12.669  12.668  72.746  1.00  0.00     1.320 C  
ENDROOT
BRANCH   2   4
HETATM    4  O   UNL     1     -12.744  14.518  71.220  1.00  0.00    -0.303 OA 
BRANCH   4   5
HETATM    5  C   UNL     1     -11.382  14.403  71.279  1.00  0.00     0.343 C  
HETATM    6  O   UNL     1     -10.718  13.584  70.655  1.00  0.00     1.401 OA 
BRANCH   5   7
HETATM    7  C   UNL     1     -10.803  15.492  72.185  1.00  0.00     0.540 C  
HETATM    8  C   UNL     1     -11.392  15.311  73.583  1.00  0.00     0.612 C  
BRANCH   7   9
HETATM    9  N   UNL     1     -11.051  16.837  71.609  1.00  0.00     0.279 NA 
HETATM   10  P   UNL     1     -10.055  17.244  70.300  1.00  0.00     1.891 P  
HETATM   11  H   UNL     1     -10.989  17.550  72.336  1.00  0.00     0.000 HD 
HETATM   12  O   UNL     1     -10.542  18.753  69.809  1.00  0.00     0.638 OA 
HETATM   13  O   UNL     1     -11.243  16.549  69.252  1.00  0.00    -0.296 OA 
HETATM   14  O   UNL     1      -8.990  17.864  71.238  1.00  0.00     6.917 OA 
BRANCH  13  15
HETATM   15  C   UNL     1     -11.004  15.302  68.737  1.00  0.00    -0.260 A  
HETATM   16  C   UNL     1     -10.718  12.723  67.723  1.00  0.00    -0.237 A  
HETATM   17  C   UNL     1     -12.024  14.739  67.972  1.00  0.00    -0.261 A  
HETATM   18  C   UNL     1      -9.824  14.594  68.968  1.00  0.00    -0.178 A  
HETATM   19  C   UNL     1     -11.884  13.446  67.469  1.00  0.00    -0.408 A  
HETATM   20  C   UNL     1      -9.687  13.299  68.463  1.00  0.00    -0.146 A  
ENDBRANCH  13  15
BRANCH  12  21
HETATM   21  C   UNL     1      -9.545  19.555  69.147  1.00  0.00    -0.291 C  
BRANCH  21  22
HETATM   22  C   UNL     1      -9.334  19.349  67.616  1.00  0.00    -0.309 C  
HETATM   23  O   UNL     1      -9.472  17.952  67.273  1.00  0.00    -0.256 OA 
HETATM   24  C   UNL     1     -10.636  19.093  65.572  1.00  0.00    -0.070 C  
HETATM   25  H   UNL     1     -10.397  21.758  65.557  1.00  0.00     0.000 HD 
HETATM   26  C   UNL     1     -10.320  20.100  66.690  1.00  0.00    -0.380 C  
HETATM   27  O   UNL     1      -9.791  21.296  66.126  1.00  0.00     1.128 OA 
HETATM   28  F   UNL     1     -10.428  19.666  64.354  1.00  0.00     1.570 F  
HETATM   29  C   UNL     1     -12.100  18.686  65.639  1.00  0.00     5.375 C  
HETATM   30  C   UNL     1      -9.629  17.973  65.838  1.00  0.00     0.076 C  
BRANCH  30  31
HETATM   31  N   UNL     1      -9.978  16.636  65.348  1.00  0.00    -0.046 N  
HETATM   32  C   UNL     1     -11.210  16.384  64.770  1.00  0.00    -0.212 C  
HETATM   33  C   UNL     1     -11.588  15.159  64.413  1.00  0.00    -0.275 C  
HETATM   34  C   UNL     1     -10.674  14.035  64.661  1.00  0.00    -0.399 C  
HETATM   35  O   UNL     1     -11.034  12.878  64.482  1.00  0.00    -0.314 OA 
HETATM   36  N   UNL     1      -9.432  14.373  65.108  1.00  0.00    -0.308 N  
HETATM   37  H   UNL     1      -8.730  13.633  65.136  1.00  0.00     0.000 HD 
HETATM   38  C   UNL     1      -9.041  15.621  65.524  1.00  0.00     0.297 C  
HETATM   39  O   UNL     1      -7.940  15.781  66.037  1.00  0.00     0.190 OA 
ENDBRANCH  30  31
ENDBRANCH  21  22
ENDBRANCH  12  21
ENDBRANCH   7   9
ENDBRANCH   5   7
ENDBRANCH   4   5
ENDBRANCH   2   4
TORSDOF 8
ENDMDL
MODEL      258
REMARK 921   NORMALIZED FREE ENERGY PREDICTED BY IDOCK:   20.53 KCAL/MOL
REMARK 922        TOTAL FREE ENERGY PREDICTED BY IDOCK:   27.58 KCAL/MOL
REMARK 923 INTER-LIGAND FREE ENERGY PREDICTED BY IDOCK:   13.98 KCAL/MOL
REMARK 924 INTRA-LIGAND FREE ENERGY PREDICTED BY IDOCK:   13.60 KCAL/MOL
REMARK 927      BINDING AFFINITY PREDICTED BY RF-SCORE:    0.00 PKD
ROOT
HETATM    1  C   UNL     1     -10.317   6.291  64.311  1.00  0.00     4.844 C  
HETATM    2  C   UNL     1      -9.413   7.493  64.068  1.00  0.00     2.866 C  
HETATM    3  C   UNL     1     -10.231   8.662  63.526  1.00  0.00     5.545 C  
ENDROOT
BRANCH   2   4
HETATM    4  O   UNL     1      -8.814   7.912  65.311  1.00  0.00    -0.070 OA 
BRANCH   4   5
HETATM    5  C   UNL     1      -7.797   8.821  65.214  1.00  0.00    -0.109 C  
HETATM    6  O   UNL     1      -7.675   9.648  64.318  1.00  0.00    -0.117 OA 
BRANCH   5   7
HETATM    7  C   UNL     1      -6.869   8.700  66.426  1.00  0.00    -0.071 C  
HETATM    8  C   UNL     1      -6.753   7.221  66.790  1.00  0.00    -0.061 C  
BRANCH   7   9
HETATM    9  N   UNL     1      -7.358   9.546  67.543  1.00  0.00    -0.090 NA 
HETATM   10  P   UNL     1      -8.425   8.770  68.607  1.00  0.00    -0.130 P  
HETATM   11  H   UNL     1      -7.779  10.402  67.181  1.00  0.00     0.000 HD 
HETATM   12  O   UNL     1      -8.795   9.888  69.776  1.00  0.00    -0.196 OA 
HETATM   13  O   UNL     1      -7.052   8.287  69.541  1.00  0.00    -0.052 OA 
HETATM   14  O   UNL     1      -9.654   9.202  67.769  1.00  0.00    -0.142 OA 
BRANCH  13  15
HETATM   15  C   UNL     1      -6.610   6.994  69.423  1.00  0.00    -0.045 A  
HETATM   16  C   UNL     1      -5.907   4.315  69.137  1.00  0.00    -0.022 A  
HETATM   17  C   UNL     1      -7.207   6.222  68.429  1.00  0.00    -0.085 A  
HETATM   18  C   UNL     1      -5.634   6.443  70.254  1.00  0.00    -0.018 A  
HETATM   19  C   UNL     1      -6.860   4.878  68.289  1.00  0.00    -0.056 A  
HETATM   20  C   UNL     1      -5.289   5.097  70.111  1.00  0.00    -0.004 A  
ENDBRANCH  13  15
BRANCH  12  21
HETATM   21  C   UNL     1     -10.065   9.719  70.434  1.00  0.00    -0.252 C  
BRANCH  21  22
HETATM   22  C   UNL     1     -10.302   8.413  71.252  1.00  0.00    -0.214 C  
HETATM   23  O   UNL     1     -10.492   7.291  70.362  1.00  0.00    -0.213 OA 
HETATM   24  C   UNL     1      -9.074   6.467  72.053  1.00  0.00    -0.141 C  
HETATM   25  H   UNL     1      -8.681   8.075  74.155  1.00  0.00     0.000 HD 
HETATM   26  C   UNL     1      -9.157   7.994  72.204  1.00  0.00    -0.168 C  
HETATM   27  O   UNL     1      -9.384   8.332  73.569  1.00  0.00    -0.210 OA 
HETATM   28  F   UNL     1      -9.129   5.872  73.277  1.00  0.00    -0.133 F  
HETATM   29  C   UNL     1      -7.748   6.080  71.418  1.00  0.00    -0.104 C  
HETATM   30  C   UNL     1     -10.319   6.146  71.224  1.00  0.00    -0.217 C  
BRANCH  30  31
HETATM   31  N   UNL     1     -10.288   4.914  70.429  1.00  0.00    -0.223 N  
HETATM   32  C   UNL     1     -10.689   3.704  70.967  1.00  0.00     1.451 C  
HETATM   33  C   UNL     1     -10.572   2.558  70.300  1.00  0.00     2.364 C  
HETATM   34  C   UNL     1      -9.978   2.579  68.955  1.00  0.00     0.644 C  
HETATM   35  O   UNL     1      -9.720   1.538  68.364  1.00  0.00    -0.188 OA 
HETATM   36  N   UNL     1      -9.732   3.816  68.439  1.00  0.00    -0.090 N  
HETATM   37  H   UNL     1      -9.472   3.865  67.453  1.00  0.00     0.000 HD 
HETATM   38  C   UNL     1      -9.802   5.002  69.127  1.00  0.00    -0.192 C  
HETATM   39  O   UNL     1      -9.426   6.041  68.600  1.00  0.00    -0.123 OA 
ENDBRANCH  30  31
ENDBRANCH  21  22
ENDBRANCH  12  21
ENDBRANCH   7   9
ENDBRANCH   5   7
ENDBRANCH   4   5
ENDBRANCH   2   4
TORSDOF 8
ENDMDL
MODEL      259
REMARK 921   NORMALIZED FREE ENERGY PREDICTED BY IDOCK:   20.76 KCAL/MOL
REMARK 922        TOTAL FREE ENERGY PREDICTED BY IDOCK:   27.92 KCAL/MOL
REMARK 923 INTER-LIGAND FREE ENERGY PREDICTED BY IDOCK:    2.81 KCAL/MOL
REMARK 924 INTRA-LIGAND FREE ENERGY PREDICTED BY IDOCK:   25.10 KCAL/MOL
REMARK 927      BINDING AFFINITY PREDICTED BY RF-SCORE:    0.00 PKD
ROOT
HETATM    1  C   UNL     1     -11.667  15.426  63.814  1.00  0.00     0.536 C  
HETATM    2  C   UNL     1     -12.790  15.691  64.809  1.00  0.00     0.973 C  
HETATM    3  C   UNL     1     -14.070  16.066  64.067  1.00  0.00     5.444 C  
ENDROOT
BRANCH   2   4
HETATM    4  O   UNL     1     -13.057  14.497  65.572  1.00  0.00    -0.441 OA 
BRANCH   4   5
HETATM    5  C   UNL     1     -12.159  13.475  65.429  1.00  0.00    -0.415 C  
HETATM    6  O   UNL     1     -12.048  12.524  66.193  1.00  0.00    -0.571 OA 
BRANCH   5   7
HETATM    7  C   UNL     1     -11.360  13.659  64.136  1.00  0.00    -0.304 C  
HETATM    8  C   UNL     1     -11.218  12.292  63.467  1.00  0.00    -0.535 C  
BRANCH   7   9
HETATM    9  N   UNL     1     -10.060  14.318  64.415  1.00  0.00    -0.610 NA 
HETATM   10  P   UNL     1     -10.036  15.279  65.811  1.00  0.00    -0.394 P  
HETATM   11  H   UNL     1      -9.758  14.862  63.606  1.00  0.00     0.000 HD 
HETATM   12  O   UNL     1      -8.489  15.867  65.931  1.00  0.00    -0.166 OA 
HETATM   13  O   UNL     1      -9.543  13.878  66.698  1.00  0.00    -0.270 OA 
HETATM   14  O   UNL     1     -10.478  16.532  65.016  1.00  0.00    -0.652 OA 
BRANCH  13  15
HETATM   15  C   UNL     1     -10.483  13.226  67.454  1.00  0.00    -0.243 A  
HETATM   16  C   UNL     1     -12.425  12.080  69.089  1.00  0.00     0.298 A  
HETATM   17  C   UNL     1     -11.611  13.961  67.813  1.00  0.00    -0.381 A  
HETATM   18  C   UNL     1     -10.338  11.905  67.879  1.00  0.00    -0.212 A  
HETATM   19  C   UNL     1     -12.581  13.390  68.636  1.00  0.00     0.611 A  
HETATM   20  C   UNL     1     -11.310  11.336  68.704  1.00  0.00    -0.336 A  
ENDBRANCH  13  15
BRANCH  12  21
HETATM   21  C   UNL     1      -8.340  17.115  66.636  1.00  0.00    -0.251 C  
BRANCH  21  22
HETATM   22  C   UNL     1      -8.371  17.087  68.195  1.00  0.00    -0.222 C  
HETATM   23  O   UNL     1      -9.722  16.881  68.666  1.00  0.00    -0.246 OA 
HETATM   24  C   UNL     1      -8.403  15.484  70.031  1.00  0.00     0.405 C  
HETATM   25  H   UNL     1      -5.752  15.751  69.784  1.00  0.00     0.000 HD 
HETATM   26  C   UNL     1      -7.526  15.980  68.869  1.00  0.00    -0.188 C  
HETATM   27  O   UNL     1      -6.272  16.431  69.370  1.00  0.00    -0.161 OA 
HETATM   28  F   UNL     1      -7.696  15.511  71.194  1.00  0.00     1.352 F  
HETATM   29  C   UNL     1      -8.822  14.043  69.786  1.00  0.00     1.257 C  
HETATM   30  C   UNL     1      -9.541  16.507  70.048  1.00  0.00     0.770 C  
BRANCH  30  31
HETATM   31  N   UNL     1     -10.817  16.070  70.625  1.00  0.00    -0.244 N  
HETATM   32  C   UNL     1     -10.907  15.680  71.950  1.00  0.00     0.427 C  
HETATM   33  C   UNL     1     -12.029  15.183  72.467  1.00  0.00    -0.492 C  
HETATM   34  C   UNL     1     -13.202  15.024  71.595  1.00  0.00    -0.377 C  
HETATM   35  O   UNL     1     -14.205  14.442  71.987  1.00  0.00    -0.475 OA 
HETATM   36  N   UNL     1     -13.081  15.552  70.344  1.00  0.00    -0.717 N  
HETATM   37  H   UNL     1     -13.927  15.598  69.775  1.00  0.00     0.000 HD 
HETATM   38  C   UNL     1     -11.922  16.024  69.780  1.00  0.00    -0.176 C  
HETATM   39  O   UNL     1     -11.901  16.348  68.599  1.00  0.00    -0.178 OA 
ENDBRANCH  30  31
ENDBRANCH  21  22
ENDBRANCH  12  21
ENDBRANCH   7   9
ENDBRANCH   5   7
ENDBRANCH   4   5
ENDBRANCH   2   4
TORSDOF 8
ENDMDL
MODEL      260
REMARK 921   NORMALIZED FREE ENERGY PREDICTED BY IDOCK:   24.84 KCAL/MOL
REMARK 922        TOTAL FREE ENERGY PREDICTED BY IDOCK:   33.90 KCAL/MOL
REMARK 923 INTER-LIGAND FREE ENERGY PREDICTED BY IDOCK:    2.88 KCAL/MOL
REMARK 924 INTRA-LIGAND FREE ENERGY PREDICTED BY IDOCK:   31.03 KCAL/MOL
REMARK 927      BINDING AFFINITY PREDICTED BY RF-SCORE:    0.00 PKD
ROOT
HETATM    1  C   UNL     1     -10.883  10.930  71.637  1.00  0.00     3.437 C  
HETATM    2  C   UNL     1     -10.207  10.980  70.273  1.00  0.00     1.062 C  
HETATM    3  C   UNL     1     -10.693  12.199  69.492  1.00  0.00     0.170 C  
ENDROOT
BRANCH   2   4
HETATM    4  O   UNL     1      -8.781  11.102  70.439  1.00  0.00     1.683 OA 
BRANCH   4   5
HETATM    5  C   UNL     1      -8.059   9.945  70.330  1.00  0.00    -0.085 C  
HETATM    6  O   UNL     1      -7.816   9.178  71.254  1.00  0.00    -0.276 OA 
BRANCH   5   7
HETATM    7  C   UNL     1      -7.658   9.714  68.871  1.00  0.00    -0.076 C  
HETATM    8  C   UNL     1      -8.892   9.231  68.109  1.00  0.00    -0.129 C  
BRANCH   7   9
HETATM    9  N   UNL     1      -6.510   8.778  68.787  1.00  0.00    -0.052 NA 
HETATM   10  P   UNL     1      -6.873   7.171  69.185  1.00  0.00    -0.064 P  
HETATM   11  H   UNL     1      -5.734   9.117  69.357  1.00  0.00     0.000 HD 
HETATM   12  O   UNL     1      -5.462   6.322  68.981  1.00  0.00    -0.013 OA 
HETATM   13  O   UNL     1      -7.245   6.901  67.518  1.00  0.00    -0.085 OA 
HETATM   14  O   UNL     1      -6.541   7.414  70.679  1.00  0.00    -0.042 OA 
BRANCH  13  15
HETATM   15  C   UNL     1      -8.564   6.855  67.148  1.00  0.00    -0.121 A  
HETATM   16  C   UNL     1     -11.293   6.812  66.591  1.00  0.00     0.531 A  
HETATM   17  C   UNL     1      -9.410   7.790  67.742  1.00  0.00    -0.155 A  
HETATM   18  C   UNL     1      -9.072   5.919  66.246  1.00  0.00    -0.157 A  
HETATM   19  C   UNL     1     -10.777   7.766  67.468  1.00  0.00    -0.265 A  
HETATM   20  C   UNL     1     -10.441   5.896  65.975  1.00  0.00     0.175 A  
ENDBRANCH  13  15
BRANCH  12  21
HETATM   21  C   UNL     1      -5.323   5.126  69.772  1.00  0.00    -0.004 C  
BRANCH  21  22
HETATM   22  C   UNL     1      -6.515   4.705  70.685  1.00  0.00    -0.030 C  
HETATM   23  O   UNL     1      -7.366   5.842  70.955  1.00  0.00    -0.080 OA 
HETATM   24  C   UNL     1      -8.863   4.076  70.514  1.00  0.00    -0.083 C  
HETATM   25  H   UNL     1      -7.783   1.640  70.282  1.00  0.00     0.000 HD 
HETATM   26  C   UNL     1      -7.452   3.614  70.115  1.00  0.00    -0.041 C  
HETATM   27  O   UNL     1      -7.207   2.310  70.632  1.00  0.00    -0.033 OA 
HETATM   28  F   UNL     1      -9.521   3.069  71.152  1.00  0.00    -0.176 F  
HETATM   29  C   UNL     1      -9.664   4.428  69.271  1.00  0.00    -0.252 C  
HETATM   30  C   UNL     1      -8.575   5.241  71.464  1.00  0.00    -0.130 C  
BRANCH  30  31
HETATM   31  N   UNL     1      -9.624   6.257  71.605  1.00  0.00    -0.155 N  
HETATM   32  C   UNL     1     -10.940   5.899  71.839  1.00  0.00    -0.266 C  
HETATM   33  C   UNL     1     -11.924   6.796  71.867  1.00  0.00    -0.374 C  
HETATM   34  C   UNL     1     -11.601   8.209  71.621  1.00  0.00    -0.279 C  
HETATM   35  O   UNL     1     -12.487   9.045  71.495  1.00  0.00    -0.304 OA 
HETATM   36  N   UNL     1     -10.273   8.503  71.531  1.00  0.00    -0.226 N  
HETATM   37  H   UNL     1     -10.016   9.491  71.521  1.00  0.00     0.000 HD 
HETATM   38  C   UNL     1      -9.252   7.590  71.454  1.00  0.00    -0.141 C  
HETATM   39  O   UNL     1      -8.107   7.966  71.237  1.00  0.00    -0.091 OA 
ENDBRANCH  30  31
ENDBRANCH  21  22
ENDBRANCH  12  21
ENDBRANCH   7   9
ENDBRANCH   5   7
ENDBRANCH   4   5
ENDBRANCH   2   4
TORSDOF 8
ENDMDL
MODEL      261
REMARK 921   NORMALIZED FREE ENERGY PREDICTED BY IDOCK:   31.33 KCAL/MOL
REMARK 922        TOTAL FREE ENERGY PREDICTED BY IDOCK:   43.43 KCAL/MOL
REMARK 923 INTER-LIGAND FREE ENERGY PREDICTED BY IDOCK:   25.16 KCAL/MOL
REMARK 924 INTRA-LIGAND FREE ENERGY PREDICTED BY IDOCK:   18.27 KCAL/MOL
REMARK 927      BINDING AFFINITY PREDICTED BY RF-SCORE:    0.00 PKD
ROOT
HETATM    1  C   UNL     1     -11.545  15.832  63.591  1.00  0.00     1.040 C  
HETATM    2  C   UNL     1     -12.745  15.624  64.507  1.00  0.00     0.635 C  
HETATM    3  C   UNL     1     -14.041  15.781  63.715  1.00  0.00     5.681 C  
ENDROOT
BRANCH   2   4
HETATM    4  O   UNL     1     -12.719  14.288  65.049  1.00  0.00    -0.625 OA 
BRANCH   4   5
HETATM    5  C   UNL     1     -11.567  13.578  64.849  1.00  0.00    -0.335 C  
HETATM    6  O   UNL     1     -11.308  12.499  65.368  1.00  0.00    -0.303 OA 
BRANCH   5   7
HETATM    7  C   UNL     1     -10.680  14.296  63.829  1.00  0.00     1.505 C  
HETATM    8  C   UNL     1     -10.190  13.263  62.815  1.00  0.00     4.487 C  
BRANCH   7   9
HETATM    9  N   UNL     1      -9.579  15.020  64.512  1.00  0.00     0.062 NA 
HETATM   10  P   UNL     1     -10.063  15.960  65.837  1.00  0.00    -0.383 P  
HETATM   11  H   UNL     1      -9.063  15.591  63.843  1.00  0.00     0.000 HD 
HETATM   12  O   UNL     1      -8.675  16.630  66.451  1.00  0.00    -0.257 OA 
HETATM   13  O   UNL     1      -9.808  14.576  66.841  1.00  0.00    -0.249 OA 
HETATM   14  O   UNL     1     -10.294  17.200  64.937  1.00  0.00    -0.314 OA 
BRANCH  13  15
HETATM   15  C   UNL     1     -10.903  13.862  67.253  1.00  0.00    -0.286 A  
HETATM   16  C   UNL     1     -13.183  12.577  68.207  1.00  0.00     4.282 A  
HETATM   17  C   UNL     1     -12.076  14.587  67.457  1.00  0.00    -0.284 A  
HETATM   18  C   UNL     1     -10.874  12.488  67.489  1.00  0.00    -0.264 A  
HETATM   19  C   UNL     1     -13.216  13.945  67.940  1.00  0.00     3.407 A  
HETATM   20  C   UNL     1     -12.018  11.848  67.974  1.00  0.00    -0.204 A  
ENDBRANCH  13  15
BRANCH  12  21
HETATM   21  C   UNL     1      -8.832  17.873  67.162  1.00  0.00    -0.247 C  
BRANCH  21  22
HETATM   22  C   UNL     1      -8.539  17.888  68.693  1.00  0.00    -0.266 C  
HETATM   23  O   UNL     1      -8.247  16.552  69.160  1.00  0.00    -0.233 OA 
HETATM   24  C   UNL     1      -6.646  17.912  70.227  1.00  0.00     0.715 C  
HETATM   25  H   UNL     1      -6.967  20.554  69.954  1.00  0.00     0.000 HD 
HETATM   26  C   UNL     1      -7.338  18.753  69.143  1.00  0.00    -0.192 C  
HETATM   27  O   UNL     1      -7.705  20.022  69.677  1.00  0.00     0.015 OA 
HETATM   28  F   UNL     1      -6.478  18.653  71.357  1.00  0.00     0.703 F  
HETATM   29  C   UNL     1      -5.265  17.487  69.752  1.00  0.00    -0.191 C  
HETATM   30  C   UNL     1      -7.643  16.774  70.453  1.00  0.00     2.436 C  
BRANCH  30  31
HETATM   31  N   UNL     1      -7.106  15.516  70.983  1.00  0.00     1.376 N  
HETATM   32  C   UNL     1      -6.431  15.478  72.189  1.00  0.00     2.388 C  
HETATM   33  C   UNL     1      -5.846  14.370  72.640  1.00  0.00     0.178 C  
HETATM   34  C   UNL     1      -5.904  13.154  71.817  1.00  0.00     0.570 C  
HETATM   35  O   UNL     1      -5.263  12.156  72.120  1.00  0.00    -0.368 OA 
HETATM   36  N   UNL     1      -6.697  13.229  70.710  1.00  0.00     0.390 N  
HETATM   37  H   UNL     1      -6.882  12.358  70.211  1.00  0.00     0.000 HD 
HETATM   38  C   UNL     1      -7.267  14.371  70.207  1.00  0.00     0.400 C  
HETATM   39  O   UNL     1      -7.848  14.345  69.129  1.00  0.00    -0.113 OA 
ENDBRANCH  30  31
ENDBRANCH  21  22
ENDBRANCH  12  21
ENDBRANCH   7   9
ENDBRANCH   5   7
ENDBRANCH   4   5
ENDBRANCH   2   4
TORSDOF 8
ENDMDL
MODEL      262
REMARK 921   NORMALIZED FREE ENERGY PREDICTED BY IDOCK:   33.62 KCAL/MOL
REMARK 922        TOTAL FREE ENERGY PREDICTED BY IDOCK:   46.79 KCAL/MOL
REMARK 923 INTER-LIGAND FREE ENERGY PREDICTED BY IDOCK:    4.69 KCAL/MOL
REMARK 924 INTRA-LIGAND FREE ENERGY PREDICTED BY IDOCK:   42.10 KCAL/MOL
REMARK 927      BINDING AFFINITY PREDICTED BY RF-SCORE:    0.00 PKD
ROOT
HETATM    1  C   UNL     1      -7.994   7.614  68.107  1.00  0.00    -0.123 C  
HETATM    2  C   UNL     1      -7.796   9.073  67.714  1.00  0.00    -0.101 C  
HETATM    3  C   UNL     1      -7.494   9.912  68.953  1.00  0.00    -0.081 C  
ENDROOT
BRANCH   2   4
HETATM    4  O   UNL     1      -6.673   9.189  66.818  1.00  0.00    -0.074 OA 
BRANCH   4   5
HETATM    5  C   UNL     1      -6.074  10.417  66.757  1.00  0.00    -0.064 C  
HETATM    6  O   UNL     1      -5.173  10.723  65.985  1.00  0.00    -0.075 OA 
BRANCH   5   7
HETATM    7  C   UNL     1      -6.743  11.375  67.746  1.00  0.00    -0.070 C  
HETATM    8  C   UNL     1      -5.681  12.349  68.257  1.00  0.00    -0.060 C  
BRANCH   7   9
HETATM    9  N   UNL     1      -7.419  10.619  68.829  1.00  0.00    -0.096 NA 
HETATM   10  P   UNL     1      -9.109  10.750  68.836  1.00  0.00    -0.090 P  
HETATM   11  H   UNL     1      -7.040  10.886  69.738  1.00  0.00     0.000 HD 
HETATM   12  O   UNL     1      -9.633   9.800  70.093  1.00  0.00    -0.240 OA 
HETATM   13  O   UNL     1      -9.164   9.364  67.802  1.00  0.00    -0.129 OA 
HETATM   14  O   UNL     1      -9.060  11.991  69.761  1.00  0.00     1.504 OA 
BRANCH  13  15
HETATM   15  C   UNL     1      -9.395   9.562  66.465  1.00  0.00    -0.171 A  
HETATM   16  C   UNL     1      -9.892  10.166  63.792  1.00  0.00    -0.080 A  
HETATM   17  C   UNL     1      -8.929  10.760  65.925  1.00  0.00    -0.200 A  
HETATM   18  C   UNL     1     -10.078   8.646  65.665  1.00  0.00     0.633 A  
HETATM   19  C   UNL     1      -9.183  11.065  64.588  1.00  0.00    -0.189 A  
HETATM   20  C   UNL     1     -10.330   8.955  64.327  1.00  0.00     4.347 A  
ENDBRANCH  13  15
BRANCH  12  21
HETATM   21  C   UNL     1     -10.896  10.168  70.680  1.00  0.00    -0.235 C  
BRANCH  21  22
HETATM   22  C   UNL     1     -11.746  11.264  69.969  1.00  0.00    -0.346 C  
HETATM   23  O   UNL     1     -11.534  12.549  70.596  1.00  0.00     0.287 OA 
HETATM   24  C   UNL     1     -11.505  13.011  68.286  1.00  0.00    -0.312 C  
HETATM   25  H   UNL     1     -12.195  10.994  66.668  1.00  0.00     0.000 HD 
HETATM   26  C   UNL     1     -11.446  11.485  68.467  1.00  0.00    -0.292 C  
HETATM   27  O   UNL     1     -12.379  10.859  67.591  1.00  0.00     0.275 OA 
HETATM   28  F   UNL     1     -12.348  13.328  67.264  1.00  0.00    -0.379 F  
HETATM   29  C   UNL     1     -10.128  13.543  67.923  1.00  0.00    -0.248 C  
HETATM   30  C   UNL     1     -12.060  13.484  69.631  1.00  0.00    -0.306 C  
BRANCH  30  31
HETATM   31  N   UNL     1     -11.743  14.858  70.033  1.00  0.00    -0.276 N  
HETATM   32  C   UNL     1     -11.125  15.735  69.159  1.00  0.00    -0.283 C  
HETATM   33  C   UNL     1     -10.734  16.952  69.533  1.00  0.00    -0.205 C  
HETATM   34  C   UNL     1     -10.949  17.367  70.928  1.00  0.00     1.478 C  
HETATM   35  O   UNL     1     -10.480  18.415  71.352  1.00  0.00     2.199 OA 
HETATM   36  N   UNL     1     -11.680  16.507  71.692  1.00  0.00    -0.634 N  
HETATM   37  H   UNL     1     -11.978  16.840  72.609  1.00  0.00     0.000 HD 
HETATM   38  C   UNL     1     -12.049  15.234  71.338  1.00  0.00    -0.354 C  
HETATM   39  O   UNL     1     -12.587  14.500  72.158  1.00  0.00    -0.322 OA 
ENDBRANCH  30  31
ENDBRANCH  21  22
ENDBRANCH  12  21
ENDBRANCH   7   9
ENDBRANCH   5   7
ENDBRANCH   4   5
ENDBRANCH   2   4
TORSDOF 8
ENDMDL
MODEL      263
REMARK 921   NORMALIZED FREE ENERGY PREDICTED BY IDOCK:   34.44 KCAL/MOL
REMARK 922        TOTAL FREE ENERGY PREDICTED BY IDOCK:   48.00 KCAL/MOL
REMARK 923 INTER-LIGAND FREE ENERGY PREDICTED BY IDOCK:   14.64 KCAL/MOL
REMARK 924 INTRA-LIGAND FREE ENERGY PREDICTED BY IDOCK:   33.35 KCAL/MOL
REMARK 927      BINDING AFFINITY PREDICTED BY RF-SCORE:    0.00 PKD
ROOT
HETATM    1  C   UNL     1      -8.731   9.432  68.847  1.00  0.00    -0.132 C  
HETATM    2  C   UNL     1      -9.891   8.764  68.119  1.00  0.00    -0.168 C  
HETATM    3  C   UNL     1     -11.169   8.890  68.945  1.00  0.00     0.291 C  
ENDROOT
BRANCH   2   4
HETATM    4  O   UNL     1     -10.117   9.420  66.855  1.00  0.00    -0.211 OA 
BRANCH   4   5
HETATM    5  C   UNL     1     -11.063  10.408  66.848  1.00  0.00    -0.010 C  
HETATM    6  O   UNL     1     -11.584  10.889  67.847  1.00  0.00    -0.497 OA 
BRANCH   5   7
HETATM    7  C   UNL     1     -11.325  10.872  65.413  1.00  0.00     0.434 C  
HETATM    8  C   UNL     1     -10.937   9.737  64.467  1.00  0.00     3.422 C  
BRANCH   7   9
HETATM    9  N   UNL     1     -10.609  12.142  65.136  1.00  0.00    -0.276 NA 
HETATM   10  P   UNL     1     -11.127  13.465  66.061  1.00  0.00    -0.290 P  
HETATM   11  H   UNL     1     -10.656  12.365  64.142  1.00  0.00     0.000 HD 
HETATM   12  O   UNL     1     -10.166  14.740  65.608  1.00  0.00    -0.313 OA 
HETATM   13  O   UNL     1      -9.944  13.029  67.245  1.00  0.00    -0.227 OA 
HETATM   14  O   UNL     1     -12.187  13.855  65.000  1.00  0.00    -0.384 OA 
BRANCH  13  15
HETATM   15  C   UNL     1     -10.368  12.380  68.375  1.00  0.00    -0.229 A  
HETATM   16  C   UNL     1     -11.401  11.008  70.568  1.00  0.00    -0.116 A  
HETATM   17  C   UNL     1     -11.077  11.195  68.183  1.00  0.00    -0.324 A  
HETATM   18  C   UNL     1     -10.141  12.864  69.664  1.00  0.00     1.193 A  
HETATM   19  C   UNL     1     -11.599  10.511  69.280  1.00  0.00    -0.308 A  
HETATM   20  C   UNL     1     -10.666  12.176  70.760  1.00  0.00     3.306 A  
ENDBRANCH  13  15
BRANCH  12  21
HETATM   21  C   UNL     1     -10.735  16.053  65.776  1.00  0.00    -0.301 C  
BRANCH  21  22
HETATM   22  C   UNL     1      -9.792  17.214  66.215  1.00  0.00    -0.291 C  
HETATM   23  O   UNL     1      -9.300  16.981  67.553  1.00  0.00    -0.230 OA 
HETATM   24  C   UNL     1      -7.414  17.732  66.356  1.00  0.00    -0.279 C  
HETATM   25  H   UNL     1      -7.869  18.630  63.877  1.00  0.00     0.000 HD 
HETATM   26  C   UNL     1      -8.531  17.427  65.344  1.00  0.00     1.457 C  
HETATM   27  O   UNL     1      -8.643  18.499  64.412  1.00  0.00     4.937 OA 
HETATM   28  F   UNL     1      -6.774  18.883  66.013  1.00  0.00    -0.209 F  
HETATM   29  C   UNL     1      -6.382  16.615  66.341  1.00  0.00     0.241 C  
HETATM   30  C   UNL     1      -8.188  17.895  67.666  1.00  0.00    -0.232 C  
BRANCH  30  31
HETATM   31  N   UNL     1      -7.450  17.645  68.908  1.00  0.00    -0.254 N  
HETATM   32  C   UNL     1      -7.260  16.358  69.381  1.00  0.00    -0.172 C  
HETATM   33  C   UNL     1      -6.685  16.113  70.556  1.00  0.00     0.909 C  
HETATM   34  C   UNL     1      -6.257  17.248  71.386  1.00  0.00     2.171 C  
HETATM   35  O   UNL     1      -5.856  17.077  72.531  1.00  0.00     1.447 OA 
HETATM   36  N   UNL     1      -6.354  18.476  70.800  1.00  0.00     0.574 N  
HETATM   37  H   UNL     1      -5.918  19.259  71.288  1.00  0.00     0.000 HD 
HETATM   38  C   UNL     1      -6.984  18.751  69.613  1.00  0.00     0.038 C  
HETATM   39  O   UNL     1      -7.130  19.912  69.249  1.00  0.00    -0.325 OA 
ENDBRANCH  30  31
ENDBRANCH  21  22
ENDBRANCH  12  21
ENDBRANCH   7   9
ENDBRANCH   5   7
ENDBRANCH   4   5
ENDBRANCH   2   4
TORSDOF 8
ENDMDL
MODEL      264
REMARK 921   NORMALIZED FREE ENERGY PREDICTED BY IDOCK:   68.13 KCAL/MOL
REMARK 922        TOTAL FREE ENERGY PREDICTED BY IDOCK:   97.44 KCAL/MOL
REMARK 923 INTER-LIGAND FREE ENERGY PREDICTED BY IDOCK:   24.12 KCAL/MOL
REMARK 924 INTRA-LIGAND FREE ENERGY PREDICTED BY IDOCK:   73.33 KCAL/MOL
REMARK 927      BINDING AFFINITY PREDICTED BY RF-SCORE:    0.00 PKD
ROOT
HETATM    1  C   UNL     1      -7.994   7.617  68.113  1.00  0.00    -0.123 C  
HETATM    2  C   UNL     1      -7.765   9.066  67.699  1.00  0.00    -0.097 C  
HETATM    3  C   UNL     1      -7.314   9.889  68.903  1.00  0.00    -0.078 C  
ENDROOT
BRANCH   2   4
HETATM    4  O   UNL     1      -6.724   9.130  66.705  1.00  0.00    -0.074 OA 
BRANCH   4   5
HETATM    5  C   UNL     1      -6.048  10.316  66.614  1.00  0.00    -0.064 C  
HETATM    6  O   UNL     1      -5.300  10.631  65.697  1.00  0.00    -0.090 OA 
BRANCH   5   7
HETATM    7  C   UNL     1      -6.419  11.221  67.792  1.00  0.00    -0.060 C  
HETATM    8  C   UNL     1      -5.549  12.475  67.721  1.00  0.00    -0.113 C  
BRANCH   7   9
HETATM    9  N   UNL     1      -6.291  10.486  69.075  1.00  0.00    -0.044 NA 
HETATM   10  P   UNL     1      -7.755  10.213  69.886  1.00  0.00    -0.038 P  
HETATM   11  H   UNL     1      -5.630  10.961  69.690  1.00  0.00     0.000 HD 
HETATM   12  O   UNL     1      -7.365   9.354  71.251  1.00  0.00    -0.310 OA 
HETATM   13  O   UNL     1      -7.891   8.723  69.019  1.00  0.00    -0.092 OA 
HETATM   14  O   UNL     1      -7.632  11.549  70.661  1.00  0.00     1.759 OA 
BRANCH  13  15
HETATM   15  C   UNL     1      -8.750   8.670  67.951  1.00  0.00    -0.137 A  
HETATM   16  C   UNL     1     -10.553   8.757  65.830  1.00  0.00     1.223 A  
HETATM   17  C   UNL     1      -8.924   9.853  67.235  1.00  0.00    -0.145 A  
HETATM   18  C   UNL     1      -9.448   7.518  67.589  1.00  0.00    -0.159 A  
HETATM   19  C   UNL     1      -9.831   9.899  66.176  1.00  0.00    -0.324 A  
HETATM   20  C   UNL     1     -10.356   7.567  66.529  1.00  0.00    -0.113 A  
ENDBRANCH  13  15
BRANCH  12  21
HETATM   21  C   UNL     1      -8.268   9.492  72.364  1.00  0.00     2.007 C  
BRANCH  21  22
HETATM   22  C   UNL     1      -9.770   9.781  72.062  1.00  0.00     2.300 C  
HETATM   23  O   UNL     1     -10.111  11.127  72.463  1.00  0.00    10.070 OA 
HETATM   24  C   UNL     1     -11.158  10.853  70.370  1.00  0.00     0.003 C  
HETATM   25  H   UNL     1     -11.111   8.385  69.338  1.00  0.00     0.000 HD 
HETATM   26  C   UNL     1     -10.194   9.673  70.579  1.00  0.00    -0.287 C  
HETATM   27  O   UNL     1     -10.850   8.452  70.250  1.00  0.00    -0.236 OA 
HETATM   28  F   UNL     1     -12.326  10.412  69.825  1.00  0.00    -0.302 F  
HETATM   29  C   UNL     1     -10.550  11.852  69.398  1.00  0.00     0.068 C  
HETATM   30  C   UNL     1     -11.369  11.366  71.796  1.00  0.00     3.454 C  
BRANCH  30  31
HETATM   31  N   UNL     1     -11.761  12.772  71.944  1.00  0.00     2.145 N  
HETATM   32  C   UNL     1     -11.532  13.459  73.123  1.00  0.00     5.167 C  
HETATM   33  C   UNL     1     -11.970  14.701  73.316  1.00  0.00    -0.132 C  
HETATM   34  C   UNL     1     -12.741  15.354  72.248  1.00  0.00    -0.379 C  
HETATM   35  O   UNL     1     -13.284  16.436  72.434  1.00  0.00    -0.032 OA 
HETATM   36  N   UNL     1     -12.811  14.671  71.070  1.00  0.00    -0.331 N  
HETATM   37  H   UNL     1     -13.200  15.168  70.268  1.00  0.00     0.000 HD 
HETATM   38  C   UNL     1     -12.407  13.376  70.868  1.00  0.00    -0.353 C  
HETATM   39  O   UNL     1     -12.644  12.817  69.805  1.00  0.00     0.035 OA 
ENDBRANCH  30  31
ENDBRANCH  21  22
ENDBRANCH  12  21
ENDBRANCH   7   9
ENDBRANCH   5   7
ENDBRANCH   4   5
ENDBRANCH   2   4
TORSDOF 8
ENDMDL
