MODEL        1
REMARK 921   NORMALIZED FREE ENERGY PREDICTED BY IDOCK:   -8.31 KCAL/MOL
REMARK 922        TOTAL FREE ENERGY PREDICTED BY IDOCK:  -10.73 KCAL/MOL
REMARK 923 INTER-LIGAND FREE ENERGY PREDICTED BY IDOCK:   -9.76 KCAL/MOL
REMARK 924 INTRA-LIGAND FREE ENERGY PREDICTED BY IDOCK:   -0.97 KCAL/MOL
REMARK 927      BINDING AFFINITY PREDICTED BY RF-SCORE:    0.00 PKD
ROOT
HETATM    1  O   UNL     1     -11.382  16.945  64.175  1.00  0.00    -1.208 OA 
HETATM    2  C   UNL     1     -10.801  16.262  65.011  1.00  0.00    -0.320 C  
HETATM    3  C   UNL     1      -9.501  10.140  64.842  1.00  0.00    -0.349 A  
HETATM    4  N   UNL     1     -11.100  14.941  65.272  1.00  0.00    -0.358 N  
HETATM    5  C   UNL     1     -12.201  14.307  64.564  1.00  0.00    -0.455 C  
HETATM    6  C   UNL     1     -10.371  14.134  66.254  1.00  0.00    -0.292 C  
HETATM    7  C   UNL     1     -10.064  12.740  65.715  1.00  0.00    -0.296 A  
HETATM    8  C   UNL     1     -11.769  13.028  63.853  1.00  0.00    -0.531 C  
HETATM    9  C   UNL     1      -9.064  11.971  66.339  1.00  0.00    -0.193 A  
HETATM   10  C   UNL     1     -10.775  12.198  64.627  1.00  0.00    -0.346 A  
HETATM   11  C   UNL     1      -8.782  10.683  65.901  1.00  0.00    -0.186 A  
HETATM   12  C   UNL     1     -10.488  10.894  64.204  1.00  0.00    -0.397 A  
ENDROOT
BRANCH   2  13
HETATM   13  O   UNL     1      -9.803  16.745  65.805  1.00  0.00    -0.505 OA 
BRANCH  13  14
HETATM   14  C   UNL     1      -9.808  18.171  65.971  1.00  0.00    -0.165 C  
HETATM   15  C   UNL     1      -9.114  18.551  68.793  1.00  0.00    -0.255 C  
HETATM   16  C   UNL     1      -8.401  18.645  66.387  1.00  0.00    -0.292 C  
HETATM   17  C   UNL     1      -8.457  20.175  66.518  1.00  0.00    -0.314 C  
HETATM   18  N   UNL     1     -10.168  19.371  68.157  1.00  0.00    -0.415 NA 
HETATM   19  C   UNL     1     -10.809  18.560  67.089  1.00  0.00    -0.254 C  
HETATM   20  C   UNL     1      -9.543  20.560  67.538  1.00  0.00    -0.405 C  
HETATM   21  C   UNL     1      -8.063  18.078  67.777  1.00  0.00    -0.237 C  
ENDBRANCH  13  14
ENDBRANCH   2  13
BRANCH   6  22
HETATM   22  C   UNL     1     -11.056  14.082  67.624  1.00  0.00    -0.298 A  
HETATM   23  C   UNL     1     -11.117  15.239  68.420  1.00  0.00    -0.289 A  
HETATM   24  C   UNL     1     -11.659  15.200  69.707  1.00  0.00    -0.338 A  
HETATM   25  C   UNL     1     -12.165  14.008  70.219  1.00  0.00    -0.430 A  
HETATM   26  C   UNL     1     -12.122  12.852  69.446  1.00  0.00    -0.254 A  
HETATM   27  C   UNL     1     -11.566  12.887  68.165  1.00  0.00    -0.378 A  
ENDBRANCH   6  22
TORSDOF 3
ENDMDL
MODEL        2
REMARK 921   NORMALIZED FREE ENERGY PREDICTED BY IDOCK:   -7.89 KCAL/MOL
REMARK 922        TOTAL FREE ENERGY PREDICTED BY IDOCK:  -10.24 KCAL/MOL
REMARK 923 INTER-LIGAND FREE ENERGY PREDICTED BY IDOCK:  -10.05 KCAL/MOL
REMARK 924 INTRA-LIGAND FREE ENERGY PREDICTED BY IDOCK:   -0.18 KCAL/MOL
REMARK 927      BINDING AFFINITY PREDICTED BY RF-SCORE:    0.00 PKD
ROOT
HETATM    1  O   UNL     1     -11.438  16.889  64.205  1.00  0.00    -1.174 OA 
HETATM    2  C   UNL     1     -10.818  16.172  64.983  1.00  0.00    -0.363 C  
HETATM    3  C   UNL     1      -9.517  10.068  64.487  1.00  0.00    -0.359 A  
HETATM    4  N   UNL     1     -11.102  14.840  65.200  1.00  0.00    -0.362 N  
HETATM    5  C   UNL     1     -12.234  14.234  64.515  1.00  0.00    -0.455 C  
HETATM    6  C   UNL     1     -10.328  13.993  66.110  1.00  0.00    -0.297 C  
HETATM    7  C   UNL     1     -10.044  12.626  65.498  1.00  0.00    -0.279 A  
HETATM    8  C   UNL     1     -11.832  12.989  63.730  1.00  0.00    -0.566 C  
HETATM    9  C   UNL     1      -9.015  11.834  66.041  1.00  0.00    -0.108 A  
HETATM   10  C   UNL     1     -10.803  12.128  64.421  1.00  0.00    -0.372 A  
HETATM   11  C   UNL     1      -8.751  10.567  65.535  1.00  0.00    -0.197 A  
HETATM   12  C   UNL     1     -10.534  10.846  63.929  1.00  0.00    -0.359 A  
ENDROOT
BRANCH   2  13
HETATM   13  O   UNL     1      -9.785  16.624  65.751  1.00  0.00    -0.485 OA 
BRANCH  13  14
HETATM   14  C   UNL     1     -10.175  17.485  66.832  1.00  0.00    -0.329 C  
HETATM   15  C   UNL     1      -7.739  18.998  67.436  1.00  0.00    -0.234 C  
HETATM   16  C   UNL     1     -10.025  18.956  66.398  1.00  0.00    -0.435 C  
HETATM   17  C   UNL     1     -10.484  19.827  67.577  1.00  0.00    -0.569 C  
HETATM   18  N   UNL     1      -8.599  18.484  68.525  1.00  0.00    -0.325 NA 
HETATM   19  C   UNL     1      -9.252  17.235  68.052  1.00  0.00    -0.256 C  
HETATM   20  C   UNL     1      -9.648  19.484  68.821  1.00  0.00    -0.412 C  
HETATM   21  C   UNL     1      -8.539  19.265  66.151  1.00  0.00    -0.267 C  
ENDBRANCH  13  14
ENDBRANCH   2  13
BRANCH   6  22
HETATM   22  C   UNL     1     -10.948  13.879  67.507  1.00  0.00    -0.288 A  
HETATM   23  C   UNL     1     -10.883  12.660  68.204  1.00  0.00    -0.250 A  
HETATM   24  C   UNL     1     -11.513  12.503  69.442  1.00  0.00    -0.327 A  
HETATM   25  C   UNL     1     -12.207  13.566  70.014  1.00  0.00    -0.381 A  
HETATM   26  C   UNL     1     -12.277  14.784  69.346  1.00  0.00    -0.251 A  
HETATM   27  C   UNL     1     -11.661  14.936  68.102  1.00  0.00    -0.356 A  
ENDBRANCH   6  22
TORSDOF 3
ENDMDL
MODEL        3
REMARK 921   NORMALIZED FREE ENERGY PREDICTED BY IDOCK:   -7.57 KCAL/MOL
REMARK 922        TOTAL FREE ENERGY PREDICTED BY IDOCK:   -9.86 KCAL/MOL
REMARK 923 INTER-LIGAND FREE ENERGY PREDICTED BY IDOCK:   -8.64 KCAL/MOL
REMARK 924 INTRA-LIGAND FREE ENERGY PREDICTED BY IDOCK:   -1.22 KCAL/MOL
REMARK 927      BINDING AFFINITY PREDICTED BY RF-SCORE:    0.00 PKD
ROOT
HETATM    1  O   UNL     1      -9.007  12.525  68.118  1.00  0.00    -0.191 OA 
HETATM    2  C   UNL     1      -9.855  13.411  68.120  1.00  0.00    -0.234 C  
HETATM    3  C   UNL     1      -9.028  19.617  68.048  1.00  0.00    -0.381 A  
HETATM    4  N   UNL     1      -9.697  14.631  68.744  1.00  0.00    -0.218 N  
HETATM    5  C   UNL     1      -8.481  14.891  69.499  1.00  0.00    -0.002 C  
HETATM    6  C   UNL     1     -10.710  15.688  68.705  1.00  0.00    -0.250 C  
HETATM    7  C   UNL     1     -10.084  17.055  68.452  1.00  0.00    -0.302 A  
HETATM    8  C   UNL     1      -7.777  16.164  69.036  1.00  0.00    -0.222 C  
HETATM    9  C   UNL     1     -10.903  18.110  68.008  1.00  0.00    -0.189 A  
HETATM   10  C   UNL     1      -8.715  17.291  68.677  1.00  0.00    -0.268 A  
HETATM   11  C   UNL     1     -10.376  19.379  67.803  1.00  0.00    -0.547 A  
HETATM   12  C   UNL     1      -8.199  18.578  68.477  1.00  0.00    -0.360 A  
ENDROOT
BRANCH   2  13
HETATM   13  O   UNL     1     -11.074  13.277  67.522  1.00  0.00    -0.257 OA 
BRANCH  13  14
HETATM   14  C   UNL     1     -11.043  12.633  66.239  1.00  0.00    -0.293 C  
HETATM   15  C   UNL     1     -12.281  14.590  64.443  1.00  0.00    -0.458 C  
HETATM   16  C   UNL     1     -10.190  13.468  65.264  1.00  0.00    -0.323 C  
HETATM   17  C   UNL     1     -10.166  12.719  63.923  1.00  0.00    -0.265 C  
HETATM   18  N   UNL     1     -12.597  13.150  64.325  1.00  0.00    -0.652 NA 
HETATM   19  C   UNL     1     -12.483  12.535  65.673  1.00  0.00    -0.066 C  
HETATM   20  C   UNL     1     -11.608  12.512  63.429  1.00  0.00    -0.473 C  
HETATM   21  C   UNL     1     -10.876  14.823  65.020  1.00  0.00    -0.440 C  
ENDBRANCH  13  14
ENDBRANCH   2  13
BRANCH   6  22
HETATM   22  C   UNL     1     -11.626  15.694  69.935  1.00  0.00    -0.354 A  
HETATM   23  C   UNL     1     -11.171  16.248  71.143  1.00  0.00    -0.184 A  
HETATM   24  C   UNL     1     -11.952  16.193  72.301  1.00  0.00    -0.637 A  
HETATM   25  C   UNL     1     -13.209  15.595  72.270  1.00  0.00    -0.558 A  
HETATM   26  C   UNL     1     -13.684  15.048  71.082  1.00  0.00    -0.484 A  
HETATM   27  C   UNL     1     -12.897  15.090  69.929  1.00  0.00    -0.036 A  
ENDBRANCH   6  22
TORSDOF 3
ENDMDL
MODEL        4
REMARK 921   NORMALIZED FREE ENERGY PREDICTED BY IDOCK:   -7.50 KCAL/MOL
REMARK 922        TOTAL FREE ENERGY PREDICTED BY IDOCK:   -9.79 KCAL/MOL
REMARK 923 INTER-LIGAND FREE ENERGY PREDICTED BY IDOCK:   -8.36 KCAL/MOL
REMARK 924 INTRA-LIGAND FREE ENERGY PREDICTED BY IDOCK:   -1.43 KCAL/MOL
REMARK 927      BINDING AFFINITY PREDICTED BY RF-SCORE:    0.00 PKD
ROOT
HETATM    1  O   UNL     1     -11.720  13.252  67.323  1.00  0.00    -0.336 OA 
HETATM    2  C   UNL     1     -11.161  14.114  67.993  1.00  0.00    -0.281 C  
HETATM    3  C   UNL     1     -10.402  20.193  66.698  1.00  0.00    -0.508 A  
HETATM    4  N   UNL     1     -10.456  15.172  67.458  1.00  0.00    -0.254 N  
HETATM    5  C   UNL     1     -10.304  15.267  66.014  1.00  0.00    -0.312 C  
HETATM    6  C   UNL     1      -9.823  16.209  68.276  1.00  0.00    -0.224 C  
HETATM    7  C   UNL     1     -10.065  17.601  67.702  1.00  0.00    -0.339 A  
HETATM    8  C   UNL     1     -10.781  16.612  65.473  1.00  0.00    -0.234 C  
HETATM    9  C   UNL     1      -9.873  18.724  68.528  1.00  0.00    -0.444 A  
HETATM   10  C   UNL     1     -10.448  17.788  66.360  1.00  0.00    -0.297 A  
HETATM   11  C   UNL     1     -10.047  20.010  68.030  1.00  0.00    -0.557 A  
HETATM   12  C   UNL     1     -10.608  19.088  65.868  1.00  0.00    -0.466 A  
ENDROOT
BRANCH   2  13
HETATM   13  O   UNL     1     -11.151  14.108  69.357  1.00  0.00    -0.251 OA 
BRANCH  13  14
HETATM   14  C   UNL     1     -12.451  14.050  69.965  1.00  0.00    -0.281 C  
HETATM   15  C   UNL     1     -11.961  14.844  72.743  1.00  0.00    -0.233 C  
HETATM   16  C   UNL     1     -12.845  15.451  70.472  1.00  0.00    -0.425 C  
HETATM   17  C   UNL     1     -14.250  15.336  71.081  1.00  0.00    -0.410 C  
HETATM   18  N   UNL     1     -12.882  13.730  72.426  1.00  0.00    -0.292 NA 
HETATM   19  C   UNL     1     -12.415  13.080  71.174  1.00  0.00    -0.271 C  
HETATM   20  C   UNL     1     -14.237  14.278  72.198  1.00  0.00    -0.542 C  
HETATM   21  C   UNL     1     -11.889  15.871  71.602  1.00  0.00    -0.565 C  
ENDBRANCH  13  14
ENDBRANCH   2  13
BRANCH   6  22
HETATM   22  C   UNL     1      -8.336  15.948  68.543  1.00  0.00    -0.182 A  
HETATM   23  C   UNL     1      -7.949  15.182  69.656  1.00  0.00    -0.113 A  
HETATM   24  C   UNL     1      -6.600  14.999  69.971  1.00  0.00    -0.158 A  
HETATM   25  C   UNL     1      -5.611  15.564  69.171  1.00  0.00    -0.104 A  
HETATM   26  C   UNL     1      -5.971  16.319  68.059  1.00  0.00    -0.127 A  
HETATM   27  C   UNL     1      -7.320  16.515  67.753  1.00  0.00    -0.154 A  
ENDBRANCH   6  22
TORSDOF 3
ENDMDL
MODEL        5
REMARK 921   NORMALIZED FREE ENERGY PREDICTED BY IDOCK:   -7.27 KCAL/MOL
REMARK 922        TOTAL FREE ENERGY PREDICTED BY IDOCK:   -9.51 KCAL/MOL
REMARK 923 INTER-LIGAND FREE ENERGY PREDICTED BY IDOCK:   -8.42 KCAL/MOL
REMARK 924 INTRA-LIGAND FREE ENERGY PREDICTED BY IDOCK:   -1.09 KCAL/MOL
REMARK 927      BINDING AFFINITY PREDICTED BY RF-SCORE:    0.00 PKD
ROOT
HETATM    1  O   UNL     1      -6.777  14.955  67.209  1.00  0.00    -0.277 OA 
HETATM    2  C   UNL     1      -7.992  14.792  67.245  1.00  0.00    -0.205 C  
HETATM    3  C   UNL     1     -11.245  10.223  70.026  1.00  0.00    -0.376 A  
HETATM    4  N   UNL     1      -8.606  13.556  67.250  1.00  0.00    -0.208 N  
HETATM    5  C   UNL     1      -7.789  12.356  67.156  1.00  0.00    -0.138 C  
HETATM    6  C   UNL     1     -10.058  13.384  67.326  1.00  0.00    -0.238 C  
HETATM    7  C   UNL     1     -10.441  12.276  68.301  1.00  0.00    -0.236 A  
HETATM    8  C   UNL     1      -8.062  11.383  68.300  1.00  0.00    -0.143 C  
HETATM    9  C   UNL     1     -11.760  12.221  68.790  1.00  0.00    -0.390 A  
HETATM   10  C   UNL     1      -9.514  11.295  68.702  1.00  0.00    -0.179 A  
HETATM   11  C   UNL     1     -12.155  11.204  69.651  1.00  0.00    -0.406 A  
HETATM   12  C   UNL     1      -9.930  10.270  69.560  1.00  0.00    -0.252 A  
ENDROOT
BRANCH   2  13
HETATM   13  O   UNL     1      -8.882  15.825  67.255  1.00  0.00    -0.183 OA 
BRANCH  13  14
HETATM   14  C   UNL     1      -8.296  17.118  67.466  1.00  0.00    -0.190 C  
HETATM   15  C   UNL     1     -10.266  18.972  66.339  1.00  0.00    -0.437 C  
HETATM   16  C   UNL     1      -9.213  17.955  68.380  1.00  0.00    -0.289 C  
HETATM   17  C   UNL     1      -8.524  19.311  68.597  1.00  0.00    -0.403 C  
HETATM   18  N   UNL     1      -8.818  19.180  66.116  1.00  0.00    -0.448 NA 
HETATM   19  C   UNL     1      -8.152  17.851  66.108  1.00  0.00    -0.173 C  
HETATM   20  C   UNL     1      -8.269  19.977  67.234  1.00  0.00    -0.326 C  
HETATM   21  C   UNL     1     -10.542  18.228  67.654  1.00  0.00    -0.427 C  
ENDBRANCH  13  14
ENDBRANCH   2  13
BRANCH   6  22
HETATM   22  C   UNL     1     -10.719  13.196  65.955  1.00  0.00    -0.288 A  
HETATM   23  C   UNL     1     -11.513  14.222  65.415  1.00  0.00    -0.332 A  
HETATM   24  C   UNL     1     -12.195  14.045  64.208  1.00  0.00    -0.453 A  
HETATM   25  C   UNL     1     -12.084  12.846  63.510  1.00  0.00    -0.633 A  
HETATM   26  C   UNL     1     -11.296  11.819  64.022  1.00  0.00    -0.461 A  
HETATM   27  C   UNL     1     -10.627  11.990  65.236  1.00  0.00    -0.328 A  
ENDBRANCH   6  22
TORSDOF 3
ENDMDL
MODEL        6
REMARK 921   NORMALIZED FREE ENERGY PREDICTED BY IDOCK:   -7.22 KCAL/MOL
REMARK 922        TOTAL FREE ENERGY PREDICTED BY IDOCK:   -9.45 KCAL/MOL
REMARK 923 INTER-LIGAND FREE ENERGY PREDICTED BY IDOCK:   -8.59 KCAL/MOL
REMARK 924 INTRA-LIGAND FREE ENERGY PREDICTED BY IDOCK:   -0.86 KCAL/MOL
REMARK 927      BINDING AFFINITY PREDICTED BY RF-SCORE:    0.00 PKD
ROOT
HETATM    1  O   UNL     1     -11.463  15.909  64.506  1.00  0.00    -0.423 OA 
HETATM    2  C   UNL     1     -10.843  15.265  65.346  1.00  0.00    -0.387 C  
HETATM    3  C   UNL     1      -8.500   9.477  64.891  1.00  0.00    -0.170 A  
HETATM    4  N   UNL     1     -10.930  13.896  65.489  1.00  0.00    -0.295 N  
HETATM    5  C   UNL     1     -11.845  13.149  64.639  1.00  0.00    -0.370 C  
HETATM    6  C   UNL     1     -10.155  13.143  66.478  1.00  0.00    -0.280 C  
HETATM    7  C   UNL     1      -9.571  11.868  65.879  1.00  0.00    -0.248 A  
HETATM    8  C   UNL     1     -11.142  12.021  63.888  1.00  0.00    -0.474 C  
HETATM    9  C   UNL     1      -8.507  11.227  66.542  1.00  0.00    -0.171 A  
HETATM   10  C   UNL     1     -10.087  11.306  64.696  1.00  0.00    -0.343 A  
HETATM   11  C   UNL     1      -7.973  10.043  66.047  1.00  0.00    -0.118 A  
HETATM   12  C   UNL     1      -9.547  10.107  64.215  1.00  0.00    -0.354 A  
ENDROOT
BRANCH   2  13
HETATM   13  O   UNL     1     -10.011  15.840  66.261  1.00  0.00    -0.258 OA 
BRANCH  13  14
HETATM   14  C   UNL     1     -10.397  17.160  66.675  1.00  0.00    -0.310 C  
HETATM   15  C   UNL     1      -8.138  18.072  68.303  1.00  0.00    -0.291 C  
HETATM   16  C   UNL     1      -9.387  18.187  66.128  1.00  0.00    -0.147 C  
HETATM   17  C   UNL     1      -9.866  19.577  66.573  1.00  0.00    -0.498 C  
HETATM   18  N   UNL     1      -9.531  18.343  68.723  1.00  0.00    -0.320 NA 
HETATM   19  C   UNL     1     -10.391  17.239  68.223  1.00  0.00    -0.361 C  
HETATM   20  C   UNL     1      -9.980  19.610  68.107  1.00  0.00    -0.437 C  
HETATM   21  C   UNL     1      -8.014  17.946  66.777  1.00  0.00    -0.259 C  
ENDBRANCH  13  14
ENDBRANCH   2  13
BRANCH   6  22
HETATM   22  C   UNL     1     -10.930  12.867  67.772  1.00  0.00    -0.269 A  
HETATM   23  C   UNL     1     -11.172  13.913  68.679  1.00  0.00    -0.298 A  
HETATM   24  C   UNL     1     -11.801  13.673  69.904  1.00  0.00    -0.389 A  
HETATM   25  C   UNL     1     -12.213  12.386  70.240  1.00  0.00    -0.345 A  
HETATM   26  C   UNL     1     -11.990  11.337  69.354  1.00  0.00    -0.410 A  
HETATM   27  C   UNL     1     -11.348  11.574  68.136  1.00  0.00    -0.367 A  
ENDBRANCH   6  22
TORSDOF 3
ENDMDL
MODEL        7
REMARK 921   NORMALIZED FREE ENERGY PREDICTED BY IDOCK:   -7.20 KCAL/MOL
REMARK 922        TOTAL FREE ENERGY PREDICTED BY IDOCK:   -9.43 KCAL/MOL
REMARK 923 INTER-LIGAND FREE ENERGY PREDICTED BY IDOCK:   -8.06 KCAL/MOL
REMARK 924 INTRA-LIGAND FREE ENERGY PREDICTED BY IDOCK:   -1.37 KCAL/MOL
REMARK 927      BINDING AFFINITY PREDICTED BY RF-SCORE:    0.00 PKD
ROOT
HETATM    1  O   UNL     1     -11.009  17.475  64.916  1.00  0.00    -0.887 OA 
HETATM    2  C   UNL     1     -10.532  17.009  65.946  1.00  0.00    -0.274 C  
HETATM    3  C   UNL     1      -8.409  11.214  67.000  1.00  0.00    -0.144 A  
HETATM    4  N   UNL     1     -10.697  15.701  66.351  1.00  0.00    -0.306 N  
HETATM    5  C   UNL     1     -11.528  14.810  65.555  1.00  0.00    -0.329 C  
HETATM    6  C   UNL     1     -10.091  15.157  67.568  1.00  0.00    -0.232 C  
HETATM    7  C   UNL     1      -9.491  13.776  67.326  1.00  0.00    -0.236 A  
HETATM    8  C   UNL     1     -10.785  13.539  65.152  1.00  0.00    -0.349 C  
HETATM    9  C   UNL     1      -8.552  13.269  68.243  1.00  0.00    -0.169 A  
HETATM   10  C   UNL     1      -9.875  12.989  66.223  1.00  0.00    -0.278 A  
HETATM   11  C   UNL     1      -8.012  11.999  68.076  1.00  0.00    -0.149 A  
HETATM   12  C   UNL     1      -9.331  11.708  66.074  1.00  0.00    -0.241 A  
ENDROOT
BRANCH   2  13
HETATM   13  O   UNL     1      -9.800  17.748  66.828  1.00  0.00    -0.291 OA 
BRANCH  13  14
HETATM   14  C   UNL     1      -8.749  18.523  66.232  1.00  0.00    -0.203 C  
HETATM   15  C   UNL     1      -7.282  19.598  68.530  1.00  0.00    -0.328 C  
HETATM   16  C   UNL     1      -7.383  17.942  66.645  1.00  0.00    -0.260 C  
HETATM   17  C   UNL     1      -6.301  18.787  65.956  1.00  0.00    -0.245 C  
HETATM   18  N   UNL     1      -7.558  20.443  67.347  1.00  0.00    -0.313 NA 
HETATM   19  C   UNL     1      -8.834  19.987  66.736  1.00  0.00    -0.342 C  
HETATM   20  C   UNL     1      -6.470  20.261  66.362  1.00  0.00    -0.212 C  
HETATM   21  C   UNL     1      -7.197  18.109  68.163  1.00  0.00    -0.247 C  
ENDBRANCH  13  14
ENDBRANCH   2  13
BRANCH   6  22
HETATM   22  C   UNL     1     -11.037  15.169  68.774  1.00  0.00    -0.272 A  
HETATM   23  C   UNL     1     -10.951  16.204  69.721  1.00  0.00    -0.349 A  
HETATM   24  C   UNL     1     -11.743  16.195  70.873  1.00  0.00    -0.370 A  
HETATM   25  C   UNL     1     -12.646  15.159  71.093  1.00  0.00    -0.433 A  
HETATM   26  C   UNL     1     -12.754  14.128  70.166  1.00  0.00    -0.227 A  
HETATM   27  C   UNL     1     -11.952  14.129  69.022  1.00  0.00    -0.376 A  
ENDBRANCH   6  22
TORSDOF 3
ENDMDL
MODEL        8
REMARK 921   NORMALIZED FREE ENERGY PREDICTED BY IDOCK:   -7.04 KCAL/MOL
REMARK 922        TOTAL FREE ENERGY PREDICTED BY IDOCK:   -9.24 KCAL/MOL
REMARK 923 INTER-LIGAND FREE ENERGY PREDICTED BY IDOCK:   -7.80 KCAL/MOL
REMARK 924 INTRA-LIGAND FREE ENERGY PREDICTED BY IDOCK:   -1.44 KCAL/MOL
REMARK 927      BINDING AFFINITY PREDICTED BY RF-SCORE:    0.00 PKD
ROOT
HETATM    1  O   UNL     1     -12.042  14.880  64.786  1.00  0.00    -0.393 OA 
HETATM    2  C   UNL     1     -11.432  14.688  65.833  1.00  0.00    -0.338 C  
HETATM    3  C   UNL     1      -7.294  10.187  67.182  1.00  0.00    -0.091 A  
HETATM    4  N   UNL     1     -11.096  13.440  66.315  1.00  0.00    -0.291 N  
HETATM    5  C   UNL     1     -11.525  12.257  65.584  1.00  0.00    -0.368 C  
HETATM    6  C   UNL     1     -10.339  13.236  67.552  1.00  0.00    -0.229 C  
HETATM    7  C   UNL     1      -9.262  12.170  67.379  1.00  0.00    -0.182 A  
HETATM    8  C   UNL     1     -10.357  11.337  65.242  1.00  0.00    -0.337 C  
HETATM    9  C   UNL     1      -8.207  12.106  68.309  1.00  0.00    -0.168 A  
HETATM   10  C   UNL     1      -9.314  11.233  66.329  1.00  0.00    -0.226 A  
HETATM   11  C   UNL     1      -7.228  11.125  68.206  1.00  0.00    -0.083 A  
HETATM   12  C   UNL     1      -8.328  10.243  66.244  1.00  0.00    -0.134 A  
ENDROOT
BRANCH   2  13
HETATM   13  O   UNL     1     -11.037  15.698  66.661  1.00  0.00    -0.270 OA 
BRANCH  13  14
HETATM   14  C   UNL     1      -9.997  16.534  66.130  1.00  0.00    -0.343 C  
HETATM   15  C   UNL     1      -9.246  18.237  68.394  1.00  0.00    -0.317 C  
HETATM   16  C   UNL     1      -8.691  16.288  66.911  1.00  0.00    -0.237 C  
HETATM   17  C   UNL     1      -7.611  17.181  66.283  1.00  0.00    -0.352 C  
HETATM   18  N   UNL     1      -9.365  18.800  67.031  1.00  0.00    -0.290 NA 
HETATM   19  C   UNL     1     -10.396  18.023  66.294  1.00  0.00    -0.382 C  
HETATM   20  C   UNL     1      -8.069  18.649  66.334  1.00  0.00    -0.281 C  
HETATM   21  C   UNL     1      -8.875  16.747  68.368  1.00  0.00    -0.237 C  
ENDBRANCH  13  14
ENDBRANCH   2  13
BRANCH   6  22
HETATM   22  C   UNL     1     -11.228  12.962  68.769  1.00  0.00    -0.323 A  
HETATM   23  C   UNL     1     -11.681  14.032  69.559  1.00  0.00    -0.367 A  
HETATM   24  C   UNL     1     -12.423  13.806  70.723  1.00  0.00    -0.441 A  
HETATM   25  C   UNL     1     -12.738  12.507  71.110  1.00  0.00    -0.340 A  
HETATM   26  C   UNL     1     -12.307  11.432  70.339  1.00  0.00    -0.404 A  
HETATM   27  C   UNL     1     -11.553  11.658  69.185  1.00  0.00    -0.378 A  
ENDBRANCH   6  22
TORSDOF 3
ENDMDL
MODEL        9
REMARK 921   NORMALIZED FREE ENERGY PREDICTED BY IDOCK:   -6.99 KCAL/MOL
REMARK 922        TOTAL FREE ENERGY PREDICTED BY IDOCK:   -9.19 KCAL/MOL
REMARK 923 INTER-LIGAND FREE ENERGY PREDICTED BY IDOCK:   -8.07 KCAL/MOL
REMARK 924 INTRA-LIGAND FREE ENERGY PREDICTED BY IDOCK:   -1.11 KCAL/MOL
REMARK 927      BINDING AFFINITY PREDICTED BY RF-SCORE:    0.00 PKD
ROOT
HETATM    1  O   UNL     1      -6.975  13.686  67.654  1.00  0.00    -0.154 OA 
HETATM    2  C   UNL     1      -8.085  14.197  67.553  1.00  0.00    -0.187 C  
HETATM    3  C   UNL     1      -9.622  20.265  67.672  1.00  0.00    -0.530 A  
HETATM    4  N   UNL     1      -8.468  15.349  68.208  1.00  0.00    -0.156 N  
HETATM    5  C   UNL     1      -7.535  15.990  69.122  1.00  0.00    -0.216 C  
HETATM    6  C   UNL     1      -9.789  15.961  68.048  1.00  0.00    -0.218 C  
HETATM    7  C   UNL     1      -9.690  17.475  67.898  1.00  0.00    -0.278 A  
HETATM    8  C   UNL     1      -7.306  17.458  68.775  1.00  0.00    -0.257 C  
HETATM    9  C   UNL     1     -10.783  18.182  67.362  1.00  0.00    -0.355 A  
HETATM   10  C   UNL     1      -8.544  18.183  68.308  1.00  0.00    -0.298 A  
HETATM   11  C   UNL     1     -10.745  19.566  67.245  1.00  0.00    -0.604 A  
HETATM   12  C   UNL     1      -8.525  19.578  68.195  1.00  0.00    -0.361 A  
ENDROOT
BRANCH   2  13
HETATM   13  O   UNL     1      -9.085  13.663  66.795  1.00  0.00    -0.247 OA 
BRANCH  13  14
HETATM   14  C   UNL     1      -9.053  12.232  66.685  1.00  0.00    -0.203 C  
HETATM   15  C   UNL     1     -11.758  11.408  67.456  1.00  0.00    -0.140 C  
HETATM   16  C   UNL     1     -10.077  11.774  65.627  1.00  0.00    -0.278 C  
HETATM   17  C   UNL     1      -9.976  10.245  65.528  1.00  0.00    -0.364 C  
HETATM   18  N   UNL     1     -10.575  10.652  67.923  1.00  0.00    -0.210 NA 
HETATM   19  C   UNL     1      -9.435  11.598  68.047  1.00  0.00    -0.185 C  
HETATM   20  C   UNL     1     -10.232   9.626  66.914  1.00  0.00    -0.237 C  
HETATM   21  C   UNL     1     -11.497  12.110  66.114  1.00  0.00    -0.429 C  
ENDBRANCH  13  14
ENDBRANCH   2  13
BRANCH   6  22
HETATM   22  C   UNL     1     -10.782  15.555  69.143  1.00  0.00    -0.250 A  
HETATM   23  C   UNL     1     -10.887  16.328  70.312  1.00  0.00    -0.257 A  
HETATM   24  C   UNL     1     -11.722  15.936  71.362  1.00  0.00    -0.530 A  
HETATM   25  C   UNL     1     -12.479  14.772  71.258  1.00  0.00    -0.391 A  
HETATM   26  C   UNL     1     -12.396  13.995  70.106  1.00  0.00    -0.409 A  
HETATM   27  C   UNL     1     -11.551  14.380  69.063  1.00  0.00    -0.330 A  
ENDBRANCH   6  22
TORSDOF 3
ENDMDL
MODEL       10
REMARK 921   NORMALIZED FREE ENERGY PREDICTED BY IDOCK:   -6.95 KCAL/MOL
REMARK 922        TOTAL FREE ENERGY PREDICTED BY IDOCK:   -9.14 KCAL/MOL
REMARK 923 INTER-LIGAND FREE ENERGY PREDICTED BY IDOCK:   -8.34 KCAL/MOL
REMARK 924 INTRA-LIGAND FREE ENERGY PREDICTED BY IDOCK:   -0.80 KCAL/MOL
REMARK 927      BINDING AFFINITY PREDICTED BY RF-SCORE:    0.00 PKD
ROOT
HETATM    1  O   UNL     1      -8.418  10.369  69.285  1.00  0.00    -0.153 OA 
HETATM    2  C   UNL     1      -9.553  10.804  69.123  1.00  0.00    -0.151 C  
HETATM    3  C   UNL     1     -11.731  14.431  64.507  1.00  0.00    -0.430 A  
HETATM    4  N   UNL     1      -9.838  12.032  68.563  1.00  0.00    -0.200 N  
HETATM    5  C   UNL     1      -8.742  12.910  68.180  1.00  0.00    -0.190 C  
HETATM    6  C   UNL     1     -11.203  12.519  68.349  1.00  0.00    -0.272 C  
HETATM    7  C   UNL     1     -11.357  13.168  66.978  1.00  0.00    -0.349 A  
HETATM    8  C   UNL     1      -8.835  13.343  66.720  1.00  0.00    -0.145 C  
HETATM    9  C   UNL     1     -12.649  13.344  66.447  1.00  0.00    -0.160 A  
HETATM   10  C   UNL     1     -10.242  13.618  66.246  1.00  0.00    -0.296 A  
HETATM   11  C   UNL     1     -12.832  13.966  65.217  1.00  0.00    -0.437 A  
HETATM   12  C   UNL     1     -10.442  14.253  65.015  1.00  0.00    -0.458 A  
ENDROOT
BRANCH   2  13
HETATM   13  O   UNL     1     -10.673  10.127  69.507  1.00  0.00    -0.215 OA 
BRANCH  13  14
HETATM   14  C   UNL     1     -10.666   9.686  70.874  1.00  0.00    -0.332 C  
HETATM   15  C   UNL     1     -11.895   7.028  70.759  1.00  0.00    -0.355 C  
HETATM   16  C   UNL     1      -9.811   8.409  70.998  1.00  0.00    -0.232 C  
HETATM   17  C   UNL     1      -9.813   8.003  72.480  1.00  0.00    -0.330 C  
HETATM   18  N   UNL     1     -12.233   7.971  71.847  1.00  0.00    -0.304 NA 
HETATM   19  C   UNL     1     -12.113   9.355  71.319  1.00  0.00    -0.345 C  
HETATM   20  C   UNL     1     -11.264   7.799  72.951  1.00  0.00    -0.376 C  
HETATM   21  C   UNL     1     -10.480   7.270  70.210  1.00  0.00    -0.231 C  
ENDBRANCH  13  14
ENDBRANCH   2  13
BRANCH   6  22
HETATM   22  C   UNL     1     -11.706  13.428  69.475  1.00  0.00    -0.385 A  
HETATM   23  C   UNL     1     -12.375  12.871  70.579  1.00  0.00    -0.362 A  
HETATM   24  C   UNL     1     -12.918  13.683  71.578  1.00  0.00    -0.443 A  
HETATM   25  C   UNL     1     -12.790  15.068  71.502  1.00  0.00    -0.422 A  
HETATM   26  C   UNL     1     -12.124  15.641  70.423  1.00  0.00    -0.425 A  
HETATM   27  C   UNL     1     -11.594  14.830  69.417  1.00  0.00    -0.342 A  
ENDBRANCH   6  22
TORSDOF 3
ENDMDL
MODEL       11
REMARK 921   NORMALIZED FREE ENERGY PREDICTED BY IDOCK:   -6.87 KCAL/MOL
REMARK 922        TOTAL FREE ENERGY PREDICTED BY IDOCK:   -9.05 KCAL/MOL
REMARK 923 INTER-LIGAND FREE ENERGY PREDICTED BY IDOCK:   -7.75 KCAL/MOL
REMARK 924 INTRA-LIGAND FREE ENERGY PREDICTED BY IDOCK:   -1.30 KCAL/MOL
REMARK 927      BINDING AFFINITY PREDICTED BY RF-SCORE:    0.00 PKD
ROOT
HETATM    1  O   UNL     1     -11.972  12.312  69.263  1.00  0.00    -0.296 OA 
HETATM    2  C   UNL     1     -11.618  11.532  68.386  1.00  0.00    -0.308 C  
HETATM    3  C   UNL     1     -10.623   5.365  68.805  1.00  0.00    -0.179 A  
HETATM    4  N   UNL     1     -10.810  10.436  68.606  1.00  0.00    -0.217 N  
HETATM    5  C   UNL     1     -10.287  10.195  69.942  1.00  0.00    -0.261 C  
HETATM    6  C   UNL     1     -10.427   9.498  67.548  1.00  0.00    -0.275 C  
HETATM    7  C   UNL     1     -10.527   8.051  68.020  1.00  0.00    -0.243 A  
HETATM    8  C   UNL     1     -10.623   8.795  70.448  1.00  0.00    -0.251 C  
HETATM    9  C   UNL     1     -10.572   7.021  67.061  1.00  0.00    -0.412 A  
HETATM   10  C   UNL     1     -10.548   7.722  69.389  1.00  0.00    -0.211 A  
HETATM   11  C   UNL     1     -10.626   5.689  67.453  1.00  0.00    -0.312 A  
HETATM   12  C   UNL     1     -10.590   6.375  69.769  1.00  0.00    -0.309 A  
ENDROOT
BRANCH   2  13
HETATM   13  O   UNL     1     -11.965  11.678  67.075  1.00  0.00    -0.593 OA 
BRANCH  13  14
HETATM   14  C   UNL     1     -11.856  13.018  66.572  1.00  0.00    -0.403 C  
HETATM   15  C   UNL     1     -10.537  12.688  63.976  1.00  0.00    -0.427 C  
HETATM   16  C   UNL     1     -12.650  13.141  65.256  1.00  0.00    -0.531 C  
HETATM   17  C   UNL     1     -12.524  14.597  64.783  1.00  0.00    -0.286 C  
HETATM   18  N   UNL     1     -10.157  13.794  64.882  1.00  0.00    -0.328 NA 
HETATM   19  C   UNL     1     -10.368  13.344  66.282  1.00  0.00    -0.291 C  
HETATM   20  C   UNL     1     -11.037  14.954  64.619  1.00  0.00    -0.323 C  
HETATM   21  C   UNL     1     -11.996  12.253  64.184  1.00  0.00    -0.518 C  
ENDBRANCH  13  14
ENDBRANCH   2  13
BRANCH   6  22
HETATM   22  C   UNL     1      -9.059   9.807  66.930  1.00  0.00    -0.162 A  
HETATM   23  C   UNL     1      -8.954  10.057  65.551  1.00  0.00    -0.206 A  
HETATM   24  C   UNL     1      -7.710  10.259  64.947  1.00  0.00    -0.124 A  
HETATM   25  C   UNL     1      -6.547  10.229  65.713  1.00  0.00    -0.119 A  
HETATM   26  C   UNL     1      -6.627   9.991  67.081  1.00  0.00    -0.070 A  
HETATM   27  C   UNL     1      -7.870   9.775  67.682  1.00  0.00    -0.095 A  
ENDBRANCH   6  22
TORSDOF 3
ENDMDL
MODEL       12
REMARK 921   NORMALIZED FREE ENERGY PREDICTED BY IDOCK:   -6.86 KCAL/MOL
REMARK 922        TOTAL FREE ENERGY PREDICTED BY IDOCK:   -9.03 KCAL/MOL
REMARK 923 INTER-LIGAND FREE ENERGY PREDICTED BY IDOCK:   -7.92 KCAL/MOL
REMARK 924 INTRA-LIGAND FREE ENERGY PREDICTED BY IDOCK:   -1.11 KCAL/MOL
REMARK 927      BINDING AFFINITY PREDICTED BY RF-SCORE:    0.00 PKD
ROOT
HETATM    1  O   UNL     1     -12.944  12.314  71.359  1.00  0.00    -0.366 OA 
HETATM    2  C   UNL     1     -12.176  12.161  70.415  1.00  0.00    -0.294 C  
HETATM    3  C   UNL     1      -7.569  15.928  68.469  1.00  0.00    -0.145 A  
HETATM    4  N   UNL     1     -11.684  13.193  69.644  1.00  0.00    -0.309 N  
HETATM    5  C   UNL     1     -12.126  14.553  69.910  1.00  0.00    -0.336 C  
HETATM    6  C   UNL     1     -10.742  12.991  68.541  1.00  0.00    -0.255 C  
HETATM    7  C   UNL     1      -9.627  14.031  68.559  1.00  0.00    -0.201 A  
HETATM    8  C   UNL     1     -10.956  15.503  70.146  1.00  0.00    -0.336 C  
HETATM    9  C   UNL     1      -8.446  13.780  67.834  1.00  0.00    -0.176 A  
HETATM   10  C   UNL     1      -9.762  15.244  69.260  1.00  0.00    -0.254 A  
HETATM   11  C   UNL     1      -7.424  14.720  67.796  1.00  0.00    -0.178 A  
HETATM   12  C   UNL     1      -8.729  16.187  69.203  1.00  0.00    -0.235 A  
ENDROOT
BRANCH   2  13
HETATM   13  O   UNL     1     -11.740  10.937  70.000  1.00  0.00    -0.283 OA 
BRANCH  13  14
HETATM   14  C   UNL     1     -11.167  10.123  71.035  1.00  0.00    -0.247 C  
HETATM   15  C   UNL     1     -11.124   7.435  69.869  1.00  0.00    -0.190 C  
HETATM   16  C   UNL     1      -9.853   9.497  70.529  1.00  0.00    -0.331 C  
HETATM   17  C   UNL     1      -9.270   8.667  71.682  1.00  0.00    -0.326 C  
HETATM   18  N   UNL     1     -11.516   7.640  71.281  1.00  0.00    -0.264 NA 
HETATM   19  C   UNL     1     -12.149   8.980  71.398  1.00  0.00    -0.327 C  
HETATM   20  C   UNL     1     -10.302   7.614  72.125  1.00  0.00    -0.221 C  
HETATM   21  C   UNL     1     -10.162   8.527  69.376  1.00  0.00    -0.211 C  
ENDBRANCH  13  14
ENDBRANCH   2  13
BRANCH   6  22
HETATM   22  C   UNL     1     -11.423  12.902  67.170  1.00  0.00    -0.388 A  
HETATM   23  C   UNL     1     -11.193  11.787  66.346  1.00  0.00    -0.382 A  
HETATM   24  C   UNL     1     -11.733  11.720  65.058  1.00  0.00    -0.174 A  
HETATM   25  C   UNL     1     -12.525  12.758  64.576  1.00  0.00    -0.501 A  
HETATM   26  C   UNL     1     -12.772  13.868  65.377  1.00  0.00    -0.525 A  
HETATM   27  C   UNL     1     -12.220  13.942  66.658  1.00  0.00    -0.465 A  
ENDBRANCH   6  22
TORSDOF 3
ENDMDL
MODEL       13
REMARK 921   NORMALIZED FREE ENERGY PREDICTED BY IDOCK:   -6.80 KCAL/MOL
REMARK 922        TOTAL FREE ENERGY PREDICTED BY IDOCK:   -8.96 KCAL/MOL
REMARK 923 INTER-LIGAND FREE ENERGY PREDICTED BY IDOCK:   -7.49 KCAL/MOL
REMARK 924 INTRA-LIGAND FREE ENERGY PREDICTED BY IDOCK:   -1.47 KCAL/MOL
REMARK 927      BINDING AFFINITY PREDICTED BY RF-SCORE:    0.00 PKD
ROOT
HETATM    1  O   UNL     1      -6.880  11.874  68.570  1.00  0.00    -0.065 OA 
HETATM    2  C   UNL     1      -8.067  11.629  68.377  1.00  0.00    -0.153 C  
HETATM    3  C   UNL     1     -12.076  14.507  64.524  1.00  0.00    -0.501 A  
HETATM    4  N   UNL     1      -9.017  12.588  68.095  1.00  0.00    -0.197 N  
HETATM    5  C   UNL     1      -8.628  13.990  68.071  1.00  0.00    -0.179 C  
HETATM    6  C   UNL     1     -10.423  12.270  67.835  1.00  0.00    -0.213 C  
HETATM    7  C   UNL     1     -10.966  13.061  66.650  1.00  0.00    -0.301 A  
HETATM    8  C   UNL     1      -9.001  14.668  66.756  1.00  0.00    -0.283 C  
HETATM    9  C   UNL     1     -12.147  12.624  66.020  1.00  0.00    -0.429 A  
HETATM   10  C   UNL     1     -10.330  14.230  66.190  1.00  0.00    -0.305 A  
HETATM   11  C   UNL     1     -12.693  13.340  64.961  1.00  0.00    -0.438 A  
HETATM   12  C   UNL     1     -10.898  14.948  65.131  1.00  0.00    -0.428 A  
ENDROOT
BRANCH   2  13
HETATM   13  O   UNL     1      -8.589  10.372  68.447  1.00  0.00    -0.119 OA 
BRANCH  13  14
HETATM   14  C   UNL     1      -8.039   9.442  67.501  1.00  0.00    -0.110 C  
HETATM   15  C   UNL     1     -10.235   7.565  67.007  1.00  0.00    -0.298 C  
HETATM   16  C   UNL     1      -8.853   9.497  66.193  1.00  0.00    -0.177 C  
HETATM   17  C   UNL     1      -8.204   8.510  65.211  1.00  0.00    -0.149 C  
HETATM   18  N   UNL     1      -8.846   7.080  67.161  1.00  0.00    -0.119 NA 
HETATM   19  C   UNL     1      -8.127   8.005  68.076  1.00  0.00    -0.129 C  
HETATM   20  C   UNL     1      -8.179   7.106  65.841  1.00  0.00    -0.132 C  
HETATM   21  C   UNL     1     -10.284   9.001  66.463  1.00  0.00    -0.318 C  
ENDBRANCH  13  14
ENDBRANCH   2  13
BRANCH   6  22
HETATM   22  C   UNL     1     -11.315  12.408  69.074  1.00  0.00    -0.336 A  
HETATM   23  C   UNL     1     -11.682  13.684  69.534  1.00  0.00    -0.380 A  
HETATM   24  C   UNL     1     -12.424  13.842  70.708  1.00  0.00    -0.441 A  
HETATM   25  C   UNL     1     -12.825  12.726  71.438  1.00  0.00    -0.371 A  
HETATM   26  C   UNL     1     -12.480  11.452  70.997  1.00  0.00    -0.486 A  
HETATM   27  C   UNL     1     -11.726  11.296  69.832  1.00  0.00    -0.430 A  
ENDBRANCH   6  22
TORSDOF 3
ENDMDL
MODEL       14
REMARK 921   NORMALIZED FREE ENERGY PREDICTED BY IDOCK:   -6.77 KCAL/MOL
REMARK 922        TOTAL FREE ENERGY PREDICTED BY IDOCK:   -8.93 KCAL/MOL
REMARK 923 INTER-LIGAND FREE ENERGY PREDICTED BY IDOCK:   -8.38 KCAL/MOL
REMARK 924 INTRA-LIGAND FREE ENERGY PREDICTED BY IDOCK:   -0.55 KCAL/MOL
REMARK 927      BINDING AFFINITY PREDICTED BY RF-SCORE:    0.00 PKD
ROOT
HETATM    1  O   UNL     1     -10.761  16.094  66.386  1.00  0.00    -0.294 OA 
HETATM    2  C   UNL     1     -11.318  15.197  67.010  1.00  0.00    -0.277 C  
HETATM    3  C   UNL     1     -13.087  15.127  73.016  1.00  0.00    -0.605 A  
HETATM    4  N   UNL     1     -11.099  14.935  68.347  1.00  0.00    -0.262 N  
HETATM    5  C   UNL     1     -10.113  15.720  69.074  1.00  0.00    -0.225 C  
HETATM    6  C   UNL     1     -11.800  13.879  69.081  1.00  0.00    -0.358 C  
HETATM    7  C   UNL     1     -12.257  14.360  70.454  1.00  0.00    -0.404 A  
HETATM    8  C   UNL     1     -10.701  16.365  70.326  1.00  0.00    -0.138 C  
HETATM    9  C   UNL     1     -13.255  13.638  71.135  1.00  0.00    -0.254 A  
HETATM   10  C   UNL     1     -11.685  15.492  71.066  1.00  0.00    -0.423 A  
HETATM   11  C   UNL     1     -13.670  14.023  72.404  1.00  0.00    -0.669 A  
HETATM   12  C   UNL     1     -12.104  15.862  72.349  1.00  0.00    -0.605 A  
ENDROOT
BRANCH   2  13
HETATM   13  O   UNL     1     -12.205  14.333  66.440  1.00  0.00    -0.436 OA 
BRANCH  13  14
HETATM   14  C   UNL     1     -11.870  13.925  65.105  1.00  0.00    -0.362 C  
HETATM   15  C   UNL     1     -10.369  11.438  65.488  1.00  0.00    -0.266 C  
HETATM   16  C   UNL     1     -12.512  12.556  64.809  1.00  0.00    -0.532 C  
HETATM   17  C   UNL     1     -12.148  12.186  63.363  1.00  0.00    -0.608 C  
HETATM   18  N   UNL     1      -9.930  12.439  64.492  1.00  0.00    -0.220 NA 
HETATM   19  C   UNL     1     -10.331  13.786  64.977  1.00  0.00    -0.382 C  
HETATM   20  C   UNL     1     -10.617  12.174  63.209  1.00  0.00    -0.319 C  
HETATM   21  C   UNL     1     -11.886  11.491  65.725  1.00  0.00     0.371 C  
ENDBRANCH  13  14
ENDBRANCH   2  13
BRANCH   6  22
HETATM   22  C   UNL     1     -11.007  12.570  69.165  1.00  0.00    -0.198 A  
HETATM   23  C   UNL     1      -9.647  12.553  68.814  1.00  0.00     0.079 A  
HETATM   24  C   UNL     1      -8.921  11.358  68.800  1.00  0.00    -0.086 A  
HETATM   25  C   UNL     1      -9.537  10.160  69.153  1.00  0.00    -0.222 A  
HETATM   26  C   UNL     1     -10.881  10.155  69.513  1.00  0.00    -0.289 A  
HETATM   27  C   UNL     1     -11.610  11.347  69.511  1.00  0.00    -0.399 A  
ENDBRANCH   6  22
TORSDOF 3
ENDMDL
MODEL       15
REMARK 921   NORMALIZED FREE ENERGY PREDICTED BY IDOCK:   -6.69 KCAL/MOL
REMARK 922        TOTAL FREE ENERGY PREDICTED BY IDOCK:   -8.83 KCAL/MOL
REMARK 923 INTER-LIGAND FREE ENERGY PREDICTED BY IDOCK:   -7.73 KCAL/MOL
REMARK 924 INTRA-LIGAND FREE ENERGY PREDICTED BY IDOCK:   -1.09 KCAL/MOL
REMARK 927      BINDING AFFINITY PREDICTED BY RF-SCORE:    0.00 PKD
ROOT
HETATM    1  O   UNL     1     -12.261  12.192  70.521  1.00  0.00    -0.356 OA 
HETATM    2  C   UNL     1     -11.484  12.284  69.577  1.00  0.00    -0.249 C  
HETATM    3  C   UNL     1      -8.739  17.410  67.256  1.00  0.00    -0.232 A  
HETATM    4  N   UNL     1     -11.435  13.363  68.719  1.00  0.00    -0.282 N  
HETATM    5  C   UNL     1     -12.387  14.450  68.889  1.00  0.00    -0.069 C  
HETATM    6  C   UNL     1     -10.477  13.467  67.616  1.00  0.00    -0.238 C  
HETATM    7  C   UNL     1      -9.870  14.864  67.532  1.00  0.00    -0.217 A  
HETATM    8  C   UNL     1     -11.696  15.804  69.027  1.00  0.00    -0.405 C  
HETATM    9  C   UNL     1      -8.678  15.048  66.805  1.00  0.00    -0.293 A  
HETATM   10  C   UNL     1     -10.487  15.973  68.140  1.00  0.00    -0.269 A  
HETATM   11  C   UNL     1      -8.116  16.312  66.674  1.00  0.00    -0.323 A  
HETATM   12  C   UNL     1      -9.915  17.243  67.990  1.00  0.00    -0.304 A  
ENDROOT
BRANCH   2  13
HETATM   13  O   UNL     1     -10.591  11.307  69.249  1.00  0.00    -0.212 OA 
BRANCH  13  14
HETATM   14  C   UNL     1     -11.095   9.969  69.373  1.00  0.00    -0.223 C  
HETATM   15  C   UNL     1      -8.677   8.323  69.555  1.00  0.00    -0.138 C  
HETATM   16  C   UNL     1     -10.640   9.370  70.718  1.00  0.00    -0.371 C  
HETATM   17  C   UNL     1     -11.233   7.956  70.811  1.00  0.00    -0.274 C  
HETATM   18  N   UNL     1      -9.831   7.883  68.740  1.00  0.00    -0.163 NA 
HETATM   19  C   UNL     1     -10.527   9.092  68.227  1.00  0.00    -0.208 C  
HETATM   20  C   UNL     1     -10.767   7.128  69.601  1.00  0.00    -0.239 C  
HETATM   21  C   UNL     1      -9.109   9.226  70.720  1.00  0.00    -0.306 C  
ENDBRANCH  13  14
ENDBRANCH   2  13
BRANCH   6  22
HETATM   22  C   UNL     1     -11.048  13.007  66.270  1.00  0.00    -0.314 A  
HETATM   23  C   UNL     1     -10.614  11.797  65.703  1.00  0.00    -0.314 A  
HETATM   24  C   UNL     1     -11.055  11.395  64.439  1.00  0.00    -0.329 A  
HETATM   25  C   UNL     1     -11.949  12.187  63.724  1.00  0.00    -0.607 A  
HETATM   26  C   UNL     1     -12.399  13.385  64.270  1.00  0.00    -0.396 A  
HETATM   27  C   UNL     1     -11.947  13.794  65.527  1.00  0.00    -0.404 A  
ENDBRANCH   6  22
TORSDOF 3
ENDMDL
MODEL       16
REMARK 921   NORMALIZED FREE ENERGY PREDICTED BY IDOCK:   -6.61 KCAL/MOL
REMARK 922        TOTAL FREE ENERGY PREDICTED BY IDOCK:   -8.73 KCAL/MOL
REMARK 923 INTER-LIGAND FREE ENERGY PREDICTED BY IDOCK:   -7.31 KCAL/MOL
REMARK 924 INTRA-LIGAND FREE ENERGY PREDICTED BY IDOCK:   -1.42 KCAL/MOL
REMARK 927      BINDING AFFINITY PREDICTED BY RF-SCORE:    0.00 PKD
ROOT
HETATM    1  O   UNL     1     -12.654  11.150  70.181  1.00  0.00    -0.258 OA 
HETATM    2  C   UNL     1     -11.839  11.331  69.282  1.00  0.00    -0.354 C  
HETATM    3  C   UNL     1      -8.012  16.205  68.392  1.00  0.00    -0.162 A  
HETATM    4  N   UNL     1     -11.537  12.567  68.750  1.00  0.00    -0.299 N  
HETATM    5  C   UNL     1     -12.251  13.741  69.229  1.00  0.00    -0.264 C  
HETATM    6  C   UNL     1     -10.536  12.763  67.699  1.00  0.00    -0.219 C  
HETATM    7  C   UNL     1      -9.652  13.972  67.986  1.00  0.00    -0.217 A  
HETATM    8  C   UNL     1     -11.302  14.832  69.717  1.00  0.00    -0.319 C  
HETATM    9  C   UNL     1      -8.421  14.094  67.314  1.00  0.00    -0.228 A  
HETATM   10  C   UNL     1     -10.051  14.979  68.886  1.00  0.00    -0.234 A  
HETATM   11  C   UNL     1      -7.606  15.200  67.521  1.00  0.00    -0.216 A  
HETATM   12  C   UNL     1      -9.225  16.094  69.076  1.00  0.00    -0.252 A  
ENDROOT
BRANCH   2  13
HETATM   13  O   UNL     1     -11.154  10.315  68.683  1.00  0.00    -0.243 OA 
BRANCH  13  14
HETATM   14  C   UNL     1     -10.637   9.327  69.587  1.00  0.00    -0.229 C  
HETATM   15  C   UNL     1      -8.074   8.558  68.391  1.00  0.00    -0.122 C  
HETATM   16  C   UNL     1      -9.303   9.821  70.180  1.00  0.00    -0.261 C  
HETATM   17  C   UNL     1      -8.814   8.743  71.160  1.00  0.00    -0.275 C  
HETATM   18  N   UNL     1      -8.973   7.537  68.974  1.00  0.00    -0.132 NA 
HETATM   19  C   UNL     1     -10.375   8.007  68.817  1.00  0.00    -0.206 C  
HETATM   20  C   UNL     1      -8.677   7.403  70.416  1.00  0.00    -0.145 C  
HETATM   21  C   UNL     1      -8.256   9.930  69.059  1.00  0.00    -0.124 C  
ENDBRANCH  13  14
ENDBRANCH   2  13
BRANCH   6  22
HETATM   22  C   UNL     1     -11.139  12.814  66.290  1.00  0.00    -0.321 A  
HETATM   23  C   UNL     1     -10.918  11.753  65.396  1.00  0.00    -0.352 A  
HETATM   24  C   UNL     1     -11.383  11.810  64.079  1.00  0.00    -0.461 A  
HETATM   25  C   UNL     1     -12.092  12.924  63.636  1.00  0.00    -0.611 A  
HETATM   26  C   UNL     1     -12.330  13.983  64.506  1.00  0.00    -0.409 A  
HETATM   27  C   UNL     1     -11.851  13.932  65.817  1.00  0.00    -0.393 A  
ENDBRANCH   6  22
TORSDOF 3
ENDMDL
MODEL       17
REMARK 921   NORMALIZED FREE ENERGY PREDICTED BY IDOCK:   -6.56 KCAL/MOL
REMARK 922        TOTAL FREE ENERGY PREDICTED BY IDOCK:   -8.67 KCAL/MOL
REMARK 923 INTER-LIGAND FREE ENERGY PREDICTED BY IDOCK:   -7.57 KCAL/MOL
REMARK 924 INTRA-LIGAND FREE ENERGY PREDICTED BY IDOCK:   -1.10 KCAL/MOL
REMARK 927      BINDING AFFINITY PREDICTED BY RF-SCORE:    0.00 PKD
ROOT
HETATM    1  O   UNL     1     -10.469   7.803  66.734  1.00  0.00    -0.321 OA 
HETATM    2  C   UNL     1     -10.426   8.198  67.895  1.00  0.00    -0.197 C  
HETATM    3  C   UNL     1      -8.300   5.210  72.969  1.00  0.00    -0.112 A  
HETATM    4  N   UNL     1     -10.596   7.384  68.995  1.00  0.00    -0.211 N  
HETATM    5  C   UNL     1     -10.898   5.974  68.797  1.00  0.00    -0.322 C  
HETATM    6  C   UNL     1     -10.509   7.872  70.374  1.00  0.00    -0.218 C  
HETATM    7  C   UNL     1      -9.707   6.919  71.255  1.00  0.00    -0.175 A  
HETATM    8  C   UNL     1      -9.912   5.067  69.528  1.00  0.00    -0.302 C  
HETATM    9  C   UNL     1      -9.197   7.388  72.480  1.00  0.00    -0.179 A  
HETATM   10  C   UNL     1      -9.489   5.579  70.883  1.00  0.00    -0.208 A  
HETATM   11  C   UNL     1      -8.494   6.539  73.327  1.00  0.00    -0.125 A  
HETATM   12  C   UNL     1      -8.790   4.732  71.752  1.00  0.00    -0.139 A  
ENDROOT
BRANCH   2  13
HETATM   13  O   UNL     1     -10.232   9.506  68.230  1.00  0.00    -0.177 OA 
BRANCH  13  14
HETATM   14  C   UNL     1     -11.029  10.439  67.485  1.00  0.00    -0.295 C  
HETATM   15  C   UNL     1     -10.012  13.056  68.326  1.00  0.00    -0.235 C  
HETATM   16  C   UNL     1     -10.118  11.272  66.562  1.00  0.00    -0.256 C  
HETATM   17  C   UNL     1     -11.024  12.227  65.770  1.00  0.00    -0.338 C  
HETATM   18  N   UNL     1     -11.464  12.827  68.158  1.00  0.00    -0.291 NA 
HETATM   19  C   UNL     1     -11.750  11.401  68.464  1.00  0.00    -0.318 C  
HETATM   20  C   UNL     1     -11.833  13.094  66.751  1.00  0.00    -0.385 C  
HETATM   21  C   UNL     1      -9.179  12.137  67.419  1.00  0.00    -0.182 C  
ENDBRANCH  13  14
ENDBRANCH   2  13
BRANCH   6  22
HETATM   22  C   UNL     1     -11.873   8.209  70.985  1.00  0.00    -0.279 A  
HETATM   23  C   UNL     1     -12.104   9.488  71.518  1.00  0.00    -0.468 A  
HETATM   24  C   UNL     1     -13.308   9.797  72.157  1.00  0.00    -0.527 A  
HETATM   25  C   UNL     1     -14.311   8.837  72.262  1.00  0.00    -0.468 A  
HETATM   26  C   UNL     1     -14.108   7.565  71.734  1.00  0.00    -0.509 A  
HETATM   27  C   UNL     1     -12.898   7.253  71.109  1.00  0.00    -0.334 A  
ENDBRANCH   6  22
TORSDOF 3
ENDMDL
MODEL       18
REMARK 921   NORMALIZED FREE ENERGY PREDICTED BY IDOCK:   -6.54 KCAL/MOL
REMARK 922        TOTAL FREE ENERGY PREDICTED BY IDOCK:   -8.66 KCAL/MOL
REMARK 923 INTER-LIGAND FREE ENERGY PREDICTED BY IDOCK:   -7.90 KCAL/MOL
REMARK 924 INTRA-LIGAND FREE ENERGY PREDICTED BY IDOCK:   -0.76 KCAL/MOL
REMARK 927      BINDING AFFINITY PREDICTED BY RF-SCORE:    0.00 PKD
ROOT
HETATM    1  O   UNL     1     -11.480  10.996  70.340  1.00  0.00    -0.298 OA 
HETATM    2  C   UNL     1     -11.718  11.973  69.638  1.00  0.00    -0.335 C  
HETATM    3  C   UNL     1     -12.025  12.322  63.394  1.00  0.00    -0.588 A  
HETATM    4  N   UNL     1     -11.157  12.187  68.396  1.00  0.00    -0.227 N  
HETATM    5  C   UNL     1     -10.180  11.238  67.884  1.00  0.00    -0.181 C  
HETATM    6  C   UNL     1     -11.480  13.346  67.559  1.00  0.00    -0.323 C  
HETATM    7  C   UNL     1     -11.685  12.945  66.102  1.00  0.00    -0.451 A  
HETATM    8  C   UNL     1     -10.567  10.700  66.509  1.00  0.00    -0.257 C  
HETATM    9  C   UNL     1     -12.362  13.827  65.240  1.00  0.00    -0.491 A  
HETATM   10  C   UNL     1     -11.190  11.727  65.596  1.00  0.00    -0.324 A  
HETATM   11  C   UNL     1     -12.535  13.514  63.897  1.00  0.00    -0.295 A  
HETATM   12  C   UNL     1     -11.362  11.430  64.239  1.00  0.00    -0.244 A  
ENDROOT
BRANCH   2  13
HETATM   13  O   UNL     1     -12.550  12.982  70.022  1.00  0.00    -0.086 OA 
BRANCH  13  14
HETATM   14  C   UNL     1     -12.008  13.856  71.024  1.00  0.00    -0.180 C  
HETATM   15  C   UNL     1     -14.369  15.170  72.159  1.00  0.00    -0.552 C  
HETATM   16  C   UNL     1     -12.554  13.453  72.408  1.00  0.00     0.027 C  
HETATM   17  C   UNL     1     -11.919  14.397  73.441  1.00  0.00     0.166 C  
HETATM   18  N   UNL     1     -13.133  15.938  71.889  1.00  0.00    -0.418 NA 
HETATM   19  C   UNL     1     -12.442  15.315  70.730  1.00  0.00    -0.402 C  
HETATM   20  C   UNL     1     -12.248  15.853  73.070  1.00  0.00    -0.504 C  
HETATM   21  C   UNL     1     -14.074  13.690  72.445  1.00  0.00    -0.586 C  
ENDBRANCH  13  14
ENDBRANCH   2  13
BRANCH   6  22
HETATM   22  C   UNL     1     -10.476  14.495  67.703  1.00  0.00    -0.246 A  
HETATM   23  C   UNL     1      -9.119  14.214  67.936  1.00  0.00    -0.189 A  
HETATM   24  C   UNL     1      -8.197  15.242  68.155  1.00  0.00    -0.141 A  
HETATM   25  C   UNL     1      -8.611  16.571  68.129  1.00  0.00    -0.193 A  
HETATM   26  C   UNL     1      -9.948  16.873  67.892  1.00  0.00    -0.274 A  
HETATM   27  C   UNL     1     -10.872  15.845  67.689  1.00  0.00    -0.312 A  
ENDBRANCH   6  22
TORSDOF 3
ENDMDL
MODEL       19
REMARK 921   NORMALIZED FREE ENERGY PREDICTED BY IDOCK:   -6.54 KCAL/MOL
REMARK 922        TOTAL FREE ENERGY PREDICTED BY IDOCK:   -8.65 KCAL/MOL
REMARK 923 INTER-LIGAND FREE ENERGY PREDICTED BY IDOCK:   -7.51 KCAL/MOL
REMARK 924 INTRA-LIGAND FREE ENERGY PREDICTED BY IDOCK:   -1.14 KCAL/MOL
REMARK 927      BINDING AFFINITY PREDICTED BY RF-SCORE:    0.00 PKD
ROOT
HETATM    1  O   UNL     1     -10.728   6.888  67.141  1.00  0.00    -0.291 OA 
HETATM    2  C   UNL     1     -10.432   7.676  68.033  1.00  0.00    -0.189 C  
HETATM    3  C   UNL     1      -8.372   6.440  73.815  1.00  0.00    -0.119 A  
HETATM    4  N   UNL     1     -10.631   7.432  69.376  1.00  0.00    -0.228 N  
HETATM    5  C   UNL     1     -11.278   6.194  69.786  1.00  0.00    -0.423 C  
HETATM    6  C   UNL     1     -10.240   8.373  70.428  1.00  0.00    -0.197 C  
HETATM    7  C   UNL     1      -9.567   7.660  71.596  1.00  0.00    -0.182 A  
HETATM    8  C   UNL     1     -10.438   5.412  70.792  1.00  0.00    -0.317 C  
HETATM    9  C   UNL     1      -8.796   8.411  72.503  1.00  0.00    -0.296 A  
HETATM   10  C   UNL     1      -9.722   6.276  71.802  1.00  0.00    -0.168 A  
HETATM   11  C   UNL     1      -8.198   7.803  73.600  1.00  0.00    -0.241 A  
HETATM   12  C   UNL     1      -9.125   5.678  72.919  1.00  0.00    -0.125 A  
ENDROOT
BRANCH   2  13
HETATM   13  O   UNL     1      -9.893   8.905  67.794  1.00  0.00    -0.152 OA 
BRANCH  13  14
HETATM   14  C   UNL     1     -10.434   9.583  66.650  1.00  0.00    -0.171 C  
HETATM   15  C   UNL     1      -8.914  12.086  66.535  1.00  0.00    -0.193 C  
HETATM   16  C   UNL     1      -9.323   9.791  65.602  1.00  0.00    -0.285 C  
HETATM   17  C   UNL     1      -9.963  10.489  64.392  1.00  0.00    -0.410 C  
HETATM   18  N   UNL     1     -10.372  12.075  66.283  1.00  0.00    -0.217 NA 
HETATM   19  C   UNL     1     -10.974  10.972  67.077  1.00  0.00    -0.272 C  
HETATM   20  C   UNL     1     -10.609  11.809  64.847  1.00  0.00    -0.294 C  
HETATM   21  C   UNL     1      -8.259  10.745  66.170  1.00  0.00    -0.163 C  
ENDBRANCH  13  14
ENDBRANCH   2  13
BRANCH   6  22
HETATM   22  C   UNL     1     -11.389   9.276  70.891  1.00  0.00    -0.373 A  
HETATM   23  C   UNL     1     -11.434  10.618  70.477  1.00  0.00    -0.407 A  
HETATM   24  C   UNL     1     -12.423  11.486  70.951  1.00  0.00    -0.464 A  
HETATM   25  C   UNL     1     -13.393  11.025  71.836  1.00  0.00    -0.423 A  
HETATM   26  C   UNL     1     -13.372   9.698  72.254  1.00  0.00    -0.498 A  
HETATM   27  C   UNL     1     -12.376   8.835  71.792  1.00  0.00    -0.412 A  
ENDBRANCH   6  22
TORSDOF 3
ENDMDL
MODEL       20
REMARK 921   NORMALIZED FREE ENERGY PREDICTED BY IDOCK:   -6.52 KCAL/MOL
REMARK 922        TOTAL FREE ENERGY PREDICTED BY IDOCK:   -8.64 KCAL/MOL
REMARK 923 INTER-LIGAND FREE ENERGY PREDICTED BY IDOCK:   -7.40 KCAL/MOL
REMARK 924 INTRA-LIGAND FREE ENERGY PREDICTED BY IDOCK:   -1.24 KCAL/MOL
REMARK 927      BINDING AFFINITY PREDICTED BY RF-SCORE:    0.00 PKD
ROOT
HETATM    1  O   UNL     1     -12.409  10.791  69.228  1.00  0.00    -0.368 OA 
HETATM    2  C   UNL     1     -11.815  11.860  69.132  1.00  0.00    -0.311 C  
HETATM    3  C   UNL     1     -11.560  15.770  64.249  1.00  0.00    -0.192 A  
HETATM    4  N   UNL     1     -11.243  12.324  67.966  1.00  0.00    -0.249 N  
HETATM    5  C   UNL     1     -11.286  11.493  66.773  1.00  0.00    -0.285 C  
HETATM    6  C   UNL     1     -10.566  13.619  67.866  1.00  0.00    -0.249 C  
HETATM    7  C   UNL     1     -10.955  14.357  66.590  1.00  0.00    -0.318 A  
HETATM    8  C   UNL     1     -11.901  12.225  65.583  1.00  0.00    -0.423 C  
HETATM    9  C   UNL     1     -10.718  15.742  66.502  1.00  0.00    -0.283 A  
HETATM   10  C   UNL     1     -11.519  13.682  65.491  1.00  0.00    -0.317 A  
HETATM   11  C   UNL     1     -11.024  16.442  65.341  1.00  0.00    -0.167 A  
HETATM   12  C   UNL     1     -11.811  14.398  64.324  1.00  0.00    -0.385 A  
ENDROOT
BRANCH   2  13
HETATM   13  O   UNL     1     -11.627  12.705  70.186  1.00  0.00    -0.210 OA 
BRANCH  13  14
HETATM   14  C   UNL     1     -12.816  13.369  70.640  1.00  0.00    -0.087 C  
HETATM   15  C   UNL     1     -11.891  15.000  72.892  1.00  0.00    -0.263 C  
HETATM   16  C   UNL     1     -12.640  14.894  70.498  1.00  0.00    -0.414 C  
HETATM   17  C   UNL     1     -13.948  15.548  70.966  1.00  0.00    -0.166 C  
HETATM   18  N   UNL     1     -13.172  14.264  72.967  1.00  0.00    -0.616 NA 
HETATM   19  C   UNL     1     -13.056  13.038  72.135  1.00  0.00    -0.360 C  
HETATM   20  C   UNL     1     -14.248  15.114  72.411  1.00  0.00    -0.445 C  
HETATM   21  C   UNL     1     -11.525  15.368  71.446  1.00  0.00    -0.465 C  
ENDBRANCH  13  14
ENDBRANCH   2  13
BRANCH   6  22
HETATM   22  C   UNL     1      -9.045  13.523  68.033  1.00  0.00    -0.201 A  
HETATM   23  C   UNL     1      -8.382  14.388  68.921  1.00  0.00    -0.080 A  
HETATM   24  C   UNL     1      -6.989  14.379  69.030  1.00  0.00    -0.114 A  
HETATM   25  C   UNL     1      -6.232  13.495  68.266  1.00  0.00    -0.105 A  
HETATM   26  C   UNL     1      -6.867  12.624  67.386  1.00  0.00    -0.141 A  
HETATM   27  C   UNL     1      -8.259  12.643  67.266  1.00  0.00    -0.184 A  
ENDBRANCH   6  22
TORSDOF 3
ENDMDL
MODEL       21
REMARK 921   NORMALIZED FREE ENERGY PREDICTED BY IDOCK:   -6.51 KCAL/MOL
REMARK 922        TOTAL FREE ENERGY PREDICTED BY IDOCK:   -8.62 KCAL/MOL
REMARK 923 INTER-LIGAND FREE ENERGY PREDICTED BY IDOCK:   -7.38 KCAL/MOL
REMARK 924 INTRA-LIGAND FREE ENERGY PREDICTED BY IDOCK:   -1.24 KCAL/MOL
REMARK 927      BINDING AFFINITY PREDICTED BY RF-SCORE:    0.00 PKD
ROOT
HETATM    1  O   UNL     1      -7.290  10.951  68.819  1.00  0.00    -0.088 OA 
HETATM    2  C   UNL     1      -8.496  10.931  68.599  1.00  0.00    -0.152 C  
HETATM    3  C   UNL     1     -11.816  14.510  64.679  1.00  0.00    -0.462 A  
HETATM    4  N   UNL     1      -9.247  12.050  68.303  1.00  0.00    -0.194 N  
HETATM    5  C   UNL     1      -8.604  13.355  68.296  1.00  0.00    -0.169 C  
HETATM    6  C   UNL     1     -10.681  11.998  68.010  1.00  0.00    -0.212 C  
HETATM    7  C   UNL     1     -11.041  12.879  66.819  1.00  0.00    -0.315 A  
HETATM    8  C   UNL     1      -8.816  14.094  66.978  1.00  0.00    -0.237 C  
HETATM    9  C   UNL     1     -12.268  12.669  66.160  1.00  0.00    -0.279 A  
HETATM   10  C   UNL     1     -10.190  13.911  66.381  1.00  0.00    -0.292 A  
HETATM   11  C   UNL     1     -12.648  13.476  65.094  1.00  0.00    -0.485 A  
HETATM   12  C   UNL     1     -10.591  14.724  65.314  1.00  0.00    -0.414 A  
ENDROOT
BRANCH   2  13
HETATM   13  O   UNL     1      -9.244   9.791  68.649  1.00  0.00    -0.133 OA 
BRANCH  13  14
HETATM   14  C   UNL     1      -8.776   8.809  69.586  1.00  0.00    -0.136 C  
HETATM   15  C   UNL     1     -11.237   7.608  70.630  1.00  0.00    -0.266 C  
HETATM   16  C   UNL     1      -9.231   7.408  69.133  1.00  0.00    -0.147 C  
HETATM   17  C   UNL     1      -8.677   6.399  70.150  1.00  0.00    -0.139 C  
HETATM   18  N   UNL     1     -10.106   7.919  71.532  1.00  0.00    -0.177 NA 
HETATM   19  C   UNL     1      -9.382   9.096  70.984  1.00  0.00    -0.263 C  
HETATM   20  C   UNL     1      -9.181   6.764  71.557  1.00  0.00    -0.149 C  
HETATM   21  C   UNL     1     -10.765   7.326  69.195  1.00  0.00    -0.201 C  
ENDBRANCH  13  14
ENDBRANCH   2  13
BRANCH   6  22
HETATM   22  C   UNL     1     -11.560  12.295  69.231  1.00  0.00    -0.383 A  
HETATM   23  C   UNL     1     -11.923  13.620  69.525  1.00  0.00    -0.397 A  
HETATM   24  C   UNL     1     -12.652  13.929  70.677  1.00  0.00    -0.405 A  
HETATM   25  C   UNL     1     -13.045  12.917  71.549  1.00  0.00    -0.390 A  
HETATM   26  C   UNL     1     -12.704  11.596  71.273  1.00  0.00    -0.444 A  
HETATM   27  C   UNL     1     -11.963  11.290  70.129  1.00  0.00    -0.452 A  
ENDBRANCH   6  22
TORSDOF 3
ENDMDL
MODEL       22
REMARK 921   NORMALIZED FREE ENERGY PREDICTED BY IDOCK:   -6.49 KCAL/MOL
REMARK 922        TOTAL FREE ENERGY PREDICTED BY IDOCK:   -8.60 KCAL/MOL
REMARK 923 INTER-LIGAND FREE ENERGY PREDICTED BY IDOCK:   -7.34 KCAL/MOL
REMARK 924 INTRA-LIGAND FREE ENERGY PREDICTED BY IDOCK:   -1.25 KCAL/MOL
REMARK 927      BINDING AFFINITY PREDICTED BY RF-SCORE:    0.00 PKD
ROOT
HETATM    1  O   UNL     1     -11.358  11.619  69.825  1.00  0.00    -0.258 OA 
HETATM    2  C   UNL     1     -10.716  11.994  68.849  1.00  0.00    -0.185 C  
HETATM    3  C   UNL     1      -9.389  17.843  67.053  1.00  0.00    -0.267 A  
HETATM    4  N   UNL     1     -10.987  13.148  68.143  1.00  0.00    -0.242 N  
HETATM    5  C   UNL     1     -12.130  13.963  68.524  1.00  0.00    -0.296 C  
HETATM    6  C   UNL     1     -10.187  13.594  67.000  1.00  0.00    -0.250 C  
HETATM    7  C   UNL     1      -9.908  15.092  67.062  1.00  0.00    -0.241 A  
HETATM    8  C   UNL     1     -11.739  15.412  68.795  1.00  0.00    -0.369 C  
HETATM    9  C   UNL     1      -8.863  15.625  66.286  1.00  0.00    -0.364 A  
HETATM   10  C   UNL     1     -10.689  15.954  67.856  1.00  0.00    -0.312 A  
HETATM   11  C   UNL     1      -8.603  16.991  66.287  1.00  0.00    -0.298 A  
HETATM   12  C   UNL     1     -10.423  17.329  67.839  1.00  0.00    -0.382 A  
ENDROOT
BRANCH   2  13
HETATM   13  O   UNL     1      -9.669  11.291  68.331  1.00  0.00    -0.181 OA 
BRANCH  13  14
HETATM   14  C   UNL     1      -9.771   9.866  68.483  1.00  0.00    -0.154 C  
HETATM   15  C   UNL     1      -9.000   8.825  65.854  1.00  0.00    -0.195 C  
HETATM   16  C   UNL     1      -8.388   9.225  68.257  1.00  0.00    -0.120 C  
HETATM   17  C   UNL     1      -8.550   7.711  68.462  1.00  0.00    -0.129 C  
HETATM   18  N   UNL     1     -10.135   8.234  66.599  1.00  0.00    -0.285 NA 
HETATM   19  C   UNL     1     -10.755   9.302  67.427  1.00  0.00    -0.193 C  
HETATM   20  C   UNL     1      -9.621   7.177  67.496  1.00  0.00    -0.132 C  
HETATM   21  C   UNL     1      -7.957   9.445  66.797  1.00  0.00    -0.108 C  
ENDBRANCH  13  14
ENDBRANCH   2  13
BRANCH   6  22
HETATM   22  C   UNL     1     -10.775  13.175  65.648  1.00  0.00    -0.294 A  
HETATM   23  C   UNL     1     -11.753  13.974  65.032  1.00  0.00    -0.366 A  
HETATM   24  C   UNL     1     -12.366  13.574  63.842  1.00  0.00    -0.397 A  
HETATM   25  C   UNL     1     -12.004  12.374  63.236  1.00  0.00    -0.509 A  
HETATM   26  C   UNL     1     -11.032  11.570  63.824  1.00  0.00    -0.485 A  
HETATM   27  C   UNL     1     -10.429  11.963  65.021  1.00  0.00    -0.333 A  
ENDBRANCH   6  22
TORSDOF 3
ENDMDL
MODEL       23
REMARK 921   NORMALIZED FREE ENERGY PREDICTED BY IDOCK:   -6.48 KCAL/MOL
REMARK 922        TOTAL FREE ENERGY PREDICTED BY IDOCK:   -8.59 KCAL/MOL
REMARK 923 INTER-LIGAND FREE ENERGY PREDICTED BY IDOCK:   -7.29 KCAL/MOL
REMARK 924 INTRA-LIGAND FREE ENERGY PREDICTED BY IDOCK:   -1.30 KCAL/MOL
REMARK 927      BINDING AFFINITY PREDICTED BY RF-SCORE:    0.00 PKD
ROOT
HETATM    1  O   UNL     1     -12.369  12.418  66.089  1.00  0.00    -0.606 OA 
HETATM    2  C   UNL     1     -11.757  12.328  67.148  1.00  0.00    -0.326 C  
HETATM    3  C   UNL     1      -6.384   9.332  68.313  1.00  0.00    -0.054 A  
HETATM    4  N   UNL     1     -11.034  11.217  67.530  1.00  0.00    -0.256 N  
HETATM    5  C   UNL     1     -11.023  10.045  66.667  1.00  0.00     0.116 C  
HETATM    6  C   UNL     1     -10.282  11.142  68.785  1.00  0.00    -0.206 C  
HETATM    7  C   UNL     1      -8.907  10.518  68.577  1.00  0.00    -0.144 A  
HETATM    8  C   UNL     1      -9.605   9.607  66.311  1.00  0.00    -0.281 C  
HETATM    9  C   UNL     1      -7.915  10.707  69.558  1.00  0.00    -0.079 A  
HETATM   10  C   UNL     1      -8.615   9.736  67.443  1.00  0.00    -0.128 A  
HETATM   11  C   UNL     1      -6.662  10.123  69.423  1.00  0.00    -0.065 A  
HETATM   12  C   UNL     1      -7.352   9.144  67.325  1.00  0.00    -0.087 A  
ENDROOT
BRANCH   2  13
HETATM   13  O   UNL     1     -11.744  13.315  68.089  1.00  0.00    -0.320 OA 
BRANCH  13  14
HETATM   14  C   UNL     1     -11.552  14.638  67.565  1.00  0.00    -0.375 C  
HETATM   15  C   UNL     1      -9.393  15.737  69.215  1.00  0.00    -0.261 C  
HETATM   16  C   UNL     1     -10.118  14.770  67.014  1.00  0.00    -0.245 C  
HETATM   17  C   UNL     1      -9.980  16.188  66.440  1.00  0.00    -0.315 C  
HETATM   18  N   UNL     1     -10.560  16.569  68.844  1.00  0.00    -0.304 NA 
HETATM   19  C   UNL     1     -11.740  15.677  68.700  1.00  0.00    -0.352 C  
HETATM   20  C   UNL     1     -10.293  17.216  67.541  1.00  0.00    -0.341 C  
HETATM   21  C   UNL     1      -9.114  14.644  68.172  1.00  0.00    -0.187 C  
ENDBRANCH  13  14
ENDBRANCH   2  13
BRANCH   6  22
HETATM   22  C   UNL     1     -11.058  10.459  69.916  1.00  0.00    -0.367 A  
HETATM   23  C   UNL     1     -10.840   9.098  70.192  1.00  0.00    -0.269 A  
HETATM   24  C   UNL     1     -11.593   8.429  71.161  1.00  0.00    -0.317 A  
HETATM   25  C   UNL     1     -12.568   9.110  71.884  1.00  0.00    -0.463 A  
HETATM   26  C   UNL     1     -12.796  10.460  71.633  1.00  0.00    -0.579 A  
HETATM   27  C   UNL     1     -12.054  11.125  70.654  1.00  0.00    -0.477 A  
ENDBRANCH   6  22
TORSDOF 3
ENDMDL
MODEL       24
REMARK 921   NORMALIZED FREE ENERGY PREDICTED BY IDOCK:   -6.36 KCAL/MOL
REMARK 922        TOTAL FREE ENERGY PREDICTED BY IDOCK:   -8.44 KCAL/MOL
REMARK 923 INTER-LIGAND FREE ENERGY PREDICTED BY IDOCK:   -7.47 KCAL/MOL
REMARK 924 INTRA-LIGAND FREE ENERGY PREDICTED BY IDOCK:   -0.97 KCAL/MOL
REMARK 927      BINDING AFFINITY PREDICTED BY RF-SCORE:    0.00 PKD
ROOT
HETATM    1  O   UNL     1     -10.046  10.254  66.129  1.00  0.00    -0.230 OA 
HETATM    2  C   UNL     1     -10.504   9.887  67.207  1.00  0.00    -0.258 C  
HETATM    3  C   UNL     1     -13.311  13.313  71.632  1.00  0.00    -0.406 A  
HETATM    4  N   UNL     1     -10.489  10.653  68.354  1.00  0.00    -0.177 N  
HETATM    5  C   UNL     1      -9.849  11.960  68.327  1.00  0.00    -0.199 C  
HETATM    6  C   UNL     1     -11.071  10.209  69.622  1.00  0.00    -0.263 C  
HETATM    7  C   UNL     1     -11.869  11.322  70.292  1.00  0.00    -0.446 A  
HETATM    8  C   UNL     1     -10.786  13.069  68.799  1.00  0.00    -0.250 C  
HETATM    9  C   UNL     1     -12.798  10.988  71.296  1.00  0.00    -0.528 A  
HETATM   10  C   UNL     1     -11.680  12.674  69.949  1.00  0.00    -0.320 A  
HETATM   11  C   UNL     1     -13.517  11.977  71.956  1.00  0.00    -0.364 A  
HETATM   12  C   UNL     1     -12.402  13.661  70.630  1.00  0.00    -0.440 A  
ENDROOT
BRANCH   2  13
HETATM   13  O   UNL     1     -11.062   8.658  67.400  1.00  0.00     0.025 OA 
BRANCH  13  14
HETATM   14  C   UNL     1     -10.288   7.563  66.886  1.00  0.00    -0.309 C  
HETATM   15  C   UNL     1      -9.569   6.030  69.278  1.00  0.00    -0.136 C  
HETATM   16  C   UNL     1     -10.993   6.233  67.220  1.00  0.00    -0.455 C  
HETATM   17  C   UNL     1     -10.141   5.104  66.621  1.00  0.00    -0.267 C  
HETATM   18  N   UNL     1      -8.581   6.257  68.200  1.00  0.00    -0.117 NA 
HETATM   19  C   UNL     1      -8.888   7.559  67.553  1.00  0.00    -0.127 C  
HETATM   20  C   UNL     1      -8.715   5.183  67.192  1.00  0.00    -0.103 C  
HETATM   21  C   UNL     1     -11.010   6.035  68.745  1.00  0.00    -0.384 C  
ENDBRANCH  13  14
ENDBRANCH   2  13
BRANCH   6  22
HETATM   22  C   UNL     1     -10.045   9.584  70.574  1.00  0.00    -0.347 A  
HETATM   23  C   UNL     1      -8.673   9.681  70.285  1.00  0.00    -0.248 A  
HETATM   24  C   UNL     1      -7.720   9.050  71.090  1.00  0.00    -0.143 A  
HETATM   25  C   UNL     1      -8.120   8.323  72.208  1.00  0.00    -0.203 A  
HETATM   26  C   UNL     1      -9.472   8.221  72.518  1.00  0.00    -0.356 A  
HETATM   27  C   UNL     1     -10.425   8.839  71.705  1.00  0.00    -0.417 A  
ENDBRANCH   6  22
TORSDOF 3
ENDMDL
MODEL       25
REMARK 921   NORMALIZED FREE ENERGY PREDICTED BY IDOCK:   -6.26 KCAL/MOL
REMARK 922        TOTAL FREE ENERGY PREDICTED BY IDOCK:   -8.33 KCAL/MOL
REMARK 923 INTER-LIGAND FREE ENERGY PREDICTED BY IDOCK:   -6.98 KCAL/MOL
REMARK 924 INTRA-LIGAND FREE ENERGY PREDICTED BY IDOCK:   -1.35 KCAL/MOL
REMARK 927      BINDING AFFINITY PREDICTED BY RF-SCORE:    0.00 PKD
ROOT
HETATM    1  O   UNL     1     -10.174  10.001  69.493  1.00  0.00    -0.205 OA 
HETATM    2  C   UNL     1      -9.877  10.807  68.618  1.00  0.00    -0.184 C  
HETATM    3  C   UNL     1     -10.850  16.991  68.503  1.00  0.00    -0.310 A  
HETATM    4  N   UNL     1     -10.628  11.922  68.307  1.00  0.00    -0.205 N  
HETATM    5  C   UNL     1     -11.883  12.152  69.008  1.00  0.00    -0.306 C  
HETATM    6  C   UNL     1     -10.238  12.889  67.279  1.00  0.00    -0.234 C  
HETATM    7  C   UNL     1     -10.448  14.324  67.752  1.00  0.00    -0.245 A  
HETATM    8  C   UNL     1     -11.934  13.533  69.655  1.00  0.00    -0.397 C  
HETATM    9  C   UNL     1      -9.790  15.369  67.078  1.00  0.00    -0.236 A  
HETATM   10  C   UNL     1     -11.304  14.627  68.828  1.00  0.00    -0.302 A  
HETATM   11  C   UNL     1      -9.986  16.692  67.456  1.00  0.00    -0.264 A  
HETATM   12  C   UNL     1     -11.501  15.965  69.191  1.00  0.00    -0.377 A  
ENDROOT
BRANCH   2  13
HETATM   13  O   UNL     1      -8.774  10.676  67.828  1.00  0.00    -0.128 OA 
BRANCH  13  14
HETATM   14  C   UNL     1      -8.499   9.333  67.401  1.00  0.00    -0.122 C  
HETATM   15  C   UNL     1      -7.782   9.628  64.575  1.00  0.00    -0.131 C  
HETATM   16  C   UNL     1      -7.033   9.229  66.938  1.00  0.00    -0.081 C  
HETATM   17  C   UNL     1      -6.788   7.770  66.526  1.00  0.00    -0.066 C  
HETATM   18  N   UNL     1      -8.645   8.513  65.024  1.00  0.00    -0.166 NA 
HETATM   19  C   UNL     1      -9.419   8.970  66.207  1.00  0.00    -0.242 C  
HETATM   20  C   UNL     1      -7.790   7.376  65.427  1.00  0.00    -0.118 C  
HETATM   21  C   UNL     1      -6.832  10.100  65.686  1.00  0.00    -0.124 C  
ENDBRANCH  13  14
ENDBRANCH   2  13
BRANCH   6  22
HETATM   22  C   UNL     1     -10.898  12.630  65.920  1.00  0.00    -0.300 A  
HETATM   23  C   UNL     1     -10.110  12.243  64.823  1.00  0.00    -0.271 A  
HETATM   24  C   UNL     1     -10.672  12.082  63.553  1.00  0.00    -0.513 A  
HETATM   25  C   UNL     1     -12.035  12.290  63.359  1.00  0.00    -0.588 A  
HETATM   26  C   UNL     1     -12.836  12.667  64.433  1.00  0.00    -0.344 A  
HETATM   27  C   UNL     1     -12.271  12.842  65.699  1.00  0.00    -0.519 A  
ENDBRANCH   6  22
TORSDOF 3
ENDMDL
MODEL       26
REMARK 921   NORMALIZED FREE ENERGY PREDICTED BY IDOCK:   -6.23 KCAL/MOL
REMARK 922        TOTAL FREE ENERGY PREDICTED BY IDOCK:   -8.29 KCAL/MOL
REMARK 923 INTER-LIGAND FREE ENERGY PREDICTED BY IDOCK:   -7.04 KCAL/MOL
REMARK 924 INTRA-LIGAND FREE ENERGY PREDICTED BY IDOCK:   -1.25 KCAL/MOL
REMARK 927      BINDING AFFINITY PREDICTED BY RF-SCORE:    0.00 PKD
ROOT
HETATM    1  O   UNL     1     -12.293  12.393  70.296  1.00  0.00    -0.275 OA 
HETATM    2  C   UNL     1     -11.443  11.798  69.642  1.00  0.00    -0.270 C  
HETATM    3  C   UNL     1     -10.742   5.630  68.827  1.00  0.00    -0.267 A  
HETATM    4  N   UNL     1     -10.920  10.570  69.990  1.00  0.00    -0.291 N  
HETATM    5  C   UNL     1     -11.345   9.942  71.231  1.00  0.00    -0.333 C  
HETATM    6  C   UNL     1      -9.928   9.863  69.177  1.00  0.00    -0.198 C  
HETATM    7  C   UNL     1     -10.258   8.378  69.058  1.00  0.00    -0.217 A  
HETATM    8  C   UNL     1     -11.880   8.530  71.008  1.00  0.00    -0.290 C  
HETATM    9  C   UNL     1      -9.659   7.625  68.031  1.00  0.00    -0.159 A  
HETATM   10  C   UNL     1     -11.124   7.741  69.967  1.00  0.00    -0.182 A  
HETATM   11  C   UNL     1      -9.906   6.262  67.914  1.00  0.00    -0.129 A  
HETATM   12  C   UNL     1     -11.354   6.365  69.845  1.00  0.00    -0.500 A  
ENDROOT
BRANCH   2  13
HETATM   13  O   UNL     1     -10.894  12.303  68.500  1.00  0.00    -0.219 OA 
BRANCH  13  14
HETATM   14  C   UNL     1     -11.847  12.697  67.501  1.00  0.00    -0.334 C  
HETATM   15  C   UNL     1     -10.272  14.312  65.630  1.00  0.00    -0.347 C  
HETATM   16  C   UNL     1     -11.420  12.135  66.131  1.00  0.00    -0.429 C  
HETATM   17  C   UNL     1     -12.487  12.559  65.112  1.00  0.00    -0.451 C  
HETATM   18  N   UNL     1     -11.636  14.728  66.025  1.00  0.00    -0.326 NA 
HETATM   19  C   UNL     1     -11.889  14.244  67.407  1.00  0.00    -0.409 C  
HETATM   20  C   UNL     1     -12.614  14.093  65.115  1.00  0.00    -0.408 C  
HETATM   21  C   UNL     1     -10.094  12.787  65.705  1.00  0.00    -0.281 C  
ENDBRANCH  13  14
ENDBRANCH   2  13
BRANCH   6  22
HETATM   22  C   UNL     1      -8.486  10.096  69.640  1.00  0.00    -0.172 A  
HETATM   23  C   UNL     1      -7.702  11.082  69.018  1.00  0.00    -0.132 A  
HETATM   24  C   UNL     1      -6.359  11.259  69.363  1.00  0.00    -0.092 A  
HETATM   25  C   UNL     1      -5.778  10.463  70.346  1.00  0.00    -0.084 A  
HETATM   26  C   UNL     1      -6.537   9.486  70.981  1.00  0.00    -0.061 A  
HETATM   27  C   UNL     1      -7.875   9.299  70.626  1.00  0.00    -0.181 A  
ENDBRANCH   6  22
TORSDOF 3
ENDMDL
MODEL       27
REMARK 921   NORMALIZED FREE ENERGY PREDICTED BY IDOCK:   -6.21 KCAL/MOL
REMARK 922        TOTAL FREE ENERGY PREDICTED BY IDOCK:   -8.27 KCAL/MOL
REMARK 923 INTER-LIGAND FREE ENERGY PREDICTED BY IDOCK:   -7.06 KCAL/MOL
REMARK 924 INTRA-LIGAND FREE ENERGY PREDICTED BY IDOCK:   -1.21 KCAL/MOL
REMARK 927      BINDING AFFINITY PREDICTED BY RF-SCORE:    0.00 PKD
ROOT
HETATM    1  O   UNL     1     -10.198  16.627  65.196  1.00  0.00    -0.592 OA 
HETATM    2  C   UNL     1     -10.093  15.613  65.879  1.00  0.00    -0.353 C  
HETATM    3  C   UNL     1     -13.020  14.174  71.223  1.00  0.00    -0.426 A  
HETATM    4  N   UNL     1     -10.187  15.595  67.255  1.00  0.00    -0.260 N  
HETATM    5  C   UNL     1     -10.371  16.848  67.971  1.00  0.00    -0.334 C  
HETATM    6  C   UNL     1     -10.090  14.368  68.048  1.00  0.00    -0.232 C  
HETATM    7  C   UNL     1     -11.150  14.324  69.144  1.00  0.00    -0.291 A  
HETATM    8  C   UNL     1     -11.592  16.813  68.887  1.00  0.00     0.267 C  
HETATM    9  C   UNL     1     -11.460  13.091  69.747  1.00  0.00    -0.213 A  
HETATM   10  C   UNL     1     -11.803  15.491  69.584  1.00  0.00    -0.384 A  
HETATM   11  C   UNL     1     -12.392  13.017  70.774  1.00  0.00    -0.394 A  
HETATM   12  C   UNL     1     -12.732  15.404  70.628  1.00  0.00    -0.490 A  
ENDROOT
BRANCH   2  13
HETATM   13  O   UNL     1      -9.839  14.382  65.350  1.00  0.00    -0.325 OA 
BRANCH  13  14
HETATM   14  C   UNL     1     -10.884  13.863  64.513  1.00  0.00    -0.368 C  
HETATM   15  C   UNL     1     -10.886  10.991  65.094  1.00  0.00    -0.112 C  
HETATM   16  C   UNL     1     -11.981  13.231  65.393  1.00  0.00    -0.432 C  
HETATM   17  C   UNL     1     -13.083  12.723  64.450  1.00  0.00    -0.015 C  
HETATM   18  N   UNL     1     -11.043  11.482  63.707  1.00  0.00    -0.399 NA 
HETATM   19  C   UNL     1     -10.307  12.767  63.582  1.00  0.00    -0.123 C  
HETATM   20  C   UNL     1     -12.477  11.730  63.444  1.00  0.00    -0.372 C  
HETATM   21  C   UNL     1     -11.404  12.006  66.124  1.00  0.00    -0.407 C  
ENDBRANCH  13  14
ENDBRANCH   2  13
BRANCH   6  22
HETATM   22  C   UNL     1      -8.683  14.112  68.600  1.00  0.00    -0.126 A  
HETATM   23  C   UNL     1      -8.068  15.073  69.420  1.00  0.00    -0.155 A  
HETATM   24  C   UNL     1      -6.754  14.904  69.868  1.00  0.00    -0.178 A  
HETATM   25  C   UNL     1      -6.036  13.765  69.516  1.00  0.00    -0.107 A  
HETATM   26  C   UNL     1      -6.627  12.797  68.712  1.00  0.00    -0.090 A  
HETATM   27  C   UNL     1      -7.935  12.972  68.252  1.00  0.00    -0.151 A  
ENDBRANCH   6  22
TORSDOF 3
ENDMDL
MODEL       28
REMARK 921   NORMALIZED FREE ENERGY PREDICTED BY IDOCK:   -6.20 KCAL/MOL
REMARK 922        TOTAL FREE ENERGY PREDICTED BY IDOCK:   -8.26 KCAL/MOL
REMARK 923 INTER-LIGAND FREE ENERGY PREDICTED BY IDOCK:   -7.21 KCAL/MOL
REMARK 924 INTRA-LIGAND FREE ENERGY PREDICTED BY IDOCK:   -1.05 KCAL/MOL
REMARK 927      BINDING AFFINITY PREDICTED BY RF-SCORE:    0.00 PKD
ROOT
HETATM    1  O   UNL     1     -10.298   9.724  65.591  1.00  0.00    -0.199 OA 
HETATM    2  C   UNL     1     -10.035  10.063  66.740  1.00  0.00    -0.210 C  
HETATM    3  C   UNL     1      -6.707   6.991  71.062  1.00  0.00    -0.053 A  
HETATM    4  N   UNL     1      -9.918   9.185  67.797  1.00  0.00    -0.178 N  
HETATM    5  C   UNL     1     -10.168   7.769  67.577  1.00  0.00    -0.235 C  
HETATM    6  C   UNL     1      -9.572   9.609  69.156  1.00  0.00    -0.174 C  
HETATM    7  C   UNL     1      -8.546   8.676  69.789  1.00  0.00    -0.131 A  
HETATM    8  C   UNL     1      -8.997   6.901  68.028  1.00  0.00    -0.121 C  
HETATM    9  C   UNL     1      -7.818   9.119  70.910  1.00  0.00    -0.163 A  
HETATM   10  C   UNL     1      -8.330   7.375  69.296  1.00  0.00    -0.132 A  
HETATM   11  C   UNL     1      -6.901   8.284  71.537  1.00  0.00    -0.066 A  
HETATM   12  C   UNL     1      -7.412   6.540  69.944  1.00  0.00    -0.088 A  
ENDROOT
BRANCH   2  13
HETATM   13  O   UNL     1      -9.855  11.364  67.110  1.00  0.00    -0.188 OA 
BRANCH  13  14
HETATM   14  C   UNL     1     -10.262  12.328  66.127  1.00  0.00    -0.239 C  
HETATM   15  C   UNL     1     -11.865  14.249  67.652  1.00  0.00    -0.385 C  
HETATM   16  C   UNL     1      -9.699  13.713  66.501  1.00  0.00    -0.298 C  
HETATM   17  C   UNL     1     -10.136  14.694  65.402  1.00  0.00    -0.403 C  
HETATM   18  N   UNL     1     -12.293  13.806  66.307  1.00  0.00    -0.447 NA 
HETATM   19  C   UNL     1     -11.809  12.417  66.097  1.00  0.00    -0.376 C  
HETATM   20  C   UNL     1     -11.671  14.683  65.291  1.00  0.00    -0.346 C  
HETATM   21  C   UNL     1     -10.339  14.184  67.818  1.00  0.00    -0.242 C  
ENDBRANCH  13  14
ENDBRANCH   2  13
BRANCH   6  22
HETATM   22  C   UNL     1     -10.794   9.815  70.057  1.00  0.00    -0.319 A  
HETATM   23  C   UNL     1     -11.423  11.071  70.108  1.00  0.00    -0.383 A  
HETATM   24  C   UNL     1     -12.487  11.310  70.983  1.00  0.00    -0.503 A  
HETATM   25  C   UNL     1     -12.952  10.294  71.814  1.00  0.00    -0.574 A  
HETATM   26  C   UNL     1     -12.350   9.040  71.774  1.00  0.00    -0.438 A  
HETATM   27  C   UNL     1     -11.278   8.806  70.911  1.00  0.00    -0.320 A  
ENDBRANCH   6  22
TORSDOF 3
ENDMDL
MODEL       29
REMARK 921   NORMALIZED FREE ENERGY PREDICTED BY IDOCK:   -6.19 KCAL/MOL
REMARK 922        TOTAL FREE ENERGY PREDICTED BY IDOCK:   -8.25 KCAL/MOL
REMARK 923 INTER-LIGAND FREE ENERGY PREDICTED BY IDOCK:   -6.72 KCAL/MOL
REMARK 924 INTRA-LIGAND FREE ENERGY PREDICTED BY IDOCK:   -1.53 KCAL/MOL
REMARK 927      BINDING AFFINITY PREDICTED BY RF-SCORE:    0.00 PKD
ROOT
HETATM    1  O   UNL     1      -6.849  11.814  67.525  1.00  0.00    -0.092 OA 
HETATM    2  C   UNL     1      -7.758  12.638  67.531  1.00  0.00    -0.161 C  
HETATM    3  C   UNL     1     -12.903  12.760  71.096  1.00  0.00    -0.315 A  
HETATM    4  N   UNL     1      -9.079  12.330  67.783  1.00  0.00    -0.183 N  
HETATM    5  C   UNL     1      -9.455  10.942  68.007  1.00  0.00    -0.163 C  
HETATM    6  C   UNL     1     -10.143  13.335  67.817  1.00  0.00    -0.229 C  
HETATM    7  C   UNL     1     -11.085  13.114  68.996  1.00  0.00    -0.282 A  
HETATM    8  C   UNL     1     -10.201  10.754  69.325  1.00  0.00    -0.217 C  
HETATM    9  C   UNL     1     -11.918  14.169  69.413  1.00  0.00    -0.382 A  
HETATM   10  C   UNL     1     -11.158  11.873  69.658  1.00  0.00    -0.106 A  
HETATM   11  C   UNL     1     -12.816  13.993  70.459  1.00  0.00    -0.284 A  
HETATM   12  C   UNL     1     -12.075  11.707  70.702  1.00  0.00    -0.432 A  
ENDROOT
BRANCH   2  13
HETATM   13  O   UNL     1      -7.566  13.960  67.259  1.00  0.00    -0.160 OA 
BRANCH  13  14
HETATM   14  C   UNL     1      -6.593  14.608  68.092  1.00  0.00    -0.134 C  
HETATM   15  C   UNL     1      -7.792  17.219  68.670  1.00  0.00    -0.272 C  
HETATM   16  C   UNL     1      -7.214  14.910  69.470  1.00  0.00    -0.184 C  
HETATM   17  C   UNL     1      -6.124  15.570  70.326  1.00  0.00    -0.085 C  
HETATM   18  N   UNL     1      -6.349  17.101  68.361  1.00  0.00    -0.152 NA 
HETATM   19  C   UNL     1      -6.163  15.948  67.442  1.00  0.00    -0.137 C  
HETATM   20  C   UNL     1      -5.610  16.833  69.613  1.00  0.00    -0.184 C  
HETATM   21  C   UNL     1      -8.349  15.935  69.303  1.00  0.00    -0.238 C  
ENDBRANCH  13  14
ENDBRANCH   2  13
BRANCH   6  22
HETATM   22  C   UNL     1     -10.903  13.460  66.492  1.00  0.00    -0.286 A  
HETATM   23  C   UNL     1     -10.769  14.624  65.715  1.00  0.00    -0.321 A  
HETATM   24  C   UNL     1     -11.513  14.800  64.545  1.00  0.00    -0.333 A  
HETATM   25  C   UNL     1     -12.395  13.809  64.121  1.00  0.00    -0.382 A  
HETATM   26  C   UNL     1     -12.538  12.645  64.869  1.00  0.00    -0.525 A  
HETATM   27  C   UNL     1     -11.805  12.476  66.046  1.00  0.00    -0.478 A  
ENDBRANCH   6  22
TORSDOF 3
ENDMDL
MODEL       30
REMARK 921   NORMALIZED FREE ENERGY PREDICTED BY IDOCK:   -6.19 KCAL/MOL
REMARK 922        TOTAL FREE ENERGY PREDICTED BY IDOCK:   -8.24 KCAL/MOL
REMARK 923 INTER-LIGAND FREE ENERGY PREDICTED BY IDOCK:   -7.06 KCAL/MOL
REMARK 924 INTRA-LIGAND FREE ENERGY PREDICTED BY IDOCK:   -1.18 KCAL/MOL
REMARK 927      BINDING AFFINITY PREDICTED BY RF-SCORE:    0.00 PKD
ROOT
HETATM    1  O   UNL     1      -6.908  13.043  67.899  1.00  0.00    -0.097 OA 
HETATM    2  C   UNL     1      -8.025  12.554  67.764  1.00  0.00    -0.163 C  
HETATM    3  C   UNL     1      -9.572   6.585  66.676  1.00  0.00    -0.201 A  
HETATM    4  N   UNL     1      -8.309  11.498  66.923  1.00  0.00    -0.161 N  
HETATM    5  C   UNL     1      -7.249  10.944  66.094  1.00  0.00    -0.101 C  
HETATM    6  C   UNL     1      -9.644  10.907  66.801  1.00  0.00    -0.183 C  
HETATM    7  C   UNL     1      -9.582   9.383  66.781  1.00  0.00    -0.234 A  
HETATM    8  C   UNL     1      -7.089   9.440  66.293  1.00  0.00    -0.088 C  
HETATM    9  C   UNL     1     -10.751   8.648  67.051  1.00  0.00    -0.190 A  
HETATM   10  C   UNL     1      -8.391   8.698  66.471  1.00  0.00    -0.108 A  
HETATM   11  C   UNL     1     -10.743   7.259  67.005  1.00  0.00    -0.406 A  
HETATM   12  C   UNL     1      -8.400   7.299  66.416  1.00  0.00    -0.124 A  
ENDROOT
BRANCH   2  13
HETATM   13  O   UNL     1      -9.128  13.021  68.416  1.00  0.00    -0.191 OA 
BRANCH  13  14
HETATM   14  C   UNL     1      -9.247  14.452  68.439  1.00  0.00    -0.195 C  
HETATM   15  C   UNL     1     -11.991  14.940  67.532  1.00  0.00    -0.131 C  
HETATM   16  C   UNL     1     -10.352  14.860  69.434  1.00  0.00    -0.217 C  
HETATM   17  C   UNL     1     -10.414  16.394  69.441  1.00  0.00    -0.309 C  
HETATM   18  N   UNL     1     -10.875  15.789  67.058  1.00  0.00    -0.305 NA 
HETATM   19  C   UNL     1      -9.640  14.962  67.029  1.00  0.00    -0.238 C  
HETATM   20  C   UNL     1     -10.679  16.901  68.013  1.00  0.00    -0.364 C  
HETATM   21  C   UNL     1     -11.710  14.349  68.923  1.00  0.00    -0.357 C  
ENDBRANCH  13  14
ENDBRANCH   2  13
BRANCH   6  22
HETATM   22  C   UNL     1     -10.449  11.465  65.622  1.00  0.00    -0.316 A  
HETATM   23  C   UNL     1     -11.650  12.155  65.860  1.00  0.00    -0.425 A  
HETATM   24  C   UNL     1     -12.446  12.601  64.801  1.00  0.00    -0.555 A  
HETATM   25  C   UNL     1     -12.050  12.379  63.485  1.00  0.00    -0.651 A  
HETATM   26  C   UNL     1     -10.860  11.706  63.227  1.00  0.00    -0.380 A  
HETATM   27  C   UNL     1     -10.072  11.247  64.285  1.00  0.00    -0.366 A  
ENDBRANCH   6  22
TORSDOF 3
ENDMDL
MODEL       31
REMARK 921   NORMALIZED FREE ENERGY PREDICTED BY IDOCK:   -6.11 KCAL/MOL
REMARK 922        TOTAL FREE ENERGY PREDICTED BY IDOCK:   -8.15 KCAL/MOL
REMARK 923 INTER-LIGAND FREE ENERGY PREDICTED BY IDOCK:   -7.68 KCAL/MOL
REMARK 924 INTRA-LIGAND FREE ENERGY PREDICTED BY IDOCK:   -0.47 KCAL/MOL
REMARK 927      BINDING AFFINITY PREDICTED BY RF-SCORE:    0.00 PKD
ROOT
HETATM    1  O   UNL     1     -10.939  16.269  68.404  1.00  0.00    -0.320 OA 
HETATM    2  C   UNL     1     -10.368  15.209  68.167  1.00  0.00    -0.239 C  
HETATM    3  C   UNL     1     -11.145  11.354  63.296  1.00  0.00    -0.204 A  
HETATM    4  N   UNL     1     -10.964  14.134  67.541  1.00  0.00    -0.278 N  
HETATM    5  C   UNL     1     -12.370  14.214  67.176  1.00  0.00    -0.178 C  
HETATM    6  C   UNL     1     -10.255  12.889  67.239  1.00  0.00    -0.234 C  
HETATM    7  C   UNL     1     -10.576  12.388  65.835  1.00  0.00    -0.289 A  
HETATM    8  C   UNL     1     -12.597  13.922  65.695  1.00  0.00    -0.553 C  
HETATM    9  C   UNL     1      -9.722  11.446  65.233  1.00  0.00    -0.276 A  
HETATM   10  C   UNL     1     -11.720  12.826  65.141  1.00  0.00    -0.396 A  
HETATM   11  C   UNL     1     -10.002  10.938  63.970  1.00  0.00    -0.403 A  
HETATM   12  C   UNL     1     -11.997  12.297  63.874  1.00  0.00    -0.582 A  
ENDROOT
BRANCH   2  13
HETATM   13  O   UNL     1      -9.076  14.963  68.524  1.00  0.00    -0.178 OA 
BRANCH  13  14
HETATM   14  C   UNL     1      -8.366  16.105  69.029  1.00  0.00    -0.247 C  
HETATM   15  C   UNL     1      -5.857  16.095  67.514  1.00  0.00    -0.153 C  
HETATM   16  C   UNL     1      -8.125  17.108  67.883  1.00  0.00    -0.201 C  
HETATM   17  C   UNL     1      -7.395  18.318  68.484  1.00  0.00    -0.297 C  
HETATM   18  N   UNL     1      -5.865  16.397  68.963  1.00  0.00    -0.132 NA 
HETATM   19  C   UNL     1      -6.991  15.656  69.587  1.00  0.00    -0.167 C  
HETATM   20  C   UNL     1      -6.090  17.847  69.150  1.00  0.00    -0.225 C  
HETATM   21  C   UNL     1      -7.186  16.476  66.842  1.00  0.00    -0.263 C  
ENDBRANCH  13  14
ENDBRANCH   2  13
BRANCH   6  22
HETATM   22  C   UNL     1     -10.461  11.801  68.298  1.00  0.00    -0.224 A  
HETATM   23  C   UNL     1     -11.704  11.679  68.943  1.00  0.00    -0.397 A  
HETATM   24  C   UNL     1     -11.895  10.751  69.971  1.00  0.00    -0.424 A  
HETATM   25  C   UNL     1     -10.851   9.918  70.365  1.00  0.00    -0.380 A  
HETATM   26  C   UNL     1      -9.614  10.016  69.735  1.00  0.00    -0.249 A  
HETATM   27  C   UNL     1      -9.419  10.953  68.718  1.00  0.00    -0.196 A  
ENDBRANCH   6  22
TORSDOF 3
ENDMDL
MODEL       32
REMARK 921   NORMALIZED FREE ENERGY PREDICTED BY IDOCK:   -6.05 KCAL/MOL
REMARK 922        TOTAL FREE ENERGY PREDICTED BY IDOCK:   -8.08 KCAL/MOL
REMARK 923 INTER-LIGAND FREE ENERGY PREDICTED BY IDOCK:   -6.52 KCAL/MOL
REMARK 924 INTRA-LIGAND FREE ENERGY PREDICTED BY IDOCK:   -1.56 KCAL/MOL
REMARK 927      BINDING AFFINITY PREDICTED BY RF-SCORE:    0.00 PKD
ROOT
HETATM    1  O   UNL     1     -11.067  10.936  70.058  1.00  0.00    -0.268 OA 
HETATM    2  C   UNL     1     -10.520  11.377  69.053  1.00  0.00    -0.168 C  
HETATM    3  C   UNL     1      -9.206  17.326  67.609  1.00  0.00    -0.229 A  
HETATM    4  N   UNL     1     -10.827  12.592  68.477  1.00  0.00    -0.244 N  
HETATM    5  C   UNL     1     -11.898  13.398  69.044  1.00  0.00    -0.335 C  
HETATM    6  C   UNL     1     -10.138  13.115  67.295  1.00  0.00    -0.233 C  
HETATM    7  C   UNL     1      -9.807  14.596  67.449  1.00  0.00    -0.222 A  
HETATM    8  C   UNL     1     -11.434  14.810  69.388  1.00  0.00    -0.330 C  
HETATM    9  C   UNL     1      -8.833  15.170  66.611  1.00  0.00    -0.321 A  
HETATM   10  C   UNL     1     -10.472  15.405  68.390  1.00  0.00    -0.239 A  
HETATM   11  C   UNL     1      -8.531  16.524  66.696  1.00  0.00    -0.299 A  
HETATM   12  C   UNL     1     -10.167  16.770  68.456  1.00  0.00    -0.298 A  
ENDROOT
BRANCH   2  13
HETATM   13  O   UNL     1      -9.556  10.697  68.369  1.00  0.00    -0.156 OA 
BRANCH  13  14
HETATM   14  C   UNL     1      -8.379  10.396  69.135  1.00  0.00    -0.158 C  
HETATM   15  C   UNL     1      -6.251  10.263  67.124  1.00  0.00    -0.062 C  
HETATM   16  C   UNL     1      -7.359  11.541  68.981  1.00  0.00    -0.094 C  
HETATM   17  C   UNL     1      -6.139  11.182  69.842  1.00  0.00    -0.121 C  
HETATM   18  N   UNL     1      -6.311   9.279  68.228  1.00  0.00    -0.054 NA 
HETATM   19  C   UNL     1      -7.736   9.089  68.605  1.00  0.00    -0.096 C  
HETATM   20  C   UNL     1      -5.580   9.820  69.394  1.00  0.00    -0.034 C  
HETATM   21  C   UNL     1      -6.884  11.607  67.519  1.00  0.00    -0.104 C  
ENDBRANCH  13  14
ENDBRANCH   2  13
BRANCH   6  22
HETATM   22  C   UNL     1     -10.878  12.826  65.984  1.00  0.00    -0.301 A  
HETATM   23  C   UNL     1     -10.394  11.835  65.112  1.00  0.00    -0.323 A  
HETATM   24  C   UNL     1     -10.999  11.608  63.872  1.00  0.00    -0.478 A  
HETATM   25  C   UNL     1     -12.109  12.356  63.487  1.00  0.00    -0.651 A  
HETATM   26  C   UNL     1     -12.610  13.336  64.338  1.00  0.00    -0.282 A  
HETATM   27  C   UNL     1     -11.996  13.573  65.570  1.00  0.00    -0.420 A  
ENDBRANCH   6  22
TORSDOF 3
ENDMDL
MODEL       33
REMARK 921   NORMALIZED FREE ENERGY PREDICTED BY IDOCK:   -6.04 KCAL/MOL
REMARK 922        TOTAL FREE ENERGY PREDICTED BY IDOCK:   -8.07 KCAL/MOL
REMARK 923 INTER-LIGAND FREE ENERGY PREDICTED BY IDOCK:   -6.55 KCAL/MOL
REMARK 924 INTRA-LIGAND FREE ENERGY PREDICTED BY IDOCK:   -1.52 KCAL/MOL
REMARK 927      BINDING AFFINITY PREDICTED BY RF-SCORE:    0.00 PKD
ROOT
HETATM    1  O   UNL     1     -11.129   6.533  66.980  1.00  0.00    -0.399 OA 
HETATM    2  C   UNL     1     -10.686   7.426  67.695  1.00  0.00    -0.207 C  
HETATM    3  C   UNL     1      -7.620   6.926  73.131  1.00  0.00    -0.087 A  
HETATM    4  N   UNL     1     -10.640   7.363  69.072  1.00  0.00    -0.211 N  
HETATM    5  C   UNL     1     -11.193   6.199  69.749  1.00  0.00    -0.423 C  
HETATM    6  C   UNL     1     -10.077   8.428  69.905  1.00  0.00    -0.195 C  
HETATM    7  C   UNL     1      -9.201   7.863  71.019  1.00  0.00    -0.164 A  
HETATM    8  C   UNL     1     -10.182   5.543  70.685  1.00  0.00    -0.308 C  
HETATM    9  C   UNL     1      -8.287   8.715  71.668  1.00  0.00    -0.216 A  
HETATM   10  C   UNL     1      -9.305   6.521  71.429  1.00  0.00    -0.154 A  
HETATM   11  C   UNL     1      -7.499   8.246  72.712  1.00  0.00    -0.152 A  
HETATM   12  C   UNL     1      -8.514   6.065  72.491  1.00  0.00    -0.119 A  
ENDROOT
BRANCH   2  13
HETATM   13  O   UNL     1     -10.208   8.606  67.204  1.00  0.00    -0.230 OA 
BRANCH  13  14
HETATM   14  C   UNL     1      -9.218   8.468  66.174  1.00  0.00    -0.211 C  
HETATM   15  C   UNL     1      -7.533  10.844  66.500  1.00  0.00    -0.142 C  
HETATM   16  C   UNL     1      -7.820   8.369  66.814  1.00  0.00    -0.094 C  
HETATM   17  C   UNL     1      -6.808   8.192  65.672  1.00  0.00    -0.066 C  
HETATM   18  N   UNL     1      -7.921  10.371  65.153  1.00  0.00    -0.150 NA 
HETATM   19  C   UNL     1      -9.251   9.716  65.254  1.00  0.00    -0.237 C  
HETATM   20  C   UNL     1      -6.934   9.371  64.692  1.00  0.00    -0.096 C  
HETATM   21  C   UNL     1      -7.487   9.695  67.519  1.00  0.00    -0.091 C  
ENDBRANCH  13  14
ENDBRANCH   2  13
BRANCH   6  22
HETATM   22  C   UNL     1     -11.133   9.400  70.442  1.00  0.00    -0.311 A  
HETATM   23  C   UNL     1     -11.197  10.711  69.938  1.00  0.00    -0.378 A  
HETATM   24  C   UNL     1     -12.094  11.644  70.468  1.00  0.00    -0.458 A  
HETATM   25  C   UNL     1     -12.953  11.280  71.502  1.00  0.00    -0.520 A  
HETATM   26  C   UNL     1     -12.912   9.986  72.011  1.00  0.00    -0.514 A  
HETATM   27  C   UNL     1     -12.006   9.058  71.491  1.00  0.00    -0.414 A  
ENDBRANCH   6  22
TORSDOF 3
ENDMDL
MODEL       34
REMARK 921   NORMALIZED FREE ENERGY PREDICTED BY IDOCK:   -6.01 KCAL/MOL
REMARK 922        TOTAL FREE ENERGY PREDICTED BY IDOCK:   -8.03 KCAL/MOL
REMARK 923 INTER-LIGAND FREE ENERGY PREDICTED BY IDOCK:   -6.77 KCAL/MOL
REMARK 924 INTRA-LIGAND FREE ENERGY PREDICTED BY IDOCK:   -1.26 KCAL/MOL
REMARK 927      BINDING AFFINITY PREDICTED BY RF-SCORE:    0.00 PKD
ROOT
HETATM    1  O   UNL     1     -12.783  11.488  70.255  1.00  0.00    -0.140 OA 
HETATM    2  C   UNL     1     -11.922  10.863  69.645  1.00  0.00    -0.343 C  
HETATM    3  C   UNL     1     -10.224   4.874  70.321  1.00  0.00    -0.299 A  
HETATM    4  N   UNL     1     -11.150   9.866  70.205  1.00  0.00    -0.276 N  
HETATM    5  C   UNL     1     -11.307   9.552  71.617  1.00  0.00    -0.341 C  
HETATM    6  C   UNL     1     -10.149   9.109  69.449  1.00  0.00    -0.197 C  
HETATM    7  C   UNL     1     -10.218   7.619  69.766  1.00  0.00    -0.210 A  
HETATM    8  C   UNL     1     -11.602   8.073  71.848  1.00  0.00    -0.348 C  
HETATM    9  C   UNL     1      -9.618   6.704  68.881  1.00  0.00    -0.129 A  
HETATM   10  C   UNL     1     -10.843   7.142  70.934  1.00  0.00    -0.266 A  
HETATM   11  C   UNL     1      -9.627   5.341  69.155  1.00  0.00    -0.201 A  
HETATM   12  C   UNL     1     -10.834   5.768  71.204  1.00  0.00    -0.316 A  
ENDROOT
BRANCH   2  13
HETATM   13  O   UNL     1     -11.610  11.104  68.340  1.00  0.00    -0.298 OA 
BRANCH  13  14
HETATM   14  C   UNL     1     -11.855  12.450  67.904  1.00  0.00    -0.308 C  
HETATM   15  C   UNL     1      -9.459  13.133  66.361  1.00  0.00    -0.220 C  
HETATM   16  C   UNL     1     -11.888  12.494  66.364  1.00  0.00    -0.445 C  
HETATM   17  C   UNL     1     -12.184  13.946  65.957  1.00  0.00    -0.495 C  
HETATM   18  N   UNL     1     -10.070  14.115  67.284  1.00  0.00    -0.253 NA 
HETATM   19  C   UNL     1     -10.710  13.371  68.399  1.00  0.00    -0.256 C  
HETATM   20  C   UNL     1     -11.113  14.872  66.559  1.00  0.00    -0.341 C  
HETATM   21  C   UNL     1     -10.496  12.139  65.815  1.00  0.00    -0.287 C  
ENDBRANCH  13  14
ENDBRANCH   2  13
BRANCH   6  22
HETATM   22  C   UNL     1      -8.728   9.663  69.600  1.00  0.00    -0.206 A  
HETATM   23  C   UNL     1      -7.916   9.226  70.661  1.00  0.00    -0.189 A  
HETATM   24  C   UNL     1      -6.648   9.776  70.872  1.00  0.00    -0.048 A  
HETATM   25  C   UNL     1      -6.162  10.763  70.018  1.00  0.00    -0.119 A  
HETATM   26  C   UNL     1      -6.945  11.205  68.957  1.00  0.00    -0.101 A  
HETATM   27  C   UNL     1      -8.218  10.666  68.755  1.00  0.00    -0.142 A  
ENDBRANCH   6  22
TORSDOF 3
ENDMDL
MODEL       35
REMARK 921   NORMALIZED FREE ENERGY PREDICTED BY IDOCK:   -5.98 KCAL/MOL
REMARK 922        TOTAL FREE ENERGY PREDICTED BY IDOCK:   -8.00 KCAL/MOL
REMARK 923 INTER-LIGAND FREE ENERGY PREDICTED BY IDOCK:   -6.69 KCAL/MOL
REMARK 924 INTRA-LIGAND FREE ENERGY PREDICTED BY IDOCK:   -1.31 KCAL/MOL
REMARK 927      BINDING AFFINITY PREDICTED BY RF-SCORE:    0.00 PKD
ROOT
HETATM    1  O   UNL     1      -8.853  11.146  62.501  1.00  0.00    -0.302 OA 
HETATM    2  C   UNL     1      -9.208  10.883  63.645  1.00  0.00    -0.226 C  
HETATM    3  C   UNL     1      -5.850  11.085  68.925  1.00  0.00    -0.040 A  
HETATM    4  N   UNL     1      -8.388  10.311  64.596  1.00  0.00    -0.166 N  
HETATM    5  C   UNL     1      -7.030   9.938  64.232  1.00  0.00    -0.128 C  
HETATM    6  C   UNL     1      -8.824  10.035  65.967  1.00  0.00    -0.145 C  
HETATM    7  C   UNL     1      -7.759  10.436  66.983  1.00  0.00    -0.105 A  
HETATM    8  C   UNL     1      -5.993  10.563  65.161  1.00  0.00    -0.113 C  
HETATM    9  C   UNL     1      -8.130  10.605  68.331  1.00  0.00    -0.123 A  
HETATM   10  C   UNL     1      -6.414  10.614  66.610  1.00  0.00    -0.100 A  
HETATM   11  C   UNL     1      -7.182  10.932  69.292  1.00  0.00    -0.128 A  
HETATM   12  C   UNL     1      -5.467  10.933  67.591  1.00  0.00    -0.040 A  
ENDROOT
BRANCH   2  13
HETATM   13  O   UNL     1     -10.474  11.104  64.102  1.00  0.00    -0.333 OA 
BRANCH  13  14
HETATM   14  C   UNL     1     -10.975  12.428  63.861  1.00  0.00    -0.414 C  
HETATM   15  C   UNL     1     -12.232  13.174  66.401  1.00  0.00    -0.329 C  
HETATM   16  C   UNL     1     -10.293  13.419  64.824  1.00  0.00    -0.397 C  
HETATM   17  C   UNL     1     -10.842  14.817  64.501  1.00  0.00    -0.181 C  
HETATM   18  N   UNL     1     -12.880  13.502  65.111  1.00  0.00    -0.728 NA 
HETATM   19  C   UNL     1     -12.503  12.459  64.122  1.00  0.00    -0.442 C  
HETATM   20  C   UNL     1     -12.374  14.809  64.638  1.00  0.00    -0.333 C  
HETATM   21  C   UNL     1     -10.704  13.089  66.269  1.00  0.00    -0.290 C  
ENDBRANCH  13  14
ENDBRANCH   2  13
BRANCH   6  22
HETATM   22  C   UNL     1      -9.300   8.593  66.173  1.00  0.00    -0.291 A  
HETATM   23  C   UNL     1     -10.489   8.344  66.881  1.00  0.00    -0.359 A  
HETATM   24  C   UNL     1     -10.903   7.038  67.156  1.00  0.00    -0.427 A  
HETATM   25  C   UNL     1     -10.146   5.956  66.717  1.00  0.00    -0.235 A  
HETATM   26  C   UNL     1      -8.970   6.178  66.008  1.00  0.00    -0.156 A  
HETATM   27  C   UNL     1      -8.548   7.484  65.746  1.00  0.00    -0.158 A  
ENDBRANCH   6  22
TORSDOF 3
ENDMDL
MODEL       36
REMARK 921   NORMALIZED FREE ENERGY PREDICTED BY IDOCK:   -5.97 KCAL/MOL
REMARK 922        TOTAL FREE ENERGY PREDICTED BY IDOCK:   -7.99 KCAL/MOL
REMARK 923 INTER-LIGAND FREE ENERGY PREDICTED BY IDOCK:   -6.53 KCAL/MOL
REMARK 924 INTRA-LIGAND FREE ENERGY PREDICTED BY IDOCK:   -1.46 KCAL/MOL
REMARK 927      BINDING AFFINITY PREDICTED BY RF-SCORE:    0.00 PKD
ROOT
HETATM    1  O   UNL     1     -12.587  12.662  65.469  1.00  0.00    -0.634 OA 
HETATM    2  C   UNL     1     -11.689  12.469  66.283  1.00  0.00    -0.404 C  
HETATM    3  C   UNL     1      -5.806  10.595  65.245  1.00  0.00    -0.107 A  
HETATM    4  N   UNL     1     -10.722  11.495  66.149  1.00  0.00    -0.267 N  
HETATM    5  C   UNL     1     -10.774  10.592  65.009  1.00  0.00    -0.010 C  
HETATM    6  C   UNL     1      -9.639  11.303  67.117  1.00  0.00    -0.177 C  
HETATM    7  C   UNL     1      -8.301  11.076  66.422  1.00  0.00    -0.165 A  
HETATM    8  C   UNL     1      -9.468  10.586  64.219  1.00  0.00    -0.337 C  
HETATM    9  C   UNL     1      -7.112  11.252  67.155  1.00  0.00    -0.125 A  
HETATM   10  C   UNL     1      -8.228  10.670  65.076  1.00  0.00    -0.074 A  
HETATM   11  C   UNL     1      -5.875  11.018  66.567  1.00  0.00    -0.124 A  
HETATM   12  C   UNL     1      -6.976  10.427  64.500  1.00  0.00    -0.003 A  
ENDROOT
BRANCH   2  13
HETATM   13  O   UNL     1     -11.563  13.185  67.437  1.00  0.00    -0.314 OA 
BRANCH  13  14
HETATM   14  C   UNL     1     -11.515  14.608  67.256  1.00  0.00    -0.372 C  
HETATM   15  C   UNL     1      -9.283  15.455  68.956  1.00  0.00    -0.235 C  
HETATM   16  C   UNL     1     -10.156  15.003  66.645  1.00  0.00    -0.267 C  
HETATM   17  C   UNL     1     -10.173  16.526  66.445  1.00  0.00    -0.324 C  
HETATM   18  N   UNL     1     -10.535  16.242  68.903  1.00  0.00    -0.254 NA 
HETATM   19  C   UNL     1     -11.660  15.311  68.630  1.00  0.00    -0.354 C  
HETATM   20  C   UNL     1     -10.444  17.215  67.793  1.00  0.00    -0.362 C  
HETATM   21  C   UNL     1      -9.035  14.686  67.649  1.00  0.00    -0.187 C  
ENDBRANCH  13  14
ENDBRANCH   2  13
BRANCH   6  22
HETATM   22  C   UNL     1      -9.940  10.215  68.154  1.00  0.00    -0.170 A  
HETATM   23  C   UNL     1      -9.852   8.859  67.791  1.00  0.00    -0.208 A  
HETATM   24  C   UNL     1     -10.201   7.848  68.691  1.00  0.00    -0.223 A  
HETATM   25  C   UNL     1     -10.631   8.172  69.975  1.00  0.00    -0.239 A  
HETATM   26  C   UNL     1     -10.717   9.507  70.359  1.00  0.00    -0.341 A  
HETATM   27  C   UNL     1     -10.383  10.517  69.454  1.00  0.00    -0.258 A  
ENDBRANCH   6  22
TORSDOF 3
ENDMDL
MODEL       37
REMARK 921   NORMALIZED FREE ENERGY PREDICTED BY IDOCK:   -5.92 KCAL/MOL
REMARK 922        TOTAL FREE ENERGY PREDICTED BY IDOCK:   -7.93 KCAL/MOL
REMARK 923 INTER-LIGAND FREE ENERGY PREDICTED BY IDOCK:   -6.66 KCAL/MOL
REMARK 924 INTRA-LIGAND FREE ENERGY PREDICTED BY IDOCK:   -1.27 KCAL/MOL
REMARK 927      BINDING AFFINITY PREDICTED BY RF-SCORE:    0.00 PKD
ROOT
HETATM    1  O   UNL     1      -7.409  12.097  68.840  1.00  0.00    -0.107 OA 
HETATM    2  C   UNL     1      -8.371  11.586  68.276  1.00  0.00    -0.154 C  
HETATM    3  C   UNL     1      -9.706   5.511  67.557  1.00  0.00    -0.140 A  
HETATM    4  N   UNL     1      -8.316  10.396  67.581  1.00  0.00    -0.114 N  
HETATM    5  C   UNL     1      -7.040   9.709  67.447  1.00  0.00    -0.085 C  
HETATM    6  C   UNL     1      -9.485   9.786  66.943  1.00  0.00    -0.160 C  
HETATM    7  C   UNL     1      -9.541   8.283  67.197  1.00  0.00    -0.234 A  
HETATM    8  C   UNL     1      -7.110   8.265  67.936  1.00  0.00    -0.083 C  
HETATM    9  C   UNL     1     -10.757   7.602  67.000  1.00  0.00    -0.340 A  
HETATM   10  C   UNL     1      -8.401   7.560  67.596  1.00  0.00    -0.118 A  
HETATM   11  C   UNL     1     -10.839   6.227  67.185  1.00  0.00    -0.460 A  
HETATM   12  C   UNL     1      -8.495   6.174  67.767  1.00  0.00    -0.115 A  
ENDROOT
BRANCH   2  13
HETATM   13  O   UNL     1      -9.609  12.157  68.250  1.00  0.00    -0.206 OA 
BRANCH  13  14
HETATM   14  C   UNL     1      -9.606  13.592  68.198  1.00  0.00    -0.215 C  
HETATM   15  C   UNL     1     -11.960  14.240  66.578  1.00  0.00    -0.427 C  
HETATM   16  C   UNL     1     -10.895  14.132  68.849  1.00  0.00    -0.276 C  
HETATM   17  C   UNL     1     -10.822  15.666  68.795  1.00  0.00    -0.262 C  
HETATM   18  N   UNL     1     -10.690  14.976  66.394  1.00  0.00    -0.315 NA 
HETATM   19  C   UNL     1      -9.568  14.057  66.720  1.00  0.00    -0.286 C  
HETATM   20  C   UNL     1     -10.656  16.118  67.334  1.00  0.00    -0.311 C  
HETATM   21  C   UNL     1     -12.109  13.701  68.009  1.00  0.00    -0.309 C  
ENDBRANCH  13  14
ENDBRANCH   2  13
BRANCH   6  22
HETATM   22  C   UNL     1      -9.605  10.121  65.452  1.00  0.00    -0.325 A  
HETATM   23  C   UNL     1      -8.778   9.471  64.520  1.00  0.00    -0.232 A  
HETATM   24  C   UNL     1      -8.808   9.818  63.166  1.00  0.00    -0.257 A  
HETATM   25  C   UNL     1      -9.675  10.809  62.715  1.00  0.00    -0.297 A  
HETATM   26  C   UNL     1     -10.508  11.460  63.619  1.00  0.00    -0.472 A  
HETATM   27  C   UNL     1     -10.468  11.125  64.974  1.00  0.00    -0.357 A  
ENDBRANCH   6  22
TORSDOF 3
ENDMDL
MODEL       38
REMARK 921   NORMALIZED FREE ENERGY PREDICTED BY IDOCK:   -5.92 KCAL/MOL
REMARK 922        TOTAL FREE ENERGY PREDICTED BY IDOCK:   -7.92 KCAL/MOL
REMARK 923 INTER-LIGAND FREE ENERGY PREDICTED BY IDOCK:   -7.01 KCAL/MOL
REMARK 924 INTRA-LIGAND FREE ENERGY PREDICTED BY IDOCK:   -0.92 KCAL/MOL
REMARK 927      BINDING AFFINITY PREDICTED BY RF-SCORE:    0.00 PKD
ROOT
HETATM    1  O   UNL     1     -11.958  13.650  67.416  1.00  0.00    -0.376 OA 
HETATM    2  C   UNL     1     -11.147  14.238  68.123  1.00  0.00    -0.258 C  
HETATM    3  C   UNL     1      -8.201  19.652  67.024  1.00  0.00    -0.319 A  
HETATM    4  N   UNL     1     -10.090  14.978  67.635  1.00  0.00    -0.230 N  
HETATM    5  C   UNL     1      -9.869  15.040  66.198  1.00  0.00    -0.301 C  
HETATM    6  C   UNL     1      -9.151  15.699  68.497  1.00  0.00    -0.196 C  
HETATM    7  C   UNL     1      -8.855  17.095  67.958  1.00  0.00    -0.229 A  
HETATM    8  C   UNL     1      -9.810  16.477  65.686  1.00  0.00    -0.187 C  
HETATM    9  C   UNL     1      -8.297  18.056  68.822  1.00  0.00    -0.223 A  
HETATM   10  C   UNL     1      -9.102  17.434  66.614  1.00  0.00    -0.277 A  
HETATM   11  C   UNL     1      -7.978  19.327  68.357  1.00  0.00    -0.376 A  
HETATM   12  C   UNL     1      -8.766  18.714  66.158  1.00  0.00    -0.142 A  
ENDROOT
BRANCH   2  13
HETATM   13  O   UNL     1     -11.183  14.202  69.486  1.00  0.00    -0.249 OA 
BRANCH  13  14
HETATM   14  C   UNL     1     -12.500  14.107  70.047  1.00  0.00    -0.296 C  
HETATM   15  C   UNL     1     -12.081  14.609  72.904  1.00  0.00    -0.095 C  
HETATM   16  C   UNL     1     -12.887  15.458  70.683  1.00  0.00    -0.484 C  
HETATM   17  C   UNL     1     -14.312  15.308  71.237  1.00  0.00    -0.488 C  
HETATM   18  N   UNL     1     -13.010  13.550  72.451  1.00  0.00    -0.329 NA 
HETATM   19  C   UNL     1     -12.516  13.021  71.153  1.00  0.00    -0.271 C  
HETATM   20  C   UNL     1     -14.349  14.143  72.241  1.00  0.00    -0.444 C  
HETATM   21  C   UNL     1     -11.959  15.743  71.876  1.00  0.00    -0.552 C  
ENDBRANCH  13  14
ENDBRANCH   2  13
BRANCH   6  22
HETATM   22  C   UNL     1      -7.869  14.912  68.789  1.00  0.00    -0.149 A  
HETATM   23  C   UNL     1      -7.288  14.970  70.068  1.00  0.00     0.045 A  
HETATM   24  C   UNL     1      -6.075  14.331  70.338  1.00  0.00    -0.176 A  
HETATM   25  C   UNL     1      -5.426  13.610  69.340  1.00  0.00    -0.085 A  
HETATM   26  C   UNL     1      -5.986  13.532  68.069  1.00  0.00    -0.131 A  
HETATM   27  C   UNL     1      -7.191  14.183  67.795  1.00  0.00    -0.187 A  
ENDBRANCH   6  22
TORSDOF 3
ENDMDL
MODEL       39
REMARK 921   NORMALIZED FREE ENERGY PREDICTED BY IDOCK:   -5.89 KCAL/MOL
REMARK 922        TOTAL FREE ENERGY PREDICTED BY IDOCK:   -7.89 KCAL/MOL
REMARK 923 INTER-LIGAND FREE ENERGY PREDICTED BY IDOCK:   -7.43 KCAL/MOL
REMARK 924 INTRA-LIGAND FREE ENERGY PREDICTED BY IDOCK:   -0.46 KCAL/MOL
REMARK 927      BINDING AFFINITY PREDICTED BY RF-SCORE:    0.00 PKD
ROOT
HETATM    1  O   UNL     1      -8.233   9.533  69.088  1.00  0.00    -0.102 OA 
HETATM    2  C   UNL     1      -9.121  10.358  68.898  1.00  0.00    -0.173 C  
HETATM    3  C   UNL     1     -11.848  11.996  63.505  1.00  0.00    -0.587 A  
HETATM    4  N   UNL     1      -9.220  11.139  67.765  1.00  0.00    -0.150 N  
HETATM    5  C   UNL     1      -8.193  11.038  66.739  1.00  0.00    -0.149 C  
HETATM    6  C   UNL     1     -10.307  12.096  67.544  1.00  0.00    -0.205 C  
HETATM    7  C   UNL     1     -10.838  12.019  66.117  1.00  0.00    -0.325 A  
HETATM    8  C   UNL     1      -8.781  10.731  65.365  1.00  0.00    -0.190 C  
HETATM    9  C   UNL     1     -12.102  12.567  65.828  1.00  0.00    -0.443 A  
HETATM   10  C   UNL     1     -10.084  11.437  65.080  1.00  0.00    -0.319 A  
HETATM   11  C   UNL     1     -12.604  12.549  64.532  1.00  0.00    -0.503 A  
HETATM   12  C   UNL     1     -10.597  11.437  63.777  1.00  0.00    -0.464 A  
ENDROOT
BRANCH   2  13
HETATM   13  O   UNL     1     -10.104  10.618  69.807  1.00  0.00    -0.162 OA 
BRANCH  13  14
HETATM   14  C   UNL     1     -11.105   9.594  69.915  1.00  0.00    -0.235 C  
HETATM   15  C   UNL     1      -9.739   7.428  71.341  1.00  0.00    -0.167 C  
HETATM   16  C   UNL     1     -11.396   9.314  71.402  1.00  0.00    -0.434 C  
HETATM   17  C   UNL     1     -12.491   8.239  71.457  1.00  0.00    -0.340 C  
HETATM   18  N   UNL     1     -10.632   7.136  70.198  1.00  0.00    -0.223 NA 
HETATM   19  C   UNL     1     -10.583   8.288  69.261  1.00  0.00    -0.181 C  
HETATM   20  C   UNL     1     -12.017   6.989  70.696  1.00  0.00    -0.313 C  
HETATM   21  C   UNL     1     -10.140   8.723  72.065  1.00  0.00    -0.397 C  
ENDBRANCH  13  14
ENDBRANCH   2  13
BRANCH   6  22
HETATM   22  C   UNL     1      -9.944  13.530  67.945  1.00  0.00    -0.245 A  
HETATM   23  C   UNL     1     -10.587  14.134  69.039  1.00  0.00    -0.227 A  
HETATM   24  C   UNL     1     -10.337  15.468  69.375  1.00  0.00    -0.258 A  
HETATM   25  C   UNL     1      -9.428  16.218  68.633  1.00  0.00    -0.228 A  
HETATM   26  C   UNL     1      -8.774  15.638  67.552  1.00  0.00    -0.189 A  
HETATM   27  C   UNL     1      -9.035  14.310  67.207  1.00  0.00    -0.221 A  
ENDBRANCH   6  22
TORSDOF 3
ENDMDL
MODEL       40
REMARK 921   NORMALIZED FREE ENERGY PREDICTED BY IDOCK:   -5.87 KCAL/MOL
REMARK 922        TOTAL FREE ENERGY PREDICTED BY IDOCK:   -7.86 KCAL/MOL
REMARK 923 INTER-LIGAND FREE ENERGY PREDICTED BY IDOCK:   -7.00 KCAL/MOL
REMARK 924 INTRA-LIGAND FREE ENERGY PREDICTED BY IDOCK:   -0.86 KCAL/MOL
REMARK 927      BINDING AFFINITY PREDICTED BY RF-SCORE:    0.00 PKD
ROOT
HETATM    1  O   UNL     1      -9.596   7.481  66.382  1.00  0.00    -0.182 OA 
HETATM    2  C   UNL     1      -9.925   8.553  66.879  1.00  0.00    -0.265 C  
HETATM    3  C   UNL     1     -12.376  13.580  64.064  1.00  0.00    -0.391 A  
HETATM    4  N   UNL     1      -9.817   9.768  66.235  1.00  0.00    -0.232 N  
HETATM    5  C   UNL     1      -9.233   9.818  64.903  1.00  0.00    -0.257 C  
HETATM    6  C   UNL     1     -10.245  11.034  66.835  1.00  0.00    -0.222 C  
HETATM    7  C   UNL     1     -11.010  11.896  65.836  1.00  0.00    -0.354 A  
HETATM    8  C   UNL     1     -10.155  10.497  63.895  1.00  0.00    -0.288 C  
HETATM    9  C   UNL     1     -11.814  12.947  66.315  1.00  0.00    -0.477 A  
HETATM   10  C   UNL     1     -10.908  11.683  64.448  1.00  0.00    -0.399 A  
HETATM   11  C   UNL     1     -12.496  13.778  65.434  1.00  0.00    -0.532 A  
HETATM   12  C   UNL     1     -11.591  12.535  63.572  1.00  0.00    -0.584 A  
ENDROOT
BRANCH   2  13
HETATM   13  O   UNL     1     -10.412   8.669  68.147  1.00  0.00    -0.218 OA 
BRANCH  13  14
HETATM   14  C   UNL     1     -10.157   7.536  68.992  1.00  0.00    -0.192 C  
HETATM   15  C   UNL     1      -9.539   8.730  71.596  1.00  0.00    -0.293 C  
HETATM   16  C   UNL     1     -11.184   7.511  70.142  1.00  0.00    -0.213 C  
HETATM   17  C   UNL     1     -10.885   6.267  70.991  1.00  0.00    -0.326 C  
HETATM   18  N   UNL     1      -8.758   7.581  71.087  1.00  0.00    -0.135 NA 
HETATM   19  C   UNL     1      -8.737   7.654  69.602  1.00  0.00    -0.136 C  
HETATM   20  C   UNL     1      -9.430   6.327  71.490  1.00  0.00    -0.151 C  
HETATM   21  C   UNL     1     -10.972   8.741  71.041  1.00  0.00    -0.328 C  
ENDBRANCH  13  14
ENDBRANCH   2  13
BRANCH   6  22
HETATM   22  C   UNL     1      -9.102  11.806  67.503  1.00  0.00    -0.175 A  
HETATM   23  C   UNL     1      -8.736  13.073  67.017  1.00  0.00    -0.195 A  
HETATM   24  C   UNL     1      -7.644  13.762  67.553  1.00  0.00    -0.185 A  
HETATM   25  C   UNL     1      -6.906  13.205  68.594  1.00  0.00    -0.099 A  
HETATM   26  C   UNL     1      -7.256  11.955  69.096  1.00  0.00    -0.020 A  
HETATM   27  C   UNL     1      -8.338  11.260  68.551  1.00  0.00    -0.155 A  
ENDBRANCH   6  22
TORSDOF 3
ENDMDL
MODEL       41
REMARK 921   NORMALIZED FREE ENERGY PREDICTED BY IDOCK:   -5.82 KCAL/MOL
REMARK 922        TOTAL FREE ENERGY PREDICTED BY IDOCK:   -7.81 KCAL/MOL
REMARK 923 INTER-LIGAND FREE ENERGY PREDICTED BY IDOCK:   -6.31 KCAL/MOL
REMARK 924 INTRA-LIGAND FREE ENERGY PREDICTED BY IDOCK:   -1.50 KCAL/MOL
REMARK 927      BINDING AFFINITY PREDICTED BY RF-SCORE:    0.00 PKD
ROOT
HETATM    1  O   UNL     1      -7.243   8.805  72.901  1.00  0.00    -0.337 OA 
HETATM    2  C   UNL     1      -8.292   8.562  72.314  1.00  0.00    -0.117 C  
HETATM    3  C   UNL     1      -9.210   7.529  66.208  1.00  0.00    -0.194 A  
HETATM    4  N   UNL     1      -8.576   8.983  71.032  1.00  0.00    -0.204 N  
HETATM    5  C   UNL     1      -7.611   9.813  70.326  1.00  0.00    -0.172 C  
HETATM    6  C   UNL     1      -9.823   8.654  70.338  1.00  0.00    -0.183 C  
HETATM    7  C   UNL     1      -9.567   8.243  68.892  1.00  0.00    -0.153 A  
HETATM    8  C   UNL     1      -7.224   9.222  68.974  1.00  0.00    -0.071 C  
HETATM    9  C   UNL     1     -10.566   7.539  68.195  1.00  0.00    -0.201 A  
HETATM   10  C   UNL     1      -8.368   8.575  68.232  1.00  0.00    -0.124 A  
HETATM   11  C   UNL     1     -10.385   7.180  66.864  1.00  0.00    -0.349 A  
HETATM   12  C   UNL     1      -8.204   8.218  66.889  1.00  0.00    -0.103 A  
ENDROOT
BRANCH   2  13
HETATM   13  O   UNL     1      -9.318   7.865  72.881  1.00  0.00    -0.193 OA 
BRANCH  13  14
HETATM   14  C   UNL     1      -8.964   6.554  73.349  1.00  0.00    -0.124 C  
HETATM   15  C   UNL     1     -11.401   4.980  72.933  1.00  0.00    -0.253 C  
HETATM   16  C   UNL     1      -9.071   5.547  72.187  1.00  0.00    -0.152 C  
HETATM   17  C   UNL     1      -8.652   4.174  72.735  1.00  0.00    -0.101 C  
HETATM   18  N   UNL     1     -10.599   4.821  74.166  1.00  0.00    -0.284 NA 
HETATM   19  C   UNL     1      -9.945   6.121  74.468  1.00  0.00    -0.330 C  
HETATM   20  C   UNL     1      -9.550   3.806  73.929  1.00  0.00    -0.102 C  
HETATM   21  C   UNL     1     -10.540   5.435  71.744  1.00  0.00    -0.286 C  
ENDBRANCH  13  14
ENDBRANCH   2  13
BRANCH   6  22
HETATM   22  C   UNL     1     -10.884   9.755  70.443  1.00  0.00    -0.370 A  
HETATM   23  C   UNL     1     -10.809  10.881  69.605  1.00  0.00    -0.271 A  
HETATM   24  C   UNL     1     -11.714  11.939  69.736  1.00  0.00    -0.403 A  
HETATM   25  C   UNL     1     -12.719  11.885  70.697  1.00  0.00    -0.176 A  
HETATM   26  C   UNL     1     -12.817  10.777  71.532  1.00  0.00    -0.567 A  
HETATM   27  C   UNL     1     -11.904   9.726  71.411  1.00  0.00    -0.488 A  
ENDBRANCH   6  22
TORSDOF 3
ENDMDL
MODEL       42
REMARK 921   NORMALIZED FREE ENERGY PREDICTED BY IDOCK:   -5.75 KCAL/MOL
REMARK 922        TOTAL FREE ENERGY PREDICTED BY IDOCK:   -7.73 KCAL/MOL
REMARK 923 INTER-LIGAND FREE ENERGY PREDICTED BY IDOCK:   -7.13 KCAL/MOL
REMARK 924 INTRA-LIGAND FREE ENERGY PREDICTED BY IDOCK:   -0.60 KCAL/MOL
REMARK 927      BINDING AFFINITY PREDICTED BY RF-SCORE:    0.00 PKD
ROOT
HETATM    1  O   UNL     1      -9.979   9.256  69.844  1.00  0.00    -0.183 OA 
HETATM    2  C   UNL     1     -10.019  10.431  69.492  1.00  0.00    -0.202 C  
HETATM    3  C   UNL     1     -13.338  15.139  71.945  1.00  0.00    -0.494 A  
HETATM    4  N   UNL     1     -11.146  11.223  69.569  1.00  0.00    -0.252 N  
HETATM    5  C   UNL     1     -12.392  10.642  70.043  1.00  0.00    -0.269 C  
HETATM    6  C   UNL     1     -11.162  12.633  69.173  1.00  0.00    -0.243 C  
HETATM    7  C   UNL     1     -11.920  13.489  70.182  1.00  0.00    -0.399 A  
HETATM    8  C   UNL     1     -12.984  11.424  71.212  1.00  0.00    -0.415 C  
HETATM    9  C   UNL     1     -11.721  14.882  70.182  1.00  0.00    -0.340 A  
HETATM   10  C   UNL     1     -12.830  12.921  71.094  1.00  0.00    -0.326 A  
HETATM   11  C   UNL     1     -12.422  15.699  71.061  1.00  0.00    -0.501 A  
HETATM   12  C   UNL     1     -13.537  13.757  71.966  1.00  0.00    -0.569 A  
ENDROOT
BRANCH   2  13
HETATM   13  O   UNL     1      -8.949  11.084  68.954  1.00  0.00    -0.168 OA 
BRANCH  13  14
HETATM   14  C   UNL     1      -8.228  10.336  67.963  1.00  0.00    -0.113 C  
HETATM   15  C   UNL     1      -5.962  12.068  67.291  1.00  0.00    -0.146 C  
HETATM   16  C   UNL     1      -6.810  10.027  68.482  1.00  0.00    -0.054 C  
HETATM   17  C   UNL     1      -6.099   9.202  67.399  1.00  0.00    -0.054 C  
HETATM   18  N   UNL     1      -6.692  11.335  66.234  1.00  0.00    -0.068 NA 
HETATM   19  C   UNL     1      -8.105  11.178  66.667  1.00  0.00    -0.159 C  
HETATM   20  C   UNL     1      -6.092   9.992  66.079  1.00  0.00    -0.077 C  
HETATM   21  C   UNL     1      -6.029  11.342  68.644  1.00  0.00    -0.042 C  
ENDBRANCH  13  14
ENDBRANCH   2  13
BRANCH   6  22
HETATM   22  C   UNL     1     -11.662  12.855  67.741  1.00  0.00    -0.412 A  
HETATM   23  C   UNL     1     -11.688  11.781  66.835  1.00  0.00    -0.221 A  
HETATM   24  C   UNL     1     -12.060  11.973  65.501  1.00  0.00    -0.067 A  
HETATM   25  C   UNL     1     -12.426  13.239  65.051  1.00  0.00    -0.498 A  
HETATM   26  C   UNL     1     -12.415  14.315  65.933  1.00  0.00    -0.404 A  
HETATM   27  C   UNL     1     -12.030  14.126  67.262  1.00  0.00    -0.449 A  
ENDBRANCH   6  22
TORSDOF 3
ENDMDL
MODEL       43
REMARK 921   NORMALIZED FREE ENERGY PREDICTED BY IDOCK:   -5.74 KCAL/MOL
REMARK 922        TOTAL FREE ENERGY PREDICTED BY IDOCK:   -7.71 KCAL/MOL
REMARK 923 INTER-LIGAND FREE ENERGY PREDICTED BY IDOCK:   -6.60 KCAL/MOL
REMARK 924 INTRA-LIGAND FREE ENERGY PREDICTED BY IDOCK:   -1.12 KCAL/MOL
REMARK 927      BINDING AFFINITY PREDICTED BY RF-SCORE:    0.00 PKD
ROOT
HETATM    1  O   UNL     1     -12.162  15.406  68.995  1.00  0.00    -0.257 OA 
HETATM    2  C   UNL     1     -11.226  15.075  68.273  1.00  0.00    -0.299 C  
HETATM    3  C   UNL     1      -9.925   9.432  65.894  1.00  0.00    -0.327 A  
HETATM    4  N   UNL     1     -10.614  13.840  68.319  1.00  0.00    -0.248 N  
HETATM    5  C   UNL     1     -11.048  12.868  69.311  1.00  0.00    -0.133 C  
HETATM    6  C   UNL     1      -9.519  13.455  67.426  1.00  0.00    -0.222 C  
HETATM    7  C   UNL     1      -9.705  12.040  66.890  1.00  0.00    -0.213 A  
HETATM    8  C   UNL     1     -11.440  11.536  68.677  1.00  0.00    -0.354 C  
HETATM    9  C   UNL     1      -8.985  11.641  65.748  1.00  0.00    -0.067 A  
HETATM   10  C   UNL     1     -10.559  11.118  67.525  1.00  0.00    -0.258 A  
HETATM   11  C   UNL     1      -9.100  10.348  65.252  1.00  0.00    -0.227 A  
HETATM   12  C   UNL     1     -10.656   9.815  67.021  1.00  0.00    -0.269 A  
ENDROOT
BRANCH   2  13
HETATM   13  O   UNL     1     -10.663  15.911  67.354  1.00  0.00    -0.312 OA 
BRANCH  13  14
HETATM   14  C   UNL     1     -10.874  17.308  67.607  1.00  0.00    -0.238 C  
HETATM   15  C   UNL     1      -8.173  18.444  67.553  1.00  0.00    -0.248 C  
HETATM   16  C   UNL     1     -10.381  18.129  66.399  1.00  0.00    -0.404 C  
HETATM   17  C   UNL     1     -10.659  19.608  66.711  1.00  0.00    -0.602 C  
HETATM   18  N   UNL     1      -9.155  18.877  68.571  1.00  0.00    -0.341 NA 
HETATM   19  C   UNL     1     -10.064  17.736  68.857  1.00  0.00    -0.350 C  
HETATM   20  C   UNL     1      -9.955  19.994  68.023  1.00  0.00    -0.416 C  
HETATM   21  C   UNL     1      -8.857  17.969  66.262  1.00  0.00    -0.194 C  
ENDBRANCH  13  14
ENDBRANCH   2  13
BRANCH   6  22
HETATM   22  C   UNL     1      -8.131  13.656  68.045  1.00  0.00    -0.161 A  
HETATM   23  C   UNL     1      -7.535  12.616  68.778  1.00  0.00    -0.044 A  
HETATM   24  C   UNL     1      -6.309  12.800  69.424  1.00  0.00    -0.110 A  
HETATM   25  C   UNL     1      -5.649  14.023  69.338  1.00  0.00    -0.085 A  
HETATM   26  C   UNL     1      -6.216  15.064  68.611  1.00  0.00    -0.085 A  
HETATM   27  C   UNL     1      -7.448  14.885  67.977  1.00  0.00    -0.133 A  
ENDBRANCH   6  22
TORSDOF 3
ENDMDL
MODEL       44
REMARK 921   NORMALIZED FREE ENERGY PREDICTED BY IDOCK:   -5.73 KCAL/MOL
REMARK 922        TOTAL FREE ENERGY PREDICTED BY IDOCK:   -7.71 KCAL/MOL
REMARK 923 INTER-LIGAND FREE ENERGY PREDICTED BY IDOCK:   -6.65 KCAL/MOL
REMARK 924 INTRA-LIGAND FREE ENERGY PREDICTED BY IDOCK:   -1.06 KCAL/MOL
REMARK 927      BINDING AFFINITY PREDICTED BY RF-SCORE:    0.00 PKD
ROOT
HETATM    1  O   UNL     1     -10.727  10.975  66.470  1.00  0.00    -0.261 OA 
HETATM    2  C   UNL     1     -10.521  10.865  67.674  1.00  0.00    -0.209 C  
HETATM    3  C   UNL     1      -7.261   6.457  70.696  1.00  0.00    -0.074 A  
HETATM    4  N   UNL     1     -10.416   9.657  68.332  1.00  0.00    -0.214 N  
HETATM    5  C   UNL     1     -10.609   8.422  67.588  1.00  0.00    -0.195 C  
HETATM    6  C   UNL     1     -10.137   9.548  69.766  1.00  0.00    -0.216 C  
HETATM    7  C   UNL     1      -9.105   8.463  70.055  1.00  0.00    -0.150 A  
HETATM    8  C   UNL     1      -9.427   7.469  67.739  1.00  0.00    -0.157 C  
HETATM    9  C   UNL     1      -8.437   8.468  71.294  1.00  0.00    -0.203 A  
HETATM   10  C   UNL     1      -8.826   7.445  69.123  1.00  0.00    -0.136 A  
HETATM   11  C   UNL     1      -7.517   7.474  71.608  1.00  0.00    -0.083 A  
HETATM   12  C   UNL     1      -7.906   6.444  69.458  1.00  0.00    -0.101 A  
ENDROOT
BRANCH   2  13
HETATM   13  O   UNL     1     -10.400  11.935  68.510  1.00  0.00    -0.210 OA 
BRANCH  13  14
HETATM   14  C   UNL     1     -11.086  13.118  68.072  1.00  0.00    -0.263 C  
HETATM   15  C   UNL     1      -9.995  15.234  69.781  1.00  0.00    -0.198 C  
HETATM   16  C   UNL     1     -10.063  14.133  67.525  1.00  0.00    -0.236 C  
HETATM   17  C   UNL     1     -10.852  15.360  67.044  1.00  0.00    -0.320 C  
HETATM   18  N   UNL     1     -11.441  15.184  69.469  1.00  0.00    -0.276 NA 
HETATM   19  C   UNL     1     -11.826  13.762  69.272  1.00  0.00    -0.344 C  
HETATM   20  C   UNL     1     -11.686  15.920  68.210  1.00  0.00    -0.186 C  
HETATM   21  C   UNL     1      -9.146  14.599  68.669  1.00  0.00    -0.189 C  
ENDBRANCH  13  14
ENDBRANCH   2  13
BRANCH   6  22
HETATM   22  C   UNL     1     -11.400   9.381  70.619  1.00  0.00    -0.352 A  
HETATM   23  C   UNL     1     -11.876   8.093  70.918  1.00  0.00    -0.232 A  
HETATM   24  C   UNL     1     -13.070   7.912  71.621  1.00  0.00    -0.361 A  
HETATM   25  C   UNL     1     -13.804   9.014  72.052  1.00  0.00    -0.501 A  
HETATM   26  C   UNL     1     -13.347  10.299  71.774  1.00  0.00    -0.476 A  
HETATM   27  C   UNL     1     -12.161  10.480  71.058  1.00  0.00    -0.505 A  
ENDBRANCH   6  22
TORSDOF 3
ENDMDL
MODEL       45
REMARK 921   NORMALIZED FREE ENERGY PREDICTED BY IDOCK:   -5.73 KCAL/MOL
REMARK 922        TOTAL FREE ENERGY PREDICTED BY IDOCK:   -7.71 KCAL/MOL
REMARK 923 INTER-LIGAND FREE ENERGY PREDICTED BY IDOCK:   -6.83 KCAL/MOL
REMARK 924 INTRA-LIGAND FREE ENERGY PREDICTED BY IDOCK:   -0.88 KCAL/MOL
REMARK 927      BINDING AFFINITY PREDICTED BY RF-SCORE:    0.00 PKD
ROOT
HETATM    1  O   UNL     1      -6.255  13.755  67.372  1.00  0.00    -0.332 OA 
HETATM    2  C   UNL     1      -7.468  13.655  67.219  1.00  0.00    -0.033 C  
HETATM    3  C   UNL     1     -11.526  10.079  70.372  1.00  0.00    -0.389 A  
HETATM    4  N   UNL     1      -8.177  12.488  67.411  1.00  0.00    -0.174 N  
HETATM    5  C   UNL     1      -7.462  11.271  67.765  1.00  0.00    -0.095 C  
HETATM    6  C   UNL     1      -9.631  12.399  67.254  1.00  0.00    -0.199 C  
HETATM    7  C   UNL     1     -10.267  11.592  68.381  1.00  0.00    -0.211 A  
HETATM    8  C   UNL     1      -8.008  10.633  69.039  1.00  0.00    -0.140 C  
HETATM    9  C   UNL     1     -11.649  11.715  68.614  1.00  0.00    -0.373 A  
HETATM   10  C   UNL     1      -9.509  10.708  69.173  1.00  0.00    -0.185 A  
HETATM   11  C   UNL     1     -12.271  10.968  69.606  1.00  0.00    -0.370 A  
HETATM   12  C   UNL     1     -10.151   9.953  70.161  1.00  0.00    -0.309 A  
ENDROOT
BRANCH   2  13
HETATM   13  O   UNL     1      -8.256  14.692  66.812  1.00  0.00    -0.146 OA 
BRANCH  13  14
HETATM   14  C   UNL     1      -8.584  15.635  67.843  1.00  0.00    -0.162 C  
HETATM   15  C   UNL     1      -9.916  17.812  66.403  1.00  0.00    -0.344 C  
HETATM   16  C   UNL     1     -10.114  15.812  67.909  1.00  0.00    -0.230 C  
HETATM   17  C   UNL     1     -10.409  16.803  69.045  1.00  0.00    -0.326 C  
HETATM   18  N   UNL     1      -8.948  18.101  67.484  1.00  0.00    -0.255 NA 
HETATM   19  C   UNL     1      -7.943  17.007  67.515  1.00  0.00    -0.175 C  
HETATM   20  C   UNL     1      -9.665  18.123  68.777  1.00  0.00    -0.325 C  
HETATM   21  C   UNL     1     -10.609  16.455  66.602  1.00  0.00    -0.239 C  
ENDBRANCH  13  14
ENDBRANCH   2  13
BRANCH   6  22
HETATM   22  C   UNL     1     -10.062  11.895  65.872  1.00  0.00    -0.265 A  
HETATM   23  C   UNL     1      -9.228  11.019  65.155  1.00  0.00    -0.227 A  
HETATM   24  C   UNL     1      -9.556  10.610  63.860  1.00  0.00    -0.356 A  
HETATM   25  C   UNL     1     -10.731  11.057  63.261  1.00  0.00    -0.082 A  
HETATM   26  C   UNL     1     -11.575  11.917  63.954  1.00  0.00    -0.515 A  
HETATM   27  C   UNL     1     -11.240  12.338  65.244  1.00  0.00    -0.372 A  
ENDBRANCH   6  22
TORSDOF 3
ENDMDL
MODEL       46
REMARK 921   NORMALIZED FREE ENERGY PREDICTED BY IDOCK:   -5.68 KCAL/MOL
REMARK 922        TOTAL FREE ENERGY PREDICTED BY IDOCK:   -7.64 KCAL/MOL
REMARK 923 INTER-LIGAND FREE ENERGY PREDICTED BY IDOCK:   -6.10 KCAL/MOL
REMARK 924 INTRA-LIGAND FREE ENERGY PREDICTED BY IDOCK:   -1.54 KCAL/MOL
REMARK 927      BINDING AFFINITY PREDICTED BY RF-SCORE:    0.00 PKD
ROOT
HETATM    1  O   UNL     1     -12.487  10.969  69.674  1.00  0.00    -0.291 OA 
HETATM    2  C   UNL     1     -11.431  11.066  69.057  1.00  0.00    -0.299 C  
HETATM    3  C   UNL     1      -8.468   6.717  65.665  1.00  0.00    -0.142 A  
HETATM    4  N   UNL     1     -10.524  10.037  68.911  1.00  0.00    -0.200 N  
HETATM    5  C   UNL     1     -10.784   8.762  69.562  1.00  0.00    -0.188 C  
HETATM    6  C   UNL     1      -9.284  10.166  68.143  1.00  0.00    -0.135 C  
HETATM    7  C   UNL     1      -9.039   8.942  67.266  1.00  0.00    -0.153 A  
HETATM    8  C   UNL     1     -10.749   7.596  68.579  1.00  0.00    -0.094 C  
HETATM    9  C   UNL     1      -8.131   9.039  66.196  1.00  0.00    -0.111 A  
HETATM   10  C   UNL     1      -9.679   7.714  67.520  1.00  0.00    -0.197 A  
HETATM   11  C   UNL     1      -7.853   7.935  65.398  1.00  0.00    -0.112 A  
HETATM   12  C   UNL     1      -9.381   6.607  66.716  1.00  0.00    -0.184 A  
ENDROOT
BRANCH   2  13
HETATM   13  O   UNL     1     -11.019  12.223  68.464  1.00  0.00    -0.216 OA 
BRANCH  13  14
HETATM   14  C   UNL     1     -11.907  12.728  67.455  1.00  0.00    -0.342 C  
HETATM   15  C   UNL     1     -10.137  14.186  65.630  1.00  0.00    -0.328 C  
HETATM   16  C   UNL     1     -11.518  12.138  66.085  1.00  0.00    -0.429 C  
HETATM   17  C   UNL     1     -12.516  12.685  65.054  1.00  0.00    -0.556 C  
HETATM   18  N   UNL     1     -11.456  14.740  66.008  1.00  0.00    -0.343 NA 
HETATM   19  C   UNL     1     -11.783  14.271  67.380  1.00  0.00    -0.394 C  
HETATM   20  C   UNL     1     -12.480  14.223  65.074  1.00  0.00    -0.400 C  
HETATM   21  C   UNL     1     -10.123  12.651  65.688  1.00  0.00    -0.285 C  
ENDBRANCH  13  14
ENDBRANCH   2  13
BRANCH   6  22
HETATM   22  C   UNL     1      -8.066  10.504  69.010  1.00  0.00    -0.143 A  
HETATM   23  C   UNL     1      -7.466  11.772  68.909  1.00  0.00    -0.080 A  
HETATM   24  C   UNL     1      -6.305  12.079  69.624  1.00  0.00    -0.120 A  
HETATM   25  C   UNL     1      -5.730  11.130  70.465  1.00  0.00    -0.140 A  
HETATM   26  C   UNL     1      -6.311   9.872  70.587  1.00  0.00    -0.104 A  
HETATM   27  C   UNL     1      -7.463   9.560  69.861  1.00  0.00    -0.113 A  
ENDBRANCH   6  22
TORSDOF 3
ENDMDL
MODEL       47
REMARK 921   NORMALIZED FREE ENERGY PREDICTED BY IDOCK:   -5.67 KCAL/MOL
REMARK 922        TOTAL FREE ENERGY PREDICTED BY IDOCK:   -7.63 KCAL/MOL
REMARK 923 INTER-LIGAND FREE ENERGY PREDICTED BY IDOCK:   -6.74 KCAL/MOL
REMARK 924 INTRA-LIGAND FREE ENERGY PREDICTED BY IDOCK:   -0.89 KCAL/MOL
REMARK 927      BINDING AFFINITY PREDICTED BY RF-SCORE:    0.00 PKD
ROOT
HETATM    1  O   UNL     1     -12.369  12.990  69.597  1.00  0.00    -0.189 OA 
HETATM    2  C   UNL     1     -11.483  12.727  68.791  1.00  0.00    -0.304 C  
HETATM    3  C   UNL     1      -9.497   7.116  66.849  1.00  0.00    -0.200 A  
HETATM    4  N   UNL     1     -10.660  11.624  68.879  1.00  0.00    -0.211 N  
HETATM    5  C   UNL     1     -10.794  10.725  70.015  1.00  0.00    -0.153 C  
HETATM    6  C   UNL     1      -9.629  11.312  67.886  1.00  0.00    -0.178 C  
HETATM    7  C   UNL     1      -9.625   9.829  67.530  1.00  0.00    -0.178 A  
HETATM    8  C   UNL     1     -11.017   9.279  69.583  1.00  0.00    -0.192 C  
HETATM    9  C   UNL     1      -8.987   9.413  66.346  1.00  0.00    -0.182 A  
HETATM   10  C   UNL     1     -10.220   8.868  68.369  1.00  0.00    -0.231 A  
HETATM   11  C   UNL     1      -8.930   8.066  66.007  1.00  0.00    -0.205 A  
HETATM   12  C   UNL     1     -10.144   7.514  68.021  1.00  0.00    -0.221 A  
ENDROOT
BRANCH   2  13
HETATM   13  O   UNL     1     -11.190  13.521  67.721  1.00  0.00    -0.262 OA 
BRANCH  13  14
HETATM   14  C   UNL     1     -11.669  13.028  66.461  1.00  0.00    -0.382 C  
HETATM   15  C   UNL     1     -11.217  15.261  64.618  1.00  0.00    -0.356 C  
HETATM   16  C   UNL     1     -10.510  12.998  65.446  1.00  0.00    -0.308 C  
HETATM   17  C   UNL     1     -11.071  12.435  64.131  1.00  0.00    -0.425 C  
HETATM   18  N   UNL     1     -12.465  14.469  64.554  1.00  0.00    -0.647 NA 
HETATM   19  C   UNL     1     -12.773  13.973  65.921  1.00  0.00    -0.397 C  
HETATM   20  C   UNL     1     -12.251  13.306  63.665  1.00  0.00    -0.451 C  
HETATM   21  C   UNL     1     -10.042  14.436  65.165  1.00  0.00    -0.359 C  
ENDBRANCH  13  14
ENDBRANCH   2  13
BRANCH   6  22
HETATM   22  C   UNL     1      -8.235  11.811  68.283  1.00  0.00    -0.157 A  
HETATM   23  C   UNL     1      -7.768  13.043  67.795  1.00  0.00    -0.151 A  
HETATM   24  C   UNL     1      -6.471  13.484  68.072  1.00  0.00    -0.135 A  
HETATM   25  C   UNL     1      -5.620  12.708  68.854  1.00  0.00    -0.063 A  
HETATM   26  C   UNL     1      -6.064  11.488  69.355  1.00  0.00    -0.085 A  
HETATM   27  C   UNL     1      -7.355  11.041  69.066  1.00  0.00    -0.123 A  
ENDBRANCH   6  22
TORSDOF 3
ENDMDL
MODEL       48
REMARK 921   NORMALIZED FREE ENERGY PREDICTED BY IDOCK:   -5.66 KCAL/MOL
REMARK 922        TOTAL FREE ENERGY PREDICTED BY IDOCK:   -7.62 KCAL/MOL
REMARK 923 INTER-LIGAND FREE ENERGY PREDICTED BY IDOCK:   -7.72 KCAL/MOL
REMARK 924 INTRA-LIGAND FREE ENERGY PREDICTED BY IDOCK:    0.10 KCAL/MOL
REMARK 927      BINDING AFFINITY PREDICTED BY RF-SCORE:    0.00 PKD
ROOT
HETATM    1  O   UNL     1     -12.019  15.161  66.782  1.00  0.00    -0.099 OA 
HETATM    2  C   UNL     1     -11.156  14.400  67.207  1.00  0.00    -0.311 C  
HETATM    3  C   UNL     1      -8.254   9.720  64.228  1.00  0.00    -0.160 A  
HETATM    4  N   UNL     1     -11.037  13.079  66.829  1.00  0.00    -0.279 N  
HETATM    5  C   UNL     1     -12.011  12.512  65.910  1.00  0.00    -0.409 C  
HETATM    6  C   UNL     1      -9.978  12.196  67.325  1.00  0.00    -0.203 C  
HETATM    7  C   UNL     1      -9.380  11.354  66.203  1.00  0.00    -0.232 A  
HETATM    8  C   UNL     1     -11.350  11.880  64.688  1.00  0.00    -0.355 C  
HETATM    9  C   UNL     1      -8.127  10.744  66.401  1.00  0.00    -0.153 A  
HETATM   10  C   UNL     1     -10.064  11.151  64.990  1.00  0.00    -0.338 A  
HETATM   11  C   UNL     1      -7.567   9.938  65.416  1.00  0.00    -0.131 A  
HETATM   12  C   UNL     1      -9.494  10.328  64.011  1.00  0.00    -0.356 A  
ENDROOT
BRANCH   2  13
HETATM   13  O   UNL     1     -10.226  14.771  68.133  1.00  0.00    -0.223 OA 
BRANCH  13  14
HETATM   14  C   UNL     1      -9.135  15.544  67.609  1.00  0.00    -0.182 C  
HETATM   15  C   UNL     1     -10.293  18.207  67.209  1.00  0.00    -0.386 C  
HETATM   16  C   UNL     1      -8.816  16.703  68.574  1.00  0.00    -0.235 C  
HETATM   17  C   UNL     1      -7.627  17.474  67.981  1.00  0.00    -0.220 C  
HETATM   18  N   UNL     1      -9.380  17.621  66.203  1.00  0.00    -0.488 NA 
HETATM   19  C   UNL     1      -9.537  16.143  66.236  1.00  0.00    -0.306 C  
HETATM   20  C   UNL     1      -7.986  17.958  66.566  1.00  0.00    -0.270 C  
HETATM   21  C   UNL     1     -10.011  17.670  68.621  1.00  0.00    -0.367 C  
ENDBRANCH  13  14
ENDBRANCH   2  13
BRANCH   6  22
HETATM   22  C   UNL     1     -10.415  11.338  68.518  1.00  0.00    -0.218 A  
HETATM   23  C   UNL     1     -11.658  11.571  69.130  1.00  0.00    -0.382 A  
HETATM   24  C   UNL     1     -12.045  10.861  70.270  1.00  0.00    -0.440 A  
HETATM   25  C   UNL     1     -11.203   9.894  70.812  1.00  0.00    -0.427 A  
HETATM   26  C   UNL     1      -9.970   9.641  70.218  1.00  0.00    -0.326 A  
HETATM   27  C   UNL     1      -9.578  10.361  69.087  1.00  0.00    -0.226 A  
ENDBRANCH   6  22
TORSDOF 3
ENDMDL
MODEL       49
REMARK 921   NORMALIZED FREE ENERGY PREDICTED BY IDOCK:   -5.48 KCAL/MOL
REMARK 922        TOTAL FREE ENERGY PREDICTED BY IDOCK:   -7.41 KCAL/MOL
REMARK 923 INTER-LIGAND FREE ENERGY PREDICTED BY IDOCK:   -6.01 KCAL/MOL
REMARK 924 INTRA-LIGAND FREE ENERGY PREDICTED BY IDOCK:   -1.40 KCAL/MOL
REMARK 927      BINDING AFFINITY PREDICTED BY RF-SCORE:    0.00 PKD
ROOT
HETATM    1  O   UNL     1      -6.866   8.241  70.299  1.00  0.00    -0.036 OA 
HETATM    2  C   UNL     1      -7.953   8.107  69.747  1.00  0.00    -0.111 C  
HETATM    3  C   UNL     1      -9.528   4.216  65.102  1.00  0.00    -0.173 A  
HETATM    4  N   UNL     1      -8.109   7.796  68.412  1.00  0.00    -0.122 N  
HETATM    5  C   UNL     1      -6.929   7.664  67.571  1.00  0.00    -0.081 C  
HETATM    6  C   UNL     1      -9.417   7.609  67.780  1.00  0.00    -0.142 C  
HETATM    7  C   UNL     1      -9.425   6.393  66.860  1.00  0.00    -0.166 A  
HETATM    8  C   UNL     1      -6.885   6.320  66.849  1.00  0.00    -0.062 C  
HETATM    9  C   UNL     1     -10.659   5.837  66.473  1.00  0.00    -0.294 A  
HETATM   10  C   UNL     1      -8.230   5.834  66.367  1.00  0.00    -0.107 A  
HETATM   11  C   UNL     1     -10.707   4.752  65.606  1.00  0.00    -0.188 A  
HETATM   12  C   UNL     1      -8.295   4.749  65.485  1.00  0.00    -0.120 A  
ENDROOT
BRANCH   2  13
HETATM   13  O   UNL     1      -9.143   8.281  70.391  1.00  0.00    -0.143 OA 
BRANCH  13  14
HETATM   14  C   UNL     1      -9.402   7.329  71.435  1.00  0.00    -0.149 C  
HETATM   15  C   UNL     1     -12.318   7.037  71.406  1.00  0.00    -0.377 C  
HETATM   16  C   UNL     1     -10.070   6.076  70.833  1.00  0.00    -0.246 C  
HETATM   17  C   UNL     1     -10.294   5.084  71.984  1.00  0.00    -0.276 C  
HETATM   18  N   UNL     1     -11.578   7.113  72.685  1.00  0.00    -0.233 NA 
HETATM   19  C   UNL     1     -10.369   7.951  72.475  1.00  0.00    -0.285 C  
HETATM   20  C   UNL     1     -11.150   5.752  73.074  1.00  0.00    -0.265 C  
HETATM   21  C   UNL     1     -11.454   6.454  70.278  1.00  0.00    -0.468 C  
ENDBRANCH  13  14
ENDBRANCH   2  13
BRANCH   6  22
HETATM   22  C   UNL     1      -9.935   8.867  67.075  1.00  0.00    -0.300 A  
HETATM   23  C   UNL     1      -9.549   9.136  65.751  1.00  0.00    -0.323 A  
HETATM   24  C   UNL     1      -9.938  10.317  65.112  1.00  0.00    -0.395 A  
HETATM   25  C   UNL     1     -10.733  11.245  65.779  1.00  0.00    -0.284 A  
HETATM   26  C   UNL     1     -11.134  10.996  67.088  1.00  0.00    -0.333 A  
HETATM   27  C   UNL     1     -10.733   9.822  67.731  1.00  0.00    -0.329 A  
ENDBRANCH   6  22
TORSDOF 3
ENDMDL
MODEL       50
REMARK 921   NORMALIZED FREE ENERGY PREDICTED BY IDOCK:   -5.48 KCAL/MOL
REMARK 922        TOTAL FREE ENERGY PREDICTED BY IDOCK:   -7.41 KCAL/MOL
REMARK 923 INTER-LIGAND FREE ENERGY PREDICTED BY IDOCK:   -6.31 KCAL/MOL
REMARK 924 INTRA-LIGAND FREE ENERGY PREDICTED BY IDOCK:   -1.10 KCAL/MOL
REMARK 927      BINDING AFFINITY PREDICTED BY RF-SCORE:    0.00 PKD
ROOT
HETATM    1  O   UNL     1      -7.243  10.999  68.162  1.00  0.00    -0.079 OA 
HETATM    2  C   UNL     1      -8.296  10.369  68.185  1.00  0.00    -0.117 C  
HETATM    3  C   UNL     1     -11.156   7.709  73.078  1.00  0.00    -0.437 A  
HETATM    4  N   UNL     1      -8.541   9.305  69.028  1.00  0.00    -0.131 N  
HETATM    5  C   UNL     1      -7.487   8.846  69.919  1.00  0.00    -0.058 C  
HETATM    6  C   UNL     1      -9.818   8.587  69.061  1.00  0.00    -0.183 C  
HETATM    7  C   UNL     1     -10.268   8.313  70.492  1.00  0.00    -0.213 A  
HETATM    8  C   UNL     1      -7.939   8.812  71.376  1.00  0.00    -0.175 C  
HETATM    9  C   UNL     1     -11.616   7.987  70.734  1.00  0.00    -0.251 A  
HETATM   10  C   UNL     1      -9.363   8.351  71.570  1.00  0.00    -0.263 A  
HETATM   11  C   UNL     1     -12.056   7.693  72.019  1.00  0.00    -0.336 A  
HETATM   12  C   UNL     1      -9.817   8.041  72.857  1.00  0.00    -0.357 A  
ENDROOT
BRANCH   2  13
HETATM   13  O   UNL     1      -9.342  10.635  67.352  1.00  0.00    -0.143 OA 
BRANCH  13  14
HETATM   14  C   UNL     1      -9.211  11.849  66.596  1.00  0.00    -0.205 C  
HETATM   15  C   UNL     1     -11.922  12.352  65.603  1.00  0.00    -0.386 C  
HETATM   16  C   UNL     1     -10.097  12.944  67.223  1.00  0.00    -0.231 C  
HETATM   17  C   UNL     1      -9.893  14.223  66.397  1.00  0.00    -0.309 C  
HETATM   18  N   UNL     1     -10.746  12.563  64.730  1.00  0.00    -0.288 NA 
HETATM   19  C   UNL     1      -9.684  11.607  65.140  1.00  0.00    -0.219 C  
HETATM   20  C   UNL     1     -10.244  13.940  64.925  1.00  0.00    -0.351 C  
HETATM   21  C   UNL     1     -11.575  12.541  67.088  1.00  0.00    -0.437 C  
ENDBRANCH  13  14
ENDBRANCH   2  13
BRANCH   6  22
HETATM   22  C   UNL     1      -9.821   7.317  68.204  1.00  0.00    -0.165 A  
HETATM   23  C   UNL     1     -10.710   7.207  67.120  1.00  0.00    -0.422 A  
HETATM   24  C   UNL     1     -10.794   6.028  66.374  1.00  0.00    -0.066 A  
HETATM   25  C   UNL     1      -9.981   4.942  66.687  1.00  0.00    -0.254 A  
HETATM   26  C   UNL     1      -9.088   5.031  67.750  1.00  0.00    -0.123 A  
HETATM   27  C   UNL     1      -9.015   6.204  68.505  1.00  0.00    -0.115 A  
ENDBRANCH   6  22
TORSDOF 3
ENDMDL
MODEL       51
REMARK 921   NORMALIZED FREE ENERGY PREDICTED BY IDOCK:   -5.40 KCAL/MOL
REMARK 922        TOTAL FREE ENERGY PREDICTED BY IDOCK:   -7.32 KCAL/MOL
REMARK 923 INTER-LIGAND FREE ENERGY PREDICTED BY IDOCK:   -5.79 KCAL/MOL
REMARK 924 INTRA-LIGAND FREE ENERGY PREDICTED BY IDOCK:   -1.52 KCAL/MOL
REMARK 927      BINDING AFFINITY PREDICTED BY RF-SCORE:    0.00 PKD
ROOT
HETATM    1  O   UNL     1      -7.977   9.122  67.816  1.00  0.00    -0.100 OA 
HETATM    2  C   UNL     1      -8.487   8.316  68.587  1.00  0.00    -0.125 C  
HETATM    3  C   UNL     1     -13.961   8.713  71.600  1.00  0.00    -0.459 A  
HETATM    4  N   UNL     1      -9.264   8.669  69.671  1.00  0.00    -0.155 N  
HETATM    5  C   UNL     1      -9.464  10.078  69.974  1.00  0.00    -0.136 C  
HETATM    6  C   UNL     1      -9.891   7.688  70.560  1.00  0.00    -0.183 C  
HETATM    7  C   UNL     1     -11.330   8.071  70.889  1.00  0.00    -0.291 A  
HETATM    8  C   UNL     1     -10.942  10.443  70.064  1.00  0.00    -0.370 C  
HETATM    9  C   UNL     1     -12.199   7.088  71.399  1.00  0.00    -0.407 A  
HETATM   10  C   UNL     1     -11.800   9.387  70.719  1.00  0.00    -0.323 A  
HETATM   11  C   UNL     1     -13.506   7.407  71.746  1.00  0.00    -0.383 A  
HETATM   12  C   UNL     1     -13.116   9.697  71.084  1.00  0.00    -0.383 A  
ENDROOT
BRANCH   2  13
HETATM   13  O   UNL     1      -8.320   6.967  68.474  1.00  0.00    -0.120 OA 
BRANCH  13  14
HETATM   14  C   UNL     1      -8.837   6.400  67.261  1.00  0.00    -0.108 C  
HETATM   15  C   UNL     1      -8.881   3.519  67.798  1.00  0.00    -0.121 C  
HETATM   16  C   UNL     1     -10.160   5.667  67.559  1.00  0.00    -0.208 C  
HETATM   17  C   UNL     1     -10.682   5.110  66.226  1.00  0.00    -0.272 C  
HETATM   18  N   UNL     1      -8.438   4.036  66.485  1.00  0.00    -0.104 NA 
HETATM   19  C   UNL     1      -7.823   5.373  66.694  1.00  0.00    -0.101 C  
HETATM   20  C   UNL     1      -9.617   4.189  65.606  1.00  0.00    -0.188 C  
HETATM   21  C   UNL     1      -9.881   4.467  68.480  1.00  0.00    -0.140 C  
ENDBRANCH  13  14
ENDBRANCH   2  13
BRANCH   6  22
HETATM   22  C   UNL     1      -9.070   7.403  71.823  1.00  0.00    -0.143 A  
HETATM   23  C   UNL     1      -8.344   6.204  71.928  1.00  0.00    -0.118 A  
HETATM   24  C   UNL     1      -7.655   5.880  73.101  1.00  0.00    -0.098 A  
HETATM   25  C   UNL     1      -7.667   6.754  74.184  1.00  0.00    -0.112 A  
HETATM   26  C   UNL     1      -8.372   7.950  74.099  1.00  0.00    -0.312 A  
HETATM   27  C   UNL     1      -9.073   8.267  72.933  1.00  0.00    -0.332 A  
ENDBRANCH   6  22
TORSDOF 3
ENDMDL
MODEL       52
REMARK 921   NORMALIZED FREE ENERGY PREDICTED BY IDOCK:   -5.39 KCAL/MOL
REMARK 922        TOTAL FREE ENERGY PREDICTED BY IDOCK:   -7.30 KCAL/MOL
REMARK 923 INTER-LIGAND FREE ENERGY PREDICTED BY IDOCK:   -6.31 KCAL/MOL
REMARK 924 INTRA-LIGAND FREE ENERGY PREDICTED BY IDOCK:   -0.99 KCAL/MOL
REMARK 927      BINDING AFFINITY PREDICTED BY RF-SCORE:    0.00 PKD
ROOT
HETATM    1  O   UNL     1     -11.152  13.113  65.370  1.00  0.00    -0.276 OA 
HETATM    2  C   UNL     1     -10.618  13.636  66.343  1.00  0.00    -0.284 C  
HETATM    3  C   UNL     1     -10.524  19.680  67.975  1.00  0.00    -0.537 A  
HETATM    4  N   UNL     1     -10.059  14.897  66.333  1.00  0.00    -0.273 N  
HETATM    5  C   UNL     1     -10.039  15.656  65.092  1.00  0.00    -0.180 C  
HETATM    6  C   UNL     1      -9.455  15.515  67.516  1.00  0.00    -0.208 C  
HETATM    7  C   UNL     1      -9.870  16.976  67.657  1.00  0.00    -0.257 A  
HETATM    8  C   UNL     1     -10.679  17.033  65.249  1.00  0.00    -0.108 C  
HETATM    9  C   UNL     1      -9.711  17.614  68.901  1.00  0.00    -0.258 A  
HETATM   10  C   UNL     1     -10.380  17.706  66.566  1.00  0.00    -0.337 A  
HETATM   11  C   UNL     1     -10.042  18.955  69.059  1.00  0.00    -0.310 A  
HETATM   12  C   UNL     1     -10.698  19.059  66.736  1.00  0.00    -0.450 A  
ENDROOT
BRANCH   2  13
HETATM   13  O   UNL     1     -10.492  13.012  67.549  1.00  0.00    -0.225 OA 
BRANCH  13  14
HETATM   14  C   UNL     1     -10.106  11.631  67.470  1.00  0.00    -0.191 C  
HETATM   15  C   UNL     1     -10.875  10.539  70.079  1.00  0.00    -0.259 C  
HETATM   16  C   UNL     1     -11.353  10.738  67.622  1.00  0.00    -0.328 C  
HETATM   17  C   UNL     1     -10.887   9.280  67.498  1.00  0.00    -0.182 C  
HETATM   18  N   UNL     1      -9.591  10.160  69.449  1.00  0.00    -0.223 NA 
HETATM   19  C   UNL     1      -9.122  11.302  68.622  1.00  0.00    -0.151 C  
HETATM   20  C   UNL     1      -9.815   8.995  68.565  1.00  0.00    -0.169 C  
HETATM   21  C   UNL     1     -11.937  10.915  69.034  1.00  0.00    -0.322 C  
ENDBRANCH  13  14
ENDBRANCH   2  13
BRANCH   6  22
HETATM   22  C   UNL     1      -7.934  15.341  67.582  1.00  0.00    -0.177 A  
HETATM   23  C   UNL     1      -7.385  14.243  68.266  1.00  0.00    -0.124 A  
HETATM   24  C   UNL     1      -6.002  14.104  68.414  1.00  0.00    -0.103 A  
HETATM   25  C   UNL     1      -5.141  15.052  67.868  1.00  0.00    -0.090 A  
HETATM   26  C   UNL     1      -5.662  16.142  67.179  1.00  0.00    -0.027 A  
HETATM   27  C   UNL     1      -7.044  16.289  67.044  1.00  0.00    -0.259 A  
ENDBRANCH   6  22
TORSDOF 3
ENDMDL
MODEL       53
REMARK 921   NORMALIZED FREE ENERGY PREDICTED BY IDOCK:   -5.35 KCAL/MOL
REMARK 922        TOTAL FREE ENERGY PREDICTED BY IDOCK:   -7.26 KCAL/MOL
REMARK 923 INTER-LIGAND FREE ENERGY PREDICTED BY IDOCK:   -6.49 KCAL/MOL
REMARK 924 INTRA-LIGAND FREE ENERGY PREDICTED BY IDOCK:   -0.77 KCAL/MOL
REMARK 927      BINDING AFFINITY PREDICTED BY RF-SCORE:    0.00 PKD
ROOT
HETATM    1  O   UNL     1     -11.046   6.427  66.912  1.00  0.00    -0.384 OA 
HETATM    2  C   UNL     1     -10.822   7.304  67.740  1.00  0.00    -0.144 C  
HETATM    3  C   UNL     1      -7.449   6.947  73.002  1.00  0.00    -0.078 A  
HETATM    4  N   UNL     1     -10.688   7.073  69.093  1.00  0.00    -0.225 N  
HETATM    5  C   UNL     1     -10.869   5.723  69.606  1.00  0.00    -0.348 C  
HETATM    6  C   UNL     1     -10.389   8.131  70.061  1.00  0.00    -0.215 C  
HETATM    7  C   UNL     1      -9.335   7.686  71.069  1.00  0.00    -0.156 A  
HETATM    8  C   UNL     1      -9.670   5.252  70.422  1.00  0.00    -0.259 C  
HETATM    9  C   UNL     1      -8.651   8.662  71.819  1.00  0.00    -0.240 A  
HETATM   10  C   UNL     1      -9.050   6.324  71.285  1.00  0.00    -0.148 A  
HETATM   11  C   UNL     1      -7.711   8.293  72.774  1.00  0.00    -0.170 A  
HETATM   12  C   UNL     1      -8.110   5.967  72.259  1.00  0.00    -0.107 A  
ENDROOT
BRANCH   2  13
HETATM   13  O   UNL     1     -10.708   8.623  67.415  1.00  0.00    -0.264 OA 
BRANCH  13  14
HETATM   14  C   UNL     1      -9.411   9.011  66.935  1.00  0.00    -0.167 C  
HETATM   15  C   UNL     1      -9.994  10.545  64.507  1.00  0.00    -0.345 C  
HETATM   16  C   UNL     1      -9.307  10.549  66.922  1.00  0.00    -0.181 C  
HETATM   17  C   UNL     1      -7.895  10.905  66.433  1.00  0.00    -0.154 C  
HETATM   18  N   UNL     1      -8.868   9.586  64.543  1.00  0.00    -0.208 NA 
HETATM   19  C   UNL     1      -9.218   8.493  65.487  1.00  0.00    -0.041 C  
HETATM   20  C   UNL     1      -7.662  10.279  65.047  1.00  0.00    -0.129 C  
HETATM   21  C   UNL     1     -10.304  11.119  65.899  1.00  0.00    -0.314 C  
ENDBRANCH  13  14
ENDBRANCH   2  13
BRANCH   6  22
HETATM   22  C   UNL     1     -11.637   8.696  70.747  1.00  0.00    -0.273 A  
HETATM   23  C   UNL     1     -11.891  10.078  70.710  1.00  0.00    -0.435 A  
HETATM   24  C   UNL     1     -12.975  10.630  71.398  1.00  0.00    -0.545 A  
HETATM   25  C   UNL     1     -13.836   9.810  72.123  1.00  0.00    -0.257 A  
HETATM   26  C   UNL     1     -13.609   8.438  72.166  1.00  0.00    -0.361 A  
HETATM   27  C   UNL     1     -12.517   7.888  71.491  1.00  0.00    -0.341 A  
ENDBRANCH   6  22
TORSDOF 3
ENDMDL
MODEL       54
REMARK 921   NORMALIZED FREE ENERGY PREDICTED BY IDOCK:   -5.33 KCAL/MOL
REMARK 922        TOTAL FREE ENERGY PREDICTED BY IDOCK:   -7.23 KCAL/MOL
REMARK 923 INTER-LIGAND FREE ENERGY PREDICTED BY IDOCK:   -6.26 KCAL/MOL
REMARK 924 INTRA-LIGAND FREE ENERGY PREDICTED BY IDOCK:   -0.97 KCAL/MOL
REMARK 927      BINDING AFFINITY PREDICTED BY RF-SCORE:    0.00 PKD
ROOT
HETATM    1  O   UNL     1      -7.601   8.122  72.998  1.00  0.00    -0.129 OA 
HETATM    2  C   UNL     1      -8.580   7.571  72.507  1.00  0.00    -0.116 C  
HETATM    3  C   UNL     1     -10.140   7.024  66.468  1.00  0.00    -0.149 A  
HETATM    4  N   UNL     1      -9.220   8.006  71.364  1.00  0.00    -0.139 N  
HETATM    5  C   UNL     1      -8.759   9.221  70.711  1.00  0.00    -0.217 C  
HETATM    6  C   UNL     1     -10.369   7.313  70.776  1.00  0.00    -0.202 C  
HETATM    7  C   UNL     1     -10.244   7.212  69.260  1.00  0.00    -0.193 A  
HETATM    8  C   UNL     1      -8.433   8.993  69.237  1.00  0.00    -0.128 C  
HETATM    9  C   UNL     1     -11.032   6.270  68.571  1.00  0.00    -0.421 A  
HETATM   10  C   UNL     1      -9.382   8.055  68.533  1.00  0.00    -0.142 A  
HETATM   11  C   UNL     1     -10.974   6.174  67.186  1.00  0.00    -0.420 A  
HETATM   12  C   UNL     1      -9.343   7.955  67.137  1.00  0.00    -0.190 A  
ENDROOT
BRANCH   2  13
HETATM   13  O   UNL     1      -9.170   6.470  73.056  1.00  0.00    -0.133 OA 
BRANCH  13  14
HETATM   14  C   UNL     1      -8.595   5.218  72.650  1.00  0.00    -0.117 C  
HETATM   15  C   UNL     1     -10.026   3.235  74.265  1.00  0.00    -0.128 C  
HETATM   16  C   UNL     1      -9.689   4.327  72.029  1.00  0.00    -0.227 C  
HETATM   17  C   UNL     1      -9.014   3.020  71.586  1.00  0.00    -0.143 C  
HETATM   18  N   UNL     1      -8.567   3.121  74.046  1.00  0.00    -0.073 NA 
HETATM   19  C   UNL     1      -8.011   4.491  73.888  1.00  0.00    -0.097 C  
HETATM   20  C   UNL     1      -8.326   2.366  72.797  1.00  0.00    -0.062 C  
HETATM   21  C   UNL     1     -10.724   3.966  73.108  1.00  0.00    -0.270 C  
ENDBRANCH  13  14
ENDBRANCH   2  13
BRANCH   6  22
HETATM   22  C   UNL     1     -11.717   7.903  71.204  1.00  0.00    -0.306 A  
HETATM   23  C   UNL     1     -12.788   7.047  71.514  1.00  0.00    -0.420 A  
HETATM   24  C   UNL     1     -14.051   7.558  71.825  1.00  0.00    -0.509 A  
HETATM   25  C   UNL     1     -14.265   8.934  71.847  1.00  0.00    -0.421 A  
HETATM   26  C   UNL     1     -13.217   9.800  71.552  1.00  0.00    -0.493 A  
HETATM   27  C   UNL     1     -11.958   9.289  71.226  1.00  0.00    -0.414 A  
ENDBRANCH   6  22
TORSDOF 3
ENDMDL
MODEL       55
REMARK 921   NORMALIZED FREE ENERGY PREDICTED BY IDOCK:   -5.32 KCAL/MOL
REMARK 922        TOTAL FREE ENERGY PREDICTED BY IDOCK:   -7.22 KCAL/MOL
REMARK 923 INTER-LIGAND FREE ENERGY PREDICTED BY IDOCK:   -6.25 KCAL/MOL
REMARK 924 INTRA-LIGAND FREE ENERGY PREDICTED BY IDOCK:   -0.97 KCAL/MOL
REMARK 927      BINDING AFFINITY PREDICTED BY RF-SCORE:    0.00 PKD
ROOT
HETATM    1  O   UNL     1      -7.514  10.174  70.373  1.00  0.00    -0.247 OA 
HETATM    2  C   UNL     1      -8.388  10.232  69.514  1.00  0.00    -0.151 C  
HETATM    3  C   UNL     1      -7.799   9.793  63.297  1.00  0.00    -0.139 A  
HETATM    4  N   UNL     1      -8.205  10.780  68.261  1.00  0.00    -0.118 N  
HETATM    5  C   UNL     1      -6.922  11.380  67.928  1.00  0.00    -0.073 C  
HETATM    6  C   UNL     1      -9.254  10.810  67.239  1.00  0.00    -0.147 C  
HETATM    7  C   UNL     1      -8.710  10.427  65.867  1.00  0.00    -0.170 A  
HETATM    8  C   UNL     1      -6.322  10.785  66.657  1.00  0.00    -0.103 C  
HETATM    9  C   UNL     1      -9.611  10.032  64.861  1.00  0.00    -0.375 A  
HETATM   10  C   UNL     1      -7.333  10.485  65.578  1.00  0.00    -0.106 A  
HETATM   11  C   UNL     1      -9.156   9.712  63.587  1.00  0.00    -0.214 A  
HETATM   12  C   UNL     1      -6.891  10.171  64.288  1.00  0.00    -0.103 A  
ENDROOT
BRANCH   2  13
HETATM   13  O   UNL     1      -9.660   9.782  69.714  1.00  0.00    -0.203 OA 
BRANCH  13  14
HETATM   14  C   UNL     1      -9.930   9.325  71.048  1.00  0.00    -0.293 C  
HETATM   15  C   UNL     1     -11.881   7.172  70.668  1.00  0.00    -0.291 C  
HETATM   16  C   UNL     1      -9.517   7.845  71.177  1.00  0.00    -0.180 C  
HETATM   17  C   UNL     1      -9.797   7.420  72.627  1.00  0.00    -0.224 C  
HETATM   18  N   UNL     1     -12.034   8.144  71.772  1.00  0.00    -0.288 NA 
HETATM   19  C   UNL     1     -11.448   9.439  71.338  1.00  0.00    -0.379 C  
HETATM   20  C   UNL     1     -11.283   7.655  72.949  1.00  0.00    -0.372 C  
HETATM   21  C   UNL     1     -10.410   6.986  70.267  1.00  0.00    -0.219 C  
ENDBRANCH  13  14
ENDBRANCH   2  13
BRANCH   6  22
HETATM   22  C   UNL     1     -10.027  12.133  67.202  1.00  0.00    -0.210 A  
HETATM   23  C   UNL     1     -11.243  12.253  67.896  1.00  0.00    -0.328 A  
HETATM   24  C   UNL     1     -12.010  13.418  67.811  1.00  0.00    -0.363 A  
HETATM   25  C   UNL     1     -11.568  14.492  67.043  1.00  0.00    -0.402 A  
HETATM   26  C   UNL     1     -10.363  14.399  66.354  1.00  0.00    -0.289 A  
HETATM   27  C   UNL     1      -9.604  13.229  66.427  1.00  0.00    -0.260 A  
ENDBRANCH   6  22
TORSDOF 3
ENDMDL
MODEL       56
REMARK 921   NORMALIZED FREE ENERGY PREDICTED BY IDOCK:   -5.32 KCAL/MOL
REMARK 922        TOTAL FREE ENERGY PREDICTED BY IDOCK:   -7.22 KCAL/MOL
REMARK 923 INTER-LIGAND FREE ENERGY PREDICTED BY IDOCK:   -5.81 KCAL/MOL
REMARK 924 INTRA-LIGAND FREE ENERGY PREDICTED BY IDOCK:   -1.41 KCAL/MOL
REMARK 927      BINDING AFFINITY PREDICTED BY RF-SCORE:    0.00 PKD
ROOT
HETATM    1  O   UNL     1      -7.976  12.669  68.574  1.00  0.00    -0.141 OA 
HETATM    2  C   UNL     1      -8.329  11.747  67.846  1.00  0.00    -0.149 C  
HETATM    3  C   UNL     1     -11.082   6.351  69.428  1.00  0.00    -0.450 A  
HETATM    4  N   UNL     1      -8.294  10.417  68.212  1.00  0.00    -0.116 N  
HETATM    5  C   UNL     1      -7.761  10.052  69.515  1.00  0.00    -0.146 C  
HETATM    6  C   UNL     1      -8.751   9.334  67.338  1.00  0.00    -0.118 C  
HETATM    7  C   UNL     1      -9.586   8.312  68.104  1.00  0.00    -0.163 A  
HETATM    8  C   UNL     1      -8.746   9.215  70.326  1.00  0.00    -0.223 C  
HETATM    9  C   UNL     1     -10.414   7.431  67.385  1.00  0.00    -0.366 A  
HETATM   10  C   UNL     1      -9.525   8.214  69.507  1.00  0.00    -0.156 A  
HETATM   11  C   UNL     1     -11.160   6.461  68.044  1.00  0.00    -0.365 A  
HETATM   12  C   UNL     1     -10.273   7.226  70.157  1.00  0.00    -0.209 A  
ENDROOT
BRANCH   2  13
HETATM   13  O   UNL     1      -8.775  11.933  66.570  1.00  0.00    -0.194 OA 
BRANCH  13  14
HETATM   14  C   UNL     1      -9.997  12.678  66.466  1.00  0.00    -0.251 C  
HETATM   15  C   UNL     1     -10.635  12.581  63.607  1.00  0.00    -0.409 C  
HETATM   16  C   UNL     1     -11.115  11.761  65.932  1.00  0.00    -0.355 C  
HETATM   17  C   UNL     1     -12.401  12.598  65.871  1.00  0.00    -0.247 C  
HETATM   18  N   UNL     1     -10.815  13.830  64.380  1.00  0.00    -0.380 NA 
HETATM   19  C   UNL     1      -9.806  13.852  65.472  1.00  0.00    -0.185 C  
HETATM   20  C   UNL     1     -12.165  13.832  64.983  1.00  0.00    -0.424 C  
HETATM   21  C   UNL     1     -10.778  11.333  64.493  1.00  0.00    -0.390 C  
ENDBRANCH  13  14
ENDBRANCH   2  13
BRANCH   6  22
HETATM   22  C   UNL     1      -7.617   8.673  66.548  1.00  0.00    -0.088 A  
HETATM   23  C   UNL     1      -6.804   7.707  67.166  1.00  0.00    -0.068 A  
HETATM   24  C   UNL     1      -5.711   7.149  66.497  1.00  0.00    -0.030 A  
HETATM   25  C   UNL     1      -5.418   7.535  65.191  1.00  0.00    -0.033 A  
HETATM   26  C   UNL     1      -6.214   8.483  64.557  1.00  0.00    -0.066 A  
HETATM   27  C   UNL     1      -7.297   9.052  65.231  1.00  0.00    -0.092 A  
ENDBRANCH   6  22
TORSDOF 3
ENDMDL
MODEL       57
REMARK 921   NORMALIZED FREE ENERGY PREDICTED BY IDOCK:   -5.28 KCAL/MOL
REMARK 922        TOTAL FREE ENERGY PREDICTED BY IDOCK:   -7.18 KCAL/MOL
REMARK 923 INTER-LIGAND FREE ENERGY PREDICTED BY IDOCK:   -6.04 KCAL/MOL
REMARK 924 INTRA-LIGAND FREE ENERGY PREDICTED BY IDOCK:   -1.14 KCAL/MOL
REMARK 927      BINDING AFFINITY PREDICTED BY RF-SCORE:    0.00 PKD
ROOT
HETATM    1  O   UNL     1     -11.178   5.384  73.574  1.00  0.00    -0.274 OA 
HETATM    2  C   UNL     1     -10.609   5.934  72.637  1.00  0.00    -0.221 C  
HETATM    3  C   UNL     1     -11.945  11.416  69.923  1.00  0.00    -0.434 A  
HETATM    4  N   UNL     1     -11.250   6.706  71.690  1.00  0.00    -0.252 N  
HETATM    5  C   UNL     1     -12.696   6.852  71.751  1.00  0.00    -0.327 C  
HETATM    6  C   UNL     1     -10.545   7.380  70.596  1.00  0.00    -0.223 C  
HETATM    7  C   UNL     1     -11.050   8.806  70.401  1.00  0.00    -0.261 A  
HETATM    8  C   UNL     1     -13.126   8.315  71.782  1.00  0.00    -0.366 C  
HETATM    9  C   UNL     1     -10.258   9.718  69.679  1.00  0.00    -0.254 A  
HETATM   10  C   UNL     1     -12.299   9.221  70.901  1.00  0.00    -0.229 A  
HETATM   11  C   UNL     1     -10.702  11.015  69.448  1.00  0.00    -0.247 A  
HETATM   12  C   UNL     1     -12.738  10.526  70.651  1.00  0.00    -0.441 A  
ENDROOT
BRANCH   2  13
HETATM   13  O   UNL     1      -9.270   5.820  72.408  1.00  0.00    -0.144 OA 
BRANCH  13  14
HETATM   14  C   UNL     1      -8.437   6.300  73.475  1.00  0.00    -0.121 C  
HETATM   15  C   UNL     1      -5.942   7.049  72.133  1.00  0.00    -0.038 C  
HETATM   16  C   UNL     1      -8.082   7.779  73.225  1.00  0.00    -0.195 C  
HETATM   17  C   UNL     1      -7.221   8.246  74.408  1.00  0.00    -0.234 C  
HETATM   18  N   UNL     1      -5.919   6.345  73.435  1.00  0.00    -0.057 NA 
HETATM   19  C   UNL     1      -7.123   5.478  73.517  1.00  0.00    -0.086 C  
HETATM   20  C   UNL     1      -5.979   7.345  74.523  1.00  0.00    -0.081 C  
HETATM   21  C   UNL     1      -7.217   7.887  71.958  1.00  0.00    -0.080 C  
ENDBRANCH  13  14
ENDBRANCH   2  13
BRANCH   6  22
HETATM   22  C   UNL     1     -10.553   6.583  69.287  1.00  0.00    -0.292 A  
HETATM   23  C   UNL     1      -9.960   5.310  69.240  1.00  0.00    -0.285 A  
HETATM   24  C   UNL     1      -9.879   4.597  68.040  1.00  0.00    -0.174 A  
HETATM   25  C   UNL     1     -10.402   5.137  66.868  1.00  0.00    -0.288 A  
HETATM   26  C   UNL     1     -11.001   6.392  66.893  1.00  0.00    -0.413 A  
HETATM   27  C   UNL     1     -11.069   7.111  68.089  1.00  0.00    -0.027 A  
ENDBRANCH   6  22
TORSDOF 3
ENDMDL
MODEL       58
REMARK 921   NORMALIZED FREE ENERGY PREDICTED BY IDOCK:   -5.27 KCAL/MOL
REMARK 922        TOTAL FREE ENERGY PREDICTED BY IDOCK:   -7.17 KCAL/MOL
REMARK 923 INTER-LIGAND FREE ENERGY PREDICTED BY IDOCK:   -5.94 KCAL/MOL
REMARK 924 INTRA-LIGAND FREE ENERGY PREDICTED BY IDOCK:   -1.22 KCAL/MOL
REMARK 927      BINDING AFFINITY PREDICTED BY RF-SCORE:    0.00 PKD
ROOT
HETATM    1  O   UNL     1      -7.171   9.418  71.269  1.00  0.00    -0.299 OA 
HETATM    2  C   UNL     1      -8.181   9.457  70.573  1.00  0.00    -0.189 C  
HETATM    3  C   UNL     1      -8.634  10.210  64.375  1.00  0.00    -0.199 A  
HETATM    4  N   UNL     1      -8.311  10.236  69.442  1.00  0.00    -0.162 N  
HETATM    5  C   UNL     1      -7.218  11.115  69.055  1.00  0.00    -0.118 C  
HETATM    6  C   UNL     1      -9.515  10.243  68.608  1.00  0.00    -0.169 C  
HETATM    7  C   UNL     1      -9.167  10.210  67.123  1.00  0.00    -0.157 A  
HETATM    8  C   UNL     1      -6.764  10.871  67.619  1.00  0.00    -0.069 C  
HETATM    9  C   UNL     1     -10.157   9.832  66.198  1.00  0.00    -0.315 A  
HETATM   10  C   UNL     1      -7.889  10.575  66.658  1.00  0.00    -0.125 A  
HETATM   11  C   UNL     1      -9.889   9.827  64.834  1.00  0.00    -0.183 A  
HETATM   12  C   UNL     1      -7.637  10.577  65.281  1.00  0.00    -0.074 A  
ENDROOT
BRANCH   2  13
HETATM   13  O   UNL     1      -9.311   8.748  70.859  1.00  0.00    -0.176 OA 
BRANCH  13  14
HETATM   14  C   UNL     1      -9.274   7.373  70.449  1.00  0.00    -0.158 C  
HETATM   15  C   UNL     1     -11.461   6.134  71.956  1.00  0.00    -0.313 C  
HETATM   16  C   UNL     1     -10.604   7.005  69.763  1.00  0.00    -0.253 C  
HETATM   17  C   UNL     1     -10.497   5.538  69.318  1.00  0.00    -0.336 C  
HETATM   18  N   UNL     1     -10.165   5.439  71.796  1.00  0.00    -0.200 NA 
HETATM   19  C   UNL     1      -9.095   6.465  71.694  1.00  0.00    -0.144 C  
HETATM   20  C   UNL     1     -10.192   4.656  70.541  1.00  0.00    -0.141 C  
HETATM   21  C   UNL     1     -11.747   7.090  70.788  1.00  0.00    -0.394 C  
ENDBRANCH  13  14
ENDBRANCH   2  13
BRANCH   6  22
HETATM   22  C   UNL     1     -10.481  11.383  68.947  1.00  0.00    -0.219 A  
HETATM   23  C   UNL     1     -10.343  12.629  68.311  1.00  0.00    -0.246 A  
HETATM   24  C   UNL     1     -11.155  13.711  68.662  1.00  0.00    -0.299 A  
HETATM   25  C   UNL     1     -12.132  13.564  69.643  1.00  0.00    -0.365 A  
HETATM   26  C   UNL     1     -12.292  12.338  70.280  1.00  0.00    -0.267 A  
HETATM   27  C   UNL     1     -11.470  11.261  69.940  1.00  0.00    -0.373 A  
ENDBRANCH   6  22
TORSDOF 3
ENDMDL
MODEL       59
REMARK 921   NORMALIZED FREE ENERGY PREDICTED BY IDOCK:   -5.25 KCAL/MOL
REMARK 922        TOTAL FREE ENERGY PREDICTED BY IDOCK:   -7.14 KCAL/MOL
REMARK 923 INTER-LIGAND FREE ENERGY PREDICTED BY IDOCK:   -6.53 KCAL/MOL
REMARK 924 INTRA-LIGAND FREE ENERGY PREDICTED BY IDOCK:   -0.60 KCAL/MOL
REMARK 927      BINDING AFFINITY PREDICTED BY RF-SCORE:    0.00 PKD
ROOT
HETATM    1  O   UNL     1     -12.234  13.345  68.412  1.00  0.00    -0.293 OA 
HETATM    2  C   UNL     1     -11.989  12.144  68.466  1.00  0.00    -0.217 C  
HETATM    3  C   UNL     1     -14.104   7.899  72.553  1.00  0.00     0.041 A  
HETATM    4  N   UNL     1     -11.898  11.426  69.640  1.00  0.00    -0.331 N  
HETATM    5  C   UNL     1     -12.046  12.119  70.911  1.00  0.00    -0.079 C  
HETATM    6  C   UNL     1     -11.636   9.985  69.679  1.00  0.00    -0.096 C  
HETATM    7  C   UNL     1     -12.537   9.280  70.688  1.00  0.00     0.061 A  
HETATM    8  C   UNL     1     -13.130  11.494  71.784  1.00  0.00    -0.503 C  
HETATM    9  C   UNL     1     -12.704   7.885  70.597  1.00  0.00     0.311 A  
HETATM   10  C   UNL     1     -13.183   9.987  71.720  1.00  0.00    -0.540 A  
HETATM   11  C   UNL     1     -13.486   7.202  71.521  1.00  0.00    -0.411 A  
HETATM   12  C   UNL     1     -13.958   9.285  72.650  1.00  0.00    -0.325 A  
ENDROOT
BRANCH   2  13
HETATM   13  O   UNL     1     -11.748  11.382  67.360  1.00  0.00    -0.574 OA 
BRANCH  13  14
HETATM   14  C   UNL     1     -10.848  11.973  66.411  1.00  0.00    -0.278 C  
HETATM   15  C   UNL     1     -12.198  11.595  63.837  1.00  0.00    -0.169 C  
HETATM   16  C   UNL     1     -11.548  13.148  65.700  1.00  0.00    -0.371 C  
HETATM   17  C   UNL     1     -10.533  13.760  64.723  1.00  0.00    -0.448 C  
HETATM   18  N   UNL     1     -10.738  11.386  63.963  1.00  0.00    -0.365 NA 
HETATM   19  C   UNL     1     -10.453  10.919  65.345  1.00  0.00    -0.223 C  
HETATM   20  C   UNL     1     -10.047  12.675  63.746  1.00  0.00    -0.147 C  
HETATM   21  C   UNL     1     -12.722  12.611  64.864  1.00  0.00    -0.450 C  
ENDBRANCH  13  14
ENDBRANCH   2  13
BRANCH   6  22
HETATM   22  C   UNL     1     -10.158   9.643  69.893  1.00  0.00    -0.279 A  
HETATM   23  C   UNL     1      -9.286   9.589  68.791  1.00  0.00    -0.146 A  
HETATM   24  C   UNL     1      -7.953   9.198  68.946  1.00  0.00    -0.099 A  
HETATM   25  C   UNL     1      -7.461   8.868  70.205  1.00  0.00    -0.074 A  
HETATM   26  C   UNL     1      -8.304   8.922  71.311  1.00  0.00    -0.223 A  
HETATM   27  C   UNL     1      -9.640   9.298  71.155  1.00  0.00    -0.305 A  
ENDBRANCH   6  22
TORSDOF 3
ENDMDL
MODEL       60
REMARK 921   NORMALIZED FREE ENERGY PREDICTED BY IDOCK:   -5.22 KCAL/MOL
REMARK 922        TOTAL FREE ENERGY PREDICTED BY IDOCK:   -7.11 KCAL/MOL
REMARK 923 INTER-LIGAND FREE ENERGY PREDICTED BY IDOCK:   -6.62 KCAL/MOL
REMARK 924 INTRA-LIGAND FREE ENERGY PREDICTED BY IDOCK:   -0.49 KCAL/MOL
REMARK 927      BINDING AFFINITY PREDICTED BY RF-SCORE:    0.00 PKD
ROOT
HETATM    1  O   UNL     1      -7.888  10.766  67.533  1.00  0.00    -0.107 OA 
HETATM    2  C   UNL     1      -8.877  10.061  67.707  1.00  0.00    -0.125 C  
HETATM    3  C   UNL     1     -11.132   7.734  73.064  1.00  0.00    -0.419 A  
HETATM    4  N   UNL     1      -8.967   9.080  68.672  1.00  0.00    -0.137 N  
HETATM    5  C   UNL     1      -7.815   8.805  69.516  1.00  0.00    -0.091 C  
HETATM    6  C   UNL     1     -10.170   8.271  68.882  1.00  0.00    -0.210 C  
HETATM    7  C   UNL     1     -10.490   8.120  70.366  1.00  0.00    -0.217 A  
HETATM    8  C   UNL     1      -8.155   8.895  71.001  1.00  0.00    -0.205 C  
HETATM    9  C   UNL     1     -11.783   7.717  70.748  1.00  0.00    -0.242 A  
HETATM   10  C   UNL     1      -9.516   8.347  71.357  1.00  0.00    -0.251 A  
HETATM   11  C   UNL     1     -12.102   7.532  72.088  1.00  0.00    -0.305 A  
HETATM   12  C   UNL     1      -9.847   8.145  72.702  1.00  0.00    -0.364 A  
ENDROOT
BRANCH   2  13
HETATM   13  O   UNL     1     -10.000  10.151  66.938  1.00  0.00    -0.189 OA 
BRANCH  13  14
HETATM   14  C   UNL     1     -10.880  11.230  67.289  1.00  0.00    -0.267 C  
HETATM   15  C   UNL     1      -9.458  13.622  66.372  1.00  0.00    -0.234 C  
HETATM   16  C   UNL     1     -11.317  11.974  66.012  1.00  0.00    -0.398 C  
HETATM   17  C   UNL     1     -12.279  13.092  66.443  1.00  0.00    -0.350 C  
HETATM   18  N   UNL     1     -10.164  13.614  67.673  1.00  0.00    -0.236 NA 
HETATM   19  C   UNL     1     -10.134  12.229  68.210  1.00  0.00    -0.218 C  
HETATM   20  C   UNL     1     -11.573  14.009  67.457  1.00  0.00    -0.367 C  
HETATM   21  C   UNL     1     -10.092  12.646  65.370  1.00  0.00    -0.277 C  
ENDBRANCH  13  14
ENDBRANCH   2  13
BRANCH   6  22
HETATM   22  C   UNL     1     -10.125   6.918  68.163  1.00  0.00    -0.187 A  
HETATM   23  C   UNL     1      -9.286   5.899  68.644  1.00  0.00    -0.120 A  
HETATM   24  C   UNL     1      -9.162   4.685  67.960  1.00  0.00    -0.158 A  
HETATM   25  C   UNL     1      -9.885   4.463  66.792  1.00  0.00    -0.241 A  
HETATM   26  C   UNL     1     -10.729   5.455  66.303  1.00  0.00    -0.234 A  
HETATM   27  C   UNL     1     -10.841   6.673  66.977  1.00  0.00    -0.467 A  
ENDBRANCH   6  22
TORSDOF 3
ENDMDL
MODEL       61
REMARK 921   NORMALIZED FREE ENERGY PREDICTED BY IDOCK:   -5.22 KCAL/MOL
REMARK 922        TOTAL FREE ENERGY PREDICTED BY IDOCK:   -7.10 KCAL/MOL
REMARK 923 INTER-LIGAND FREE ENERGY PREDICTED BY IDOCK:   -6.05 KCAL/MOL
REMARK 924 INTRA-LIGAND FREE ENERGY PREDICTED BY IDOCK:   -1.05 KCAL/MOL
REMARK 927      BINDING AFFINITY PREDICTED BY RF-SCORE:    0.00 PKD
ROOT
HETATM    1  O   UNL     1     -12.822  10.228  71.207  1.00  0.00    -0.356 OA 
HETATM    2  C   UNL     1     -11.670  10.150  70.793  1.00  0.00    -0.357 C  
HETATM    3  C   UNL     1      -8.519  14.209  67.216  1.00  0.00    -0.228 A  
HETATM    4  N   UNL     1     -11.254  10.637  69.571  1.00  0.00    -0.251 N  
HETATM    5  C   UNL     1     -12.231  11.238  68.675  1.00  0.00     0.036 C  
HETATM    6  C   UNL     1      -9.866  10.563  69.109  1.00  0.00    -0.218 C  
HETATM    7  C   UNL     1      -9.419  11.871  68.466  1.00  0.00    -0.151 A  
HETATM    8  C   UNL     1     -11.829  12.646  68.247  1.00  0.00    -0.354 C  
HETATM    9  C   UNL     1      -8.043  12.123  68.314  1.00  0.00    -0.166 A  
HETATM   10  C   UNL     1     -10.350  12.818  67.997  1.00  0.00    -0.232 A  
HETATM   11  C   UNL     1      -7.598  13.287  67.698  1.00  0.00    -0.171 A  
HETATM   12  C   UNL     1      -9.888  13.980  67.369  1.00  0.00    -0.240 A  
ENDROOT
BRANCH   2  13
HETATM   13  O   UNL     1     -10.667   9.543  71.489  1.00  0.00    -0.340 OA 
BRANCH  13  14
HETATM   14  C   UNL     1     -11.031   8.293  72.094  1.00  0.00    -0.326 C  
HETATM   15  C   UNL     1      -8.773   6.531  71.470  1.00  0.00    -0.132 C  
HETATM   16  C   UNL     1      -9.991   7.921  73.170  1.00  0.00    -0.358 C  
HETATM   17  C   UNL     1     -10.446   6.597  73.803  1.00  0.00    -0.357 C  
HETATM   18  N   UNL     1     -10.165   6.037  71.381  1.00  0.00    -0.200 NA 
HETATM   19  C   UNL     1     -11.043   7.179  71.015  1.00  0.00    -0.260 C  
HETATM   20  C   UNL     1     -10.579   5.526  72.706  1.00  0.00    -0.225 C  
HETATM   21  C   UNL     1      -8.632   7.665  72.497  1.00  0.00    -0.164 C  
ENDBRANCH  13  14
ENDBRANCH   2  13
BRANCH   6  22
HETATM   22  C   UNL     1      -9.591   9.355  68.206  1.00  0.00    -0.156 A  
HETATM   23  C   UNL     1      -8.346   8.706  68.267  1.00  0.00    -0.127 A  
HETATM   24  C   UNL     1      -8.038   7.656  67.396  1.00  0.00    -0.119 A  
HETATM   25  C   UNL     1      -8.973   7.226  66.460  1.00  0.00    -0.175 A  
HETATM   26  C   UNL     1     -10.215   7.848  66.387  1.00  0.00    -0.071 A  
HETATM   27  C   UNL     1     -10.518   8.907  67.247  1.00  0.00    -0.348 A  
ENDBRANCH   6  22
TORSDOF 3
ENDMDL
MODEL       62
REMARK 921   NORMALIZED FREE ENERGY PREDICTED BY IDOCK:   -5.20 KCAL/MOL
REMARK 922        TOTAL FREE ENERGY PREDICTED BY IDOCK:   -7.08 KCAL/MOL
REMARK 923 INTER-LIGAND FREE ENERGY PREDICTED BY IDOCK:   -6.00 KCAL/MOL
REMARK 924 INTRA-LIGAND FREE ENERGY PREDICTED BY IDOCK:   -1.07 KCAL/MOL
REMARK 927      BINDING AFFINITY PREDICTED BY RF-SCORE:    0.00 PKD
ROOT
HETATM    1  O   UNL     1      -8.545   7.166  65.273  1.00  0.00    -0.098 OA 
HETATM    2  C   UNL     1      -9.085   8.036  65.949  1.00  0.00    -0.106 C  
HETATM    3  C   UNL     1     -12.083  13.186  64.030  1.00  0.00    -0.511 A  
HETATM    4  N   UNL     1      -9.124   9.370  65.603  1.00  0.00    -0.192 N  
HETATM    5  C   UNL     1      -8.447   9.812  64.394  1.00  0.00    -0.179 C  
HETATM    6  C   UNL     1      -9.803  10.387  66.410  1.00  0.00    -0.213 C  
HETATM    7  C   UNL     1     -10.612  11.343  65.541  1.00  0.00    -0.328 A  
HETATM    8  C   UNL     1      -9.381  10.572  63.456  1.00  0.00    -0.326 C  
HETATM    9  C   UNL     1     -11.616  12.128  66.139  1.00  0.00    -0.418 A  
HETATM   10  C   UNL     1     -10.361  11.477  64.162  1.00  0.00    -0.386 A  
HETATM   11  C   UNL     1     -12.348  13.038  65.387  1.00  0.00    -0.538 A  
HETATM   12  C   UNL     1     -11.099  12.406  63.418  1.00  0.00    -0.465 A  
ENDROOT
BRANCH   2  13
HETATM   13  O   UNL     1      -9.688   7.781  67.145  1.00  0.00    -0.158 OA 
BRANCH  13  14
HETATM   14  C   UNL     1      -9.226   6.595  67.809  1.00  0.00    -0.111 C  
HETATM   15  C   UNL     1     -10.692   6.596  70.347  1.00  0.00    -0.250 C  
HETATM   16  C   UNL     1     -10.414   5.640  68.041  1.00  0.00    -0.264 C  
HETATM   17  C   UNL     1      -9.859   4.380  68.722  1.00  0.00    -0.149 C  
HETATM   18  N   UNL     1      -9.260   6.226  70.300  1.00  0.00    -0.156 NA 
HETATM   19  C   UNL     1      -8.621   6.972  69.185  1.00  0.00    -0.133 C  
HETATM   20  C   UNL     1      -9.147   4.777  70.027  1.00  0.00    -0.103 C  
HETATM   21  C   UNL     1     -11.406   6.290  69.021  1.00  0.00    -0.319 C  
ENDBRANCH  13  14
ENDBRANCH   2  13
BRANCH   6  22
HETATM   22  C   UNL     1      -8.861  11.134  67.362  1.00  0.00    -0.139 A  
HETATM   23  C   UNL     1      -8.312  12.368  66.976  1.00  0.00    -0.157 A  
HETATM   24  C   UNL     1      -7.386  13.030  67.788  1.00  0.00    -0.139 A  
HETATM   25  C   UNL     1      -7.003  12.478  69.007  1.00  0.00    -0.066 A  
HETATM   26  C   UNL     1      -7.540  11.261  69.413  1.00  0.00     0.044 A  
HETATM   27  C   UNL     1      -8.454  10.592  68.595  1.00  0.00    -0.142 A  
ENDBRANCH   6  22
TORSDOF 3
ENDMDL
MODEL       63
REMARK 921   NORMALIZED FREE ENERGY PREDICTED BY IDOCK:   -5.09 KCAL/MOL
REMARK 922        TOTAL FREE ENERGY PREDICTED BY IDOCK:   -6.96 KCAL/MOL
REMARK 923 INTER-LIGAND FREE ENERGY PREDICTED BY IDOCK:   -6.39 KCAL/MOL
REMARK 924 INTRA-LIGAND FREE ENERGY PREDICTED BY IDOCK:   -0.57 KCAL/MOL
REMARK 927      BINDING AFFINITY PREDICTED BY RF-SCORE:    0.00 PKD
ROOT
HETATM    1  O   UNL     1     -11.231   7.922  73.525  1.00  0.00    -0.188 OA 
HETATM    2  C   UNL     1     -10.593   8.197  72.515  1.00  0.00    -0.340 C  
HETATM    3  C   UNL     1     -11.119  13.211  68.801  1.00  0.00    -0.309 A  
HETATM    4  N   UNL     1     -11.117   8.864  71.427  1.00  0.00    -0.279 N  
HETATM    5  C   UNL     1     -12.526   9.228  71.428  1.00  0.00    -0.341 C  
HETATM    6  C   UNL     1     -10.327   9.212  70.243  1.00  0.00    -0.214 C  
HETATM    7  C   UNL     1     -10.617  10.634  69.775  1.00  0.00    -0.233 A  
HETATM    8  C   UNL     1     -12.734  10.719  71.177  1.00  0.00    -0.532 C  
HETATM    9  C   UNL     1      -9.703  11.270  68.914  1.00  0.00    -0.141 A  
HETATM   10  C   UNL     1     -11.788  11.313  70.162  1.00  0.00    -0.449 A  
HETATM   11  C   UNL     1      -9.951  12.551  68.436  1.00  0.00    -0.212 A  
HETATM   12  C   UNL     1     -12.031  12.599  69.664  1.00  0.00    -0.352 A  
ENDROOT
BRANCH   2  13
HETATM   13  O   UNL     1      -9.286   7.848  72.341  1.00  0.00    -0.149 OA 
BRANCH  13  14
HETATM   14  C   UNL     1      -8.898   6.634  73.002  1.00  0.00    -0.127 C  
HETATM   15  C   UNL     1      -7.761   4.999  70.852  1.00  0.00    -0.083 C  
HETATM   16  C   UNL     1      -7.374   6.441  72.871  1.00  0.00    -0.094 C  
HETATM   17  C   UNL     1      -7.013   5.149  73.620  1.00  0.00    -0.081 C  
HETATM   18  N   UNL     1      -8.641   4.394  71.876  1.00  0.00    -0.110 NA 
HETATM   19  C   UNL     1      -9.606   5.429  72.330  1.00  0.00    -0.150 C  
HETATM   20  C   UNL     1      -7.816   3.976  73.031  1.00  0.00    -0.084 C  
HETATM   21  C   UNL     1      -7.013   6.228  71.391  1.00  0.00    -0.076 C  
ENDBRANCH  13  14
ENDBRANCH   2  13
BRANCH   6  22
HETATM   22  C   UNL     1     -10.461   8.194  69.105  1.00  0.00    -0.217 A  
HETATM   23  C   UNL     1     -10.312   8.613  67.771  1.00  0.00    -0.303 A  
HETATM   24  C   UNL     1     -10.511   7.725  66.711  1.00  0.00    -0.318 A  
HETATM   25  C   UNL     1     -10.848   6.397  66.962  1.00  0.00    -0.464 A  
HETATM   26  C   UNL     1     -10.993   5.959  68.275  1.00  0.00    -0.262 A  
HETATM   27  C   UNL     1     -10.808   6.850  69.334  1.00  0.00    -0.283 A  
ENDBRANCH   6  22
TORSDOF 3
ENDMDL
MODEL       64
REMARK 921   NORMALIZED FREE ENERGY PREDICTED BY IDOCK:   -5.00 KCAL/MOL
REMARK 922        TOTAL FREE ENERGY PREDICTED BY IDOCK:   -6.84 KCAL/MOL
REMARK 923 INTER-LIGAND FREE ENERGY PREDICTED BY IDOCK:   -5.68 KCAL/MOL
REMARK 924 INTRA-LIGAND FREE ENERGY PREDICTED BY IDOCK:   -1.17 KCAL/MOL
REMARK 927      BINDING AFFINITY PREDICTED BY RF-SCORE:    0.00 PKD
ROOT
HETATM    1  O   UNL     1      -9.312   9.290  65.224  1.00  0.00    -0.241 OA 
HETATM    2  C   UNL     1      -9.106   9.028  66.404  1.00  0.00    -0.170 C  
HETATM    3  C   UNL     1     -12.673  10.333  71.381  1.00  0.00    -0.547 A  
HETATM    4  N   UNL     1      -9.493   9.835  67.454  1.00  0.00    -0.150 N  
HETATM    5  C   UNL     1     -10.140  11.107  67.172  1.00  0.00    -0.191 C  
HETATM    6  C   UNL     1      -9.265   9.487  68.858  1.00  0.00    -0.145 C  
HETATM    7  C   UNL     1     -10.493   9.779  69.714  1.00  0.00    -0.278 A  
HETATM    8  C   UNL     1     -11.482  11.240  67.885  1.00  0.00    -0.360 C  
HETATM    9  C   UNL     1     -10.605   9.172  70.978  1.00  0.00    -0.362 A  
HETATM   10  C   UNL     1     -11.500  10.662  69.279  1.00  0.00    -0.351 A  
HETATM   11  C   UNL     1     -11.691   9.443  71.802  1.00  0.00    -0.444 A  
HETATM   12  C   UNL     1     -12.583  10.935  70.124  1.00  0.00    -0.304 A  
ENDROOT
BRANCH   2  13
HETATM   13  O   UNL     1      -8.440   7.911  66.814  1.00  0.00    -0.123 OA 
BRANCH  13  14
HETATM   14  C   UNL     1      -8.891   6.689  66.208  1.00  0.00    -0.147 C  
HETATM   15  C   UNL     1      -9.052   4.813  68.454  1.00  0.00    -0.117 C  
HETATM   16  C   UNL     1     -10.251   6.287  66.813  1.00  0.00    -0.262 C  
HETATM   17  C   UNL     1     -10.698   4.998  66.109  1.00  0.00    -0.264 C  
HETATM   18  N   UNL     1      -8.507   4.383  67.147  1.00  0.00    -0.104 NA 
HETATM   19  C   UNL     1      -7.870   5.559  66.498  1.00  0.00    -0.101 C  
HETATM   20  C   UNL     1      -9.620   3.916  66.293  1.00  0.00    -0.185 C  
HETATM   21  C   UNL     1     -10.068   5.956  68.303  1.00  0.00    -0.203 C  
ENDBRANCH  13  14
ENDBRANCH   2  13
BRANCH   6  22
HETATM   22  C   UNL     1      -7.995  10.117  69.441  1.00  0.00    -0.155 A  
HETATM   23  C   UNL     1      -7.648  11.435  69.098  1.00  0.00    -0.038 A  
HETATM   24  C   UNL     1      -6.453  12.006  69.547  1.00  0.00    -0.109 A  
HETATM   25  C   UNL     1      -5.591  11.276  70.360  1.00  0.00    -0.134 A  
HETATM   26  C   UNL     1      -5.919   9.972  70.720  1.00  0.00    -0.095 A  
HETATM   27  C   UNL     1      -7.105   9.397  70.259  1.00  0.00    -0.097 A  
ENDBRANCH   6  22
TORSDOF 3
ENDMDL
MODEL       65
REMARK 921   NORMALIZED FREE ENERGY PREDICTED BY IDOCK:   -4.96 KCAL/MOL
REMARK 922        TOTAL FREE ENERGY PREDICTED BY IDOCK:   -6.80 KCAL/MOL
REMARK 923 INTER-LIGAND FREE ENERGY PREDICTED BY IDOCK:   -5.51 KCAL/MOL
REMARK 924 INTRA-LIGAND FREE ENERGY PREDICTED BY IDOCK:   -1.29 KCAL/MOL
REMARK 927      BINDING AFFINITY PREDICTED BY RF-SCORE:    0.00 PKD
ROOT
HETATM    1  O   UNL     1     -10.080   9.648  64.789  1.00  0.00    -0.007 OA 
HETATM    2  C   UNL     1     -10.213   9.832  65.994  1.00  0.00    -0.193 C  
HETATM    3  C   UNL     1     -12.146  14.989  68.972  1.00  0.00    -0.243 A  
HETATM    4  N   UNL     1      -9.987  11.040  66.621  1.00  0.00    -0.203 N  
HETATM    5  C   UNL     1      -9.508  12.169  65.838  1.00  0.00    -0.179 C  
HETATM    6  C   UNL     1     -10.184  11.246  68.058  1.00  0.00    -0.183 C  
HETATM    7  C   UNL     1     -10.896  12.565  68.341  1.00  0.00    -0.266 A  
HETATM    8  C   UNL     1     -10.403  13.396  65.991  1.00  0.00    -0.297 C  
HETATM    9  C   UNL     1     -11.504  12.757  69.596  1.00  0.00    -0.255 A  
HETATM   10  C   UNL     1     -10.934  13.601  67.389  1.00  0.00    -0.289 A  
HETATM   11  C   UNL     1     -12.129  13.959  69.905  1.00  0.00    -0.406 A  
HETATM   12  C   UNL     1     -11.557  14.810  67.718  1.00  0.00    -0.378 A  
ENDROOT
BRANCH   2  13
HETATM   13  O   UNL     1     -10.578   8.846  66.863  1.00  0.00    -0.263 OA 
BRANCH  13  14
HETATM   14  C   UNL     1     -10.118   7.533  66.505  1.00  0.00    -0.124 C  
HETATM   15  C   UNL     1      -9.175   6.407  69.041  1.00  0.00    -0.129 C  
HETATM   16  C   UNL     1     -10.946   6.475  67.261  1.00  0.00    -0.475 C  
HETATM   17  C   UNL     1     -10.434   5.096  66.818  1.00  0.00    -0.306 C  
HETATM   18  N   UNL     1      -8.411   6.200  67.791  1.00  0.00    -0.116 NA 
HETATM   19  C   UNL     1      -8.630   7.377  66.910  1.00  0.00    -0.120 C  
HETATM   20  C   UNL     1      -8.927   4.994  67.107  1.00  0.00    -0.112 C  
HETATM   21  C   UNL     1     -10.675   6.601  68.770  1.00  0.00    -0.302 C  
ENDBRANCH  13  14
ENDBRANCH   2  13
BRANCH   6  22
HETATM   22  C   UNL     1      -8.894  11.102  68.874  1.00  0.00    -0.086 A  
HETATM   23  C   UNL     1      -7.911  12.104  68.810  1.00  0.00    -0.017 A  
HETATM   24  C   UNL     1      -6.691  11.960  69.476  1.00  0.00    -0.054 A  
HETATM   25  C   UNL     1      -6.436  10.819  70.231  1.00  0.00    -0.128 A  
HETATM   26  C   UNL     1      -7.398   9.817  70.315  1.00  0.00    -0.165 A  
HETATM   27  C   UNL     1      -8.612   9.955  69.637  1.00  0.00    -0.207 A  
ENDBRANCH   6  22
TORSDOF 3
ENDMDL
MODEL       66
REMARK 921   NORMALIZED FREE ENERGY PREDICTED BY IDOCK:   -4.95 KCAL/MOL
REMARK 922        TOTAL FREE ENERGY PREDICTED BY IDOCK:   -6.78 KCAL/MOL
REMARK 923 INTER-LIGAND FREE ENERGY PREDICTED BY IDOCK:   -5.91 KCAL/MOL
REMARK 924 INTRA-LIGAND FREE ENERGY PREDICTED BY IDOCK:   -0.87 KCAL/MOL
REMARK 927      BINDING AFFINITY PREDICTED BY RF-SCORE:    0.00 PKD
ROOT
HETATM    1  O   UNL     1     -10.470  14.120  65.886  1.00  0.00    -0.288 OA 
HETATM    2  C   UNL     1     -10.623  13.131  66.596  1.00  0.00    -0.279 C  
HETATM    3  C   UNL     1     -13.402  12.724  72.191  1.00  0.00    -0.593 A  
HETATM    4  N   UNL     1     -10.606  13.160  67.975  1.00  0.00    -0.230 N  
HETATM    5  C   UNL     1     -10.341  14.417  68.656  1.00  0.00    -0.245 C  
HETATM    6  C   UNL     1     -10.822  11.971  68.803  1.00  0.00    -0.230 C  
HETATM    7  C   UNL     1     -11.752  12.268  69.975  1.00  0.00    -0.319 A  
HETATM    8  C   UNL     1     -11.435  14.769  69.660  1.00  0.00    -0.327 C  
HETATM    9  C   UNL     1     -12.372  11.196  70.644  1.00  0.00    -0.482 A  
HETATM   10  C   UNL     1     -11.981  13.585  70.419  1.00  0.00    -0.367 A  
HETATM   11  C   UNL     1     -13.196  11.425  71.740  1.00  0.00    -0.472 A  
HETATM   12  C   UNL     1     -12.804  13.799  71.531  1.00  0.00    -0.445 A  
ENDROOT
BRANCH   2  13
HETATM   13  O   UNL     1     -10.800  11.875  66.095  1.00  0.00    -0.270 OA 
BRANCH  13  14
HETATM   14  C   UNL     1      -9.878  11.508  65.058  1.00  0.00    -0.257 C  
HETATM   15  C   UNL     1      -8.370   9.278  66.218  1.00  0.00    -0.122 C  
HETATM   16  C   UNL     1     -10.147  10.054  64.621  1.00  0.00    -0.067 C  
HETATM   17  C   UNL     1      -9.157   9.728  63.493  1.00  0.00    -0.263 C  
HETATM   18  N   UNL     1      -7.685  10.324  65.426  1.00  0.00    -0.144 NA 
HETATM   19  C   UNL     1      -8.427  11.600  65.598  1.00  0.00     0.290 C  
HETATM   20  C   UNL     1      -7.719   9.944  63.997  1.00  0.00    -0.141 C  
HETATM   21  C   UNL     1      -9.837   9.105  65.792  1.00  0.00    -0.248 C  
ENDBRANCH  13  14
ENDBRANCH   2  13
BRANCH   6  22
HETATM   22  C   UNL     1      -9.520  11.304  69.258  1.00  0.00     0.176 A  
HETATM   23  C   UNL     1      -8.284  11.890  68.937  1.00  0.00     0.089 A  
HETATM   24  C   UNL     1      -7.080  11.261  69.265  1.00  0.00    -0.112 A  
HETATM   25  C   UNL     1      -7.088  10.040  69.934  1.00  0.00    -0.130 A  
HETATM   26  C   UNL     1      -8.300   9.445  70.270  1.00  0.00    -0.217 A  
HETATM   27  C   UNL     1      -9.503  10.067  69.929  1.00  0.00    -0.221 A  
ENDBRANCH   6  22
TORSDOF 3
ENDMDL
MODEL       67
REMARK 921   NORMALIZED FREE ENERGY PREDICTED BY IDOCK:   -4.93 KCAL/MOL
REMARK 922        TOTAL FREE ENERGY PREDICTED BY IDOCK:   -6.76 KCAL/MOL
REMARK 923 INTER-LIGAND FREE ENERGY PREDICTED BY IDOCK:   -5.50 KCAL/MOL
REMARK 924 INTRA-LIGAND FREE ENERGY PREDICTED BY IDOCK:   -1.27 KCAL/MOL
REMARK 927      BINDING AFFINITY PREDICTED BY RF-SCORE:    0.00 PKD
ROOT
HETATM    1  O   UNL     1     -12.133  12.502  67.736  1.00  0.00    -0.409 OA 
HETATM    2  C   UNL     1     -10.965  12.524  67.360  1.00  0.00    -0.259 C  
HETATM    3  C   UNL     1      -7.665   7.986  64.583  1.00  0.00    -0.126 A  
HETATM    4  N   UNL     1     -10.124  11.431  67.389  1.00  0.00    -0.182 N  
HETATM    5  C   UNL     1     -10.608  10.176  67.942  1.00  0.00    -0.249 C  
HETATM    6  C   UNL     1      -8.742  11.471  66.904  1.00  0.00    -0.181 C  
HETATM    7  C   UNL     1      -8.404  10.238  66.074  1.00  0.00    -0.142 A  
HETATM    8  C   UNL     1     -10.446   9.016  66.964  1.00  0.00    -0.316 C  
HETATM    9  C   UNL     1      -7.283  10.273  65.223  1.00  0.00    -0.134 A  
HETATM   10  C   UNL     1      -9.170   9.060  66.159  1.00  0.00    -0.272 A  
HETATM   11  C   UNL     1      -6.922   9.156  64.479  1.00  0.00    -0.090 A  
HETATM   12  C   UNL     1      -8.787   7.938  65.413  1.00  0.00    -0.020 A  
ENDROOT
BRANCH   2  13
HETATM   13  O   UNL     1     -10.354  13.650  66.893  1.00  0.00    -0.258 OA 
BRANCH  13  14
HETATM   14  C   UNL     1     -10.719  14.858  67.579  1.00  0.00    -0.276 C  
HETATM   15  C   UNL     1      -8.164  16.238  67.975  1.00  0.00    -0.156 C  
HETATM   16  C   UNL     1     -10.332  16.076  66.717  1.00  0.00    -0.300 C  
HETATM   17  C   UNL     1     -10.773  17.333  67.482  1.00  0.00    -0.278 C  
HETATM   18  N   UNL     1      -9.181  16.206  69.050  1.00  0.00    -0.242 NA 
HETATM   19  C   UNL     1      -9.953  14.942  68.924  1.00  0.00    -0.233 C  
HETATM   20  C   UNL     1     -10.106  17.346  68.869  1.00  0.00    -0.330 C  
HETATM   21  C   UNL     1      -8.801  16.136  66.580  1.00  0.00    -0.298 C  
ENDBRANCH  13  14
ENDBRANCH   2  13
BRANCH   6  22
HETATM   22  C   UNL     1      -7.716  11.713  68.017  1.00  0.00    -0.121 A  
HETATM   23  C   UNL     1      -7.509  10.733  69.003  1.00  0.00    -0.118 A  
HETATM   24  C   UNL     1      -6.643  10.961  70.075  1.00  0.00    -0.151 A  
HETATM   25  C   UNL     1      -5.955  12.168  70.176  1.00  0.00    -0.154 A  
HETATM   26  C   UNL     1      -6.138  13.149  69.207  1.00  0.00    -0.098 A  
HETATM   27  C   UNL     1      -7.016  12.927  68.143  1.00  0.00    -0.102 A  
ENDBRANCH   6  22
TORSDOF 3
ENDMDL
MODEL       68
REMARK 921   NORMALIZED FREE ENERGY PREDICTED BY IDOCK:   -4.91 KCAL/MOL
REMARK 922        TOTAL FREE ENERGY PREDICTED BY IDOCK:   -6.74 KCAL/MOL
REMARK 923 INTER-LIGAND FREE ENERGY PREDICTED BY IDOCK:   -5.73 KCAL/MOL
REMARK 924 INTRA-LIGAND FREE ENERGY PREDICTED BY IDOCK:   -1.01 KCAL/MOL
REMARK 927      BINDING AFFINITY PREDICTED BY RF-SCORE:    0.00 PKD
ROOT
HETATM    1  O   UNL     1     -10.261   7.188  67.024  1.00  0.00    -0.217 OA 
HETATM    2  C   UNL     1     -10.170   7.799  68.084  1.00  0.00    -0.202 C  
HETATM    3  C   UNL     1      -8.282   5.682  73.666  1.00  0.00    -0.112 A  
HETATM    4  N   UNL     1     -10.404   7.237  69.322  1.00  0.00    -0.201 N  
HETATM    5  C   UNL     1     -10.838   5.851  69.403  1.00  0.00    -0.352 C  
HETATM    6  C   UNL     1     -10.257   7.976  70.578  1.00  0.00    -0.198 C  
HETATM    7  C   UNL     1      -9.540   7.145  71.636  1.00  0.00    -0.163 A  
HETATM    8  C   UNL     1      -9.935   5.016  70.307  1.00  0.00    -0.325 C  
HETATM    9  C   UNL     1      -8.976   7.796  72.750  1.00  0.00    -0.236 A  
HETATM   10  C   UNL     1      -9.452   5.743  71.538  1.00  0.00    -0.171 A  
HETATM   11  C   UNL     1      -8.347   7.068  73.754  1.00  0.00    -0.158 A  
HETATM   12  C   UNL     1      -8.826   5.022  72.562  1.00  0.00    -0.126 A  
ENDROOT
BRANCH   2  13
HETATM   13  O   UNL     1      -9.850   9.122  68.157  1.00  0.00    -0.154 OA 
BRANCH  13  14
HETATM   14  C   UNL     1      -8.466   9.390  68.430  1.00  0.00    -0.120 C  
HETATM   15  C   UNL     1      -7.970  11.950  67.093  1.00  0.00    -0.172 C  
HETATM   16  C   UNL     1      -8.344  10.698  69.237  1.00  0.00    -0.112 C  
HETATM   17  C   UNL     1      -6.852  10.916  69.527  1.00  0.00    -0.125 C  
HETATM   18  N   UNL     1      -6.973  10.858  67.029  1.00  0.00    -0.097 NA 
HETATM   19  C   UNL     1      -7.697   9.562  67.095  1.00  0.00    -0.091 C  
HETATM   20  C   UNL     1      -6.075  10.959  68.200  1.00  0.00    -0.049 C  
HETATM   21  C   UNL     1      -8.820  11.876  68.371  1.00  0.00    -0.159 C  
ENDBRANCH  13  14
ENDBRANCH   2  13
BRANCH   6  22
HETATM   22  C   UNL     1     -11.578   8.554  71.100  1.00  0.00    -0.325 A  
HETATM   23  C   UNL     1     -12.546   7.697  71.652  1.00  0.00    -0.365 A  
HETATM   24  C   UNL     1     -13.792   8.185  72.058  1.00  0.00    -0.377 A  
HETATM   25  C   UNL     1     -14.088   9.539  71.933  1.00  0.00    -0.150 A  
HETATM   26  C   UNL     1     -13.142  10.407  71.397  1.00  0.00    -0.512 A  
HETATM   27  C   UNL     1     -11.902   9.917  70.977  1.00  0.00    -0.463 A  
ENDBRANCH   6  22
TORSDOF 3
ENDMDL
MODEL       69
REMARK 921   NORMALIZED FREE ENERGY PREDICTED BY IDOCK:   -4.90 KCAL/MOL
REMARK 922        TOTAL FREE ENERGY PREDICTED BY IDOCK:   -6.73 KCAL/MOL
REMARK 923 INTER-LIGAND FREE ENERGY PREDICTED BY IDOCK:   -6.00 KCAL/MOL
REMARK 924 INTRA-LIGAND FREE ENERGY PREDICTED BY IDOCK:   -0.73 KCAL/MOL
REMARK 927      BINDING AFFINITY PREDICTED BY RF-SCORE:    0.00 PKD
ROOT
HETATM    1  O   UNL     1     -10.476  15.465  65.496  1.00  0.00    -0.322 OA 
HETATM    2  C   UNL     1     -10.259  15.040  66.626  1.00  0.00    -0.268 C  
HETATM    3  C   UNL     1     -10.362   9.121  68.664  1.00  0.00    -0.233 A  
HETATM    4  N   UNL     1     -10.895  13.947  67.176  1.00  0.00    -0.282 N  
HETATM    5  C   UNL     1     -11.931  13.268  66.412  1.00  0.00    -0.410 C  
HETATM    6  C   UNL     1     -10.597  13.436  68.516  1.00  0.00    -0.253 C  
HETATM    7  C   UNL     1     -10.502  11.914  68.526  1.00  0.00    -0.240 A  
HETATM    8  C   UNL     1     -11.653  11.775  66.266  1.00  0.00    -0.223 C  
HETATM    9  C   UNL     1      -9.860  11.277  69.605  1.00  0.00     0.531 A  
HETATM   10  C   UNL     1     -11.063  11.133  67.498  1.00  0.00    -0.353 A  
HETATM   11  C   UNL     1      -9.786   9.891  69.668  1.00  0.00    -0.255 A  
HETATM   12  C   UNL     1     -10.992   9.738  67.581  1.00  0.00    -0.226 A  
ENDROOT
BRANCH   2  13
HETATM   13  O   UNL     1      -9.374  15.623  67.484  1.00  0.00    -0.204 OA 
BRANCH  13  14
HETATM   14  C   UNL     1      -8.035  15.110  67.403  1.00  0.00    -0.190 C  
HETATM   15  C   UNL     1      -6.648  16.420  69.628  1.00  0.00    -0.180 C  
HETATM   16  C   UNL     1      -7.701  14.339  68.696  1.00  0.00    -0.135 C  
HETATM   17  C   UNL     1      -6.275  13.789  68.541  1.00  0.00    -0.092 C  
HETATM   18  N   UNL     1      -5.988  16.263  68.313  1.00  0.00    -0.105 NA 
HETATM   19  C   UNL     1      -7.037  16.288  67.260  1.00  0.00    -0.190 C  
HETATM   20  C   UNL     1      -5.305  14.952  68.272  1.00  0.00    -0.112 C  
HETATM   21  C   UNL     1      -7.688  15.317  69.883  1.00  0.00     0.030 C  
ENDBRANCH  13  14
ENDBRANCH   2  13
BRANCH   6  22
HETATM   22  C   UNL     1     -11.556  13.959  69.592  1.00  0.00    -0.347 A  
HETATM   23  C   UNL     1     -11.560  15.326  69.919  1.00  0.00    -0.335 A  
HETATM   24  C   UNL     1     -12.363  15.816  70.954  1.00  0.00    -0.451 A  
HETATM   25  C   UNL     1     -13.187  14.952  71.670  1.00  0.00    -0.444 A  
HETATM   26  C   UNL     1     -13.204  13.596  71.357  1.00  0.00    -0.358 A  
HETATM   27  C   UNL     1     -12.391  13.104  70.334  1.00  0.00    -0.351 A  
ENDBRANCH   6  22
TORSDOF 3
ENDMDL
MODEL       70
REMARK 921   NORMALIZED FREE ENERGY PREDICTED BY IDOCK:   -4.90 KCAL/MOL
REMARK 922        TOTAL FREE ENERGY PREDICTED BY IDOCK:   -6.73 KCAL/MOL
REMARK 923 INTER-LIGAND FREE ENERGY PREDICTED BY IDOCK:   -5.31 KCAL/MOL
REMARK 924 INTRA-LIGAND FREE ENERGY PREDICTED BY IDOCK:   -1.42 KCAL/MOL
REMARK 927      BINDING AFFINITY PREDICTED BY RF-SCORE:    0.00 PKD
ROOT
HETATM    1  O   UNL     1     -11.515   6.361  68.922  1.00  0.00    -0.314 OA 
HETATM    2  C   UNL     1     -10.775   6.958  68.146  1.00  0.00    -0.205 C  
HETATM    3  C   UNL     1      -5.771  10.487  69.452  1.00  0.00    -0.038 A  
HETATM    4  N   UNL     1     -10.170   8.165  68.430  1.00  0.00    -0.205 N  
HETATM    5  C   UNL     1     -10.450   8.819  69.699  1.00  0.00    -0.220 C  
HETATM    6  C   UNL     1      -9.263   8.844  67.502  1.00  0.00    -0.136 C  
HETATM    7  C   UNL     1      -8.035   9.393  68.220  1.00  0.00    -0.094 A  
HETATM    8  C   UNL     1      -9.175   9.137  70.476  1.00  0.00    -0.286 C  
HETATM    9  C   UNL     1      -6.895   9.729  67.465  1.00  0.00    -0.082 A  
HETATM   10  C   UNL     1      -8.024   9.595  69.613  1.00  0.00    -0.137 A  
HETATM   11  C   UNL     1      -5.770  10.266  68.079  1.00  0.00    -0.041 A  
HETATM   12  C   UNL     1      -6.889  10.148  70.217  1.00  0.00    -0.150 A  
ENDROOT
BRANCH   2  13
HETATM   13  O   UNL     1     -10.486   6.504  66.893  1.00  0.00    -0.234 OA 
BRANCH  13  14
HETATM   14  C   UNL     1      -9.817   5.234  66.856  1.00  0.00    -0.171 C  
HETATM   15  C   UNL     1      -8.323   5.304  64.336  1.00  0.00    -0.137 C  
HETATM   16  C   UNL     1      -8.292   5.457  66.842  1.00  0.00    -0.108 C  
HETATM   17  C   UNL     1      -7.630   4.071  66.834  1.00  0.00    -0.084 C  
HETATM   18  N   UNL     1      -9.030   4.076  64.762  1.00  0.00    -0.129 NA 
HETATM   19  C   UNL     1     -10.216   4.476  65.564  1.00  0.00    -0.231 C  
HETATM   20  C   UNL     1      -8.128   3.274  65.616  1.00  0.00    -0.090 C  
HETATM   21  C   UNL     1      -7.893   6.163  65.535  1.00  0.00    -0.103 C  
ENDBRANCH  13  14
ENDBRANCH   2  13
BRANCH   6  22
HETATM   22  C   UNL     1      -9.957   9.914  66.652  1.00  0.00    -0.277 A  
HETATM   23  C   UNL     1      -9.857   9.867  65.251  1.00  0.00    -0.373 A  
HETATM   24  C   UNL     1     -10.408  10.876  64.454  1.00  0.00    -0.430 A  
HETATM   25  C   UNL     1     -11.082  11.943  65.043  1.00  0.00    -0.360 A  
HETATM   26  C   UNL     1     -11.199  12.006  66.428  1.00  0.00    -0.389 A  
HETATM   27  C   UNL     1     -10.636  11.006  67.224  1.00  0.00    -0.287 A  
ENDBRANCH   6  22
TORSDOF 3
ENDMDL
MODEL       71
REMARK 921   NORMALIZED FREE ENERGY PREDICTED BY IDOCK:   -4.86 KCAL/MOL
REMARK 922        TOTAL FREE ENERGY PREDICTED BY IDOCK:   -6.68 KCAL/MOL
REMARK 923 INTER-LIGAND FREE ENERGY PREDICTED BY IDOCK:   -5.33 KCAL/MOL
REMARK 924 INTRA-LIGAND FREE ENERGY PREDICTED BY IDOCK:   -1.34 KCAL/MOL
REMARK 927      BINDING AFFINITY PREDICTED BY RF-SCORE:    0.00 PKD
ROOT
HETATM    1  O   UNL     1     -10.244  11.654  64.720  1.00  0.00    -0.250 OA 
HETATM    2  C   UNL     1      -9.697  12.154  65.697  1.00  0.00    -0.207 C  
HETATM    3  C   UNL     1     -12.249  15.539  70.304  1.00  0.00    -0.432 A  
HETATM    4  N   UNL     1     -10.078  13.349  66.269  1.00  0.00    -0.293 N  
HETATM    5  C   UNL     1     -11.159  14.114  65.665  1.00  0.00    -0.307 C  
HETATM    6  C   UNL     1      -9.431  13.912  67.457  1.00  0.00    -0.216 C  
HETATM    7  C   UNL     1     -10.455  14.458  68.447  1.00  0.00    -0.246 A  
HETATM    8  C   UNL     1     -12.267  14.432  66.666  1.00  0.00    -0.340 C  
HETATM    9  C   UNL     1     -10.064  14.681  69.780  1.00  0.00     0.148 A  
HETATM   10  C   UNL     1     -11.770  14.767  68.051  1.00  0.00    -0.360 A  
HETATM   11  C   UNL     1     -10.958  15.212  70.702  1.00  0.00    -0.260 A  
HETATM   12  C   UNL     1     -12.656  15.313  68.987  1.00  0.00     0.243 A  
ENDROOT
BRANCH   2  13
HETATM   13  O   UNL     1      -8.621  11.590  66.318  1.00  0.00    -0.180 OA 
BRANCH  13  14
HETATM   14  C   UNL     1      -8.775  10.199  66.636  1.00  0.00    -0.126 C  
HETATM   15  C   UNL     1      -7.956  10.028  69.445  1.00  0.00    -0.145 C  
HETATM   16  C   UNL     1      -9.818  10.040  67.760  1.00  0.00    -0.185 C  
HETATM   17  C   UNL     1      -9.964   8.536  68.036  1.00  0.00    -0.221 C  
HETATM   18  N   UNL     1      -7.544   8.992  68.473  1.00  0.00    -0.092 NA 
HETATM   19  C   UNL     1      -7.422   9.629  67.136  1.00  0.00    -0.088 C  
HETATM   20  C   UNL     1      -8.592   7.950  68.409  1.00  0.00    -0.128 C  
HETATM   21  C   UNL     1      -9.283  10.692  69.046  1.00  0.00    -0.177 C  
ENDBRANCH  13  14
ENDBRANCH   2  13
BRANCH   6  22
HETATM   22  C   UNL     1      -8.346  14.943  67.125  1.00  0.00    -0.247 A  
HETATM   23  C   UNL     1      -7.065  14.817  67.690  1.00  0.00    -0.206 A  
HETATM   24  C   UNL     1      -6.083  15.788  67.472  1.00  0.00    -0.162 A  
HETATM   25  C   UNL     1      -6.358  16.895  66.674  1.00  0.00    -0.214 A  
HETATM   26  C   UNL     1      -7.617  17.036  66.099  1.00  0.00    -0.280 A  
HETATM   27  C   UNL     1      -8.603  16.074  66.328  1.00  0.00    -0.363 A  
ENDBRANCH   6  22
TORSDOF 3
ENDMDL
MODEL       72
REMARK 921   NORMALIZED FREE ENERGY PREDICTED BY IDOCK:   -4.83 KCAL/MOL
REMARK 922        TOTAL FREE ENERGY PREDICTED BY IDOCK:   -6.64 KCAL/MOL
REMARK 923 INTER-LIGAND FREE ENERGY PREDICTED BY IDOCK:   -5.15 KCAL/MOL
REMARK 924 INTRA-LIGAND FREE ENERGY PREDICTED BY IDOCK:   -1.49 KCAL/MOL
REMARK 927      BINDING AFFINITY PREDICTED BY RF-SCORE:    0.00 PKD
ROOT
HETATM    1  O   UNL     1      -6.871   6.270  70.893  1.00  0.00    -0.059 OA 
HETATM    2  C   UNL     1      -7.937   6.469  70.318  1.00  0.00    -0.115 C  
HETATM    3  C   UNL     1      -9.559  11.261  66.631  1.00  0.00    -0.218 A  
HETATM    4  N   UNL     1      -8.479   7.719  70.106  1.00  0.00    -0.132 N  
HETATM    5  C   UNL     1      -7.793   8.890  70.630  1.00  0.00    -0.115 C  
HETATM    6  C   UNL     1      -9.737   7.935  69.388  1.00  0.00    -0.170 C  
HETATM    7  C   UNL     1      -9.631   9.102  68.411  1.00  0.00    -0.162 A  
HETATM    8  C   UNL     1      -7.513   9.927  69.546  1.00  0.00    -0.112 C  
HETATM    9  C   UNL     1     -10.583   9.218  67.380  1.00  0.00    -0.324 A  
HETATM   10  C   UNL     1      -8.623  10.076  68.534  1.00  0.00    -0.119 A  
HETATM   11  C   UNL     1     -10.541  10.288  66.494  1.00  0.00    -0.202 A  
HETATM   12  C   UNL     1      -8.600  11.154  67.641  1.00  0.00    -0.126 A  
ENDROOT
BRANCH   2  13
HETATM   13  O   UNL     1      -8.726   5.463  69.845  1.00  0.00    -0.117 OA 
BRANCH  13  14
HETATM   14  C   UNL     1      -8.057   4.534  68.978  1.00  0.00    -0.073 C  
HETATM   15  C   UNL     1      -9.850   4.314  66.670  1.00  0.00    -0.214 C  
HETATM   16  C   UNL     1      -7.722   5.227  67.642  1.00  0.00    -0.092 C  
HETATM   17  C   UNL     1      -6.982   4.201  66.771  1.00  0.00    -0.059 C  
HETATM   18  N   UNL     1      -9.188   3.115  67.231  1.00  0.00    -0.182 NA 
HETATM   19  C   UNL     1      -8.990   3.330  68.688  1.00  0.00    -0.132 C  
HETATM   20  C   UNL     1      -7.864   2.953  66.592  1.00  0.00    -0.076 C  
HETATM   21  C   UNL     1      -9.028   5.589  66.915  1.00  0.00    -0.111 C  
ENDBRANCH  13  14
ENDBRANCH   2  13
BRANCH   6  22
HETATM   22  C   UNL     1     -10.949   8.072  70.316  1.00  0.00    -0.242 A  
HETATM   23  C   UNL     1     -11.728   6.942  70.621  1.00  0.00    -0.417 A  
HETATM   24  C   UNL     1     -12.886   7.052  71.396  1.00  0.00    -0.407 A  
HETATM   25  C   UNL     1     -13.280   8.291  71.894  1.00  0.00    -0.366 A  
HETATM   26  C   UNL     1     -12.520   9.422  71.612  1.00  0.00    -0.460 A  
HETATM   27  C   UNL     1     -11.371   9.314  70.825  1.00  0.00    -0.349 A  
ENDBRANCH   6  22
TORSDOF 3
ENDMDL
MODEL       73
REMARK 921   NORMALIZED FREE ENERGY PREDICTED BY IDOCK:   -4.80 KCAL/MOL
REMARK 922        TOTAL FREE ENERGY PREDICTED BY IDOCK:   -6.62 KCAL/MOL
REMARK 923 INTER-LIGAND FREE ENERGY PREDICTED BY IDOCK:   -5.68 KCAL/MOL
REMARK 924 INTRA-LIGAND FREE ENERGY PREDICTED BY IDOCK:   -0.94 KCAL/MOL
REMARK 927      BINDING AFFINITY PREDICTED BY RF-SCORE:    0.00 PKD
ROOT
HETATM    1  O   UNL     1      -8.697   6.188  68.327  1.00  0.00    -0.115 OA 
HETATM    2  C   UNL     1      -8.979   7.377  68.431  1.00  0.00    -0.134 C  
HETATM    3  C   UNL     1     -10.320  11.487  63.903  1.00  0.00    -0.422 A  
HETATM    4  N   UNL     1      -8.625   8.339  67.508  1.00  0.00    -0.129 N  
HETATM    5  C   UNL     1      -7.820   7.957  66.357  1.00  0.00    -0.097 C  
HETATM    6  C   UNL     1      -9.000   9.749  67.635  1.00  0.00    -0.128 C  
HETATM    7  C   UNL     1      -9.479  10.323  66.306  1.00  0.00    -0.223 A  
HETATM    8  C   UNL     1      -8.474   8.363  65.039  1.00  0.00    -0.160 C  
HETATM    9  C   UNL     1     -10.227  11.515  66.306  1.00  0.00    -0.268 A  
HETATM   10  C   UNL     1      -9.168   9.703  65.081  1.00  0.00    -0.305 A  
HETATM   11  C   UNL     1     -10.649  12.088  65.113  1.00  0.00    -0.330 A  
HETATM   12  C   UNL     1      -9.589  10.298  63.885  1.00  0.00    -0.354 A  
ENDROOT
BRANCH   2  13
HETATM   13  O   UNL     1      -9.659   7.891  69.495  1.00  0.00    -0.160 OA 
BRANCH  13  14
HETATM   14  C   UNL     1      -9.514   7.147  70.714  1.00  0.00    -0.164 C  
HETATM   15  C   UNL     1     -11.695   8.136  72.403  1.00  0.00    -0.399 C  
HETATM   16  C   UNL     1     -10.781   6.301  70.954  1.00  0.00    -0.314 C  
HETATM   17  C   UNL     1     -10.558   5.505  72.248  1.00  0.00    -0.276 C  
HETATM   18  N   UNL     1     -10.351   7.891  72.971  1.00  0.00    -0.338 NA 
HETATM   19  C   UNL     1      -9.344   8.127  71.904  1.00  0.00    -0.190 C  
HETATM   20  C   UNL     1     -10.263   6.479  73.402  1.00  0.00    -0.239 C  
HETATM   21  C   UNL     1     -11.979   7.235  71.191  1.00  0.00    -0.363 C  
ENDBRANCH  13  14
ENDBRANCH   2  13
BRANCH   6  22
HETATM   22  C   UNL     1      -7.906  10.613  68.273  1.00  0.00    -0.113 A  
HETATM   23  C   UNL     1      -7.134  11.469  67.469  1.00  0.00    -0.106 A  
HETATM   24  C   UNL     1      -6.075  12.204  68.010  1.00  0.00    -0.062 A  
HETATM   25  C   UNL     1      -5.778  12.109  69.367  1.00  0.00    -0.083 A  
HETATM   26  C   UNL     1      -6.535  11.274  70.183  1.00  0.00    -0.071 A  
HETATM   27  C   UNL     1      -7.583  10.528  69.640  1.00  0.00    -0.134 A  
ENDBRANCH   6  22
TORSDOF 3
ENDMDL
MODEL       74
REMARK 921   NORMALIZED FREE ENERGY PREDICTED BY IDOCK:   -4.80 KCAL/MOL
REMARK 922        TOTAL FREE ENERGY PREDICTED BY IDOCK:   -6.61 KCAL/MOL
REMARK 923 INTER-LIGAND FREE ENERGY PREDICTED BY IDOCK:   -5.29 KCAL/MOL
REMARK 924 INTRA-LIGAND FREE ENERGY PREDICTED BY IDOCK:   -1.32 KCAL/MOL
REMARK 927      BINDING AFFINITY PREDICTED BY RF-SCORE:    0.00 PKD
ROOT
HETATM    1  O   UNL     1     -11.108   6.354  67.783  1.00  0.00    -0.328 OA 
HETATM    2  C   UNL     1     -10.724   7.335  68.412  1.00  0.00    -0.121 C  
HETATM    3  C   UNL     1      -9.885  13.200  66.388  1.00  0.00    -0.279 A  
HETATM    4  N   UNL     1      -9.953   8.344  67.875  1.00  0.00    -0.174 N  
HETATM    5  C   UNL     1      -9.509   8.242  66.493  1.00  0.00    -0.220 C  
HETATM    6  C   UNL     1      -9.532   9.523  68.636  1.00  0.00    -0.142 C  
HETATM    7  C   UNL     1      -9.689  10.802  67.820  1.00  0.00    -0.179 A  
HETATM    8  C   UNL     1      -9.901   9.465  65.670  1.00  0.00    -0.294 C  
HETATM    9  C   UNL     1      -9.704  12.041  68.488  1.00  0.00    -0.165 A  
HETATM   10  C   UNL     1      -9.792  10.772  66.416  1.00  0.00    -0.254 A  
HETATM   11  C   UNL     1      -9.808  13.230  67.776  1.00  0.00    -0.224 A  
HETATM   12  C   UNL     1      -9.883  11.978  65.711  1.00  0.00    -0.263 A  
ENDROOT
BRANCH   2  13
HETATM   13  O   UNL     1     -10.995   7.524  69.735  1.00  0.00    -0.244 OA 
BRANCH  13  14
HETATM   14  C   UNL     1     -11.010   6.322  70.521  1.00  0.00    -0.312 C  
HETATM   15  C   UNL     1      -9.336   6.979  72.835  1.00  0.00    -0.140 C  
HETATM   16  C   UNL     1     -11.638   6.616  71.898  1.00  0.00    -0.344 C  
HETATM   17  C   UNL     1     -11.657   5.295  72.680  1.00  0.00    -0.226 C  
HETATM   18  N   UNL     1      -9.233   5.657  72.178  1.00  0.00    -0.146 NA 
HETATM   19  C   UNL     1      -9.557   5.827  70.737  1.00  0.00    -0.171 C  
HETATM   20  C   UNL     1     -10.224   4.741  72.782  1.00  0.00    -0.182 C  
HETATM   21  C   UNL     1     -10.735   7.593  72.670  1.00  0.00    -0.377 C  
ENDBRANCH  13  14
ENDBRANCH   2  13
BRANCH   6  22
HETATM   22  C   UNL     1      -8.126   9.390  69.231  1.00  0.00    -0.105 A  
HETATM   23  C   UNL     1      -7.964   9.261  70.621  1.00  0.00    -0.189 A  
HETATM   24  C   UNL     1      -6.692   9.223  71.199  1.00  0.00    -0.074 A  
HETATM   25  C   UNL     1      -5.556   9.298  70.396  1.00  0.00    -0.035 A  
HETATM   26  C   UNL     1      -5.693   9.418  69.017  1.00  0.00    -0.036 A  
HETATM   27  C   UNL     1      -6.965   9.471  68.441  1.00  0.00    -0.066 A  
ENDBRANCH   6  22
TORSDOF 3
ENDMDL
MODEL       75
REMARK 921   NORMALIZED FREE ENERGY PREDICTED BY IDOCK:   -4.79 KCAL/MOL
REMARK 922        TOTAL FREE ENERGY PREDICTED BY IDOCK:   -6.60 KCAL/MOL
REMARK 923 INTER-LIGAND FREE ENERGY PREDICTED BY IDOCK:   -5.23 KCAL/MOL
REMARK 924 INTRA-LIGAND FREE ENERGY PREDICTED BY IDOCK:   -1.37 KCAL/MOL
REMARK 927      BINDING AFFINITY PREDICTED BY RF-SCORE:    0.00 PKD
ROOT
HETATM    1  O   UNL     1     -11.483   9.951  69.913  1.00  0.00    -0.236 OA 
HETATM    2  C   UNL     1     -10.770   8.966  69.752  1.00  0.00    -0.225 C  
HETATM    3  C   UNL     1     -10.638   3.649  73.056  1.00  0.00    -0.252 A  
HETATM    4  N   UNL     1     -10.298   8.176  70.780  1.00  0.00    -0.195 N  
HETATM    5  C   UNL     1     -10.606   8.540  72.155  1.00  0.00    -0.349 C  
HETATM    6  C   UNL     1      -9.474   6.985  70.563  1.00  0.00    -0.166 C  
HETATM    7  C   UNL     1      -9.925   5.824  71.443  1.00  0.00    -0.234 A  
HETATM    8  C   UNL     1     -11.268   7.397  72.918  1.00  0.00    -0.368 C  
HETATM    9  C   UNL     1      -9.521   4.517  71.111  1.00  0.00    -0.226 A  
HETATM   10  C   UNL     1     -10.712   6.033  72.591  1.00  0.00    -0.266 A  
HETATM   11  C   UNL     1      -9.880   3.439  71.910  1.00  0.00    -0.238 A  
HETATM   12  C   UNL     1     -11.057   4.938  73.394  1.00  0.00    -0.415 A  
ENDROOT
BRANCH   2  13
HETATM   13  O   UNL     1     -10.336   8.552  68.527  1.00  0.00    -0.203 OA 
BRANCH  13  14
HETATM   14  C   UNL     1     -10.122   9.610  67.580  1.00  0.00    -0.197 C  
HETATM   15  C   UNL     1      -7.606   8.877  66.268  1.00  0.00    -0.095 C  
HETATM   16  C   UNL     1     -10.110   9.028  66.152  1.00  0.00    -0.242 C  
HETATM   17  C   UNL     1      -9.910  10.203  65.183  1.00  0.00    -0.394 C  
HETATM   18  N   UNL     1      -7.881  10.281  66.644  1.00  0.00    -0.113 NA 
HETATM   19  C   UNL     1      -8.750  10.279  67.850  1.00  0.00    -0.122 C  
HETATM   20  C   UNL     1      -8.608  10.941  65.538  1.00  0.00    -0.145 C  
HETATM   21  C   UNL     1      -8.899   8.093  65.994  1.00  0.00    -0.206 C  
ENDBRANCH  13  14
ENDBRANCH   2  13
BRANCH   6  22
HETATM   22  C   UNL     1      -7.971   7.255  70.694  1.00  0.00    -0.099 A  
HETATM   23  C   UNL     1      -7.179   7.376  69.539  1.00  0.00    -0.082 A  
HETATM   24  C   UNL     1      -5.794   7.538  69.629  1.00  0.00    -0.023 A  
HETATM   25  C   UNL     1      -5.175   7.597  70.875  1.00  0.00    -0.026 A  
HETATM   26  C   UNL     1      -5.941   7.488  72.032  1.00  0.00    -0.036 A  
HETATM   27  C   UNL     1      -7.323   7.311  71.941  1.00  0.00    -0.080 A  
ENDBRANCH   6  22
TORSDOF 3
ENDMDL
MODEL       76
REMARK 921   NORMALIZED FREE ENERGY PREDICTED BY IDOCK:   -4.74 KCAL/MOL
REMARK 922        TOTAL FREE ENERGY PREDICTED BY IDOCK:   -6.54 KCAL/MOL
REMARK 923 INTER-LIGAND FREE ENERGY PREDICTED BY IDOCK:   -6.36 KCAL/MOL
REMARK 924 INTRA-LIGAND FREE ENERGY PREDICTED BY IDOCK:   -0.17 KCAL/MOL
REMARK 927      BINDING AFFINITY PREDICTED BY RF-SCORE:    0.00 PKD
ROOT
HETATM    1  O   UNL     1     -12.164  10.260  70.564  1.00  0.00    -0.286 OA 
HETATM    2  C   UNL     1     -11.199  10.504  69.848  1.00  0.00    -0.307 C  
HETATM    3  C   UNL     1      -8.851  16.074  68.218  1.00  0.00    -0.182 A  
HETATM    4  N   UNL     1     -11.114  11.599  69.013  1.00  0.00    -0.227 N  
HETATM    5  C   UNL     1     -12.246  12.508  68.915  1.00  0.00     0.043 C  
HETATM    6  C   UNL     1      -9.938  11.889  68.190  1.00  0.00    -0.197 C  
HETATM    7  C   UNL     1      -9.572  13.369  68.239  1.00  0.00    -0.220 A  
HETATM    8  C   UNL     1     -11.850  13.953  69.202  1.00  0.00    -0.401 C  
HETATM    9  C   UNL     1      -8.283  13.768  67.838  1.00  0.00    -0.166 A  
HETATM   10  C   UNL     1     -10.500  14.344  68.650  1.00  0.00    -0.247 A  
HETATM   11  C   UNL     1      -7.925  15.111  67.834  1.00  0.00    -0.143 A  
HETATM   12  C   UNL     1     -10.130  15.694  68.630  1.00  0.00    -0.210 A  
ENDROOT
BRANCH   2  13
HETATM   13  O   UNL     1     -10.101   9.698  69.776  1.00  0.00    -0.203 OA 
BRANCH  13  14
HETATM   14  C   UNL     1     -10.169   8.520  70.594  1.00  0.00    -0.197 C  
HETATM   15  C   UNL     1     -10.905   6.400  68.709  1.00  0.00    -0.317 C  
HETATM   16  C   UNL     1      -9.128   7.494  70.105  1.00  0.00    -0.147 C  
HETATM   17  C   UNL     1      -9.223   6.273  71.032  1.00  0.00    -0.160 C  
HETATM   18  N   UNL     1     -11.518   6.462  70.055  1.00  0.00    -0.430 NA 
HETATM   19  C   UNL     1     -11.579   7.886  70.474  1.00  0.00    -0.144 C  
HETATM   20  C   UNL     1     -10.660   5.724  71.007  1.00  0.00    -0.253 C  
HETATM   21  C   UNL     1      -9.501   7.025  68.689  1.00  0.00    -0.135 C  
ENDBRANCH  13  14
ENDBRANCH   2  13
BRANCH   6  22
HETATM   22  C   UNL     1     -10.063  11.377  66.751  1.00  0.00    -0.250 A  
HETATM   23  C   UNL     1      -9.402  10.197  66.369  1.00  0.00    -0.209 A  
HETATM   24  C   UNL     1      -9.429   9.752  65.044  1.00  0.00    -0.337 A  
HETATM   25  C   UNL     1     -10.131  10.469  64.079  1.00  0.00    -0.321 A  
HETATM   26  C   UNL     1     -10.800  11.635  64.436  1.00  0.00    -0.399 A  
HETATM   27  C   UNL     1     -10.760  12.088  65.757  1.00  0.00    -0.319 A  
ENDBRANCH   6  22
TORSDOF 3
ENDMDL
MODEL       77
REMARK 921   NORMALIZED FREE ENERGY PREDICTED BY IDOCK:   -4.73 KCAL/MOL
REMARK 922        TOTAL FREE ENERGY PREDICTED BY IDOCK:   -6.52 KCAL/MOL
REMARK 923 INTER-LIGAND FREE ENERGY PREDICTED BY IDOCK:   -5.24 KCAL/MOL
REMARK 924 INTRA-LIGAND FREE ENERGY PREDICTED BY IDOCK:   -1.28 KCAL/MOL
REMARK 927      BINDING AFFINITY PREDICTED BY RF-SCORE:    0.00 PKD
ROOT
HETATM    1  O   UNL     1      -7.903   7.680  68.883  1.00  0.00    -0.117 OA 
HETATM    2  C   UNL     1      -8.846   7.023  69.310  1.00  0.00    -0.139 C  
HETATM    3  C   UNL     1     -14.056   9.038  72.136  1.00  0.00    -0.461 A  
HETATM    4  N   UNL     1      -9.578   7.359  70.429  1.00  0.00    -0.166 N  
HETATM    5  C   UNL     1      -9.198   8.532  71.202  1.00  0.00    -0.197 C  
HETATM    6  C   UNL     1     -10.722   6.576  70.904  1.00  0.00    -0.242 C  
HETATM    7  C   UNL     1     -11.885   7.475  71.310  1.00  0.00    -0.319 A  
HETATM    8  C   UNL     1     -10.359   9.506  71.379  1.00  0.00    -0.216 C  
HETATM    9  C   UNL     1     -13.173   6.918  71.422  1.00  0.00    -0.287 A  
HETATM   10  C   UNL     1     -11.695   8.840  71.601  1.00  0.00    -0.402 A  
HETATM   11  C   UNL     1     -14.250   7.697  71.827  1.00  0.00    -0.549 A  
HETATM   12  C   UNL     1     -12.787   9.610  72.019  1.00  0.00    -0.497 A  
ENDROOT
BRANCH   2  13
HETATM   13  O   UNL     1      -9.264   5.858  68.735  1.00  0.00    -0.115 OA 
BRANCH  13  14
HETATM   14  C   UNL     1      -8.207   5.025  68.235  1.00  0.00    -0.089 C  
HETATM   15  C   UNL     1      -9.068   2.311  68.928  1.00  0.00    -0.135 C  
HETATM   16  C   UNL     1      -8.769   4.071  67.162  1.00  0.00    -0.118 C  
HETATM   17  C   UNL     1      -7.594   3.229  66.642  1.00  0.00    -0.076 C  
HETATM   18  N   UNL     1      -7.656   2.721  69.091  1.00  0.00    -0.047 NA 
HETATM   19  C   UNL     1      -7.624   4.176  69.393  1.00  0.00    -0.054 C  
HETATM   20  C   UNL     1      -6.938   2.486  67.819  1.00  0.00    -0.048 C  
HETATM   21  C   UNL     1      -9.771   3.104  67.816  1.00  0.00     0.028 C  
ENDBRANCH  13  14
ENDBRANCH   2  13
BRANCH   6  22
HETATM   22  C   UNL     1     -10.357   5.575  72.005  1.00  0.00    -0.265 A  
HETATM   23  C   UNL     1      -9.915   6.041  73.255  1.00  0.00    -0.189 A  
HETATM   24  C   UNL     1      -9.496   5.152  74.249  1.00  0.00    -0.133 A  
HETATM   25  C   UNL     1      -9.525   3.779  74.018  1.00  0.00    -0.115 A  
HETATM   26  C   UNL     1      -9.967   3.295  72.791  1.00  0.00    -0.215 A  
HETATM   27  C   UNL     1     -10.372   4.185  71.792  1.00  0.00    -0.082 A  
ENDBRANCH   6  22
TORSDOF 3
ENDMDL
MODEL       78
REMARK 921   NORMALIZED FREE ENERGY PREDICTED BY IDOCK:   -4.72 KCAL/MOL
REMARK 922        TOTAL FREE ENERGY PREDICTED BY IDOCK:   -6.52 KCAL/MOL
REMARK 923 INTER-LIGAND FREE ENERGY PREDICTED BY IDOCK:   -5.15 KCAL/MOL
REMARK 924 INTRA-LIGAND FREE ENERGY PREDICTED BY IDOCK:   -1.38 KCAL/MOL
REMARK 927      BINDING AFFINITY PREDICTED BY RF-SCORE:    0.00 PKD
ROOT
HETATM    1  O   UNL     1      -7.456   4.756  70.050  1.00  0.00    -0.053 OA 
HETATM    2  C   UNL     1      -8.395   5.062  69.323  1.00  0.00    -0.082 C  
HETATM    3  C   UNL     1      -9.739   2.959  63.581  1.00  0.00    -0.128 A  
HETATM    4  N   UNL     1      -8.316   5.127  67.947  1.00  0.00    -0.098 N  
HETATM    5  C   UNL     1      -7.041   4.874  67.294  1.00  0.00    -0.066 C  
HETATM    6  C   UNL     1      -9.459   5.464  67.095  1.00  0.00    -0.124 C  
HETATM    7  C   UNL     1      -9.538   4.548  65.877  1.00  0.00    -0.191 A  
HETATM    8  C   UNL     1      -7.144   3.778  66.237  1.00  0.00    -0.063 C  
HETATM    9  C   UNL     1     -10.749   4.462  65.164  1.00  0.00    -0.144 A  
HETATM   10  C   UNL     1      -8.423   3.811  65.436  1.00  0.00    -0.109 A  
HETATM   11  C   UNL     1     -10.848   3.668  64.028  1.00  0.00    -0.185 A  
HETATM   12  C   UNL     1      -8.534   3.024  64.284  1.00  0.00    -0.089 A  
ENDROOT
BRANCH   2  13
HETATM   13  O   UNL     1      -9.626   5.403  69.799  1.00  0.00    -0.148 OA 
BRANCH  13  14
HETATM   14  C   UNL     1      -9.610   6.102  71.053  1.00  0.00    -0.175 C  
HETATM   15  C   UNL     1     -11.559   8.259  70.676  1.00  0.00    -0.191 C  
HETATM   16  C   UNL     1     -11.008   6.032  71.698  1.00  0.00    -0.328 C  
HETATM   17  C   UNL     1     -10.925   6.766  73.045  1.00  0.00    -0.293 C  
HETATM   18  N   UNL     1     -10.278   8.510  71.373  1.00  0.00    -0.215 NA 
HETATM   19  C   UNL     1      -9.254   7.592  70.811  1.00  0.00    -0.158 C  
HETATM   20  C   UNL     1     -10.447   8.209  72.811  1.00  0.00    -0.315 C  
HETATM   21  C   UNL     1     -12.013   6.798  70.821  1.00  0.00    -0.433 C  
ENDBRANCH  13  14
ENDBRANCH   2  13
BRANCH   6  22
HETATM   22  C   UNL     1      -9.509   6.945  66.704  1.00  0.00    -0.209 A  
HETATM   23  C   UNL     1     -10.486   7.784  67.267  1.00  0.00    -0.392 A  
HETATM   24  C   UNL     1     -10.608   9.118  66.866  1.00  0.00    -0.237 A  
HETATM   25  C   UNL     1      -9.747   9.642  65.906  1.00  0.00    -0.343 A  
HETATM   26  C   UNL     1      -8.767   8.831  65.341  1.00  0.00    -0.217 A  
HETATM   27  C   UNL     1      -8.655   7.495  65.731  1.00  0.00    -0.158 A  
ENDBRANCH   6  22
TORSDOF 3
ENDMDL
MODEL       79
REMARK 921   NORMALIZED FREE ENERGY PREDICTED BY IDOCK:   -4.70 KCAL/MOL
REMARK 922        TOTAL FREE ENERGY PREDICTED BY IDOCK:   -6.50 KCAL/MOL
REMARK 923 INTER-LIGAND FREE ENERGY PREDICTED BY IDOCK:   -5.39 KCAL/MOL
REMARK 924 INTRA-LIGAND FREE ENERGY PREDICTED BY IDOCK:   -1.11 KCAL/MOL
REMARK 927      BINDING AFFINITY PREDICTED BY RF-SCORE:    0.00 PKD
ROOT
HETATM    1  O   UNL     1      -7.411  13.376  68.874  1.00  0.00    -0.095 OA 
HETATM    2  C   UNL     1      -8.277  12.597  68.492  1.00  0.00    -0.074 C  
HETATM    3  C   UNL     1      -9.842   7.018  70.866  1.00  0.00    -0.190 A  
HETATM    4  N   UNL     1      -8.166  11.223  68.564  1.00  0.00    -0.145 N  
HETATM    5  C   UNL     1      -6.937  10.635  69.072  1.00  0.00    -0.080 C  
HETATM    6  C   UNL     1      -9.227  10.310  68.130  1.00  0.00    -0.136 C  
HETATM    7  C   UNL     1      -9.429   9.175  69.128  1.00  0.00    -0.156 A  
HETATM    8  C   UNL     1      -7.194   9.673  70.228  1.00  0.00    -0.137 C  
HETATM    9  C   UNL     1     -10.626   8.435  69.087  1.00  0.00    -0.177 A  
HETATM   10  C   UNL     1      -8.438   8.834  70.067  1.00  0.00    -0.133 A  
HETATM   11  C   UNL     1     -10.831   7.368  69.954  1.00  0.00    -0.259 A  
HETATM   12  C   UNL     1      -8.653   7.750  70.927  1.00  0.00    -0.128 A  
ENDROOT
BRANCH   2  13
HETATM   13  O   UNL     1      -9.447  13.003  67.921  1.00  0.00    -0.203 OA 
BRANCH  13  14
HETATM   14  C   UNL     1      -9.477  14.387  67.540  1.00  0.00    -0.207 C  
HETATM   15  C   UNL     1     -11.841  14.589  65.820  1.00  0.00    -0.327 C  
HETATM   16  C   UNL     1     -10.780  15.033  68.052  1.00  0.00    -0.262 C  
HETATM   17  C   UNL     1     -10.744  16.514  67.645  1.00  0.00    -0.311 C  
HETATM   18  N   UNL     1     -10.588  15.292  65.468  1.00  0.00    -0.344 NA 
HETATM   19  C   UNL     1      -9.446  14.501  65.994  1.00  0.00    -0.229 C  
HETATM   20  C   UNL     1     -10.584  16.620  66.119  1.00  0.00    -0.215 C  
HETATM   21  C   UNL     1     -11.981  14.391  67.337  1.00  0.00    -0.407 C  
ENDBRANCH  13  14
ENDBRANCH   2  13
BRANCH   6  22
HETATM   22  C   UNL     1      -9.034   9.792  66.701  1.00  0.00    -0.161 A  
HETATM   23  C   UNL     1      -8.178   8.704  66.461  1.00  0.00    -0.107 A  
HETATM   24  C   UNL     1      -7.918   8.265  65.160  1.00  0.00    -0.128 A  
HETATM   25  C   UNL     1      -8.521   8.894  64.074  1.00  0.00    -0.146 A  
HETATM   26  C   UNL     1      -9.379   9.968  64.289  1.00  0.00    -0.345 A  
HETATM   27  C   UNL     1      -9.627  10.417  65.588  1.00  0.00    -0.281 A  
ENDBRANCH   6  22
TORSDOF 3
ENDMDL
MODEL       80
REMARK 921   NORMALIZED FREE ENERGY PREDICTED BY IDOCK:   -4.69 KCAL/MOL
REMARK 922        TOTAL FREE ENERGY PREDICTED BY IDOCK:   -6.48 KCAL/MOL
REMARK 923 INTER-LIGAND FREE ENERGY PREDICTED BY IDOCK:   -6.14 KCAL/MOL
REMARK 924 INTRA-LIGAND FREE ENERGY PREDICTED BY IDOCK:   -0.34 KCAL/MOL
REMARK 927      BINDING AFFINITY PREDICTED BY RF-SCORE:    0.00 PKD
ROOT
HETATM    1  O   UNL     1     -11.338   8.891  69.832  1.00  0.00    -0.138 OA 
HETATM    2  C   UNL     1     -10.727   9.696  69.137  1.00  0.00    -0.217 C  
HETATM    3  C   UNL     1     -10.436  15.925  69.702  1.00  0.00    -0.295 A  
HETATM    4  N   UNL     1     -11.173  10.972  68.858  1.00  0.00    -0.240 N  
HETATM    5  C   UNL     1     -12.469  11.398  69.364  1.00  0.00     0.024 C  
HETATM    6  C   UNL     1     -10.411  11.928  68.052  1.00  0.00    -0.208 C  
HETATM    7  C   UNL     1     -10.425  13.320  68.673  1.00  0.00    -0.242 A  
HETATM    8  C   UNL     1     -12.374  12.687  70.176  1.00  0.00    -0.222 C  
HETATM    9  C   UNL     1      -9.459  14.260  68.267  1.00  0.00    -0.209 A  
HETATM   10  C   UNL     1     -11.396  13.694  69.622  1.00  0.00    -0.226 A  
HETATM   11  C   UNL     1      -9.462  15.550  68.783  1.00  0.00    -0.210 A  
HETATM   12  C   UNL     1     -11.394  15.001  70.125  1.00  0.00    -0.303 A  
ENDROOT
BRANCH   2  13
HETATM   13  O   UNL     1      -9.540   9.407  68.531  1.00  0.00    -0.145 OA 
BRANCH  13  14
HETATM   14  C   UNL     1      -8.425   9.286  69.428  1.00  0.00    -0.137 C  
HETATM   15  C   UNL     1      -8.989   6.824  70.916  1.00  0.00    -0.150 C  
HETATM   16  C   UNL     1      -7.662   7.981  69.125  1.00  0.00    -0.099 C  
HETATM   17  C   UNL     1      -6.467   7.919  70.089  1.00  0.00    -0.037 C  
HETATM   18  N   UNL     1      -8.454   8.019  71.606  1.00  0.00    -0.115 NA 
HETATM   19  C   UNL     1      -8.939   9.227  70.889  1.00  0.00    -0.209 C  
HETATM   20  C   UNL     1      -6.976   7.990  71.539  1.00  0.00    -0.060 C  
HETATM   21  C   UNL     1      -8.566   6.777  69.439  1.00  0.00    -0.132 C  
ENDBRANCH  13  14
ENDBRANCH   2  13
BRANCH   6  22
HETATM   22  C   UNL     1     -10.836  11.952  66.579  1.00  0.00    -0.317 A  
HETATM   23  C   UNL     1     -11.993  12.653  66.196  1.00  0.00    -0.458 A  
HETATM   24  C   UNL     1     -12.450  12.622  64.876  1.00  0.00    -0.564 A  
HETATM   25  C   UNL     1     -11.751  11.904  63.909  1.00  0.00    -0.509 A  
HETATM   26  C   UNL     1     -10.599  11.210  64.264  1.00  0.00    -0.425 A  
HETATM   27  C   UNL     1     -10.151  11.228  65.587  1.00  0.00    -0.295 A  
ENDBRANCH   6  22
TORSDOF 3
ENDMDL
MODEL       81
REMARK 921   NORMALIZED FREE ENERGY PREDICTED BY IDOCK:   -4.66 KCAL/MOL
REMARK 922        TOTAL FREE ENERGY PREDICTED BY IDOCK:   -6.45 KCAL/MOL
REMARK 923 INTER-LIGAND FREE ENERGY PREDICTED BY IDOCK:   -5.44 KCAL/MOL
REMARK 924 INTRA-LIGAND FREE ENERGY PREDICTED BY IDOCK:   -1.00 KCAL/MOL
REMARK 927      BINDING AFFINITY PREDICTED BY RF-SCORE:    0.00 PKD
ROOT
HETATM    1  O   UNL     1      -7.513   6.052  69.561  1.00  0.00    -0.083 OA 
HETATM    2  C   UNL     1      -8.001   7.094  69.985  1.00  0.00    -0.118 C  
HETATM    3  C   UNL     1     -13.833   8.141  72.008  1.00  0.00    -0.377 A  
HETATM    4  N   UNL     1      -9.315   7.467  69.790  1.00  0.00    -0.148 N  
HETATM    5  C   UNL     1     -10.185   6.616  68.992  1.00  0.00    -0.177 C  
HETATM    6  C   UNL     1      -9.886   8.701  70.332  1.00  0.00    -0.183 C  
HETATM    7  C   UNL     1     -11.268   8.463  70.932  1.00  0.00    -0.294 A  
HETATM    8  C   UNL     1     -11.454   6.225  69.743  1.00  0.00    -0.449 C  
HETATM    9  C   UNL     1     -11.800   9.414  71.822  1.00  0.00    -0.452 A  
HETATM   10  C   UNL     1     -12.031   7.328  70.596  1.00  0.00    -0.259 A  
HETATM   11  C   UNL     1     -13.071   9.250  72.360  1.00  0.00    -0.481 A  
HETATM   12  C   UNL     1     -13.314   7.182  71.136  1.00  0.00    -0.238 A  
ENDROOT
BRANCH   2  13
HETATM   13  O   UNL     1      -7.285   8.024  70.679  1.00  0.00    -0.051 OA 
BRANCH  13  14
HETATM   14  C   UNL     1      -6.467   7.488  71.730  1.00  0.00    -0.042 C  
HETATM   15  C   UNL     1      -7.782   8.410  74.181  1.00  0.00    -0.171 C  
HETATM   16  C   UNL     1      -7.306   6.524  72.593  1.00  0.00    -0.090 C  
HETATM   17  C   UNL     1      -6.376   5.958  73.677  1.00  0.00    -0.068 C  
HETATM   18  N   UNL     1      -6.308   8.429  74.061  1.00  0.00    -0.122 NA 
HETATM   19  C   UNL     1      -5.959   8.641  72.632  1.00  0.00    -0.080 C  
HETATM   20  C   UNL     1      -5.774   7.118  74.489  1.00  0.00    -0.070 C  
HETATM   21  C   UNL     1      -8.414   7.315  73.308  1.00  0.00    -0.158 C  
ENDBRANCH  13  14
ENDBRANCH   2  13
BRANCH   6  22
HETATM   22  C   UNL     1      -9.889   9.860  69.329  1.00  0.00    -0.217 A  
HETATM   23  C   UNL     1     -11.036  10.116  68.558  1.00  0.00    -0.278 A  
HETATM   24  C   UNL     1     -11.038  11.112  67.577  1.00  0.00    -0.353 A  
HETATM   25  C   UNL     1      -9.898  11.881  67.358  1.00  0.00    -0.192 A  
HETATM   26  C   UNL     1      -8.753  11.651  68.115  1.00  0.00    -0.159 A  
HETATM   27  C   UNL     1      -8.747  10.645  69.085  1.00  0.00    -0.135 A  
ENDBRANCH   6  22
TORSDOF 3
ENDMDL
MODEL       82
REMARK 921   NORMALIZED FREE ENERGY PREDICTED BY IDOCK:   -4.66 KCAL/MOL
REMARK 922        TOTAL FREE ENERGY PREDICTED BY IDOCK:   -6.44 KCAL/MOL
REMARK 923 INTER-LIGAND FREE ENERGY PREDICTED BY IDOCK:   -5.94 KCAL/MOL
REMARK 924 INTRA-LIGAND FREE ENERGY PREDICTED BY IDOCK:   -0.50 KCAL/MOL
REMARK 927      BINDING AFFINITY PREDICTED BY RF-SCORE:    0.00 PKD
ROOT
HETATM    1  O   UNL     1     -12.127  11.687  68.240  1.00  0.00    -0.552 OA 
HETATM    2  C   UNL     1     -10.908  11.797  68.323  1.00  0.00    -0.220 C  
HETATM    3  C   UNL     1      -7.317  16.717  66.876  1.00  0.00    -0.257 A  
HETATM    4  N   UNL     1     -10.138  12.533  67.447  1.00  0.00    -0.209 N  
HETATM    5  C   UNL     1     -10.776  13.188  66.315  1.00  0.00    -0.284 C  
HETATM    6  C   UNL     1      -8.687  12.677  67.584  1.00  0.00    -0.179 C  
HETATM    7  C   UNL     1      -8.242  14.117  67.347  1.00  0.00    -0.207 A  
HETATM    8  C   UNL     1     -10.472  14.682  66.269  1.00  0.00    -0.302 C  
HETATM    9  C   UNL     1      -6.973  14.523  67.800  1.00  0.00    -0.194 A  
HETATM   10  C   UNL     1      -9.060  15.037  66.665  1.00  0.00    -0.309 A  
HETATM   11  C   UNL     1      -6.518  15.816  67.570  1.00  0.00    -0.203 A  
HETATM   12  C   UNL     1      -8.584  16.333  66.430  1.00  0.00    -0.361 A  
ENDROOT
BRANCH   2  13
HETATM   13  O   UNL     1     -10.168  11.174  69.284  1.00  0.00    -0.184 OA 
BRANCH  13  14
HETATM   14  C   UNL     1      -9.940   9.776  69.051  1.00  0.00    -0.184 C  
HETATM   15  C   UNL     1      -8.739   8.836  71.554  1.00  0.00    -0.206 C  
HETATM   16  C   UNL     1     -10.756   8.946  70.062  1.00  0.00    -0.241 C  
HETATM   17  C   UNL     1     -10.500   7.465  69.748  1.00  0.00    -0.235 C  
HETATM   18  N   UNL     1      -8.223   8.373  70.247  1.00  0.00    -0.117 NA 
HETATM   19  C   UNL     1      -8.436   9.455  69.251  1.00  0.00    -0.141 C  
HETATM   20  C   UNL     1      -8.989   7.181  69.823  1.00  0.00    -0.142 C  
HETATM   21  C   UNL     1     -10.227   9.211  71.482  1.00  0.00    -0.403 C  
ENDBRANCH  13  14
ENDBRANCH   2  13
BRANCH   6  22
HETATM   22  C   UNL     1      -7.895  11.684  66.725  1.00  0.00    -0.130 A  
HETATM   23  C   UNL     1      -6.496  11.621  66.839  1.00  0.00    -0.134 A  
HETATM   24  C   UNL     1      -5.742  10.785  66.010  1.00  0.00    -0.140 A  
HETATM   25  C   UNL     1      -6.374   9.986  65.061  1.00  0.00    -0.116 A  
HETATM   26  C   UNL     1      -7.759  10.025  64.937  1.00  0.00    -0.138 A  
HETATM   27  C   UNL     1      -8.511  10.871  65.755  1.00  0.00    -0.155 A  
ENDBRANCH   6  22
TORSDOF 3
ENDMDL
MODEL       83
REMARK 921   NORMALIZED FREE ENERGY PREDICTED BY IDOCK:   -4.63 KCAL/MOL
REMARK 922        TOTAL FREE ENERGY PREDICTED BY IDOCK:   -6.41 KCAL/MOL
REMARK 923 INTER-LIGAND FREE ENERGY PREDICTED BY IDOCK:   -5.60 KCAL/MOL
REMARK 924 INTRA-LIGAND FREE ENERGY PREDICTED BY IDOCK:   -0.81 KCAL/MOL
REMARK 927      BINDING AFFINITY PREDICTED BY RF-SCORE:    0.00 PKD
ROOT
HETATM    1  O   UNL     1     -11.242  10.822  65.288  1.00  0.00     0.133 OA 
HETATM    2  C   UNL     1     -10.983  10.723  66.483  1.00  0.00    -0.075 C  
HETATM    3  C   UNL     1      -5.478   9.502  69.204  1.00  0.00    -0.036 A  
HETATM    4  N   UNL     1     -10.039   9.860  67.000  1.00  0.00    -0.206 N  
HETATM    5  C   UNL     1      -9.328   8.963  66.101  1.00  0.00    -0.239 C  
HETATM    6  C   UNL     1      -9.723   9.780  68.428  1.00  0.00    -0.149 C  
HETATM    7  C   UNL     1      -8.218   9.704  68.664  1.00  0.00    -0.105 A  
HETATM    8  C   UNL     1      -7.813   9.103  66.229  1.00  0.00    -0.103 C  
HETATM    9  C   UNL     1      -7.711  10.004  69.943  1.00  0.00    -0.183 A  
HETATM   10  C   UNL     1      -7.330   9.316  67.643  1.00  0.00    -0.084 A  
HETATM   11  C   UNL     1      -6.350   9.908  70.207  1.00  0.00    -0.094 A  
HETATM   12  C   UNL     1      -5.963   9.213  67.926  1.00  0.00    -0.049 A  
ENDROOT
BRANCH   2  13
HETATM   13  O   UNL     1     -11.626  11.441  67.447  1.00  0.00    -0.509 OA 
BRANCH  13  14
HETATM   14  C   UNL     1     -11.770  12.840  67.155  1.00  0.00    -0.380 C  
HETATM   15  C   UNL     1      -9.747  14.120  68.844  1.00  0.00    -0.080 C  
HETATM   16  C   UNL     1     -10.457  13.377  66.553  1.00  0.00    -0.283 C  
HETATM   17  C   UNL     1     -10.679  14.863  66.232  1.00  0.00    -0.320 C  
HETATM   18  N   UNL     1     -11.093  14.715  68.694  1.00  0.00    -0.251 NA 
HETATM   19  C   UNL     1     -12.066  13.615  68.464  1.00  0.00    -0.286 C  
HETATM   20  C   UNL     1     -11.096  15.605  67.513  1.00  0.00    -0.289 C  
HETATM   21  C   UNL     1      -9.343  13.298  67.610  1.00  0.00    -0.212 C  
ENDBRANCH  13  14
ENDBRANCH   2  13
BRANCH   6  22
HETATM   22  C   UNL     1     -10.476   8.661  69.154  1.00  0.00    -0.223 A  
HETATM   23  C   UNL     1     -11.326   8.972  70.229  1.00  0.00    -0.202 A  
HETATM   24  C   UNL     1     -11.960   7.965  70.962  1.00  0.00    -0.268 A  
HETATM   25  C   UNL     1     -11.767   6.628  70.627  1.00  0.00    -0.452 A  
HETATM   26  C   UNL     1     -10.936   6.296  69.562  1.00  0.00    -0.445 A  
HETATM   27  C   UNL     1     -10.291   7.302  68.838  1.00  0.00    -0.207 A  
ENDBRANCH   6  22
TORSDOF 3
ENDMDL
MODEL       84
REMARK 921   NORMALIZED FREE ENERGY PREDICTED BY IDOCK:   -4.53 KCAL/MOL
REMARK 922        TOTAL FREE ENERGY PREDICTED BY IDOCK:   -6.29 KCAL/MOL
REMARK 923 INTER-LIGAND FREE ENERGY PREDICTED BY IDOCK:   -5.08 KCAL/MOL
REMARK 924 INTRA-LIGAND FREE ENERGY PREDICTED BY IDOCK:   -1.20 KCAL/MOL
REMARK 927      BINDING AFFINITY PREDICTED BY RF-SCORE:    0.00 PKD
ROOT
HETATM    1  O   UNL     1     -10.124   9.196  66.027  1.00  0.00    -0.284 OA 
HETATM    2  C   UNL     1      -9.795   8.799  67.140  1.00  0.00    -0.207 C  
HETATM    3  C   UNL     1      -8.812   2.921  69.060  1.00  0.00    -0.151 A  
HETATM    4  N   UNL     1     -10.216   7.605  67.689  1.00  0.00    -0.197 N  
HETATM    5  C   UNL     1     -11.148   6.770  66.946  1.00  0.00    -0.213 C  
HETATM    6  C   UNL     1      -9.785   7.134  69.008  1.00  0.00    -0.150 C  
HETATM    7  C   UNL     1      -9.432   5.651  68.984  1.00  0.00    -0.159 A  
HETATM    8  C   UNL     1     -10.625   5.348  66.761  1.00  0.00    -0.339 C  
HETATM    9  C   UNL     1      -8.651   5.118  70.027  1.00  0.00    -0.109 A  
HETATM   10  C   UNL     1      -9.889   4.800  67.960  1.00  0.00    -0.185 A  
HETATM   11  C   UNL     1      -8.340   3.764  70.060  1.00  0.00    -0.081 A  
HETATM   12  C   UNL     1      -9.578   3.436  68.012  1.00  0.00    -0.160 A  
ENDROOT
BRANCH   2  13
HETATM   13  O   UNL     1      -8.992   9.513  67.980  1.00  0.00    -0.124 OA 
BRANCH  13  14
HETATM   14  C   UNL     1      -8.126  10.451  67.324  1.00  0.00    -0.114 C  
HETATM   15  C   UNL     1      -5.995  10.922  69.281  1.00  0.00    -0.044 C  
HETATM   16  C   UNL     1      -6.729   9.824  67.145  1.00  0.00    -0.075 C  
HETATM   17  C   UNL     1      -5.857  10.856  66.414  1.00  0.00    -0.123 C  
HETATM   18  N   UNL     1      -6.565  12.042  68.500  1.00  0.00    -0.058 NA 
HETATM   19  C   UNL     1      -7.985  11.725  68.198  1.00  0.00    -0.146 C  
HETATM   20  C   UNL     1      -5.825  12.163  67.225  1.00  0.00    -0.146 C  
HETATM   21  C   UNL     1      -6.096   9.587  68.527  1.00  0.00    -0.044 C  
ENDBRANCH  13  14
ENDBRANCH   2  13
BRANCH   6  22
HETATM   22  C   UNL     1     -10.779   7.470  70.125  1.00  0.00    -0.248 A  
HETATM   23  C   UNL     1     -10.506   8.527  71.009  1.00  0.00    -0.264 A  
HETATM   24  C   UNL     1     -11.351   8.802  72.088  1.00  0.00    -0.411 A  
HETATM   25  C   UNL     1     -12.494   8.034  72.295  1.00  0.00    -0.302 A  
HETATM   26  C   UNL     1     -12.789   6.987  71.427  1.00  0.00    -0.407 A  
HETATM   27  C   UNL     1     -11.936   6.703  70.358  1.00  0.00    -0.342 A  
ENDBRANCH   6  22
TORSDOF 3
ENDMDL
MODEL       85
REMARK 921   NORMALIZED FREE ENERGY PREDICTED BY IDOCK:   -4.52 KCAL/MOL
REMARK 922        TOTAL FREE ENERGY PREDICTED BY IDOCK:   -6.29 KCAL/MOL
REMARK 923 INTER-LIGAND FREE ENERGY PREDICTED BY IDOCK:   -5.69 KCAL/MOL
REMARK 924 INTRA-LIGAND FREE ENERGY PREDICTED BY IDOCK:   -0.59 KCAL/MOL
REMARK 927      BINDING AFFINITY PREDICTED BY RF-SCORE:    0.00 PKD
ROOT
HETATM    1  O   UNL     1     -10.991   5.306  73.374  1.00  0.00    -0.281 OA 
HETATM    2  C   UNL     1     -10.473   6.017  72.519  1.00  0.00    -0.202 C  
HETATM    3  C   UNL     1     -12.365  11.597  70.402  1.00  0.00    -0.373 A  
HETATM    4  N   UNL     1     -11.182   6.818  71.648  1.00  0.00    -0.245 N  
HETATM    5  C   UNL     1     -12.636   6.800  71.688  1.00  0.00    -0.333 C  
HETATM    6  C   UNL     1     -10.541   7.684  70.656  1.00  0.00    -0.221 C  
HETATM    7  C   UNL     1     -11.197   9.061  70.608  1.00  0.00    -0.318 A  
HETATM    8  C   UNL     1     -13.224   8.196  71.872  1.00  0.00    -0.348 C  
HETATM    9  C   UNL     1     -10.500  10.129  70.013  1.00  0.00    -0.325 A  
HETATM   10  C   UNL     1     -12.490   9.279  71.120  1.00  0.00    -0.341 A  
HETATM   11  C   UNL     1     -11.079  11.388  69.917  1.00  0.00    -0.134 A  
HETATM   12  C   UNL     1     -13.066  10.550  71.006  1.00  0.00    -0.419 A  
ENDROOT
BRANCH   2  13
HETATM   13  O   UNL     1      -9.126   6.074  72.313  1.00  0.00    -0.142 OA 
BRANCH  13  14
HETATM   14  C   UNL     1      -8.492   4.797  72.143  1.00  0.00    -0.119 C  
HETATM   15  C   UNL     1      -5.636   5.389  72.427  1.00  0.00    -0.018 C  
HETATM   16  C   UNL     1      -7.728   4.426  73.429  1.00  0.00    -0.086 C  
HETATM   17  C   UNL     1      -7.099   3.043  73.202  1.00  0.00    -0.040 C  
HETATM   18  N   UNL     1      -6.114   4.453  71.385  1.00  0.00    -0.017 NA 
HETATM   19  C   UNL     1      -7.479   4.873  70.972  1.00  0.00    -0.073 C  
HETATM   20  C   UNL     1      -6.191   3.093  71.961  1.00  0.00    -0.014 C  
HETATM   21  C   UNL     1      -6.576   5.423  73.642  1.00  0.00    -0.073 C  
ENDBRANCH  13  14
ENDBRANCH   2  13
BRANCH   6  22
HETATM   22  C   UNL     1     -10.445   7.046  69.266  1.00  0.00    -0.223 A  
HETATM   23  C   UNL     1     -10.376   7.862  68.124  1.00  0.00    -0.249 A  
HETATM   24  C   UNL     1     -10.372   7.308  66.841  1.00  0.00    -0.358 A  
HETATM   25  C   UNL     1     -10.422   5.927  66.674  1.00  0.00    -0.310 A  
HETATM   26  C   UNL     1     -10.483   5.099  67.791  1.00  0.00    -0.112 A  
HETATM   27  C   UNL     1     -10.502   5.653  69.073  1.00  0.00    -0.321 A  
ENDBRANCH   6  22
TORSDOF 3
ENDMDL
MODEL       86
REMARK 921   NORMALIZED FREE ENERGY PREDICTED BY IDOCK:   -4.52 KCAL/MOL
REMARK 922        TOTAL FREE ENERGY PREDICTED BY IDOCK:   -6.28 KCAL/MOL
REMARK 923 INTER-LIGAND FREE ENERGY PREDICTED BY IDOCK:   -4.81 KCAL/MOL
REMARK 924 INTRA-LIGAND FREE ENERGY PREDICTED BY IDOCK:   -1.46 KCAL/MOL
REMARK 927      BINDING AFFINITY PREDICTED BY RF-SCORE:    0.00 PKD
ROOT
HETATM    1  O   UNL     1      -8.010   5.304  73.248  1.00  0.00    -0.106 OA 
HETATM    2  C   UNL     1      -8.715   5.667  72.312  1.00  0.00    -0.132 C  
HETATM    3  C   UNL     1      -7.888  10.522  68.446  1.00  0.00    -0.110 A  
HETATM    4  N   UNL     1      -8.897   6.985  71.947  1.00  0.00    -0.125 N  
HETATM    5  C   UNL     1      -8.269   8.034  72.736  1.00  0.00    -0.158 C  
HETATM    6  C   UNL     1      -9.717   7.394  70.805  1.00  0.00    -0.171 C  
HETATM    7  C   UNL     1      -9.033   8.483  69.986  1.00  0.00    -0.142 A  
HETATM    8  C   UNL     1      -7.409   8.960  71.880  1.00  0.00     0.020 C  
HETATM    9  C   UNL     1      -9.473   8.727  68.671  1.00  0.00    -0.143 A  
HETATM   10  C   UNL     1      -7.993   9.265  70.522  1.00  0.00    -0.188 A  
HETATM   11  C   UNL     1      -8.899   9.735  67.906  1.00  0.00    -0.122 A  
HETATM   12  C   UNL     1      -7.432  10.285  69.745  1.00  0.00    -0.169 A  
ENDROOT
BRANCH   2  13
HETATM   13  O   UNL     1      -9.427   4.801  71.536  1.00  0.00    -0.141 OA 
BRANCH  13  14
HETATM   14  C   UNL     1      -8.646   3.756  70.934  1.00  0.00    -0.072 C  
HETATM   15  C   UNL     1      -9.589   3.688  68.160  1.00  0.00    -0.103 C  
HETATM   16  C   UNL     1      -7.795   4.344  69.791  1.00  0.00    -0.057 C  
HETATM   17  C   UNL     1      -6.961   3.194  69.207  1.00  0.00    -0.041 C  
HETATM   18  N   UNL     1      -9.325   2.434  68.900  1.00  0.00    -0.161 NA 
HETATM   19  C   UNL     1      -9.590   2.679  70.342  1.00  0.00    -0.057 C  
HETATM   20  C   UNL     1      -7.901   2.070  68.736  1.00  0.00    -0.045 C  
HETATM   21  C   UNL     1      -8.724   4.849  68.673  1.00  0.00    -0.103 C  
ENDBRANCH  13  14
ENDBRANCH   2  13
BRANCH   6  22
HETATM   22  C   UNL     1     -11.148   7.782  71.195  1.00  0.00    -0.269 A  
HETATM   23  C   UNL     1     -11.404   9.051  71.743  1.00  0.00    -0.447 A  
HETATM   24  C   UNL     1     -12.683   9.400  72.185  1.00  0.00    -0.460 A  
HETATM   25  C   UNL     1     -13.734   8.494  72.073  1.00  0.00    -0.446 A  
HETATM   26  C   UNL     1     -13.506   7.236  71.525  1.00  0.00    -0.439 A  
HETATM   27  C   UNL     1     -12.225   6.881  71.098  1.00  0.00    -0.428 A  
ENDBRANCH   6  22
TORSDOF 3
ENDMDL
MODEL       87
REMARK 921   NORMALIZED FREE ENERGY PREDICTED BY IDOCK:   -4.50 KCAL/MOL
REMARK 922        TOTAL FREE ENERGY PREDICTED BY IDOCK:   -6.26 KCAL/MOL
REMARK 923 INTER-LIGAND FREE ENERGY PREDICTED BY IDOCK:   -5.53 KCAL/MOL
REMARK 924 INTRA-LIGAND FREE ENERGY PREDICTED BY IDOCK:   -0.72 KCAL/MOL
REMARK 927      BINDING AFFINITY PREDICTED BY RF-SCORE:    0.00 PKD
ROOT
HETATM    1  O   UNL     1     -11.760  16.128  68.824  1.00  0.00    -0.364 OA 
HETATM    2  C   UNL     1     -10.913  15.718  68.038  1.00  0.00    -0.330 C  
HETATM    3  C   UNL     1     -11.575  11.590  63.377  1.00  0.00    -0.232 A  
HETATM    4  N   UNL     1     -10.890  14.437  67.526  1.00  0.00    -0.278 N  
HETATM    5  C   UNL     1     -11.890  13.476  67.968  1.00  0.00    -0.365 C  
HETATM    6  C   UNL     1      -9.887  13.977  66.563  1.00  0.00    -0.290 C  
HETATM    7  C   UNL     1     -10.520  13.157  65.444  1.00  0.00    -0.307 A  
HETATM    8  C   UNL     1     -12.649  12.856  66.798  1.00  0.00     0.557 C  
HETATM    9  C   UNL     1      -9.800  12.959  64.250  1.00  0.00     0.010 A  
HETATM   10  C   UNL     1     -11.793  12.572  65.588  1.00  0.00    -0.493 A  
HETATM   11  C   UNL     1     -10.328  12.186  63.223  1.00  0.00    -0.352 A  
HETATM   12  C   UNL     1     -12.307  11.786  64.550  1.00  0.00    -0.038 A  
ENDROOT
BRANCH   2  13
HETATM   13  O   UNL     1      -9.871  16.481  67.599  1.00  0.00    -0.240 OA 
BRANCH  13  14
HETATM   14  C   UNL     1      -9.547  17.594  68.445  1.00  0.00    -0.310 C  
HETATM   15  C   UNL     1      -8.654  19.663  66.571  1.00  0.00    -0.354 C  
HETATM   16  C   UNL     1     -10.453  18.791  68.091  1.00  0.00    -0.372 C  
HETATM   17  C   UNL     1     -10.085  19.937  69.045  1.00  0.00    -0.395 C  
HETATM   18  N   UNL     1      -7.944  19.444  67.850  1.00  0.00    -0.291 NA 
HETATM   19  C   UNL     1      -8.071  18.008  68.214  1.00  0.00    -0.291 C  
HETATM   20  C   UNL     1      -8.587  20.259  68.903  1.00  0.00     0.480 C  
HETATM   21  C   UNL     1     -10.135  19.264  66.662  1.00  0.00    -0.487 C  
ENDBRANCH  13  14
ENDBRANCH   2  13
BRANCH   6  22
HETATM   22  C   UNL     1      -8.710  13.245  67.216  1.00  0.00    -0.214 A  
HETATM   23  C   UNL     1      -8.617  11.845  67.122  1.00  0.00    -0.172 A  
HETATM   24  C   UNL     1      -7.601  11.144  67.778  1.00  0.00    -0.100 A  
HETATM   25  C   UNL     1      -6.651  11.830  68.530  1.00  0.00    -0.059 A  
HETATM   26  C   UNL     1      -6.718  13.215  68.631  1.00  0.00    -0.096 A  
HETATM   27  C   UNL     1      -7.742  13.915  67.987  1.00  0.00    -0.151 A  
ENDBRANCH   6  22
TORSDOF 3
ENDMDL
MODEL       88
REMARK 921   NORMALIZED FREE ENERGY PREDICTED BY IDOCK:   -4.45 KCAL/MOL
REMARK 922        TOTAL FREE ENERGY PREDICTED BY IDOCK:   -6.20 KCAL/MOL
REMARK 923 INTER-LIGAND FREE ENERGY PREDICTED BY IDOCK:   -5.33 KCAL/MOL
REMARK 924 INTRA-LIGAND FREE ENERGY PREDICTED BY IDOCK:   -0.87 KCAL/MOL
REMARK 927      BINDING AFFINITY PREDICTED BY RF-SCORE:    0.00 PKD
ROOT
HETATM    1  O   UNL     1      -8.535   8.906  67.903  1.00  0.00    -0.124 OA 
HETATM    2  C   UNL     1      -9.065   8.089  68.649  1.00  0.00    -0.140 C  
HETATM    3  C   UNL     1     -14.392   8.637  71.893  1.00  0.00    -0.492 A  
HETATM    4  N   UNL     1      -9.779   8.426  69.780  1.00  0.00    -0.178 N  
HETATM    5  C   UNL     1      -9.882   9.825  70.167  1.00  0.00    -0.255 C  
HETATM    6  C   UNL     1     -10.432   7.435  70.640  1.00  0.00    -0.215 C  
HETATM    7  C   UNL     1     -11.832   7.883  71.045  1.00  0.00    -0.285 A  
HETATM    8  C   UNL     1     -11.331  10.270  70.335  1.00  0.00    -0.410 C  
HETATM    9  C   UNL     1     -12.740   6.925  71.535  1.00  0.00    -0.396 A  
HETATM   10  C   UNL     1     -12.227   9.232  70.966  1.00  0.00    -0.322 A  
HETATM   11  C   UNL     1     -14.012   7.301  71.950  1.00  0.00    -0.371 A  
HETATM   12  C   UNL     1     -13.507   9.598  71.398  1.00  0.00    -0.403 A  
ENDROOT
BRANCH   2  13
HETATM   13  O   UNL     1      -8.984   6.742  68.456  1.00  0.00    -0.123 OA 
BRANCH  13  14
HETATM   14  C   UNL     1      -7.655   6.205  68.534  1.00  0.00    -0.092 C  
HETATM   15  C   UNL     1      -7.702   3.946  66.667  1.00  0.00    -0.089 C  
HETATM   16  C   UNL     1      -6.979   6.302  67.152  1.00  0.00    -0.072 C  
HETATM   17  C   UNL     1      -5.555   5.745  67.302  1.00  0.00    -0.012 C  
HETATM   18  N   UNL     1      -7.020   3.832  67.975  1.00  0.00    -0.050 NA 
HETATM   19  C   UNL     1      -7.722   4.712  68.946  1.00  0.00    -0.071 C  
HETATM   20  C   UNL     1      -5.625   4.303  67.832  1.00  0.00    -0.021 C  
HETATM   21  C   UNL     1      -7.724   5.395  66.157  1.00  0.00    -0.092 C  
ENDBRANCH  13  14
ENDBRANCH   2  13
BRANCH   6  22
HETATM   22  C   UNL     1      -9.585   7.031  71.851  1.00  0.00    -0.159 A  
HETATM   23  C   UNL     1      -9.297   7.977  72.850  1.00  0.00    -0.338 A  
HETATM   24  C   UNL     1      -8.458   7.660  73.923  1.00  0.00    -0.270 A  
HETATM   25  C   UNL     1      -7.903   6.387  74.025  1.00  0.00    -0.097 A  
HETATM   26  C   UNL     1      -8.180   5.433  73.051  1.00  0.00    -0.112 A  
HETATM   27  C   UNL     1      -9.007   5.754  71.972  1.00  0.00    -0.140 A  
ENDBRANCH   6  22
TORSDOF 3
ENDMDL
MODEL       89
REMARK 921   NORMALIZED FREE ENERGY PREDICTED BY IDOCK:   -4.41 KCAL/MOL
REMARK 922        TOTAL FREE ENERGY PREDICTED BY IDOCK:   -6.15 KCAL/MOL
REMARK 923 INTER-LIGAND FREE ENERGY PREDICTED BY IDOCK:   -5.07 KCAL/MOL
REMARK 924 INTRA-LIGAND FREE ENERGY PREDICTED BY IDOCK:   -1.08 KCAL/MOL
REMARK 927      BINDING AFFINITY PREDICTED BY RF-SCORE:    0.00 PKD
ROOT
HETATM    1  O   UNL     1     -12.640  11.690  69.010  1.00  0.00    -0.120 OA 
HETATM    2  C   UNL     1     -11.463  11.350  68.952  1.00  0.00    -0.298 C  
HETATM    3  C   UNL     1      -6.452  14.836  67.558  1.00  0.00    -0.090 A  
HETATM    4  N   UNL     1     -10.550  11.879  68.063  1.00  0.00    -0.200 N  
HETATM    5  C   UNL     1     -10.994  12.864  67.089  1.00  0.00    -0.262 C  
HETATM    6  C   UNL     1      -9.140  11.482  68.032  1.00  0.00    -0.174 C  
HETATM    7  C   UNL     1      -8.222  12.690  67.884  1.00  0.00    -0.170 A  
HETATM    8  C   UNL     1     -10.170  14.147  67.151  1.00  0.00    -0.258 C  
HETATM    9  C   UNL     1      -6.860  12.558  68.214  1.00  0.00    -0.082 A  
HETATM   10  C   UNL     1      -8.699  13.924  67.402  1.00  0.00    -0.208 A  
HETATM   11  C   UNL     1      -5.984  13.626  68.056  1.00  0.00    -0.133 A  
HETATM   12  C   UNL     1      -7.803  14.988  67.237  1.00  0.00    -0.241 A  
ENDROOT
BRANCH   2  13
HETATM   13  O   UNL     1     -10.926  10.382  69.748  1.00  0.00    -0.253 OA 
BRANCH  13  14
HETATM   14  C   UNL     1     -11.811   9.291  70.042  1.00  0.00     0.205 C  
HETATM   15  C   UNL     1     -10.237   7.572  71.818  1.00  0.00    -0.187 C  
HETATM   16  C   UNL     1     -12.088   9.248  71.558  1.00  0.00    -0.435 C  
HETATM   17  C   UNL     1     -13.062   8.086  71.810  1.00  0.00    -0.360 C  
HETATM   18  N   UNL     1     -11.079   6.987  70.752  1.00  0.00    -0.261 NA 
HETATM   19  C   UNL     1     -11.144   7.955  69.626  1.00  0.00    -0.026 C  
HETATM   20  C   UNL     1     -12.446   6.780  71.278  1.00  0.00    -0.313 C  
HETATM   21  C   UNL     1     -10.784   8.923  72.305  1.00  0.00    -0.219 C  
ENDBRANCH  13  14
ENDBRANCH   2  13
BRANCH   6  22
HETATM   22  C   UNL     1      -8.838  10.400  66.989  1.00  0.00    -0.143 A  
HETATM   23  C   UNL     1      -8.988  10.686  65.621  1.00  0.00    -0.203 A  
HETATM   24  C   UNL     1      -8.801   9.695  64.653  1.00  0.00    -0.253 A  
HETATM   25  C   UNL     1      -8.446   8.403  65.033  1.00  0.00    -0.160 A  
HETATM   26  C   UNL     1      -8.284   8.100  66.381  1.00  0.00    -0.108 A  
HETATM   27  C   UNL     1      -8.486   9.086  67.349  1.00  0.00    -0.115 A  
ENDBRANCH   6  22
TORSDOF 3
ENDMDL
MODEL       90
REMARK 921   NORMALIZED FREE ENERGY PREDICTED BY IDOCK:   -4.34 KCAL/MOL
REMARK 922        TOTAL FREE ENERGY PREDICTED BY IDOCK:   -6.07 KCAL/MOL
REMARK 923 INTER-LIGAND FREE ENERGY PREDICTED BY IDOCK:   -4.85 KCAL/MOL
REMARK 924 INTRA-LIGAND FREE ENERGY PREDICTED BY IDOCK:   -1.22 KCAL/MOL
REMARK 927      BINDING AFFINITY PREDICTED BY RF-SCORE:    0.00 PKD
ROOT
HETATM    1  O   UNL     1      -5.868   8.438  68.841  1.00  0.00    -0.038 OA 
HETATM    2  C   UNL     1      -7.012   8.126  68.527  1.00  0.00    -0.072 C  
HETATM    3  C   UNL     1     -11.746   6.375  72.231  1.00  0.00    -0.333 A  
HETATM    4  N   UNL     1      -7.762   7.174  69.186  1.00  0.00    -0.107 N  
HETATM    5  C   UNL     1      -7.166   6.441  70.293  1.00  0.00    -0.080 C  
HETATM    6  C   UNL     1      -9.138   6.839  68.813  1.00  0.00    -0.132 C  
HETATM    7  C   UNL     1     -10.033   6.703  70.041  1.00  0.00    -0.189 A  
HETATM    8  C   UNL     1      -8.006   6.537  71.564  1.00  0.00    -0.104 C  
HETATM    9  C   UNL     1     -11.430   6.766  69.879  1.00  0.00    -0.355 A  
HETATM   10  C   UNL     1      -9.495   6.490  71.325  1.00  0.00    -0.172 A  
HETATM   11  C   UNL     1     -12.278   6.608  70.968  1.00  0.00    -0.344 A  
HETATM   12  C   UNL     1     -10.362   6.322  72.411  1.00  0.00    -0.215 A  
ENDROOT
BRANCH   2  13
HETATM   13  O   UNL     1      -7.668   8.671  67.462  1.00  0.00    -0.096 OA 
BRANCH  13  14
HETATM   14  C   UNL     1      -8.294   9.935  67.729  1.00  0.00    -0.114 C  
HETATM   15  C   UNL     1      -9.707  10.555  65.238  1.00  0.00    -0.270 C  
HETATM   16  C   UNL     1      -9.824   9.783  67.624  1.00  0.00    -0.202 C  
HETATM   17  C   UNL     1     -10.440  11.153  67.949  1.00  0.00    -0.220 C  
HETATM   18  N   UNL     1      -8.975  11.609  65.974  1.00  0.00    -0.185 NA 
HETATM   19  C   UNL     1      -7.829  10.976  66.678  1.00  0.00    -0.153 C  
HETATM   20  C   UNL     1      -9.877  12.208  66.981  1.00  0.00    -0.203 C  
HETATM   21  C   UNL     1     -10.204   9.442  66.173  1.00  0.00    -0.264 C  
ENDBRANCH  13  14
ENDBRANCH   2  13
BRANCH   6  22
HETATM   22  C   UNL     1      -9.238   5.618  67.892  1.00  0.00    -0.108 A  
HETATM   23  C   UNL     1      -9.385   4.335  68.446  1.00  0.00    -0.209 A  
HETATM   24  C   UNL     1      -9.393   3.196  67.634  1.00  0.00    -0.247 A  
HETATM   25  C   UNL     1      -9.270   3.320  66.253  1.00  0.00    -0.154 A  
HETATM   26  C   UNL     1      -9.131   4.582  65.683  1.00  0.00    -0.140 A  
HETATM   27  C   UNL     1      -9.108   5.718  66.495  1.00  0.00    -0.144 A  
ENDBRANCH   6  22
TORSDOF 3
ENDMDL
MODEL       91
REMARK 921   NORMALIZED FREE ENERGY PREDICTED BY IDOCK:   -4.33 KCAL/MOL
REMARK 922        TOTAL FREE ENERGY PREDICTED BY IDOCK:   -6.06 KCAL/MOL
REMARK 923 INTER-LIGAND FREE ENERGY PREDICTED BY IDOCK:   -4.97 KCAL/MOL
REMARK 924 INTRA-LIGAND FREE ENERGY PREDICTED BY IDOCK:   -1.09 KCAL/MOL
REMARK 927      BINDING AFFINITY PREDICTED BY RF-SCORE:    0.00 PKD
ROOT
HETATM    1  O   UNL     1     -12.285  10.923  69.856  1.00  0.00    -0.325 OA 
HETATM    2  C   UNL     1     -11.904  11.794  69.082  1.00  0.00    -0.326 C  
HETATM    3  C   UNL     1     -10.013  11.191  63.143  1.00  0.00    -0.393 A  
HETATM    4  N   UNL     1     -10.933  11.602  68.121  1.00  0.00    -0.211 N  
HETATM    5  C   UNL     1     -10.266  10.312  68.032  1.00  0.00    -0.169 C  
HETATM    6  C   UNL     1     -10.515  12.648  67.184  1.00  0.00    -0.235 C  
HETATM    7  C   UNL     1     -10.368  12.103  65.767  1.00  0.00    -0.289 A  
HETATM    8  C   UNL     1     -10.354   9.714  66.631  1.00  0.00    -0.279 C  
HETATM    9  C   UNL     1     -10.351  13.005  64.687  1.00  0.00    -0.374 A  
HETATM   10  C   UNL     1     -10.221  10.725  65.519  1.00  0.00    -0.330 A  
HETATM   11  C   UNL     1     -10.181  12.550  63.385  1.00  0.00    -0.100 A  
HETATM   12  C   UNL     1     -10.039  10.282  64.203  1.00  0.00    -0.132 A  
ENDROOT
BRANCH   2  13
HETATM   13  O   UNL     1     -12.382  13.071  69.102  1.00  0.00    -0.140 OA 
BRANCH  13  14
HETATM   14  C   UNL     1     -12.393  13.686  70.400  1.00  0.00    -0.345 C  
HETATM   15  C   UNL     1     -11.092  16.275  69.960  1.00  0.00    -0.348 C  
HETATM   16  C   UNL     1     -13.215  14.989  70.345  1.00  0.00    -0.147 C  
HETATM   17  C   UNL     1     -13.219  15.583  71.761  1.00  0.00    -0.567 C  
HETATM   18  N   UNL     1     -10.792  15.473  71.167  1.00  0.00    -0.224 NA 
HETATM   19  C   UNL     1     -10.942  14.035  70.820  1.00  0.00     1.008 C  
HETATM   20  C   UNL     1     -11.770  15.810  72.224  1.00  0.00    -0.478 C  
HETATM   21  C   UNL     1     -12.506  15.999  69.426  1.00  0.00     0.361 C  
ENDBRANCH  13  14
ENDBRANCH   2  13
BRANCH   6  22
HETATM   22  C   UNL     1      -9.264  13.406  67.641  1.00  0.00    -0.212 A  
HETATM   23  C   UNL     1      -8.196  12.705  68.227  1.00  0.00    -0.164 A  
HETATM   24  C   UNL     1      -7.079  13.380  68.728  1.00  0.00    -0.101 A  
HETATM   25  C   UNL     1      -7.002  14.768  68.640  1.00  0.00    -0.110 A  
HETATM   26  C   UNL     1      -8.044  15.482  68.057  1.00  0.00    -0.140 A  
HETATM   27  C   UNL     1      -9.166  14.808  67.569  1.00  0.00    -0.198 A  
ENDBRANCH   6  22
TORSDOF 3
ENDMDL
MODEL       92
REMARK 921   NORMALIZED FREE ENERGY PREDICTED BY IDOCK:   -4.32 KCAL/MOL
REMARK 922        TOTAL FREE ENERGY PREDICTED BY IDOCK:   -6.05 KCAL/MOL
REMARK 923 INTER-LIGAND FREE ENERGY PREDICTED BY IDOCK:   -4.63 KCAL/MOL
REMARK 924 INTRA-LIGAND FREE ENERGY PREDICTED BY IDOCK:   -1.42 KCAL/MOL
REMARK 927      BINDING AFFINITY PREDICTED BY RF-SCORE:    0.00 PKD
ROOT
HETATM    1  O   UNL     1     -10.770   9.097  69.208  1.00  0.00    -0.225 OA 
HETATM    2  C   UNL     1      -9.947   8.272  69.591  1.00  0.00    -0.193 C  
HETATM    3  C   UNL     1     -10.803   3.376  73.398  1.00  0.00    -0.311 A  
HETATM    4  N   UNL     1      -9.969   7.681  70.837  1.00  0.00    -0.181 N  
HETATM    5  C   UNL     1     -10.989   8.080  71.796  1.00  0.00    -0.251 C  
HETATM    6  C   UNL     1      -8.996   6.673  71.263  1.00  0.00    -0.144 C  
HETATM    7  C   UNL     1      -9.670   5.517  71.994  1.00  0.00    -0.192 A  
HETATM    8  C   UNL     1     -11.784   6.888  72.320  1.00  0.00    -0.296 C  
HETATM    9  C   UNL     1      -8.976   4.301  72.136  1.00  0.00    -0.142 A  
HETATM   10  C   UNL     1     -10.956   5.648  72.552  1.00  0.00    -0.313 A  
HETATM   11  C   UNL     1      -9.542   3.237  72.829  1.00  0.00    -0.173 A  
HETATM   12  C   UNL     1     -11.510   4.572  73.256  1.00  0.00    -0.314 A  
ENDROOT
BRANCH   2  13
HETATM   13  O   UNL     1      -8.892   7.863  68.831  1.00  0.00    -0.141 OA 
BRANCH  13  14
HETATM   14  C   UNL     1      -9.251   7.326  67.548  1.00  0.00    -0.130 C  
HETATM   15  C   UNL     1      -7.908   4.722  67.478  1.00  0.00    -0.094 C  
HETATM   16  C   UNL     1     -10.043   6.018  67.741  1.00  0.00    -0.185 C  
HETATM   17  C   UNL     1     -10.427   5.508  66.344  1.00  0.00    -0.294 C  
HETATM   18  N   UNL     1      -7.927   5.595  66.284  1.00  0.00    -0.100 NA 
HETATM   19  C   UNL     1      -7.966   7.009  66.741  1.00  0.00    -0.108 C  
HETATM   20  C   UNL     1      -9.153   5.316  65.503  1.00  0.00    -0.139 C  
HETATM   21  C   UNL     1      -9.129   4.959  68.381  1.00  0.00    -0.141 C  
ENDBRANCH  13  14
ENDBRANCH   2  13
BRANCH   6  22
HETATM   22  C   UNL     1      -7.829   7.259  72.067  1.00  0.00    -0.091 A  
HETATM   23  C   UNL     1      -6.556   7.357  71.481  1.00  0.00    -0.049 A  
HETATM   24  C   UNL     1      -5.456   7.808  72.217  1.00  0.00    -0.036 A  
HETATM   25  C   UNL     1      -5.612   8.184  73.549  1.00  0.00    -0.058 A  
HETATM   26  C   UNL     1      -6.865   8.102  74.147  1.00  0.00    -0.160 A  
HETATM   27  C   UNL     1      -7.961   7.637  73.416  1.00  0.00    -0.172 A  
ENDBRANCH   6  22
TORSDOF 3
ENDMDL
MODEL       93
REMARK 921   NORMALIZED FREE ENERGY PREDICTED BY IDOCK:   -4.31 KCAL/MOL
REMARK 922        TOTAL FREE ENERGY PREDICTED BY IDOCK:   -6.03 KCAL/MOL
REMARK 923 INTER-LIGAND FREE ENERGY PREDICTED BY IDOCK:   -4.66 KCAL/MOL
REMARK 924 INTRA-LIGAND FREE ENERGY PREDICTED BY IDOCK:   -1.37 KCAL/MOL
REMARK 927      BINDING AFFINITY PREDICTED BY RF-SCORE:    0.00 PKD
ROOT
HETATM    1  O   UNL     1     -11.313   6.686  66.870  1.00  0.00    -0.333 OA 
HETATM    2  C   UNL     1     -10.647   5.868  67.496  1.00  0.00    -0.273 C  
HETATM    3  C   UNL     1     -11.119   4.227  73.519  1.00  0.00    -0.377 A  
HETATM    4  N   UNL     1     -10.316   5.998  68.828  1.00  0.00    -0.191 N  
HETATM    5  C   UNL     1     -10.723   7.196  69.548  1.00  0.00    -0.239 C  
HETATM    6  C   UNL     1      -9.547   4.993  69.565  1.00  0.00    -0.167 C  
HETATM    7  C   UNL     1     -10.141   4.734  70.945  1.00  0.00    -0.275 A  
HETATM    8  C   UNL     1     -11.515   6.866  70.810  1.00  0.00    -0.381 C  
HETATM    9  C   UNL     1      -9.785   3.558  71.633  1.00  0.00    -0.234 A  
HETATM   10  C   UNL     1     -11.013   5.655  71.557  1.00  0.00    -0.268 A  
HETATM   11  C   UNL     1     -10.276   3.306  72.908  1.00  0.00    -0.235 A  
HETATM   12  C   UNL     1     -11.491   5.393  72.846  1.00  0.00    -0.340 A  
ENDROOT
BRANCH   2  13
HETATM   13  O   UNL     1     -10.131   4.739  66.931  1.00  0.00    -0.206 OA 
BRANCH  13  14
HETATM   14  C   UNL     1      -9.699   4.895  65.571  1.00  0.00    -0.112 C  
HETATM   15  C   UNL     1      -7.331   3.177  65.388  1.00  0.00    -0.072 C  
HETATM   16  C   UNL     1      -9.759   3.532  64.853  1.00  0.00    -0.157 C  
HETATM   17  C   UNL     1      -9.318   3.763  63.400  1.00  0.00    -0.121 C  
HETATM   18  N   UNL     1      -7.348   4.511  64.749  1.00  0.00    -0.070 NA 
HETATM   19  C   UNL     1      -8.233   5.399  65.547  1.00  0.00    -0.127 C  
HETATM   20  C   UNL     1      -7.910   4.384  63.386  1.00  0.00    -0.076 C  
HETATM   21  C   UNL     1      -8.740   2.574  65.494  1.00  0.00    -0.119 C  
ENDBRANCH  13  14
ENDBRANCH   2  13
BRANCH   6  22
HETATM   22  C   UNL     1      -8.048   5.306  69.634  1.00  0.00    -0.091 A  
HETATM   23  C   UNL     1      -7.146   4.593  68.826  1.00  0.00    -0.053 A  
HETATM   24  C   UNL     1      -5.767   4.799  68.930  1.00  0.00    -0.016 A  
HETATM   25  C   UNL     1      -5.265   5.733  69.832  1.00  0.00    -0.005 A  
HETATM   26  C   UNL     1      -6.140   6.457  70.635  1.00  0.00    -0.034 A  
HETATM   27  C   UNL     1      -7.516   6.240  70.542  1.00  0.00    -0.091 A  
ENDBRANCH   6  22
TORSDOF 3
ENDMDL
MODEL       94
REMARK 921   NORMALIZED FREE ENERGY PREDICTED BY IDOCK:   -4.30 KCAL/MOL
REMARK 922        TOTAL FREE ENERGY PREDICTED BY IDOCK:   -6.02 KCAL/MOL
REMARK 923 INTER-LIGAND FREE ENERGY PREDICTED BY IDOCK:   -4.57 KCAL/MOL
REMARK 924 INTRA-LIGAND FREE ENERGY PREDICTED BY IDOCK:   -1.45 KCAL/MOL
REMARK 927      BINDING AFFINITY PREDICTED BY RF-SCORE:    0.00 PKD
ROOT
HETATM    1  O   UNL     1     -10.484   8.664  67.678  1.00  0.00    -0.245 OA 
HETATM    2  C   UNL     1      -9.794   7.814  68.232  1.00  0.00    -0.167 C  
HETATM    3  C   UNL     1     -11.154   4.334  73.256  1.00  0.00    -0.342 A  
HETATM    4  N   UNL     1      -9.801   7.579  69.591  1.00  0.00    -0.178 N  
HETATM    5  C   UNL     1     -10.629   8.409  70.452  1.00  0.00    -0.223 C  
HETATM    6  C   UNL     1      -8.991   6.537  70.228  1.00  0.00    -0.155 C  
HETATM    7  C   UNL     1      -9.791   5.769  71.274  1.00  0.00    -0.223 A  
HETATM    8  C   UNL     1     -11.574   7.578  71.316  1.00  0.00    -0.305 C  
HETATM    9  C   UNL     1      -9.322   4.514  71.707  1.00  0.00    -0.194 A  
HETATM   10  C   UNL     1     -10.970   6.296  71.835  1.00  0.00    -0.302 A  
HETATM   11  C   UNL     1     -10.003   3.801  72.687  1.00  0.00    -0.220 A  
HETATM   12  C   UNL     1     -11.639   5.573  72.829  1.00  0.00    -0.298 A  
ENDROOT
BRANCH   2  13
HETATM   13  O   UNL     1      -8.912   7.018  67.562  1.00  0.00    -0.118 OA 
BRANCH  13  14
HETATM   14  C   UNL     1      -9.450   6.381  66.393  1.00  0.00    -0.133 C  
HETATM   15  C   UNL     1      -8.212   3.725  66.412  1.00  0.00    -0.100 C  
HETATM   16  C   UNL     1     -10.252   5.133  66.812  1.00  0.00    -0.289 C  
HETATM   17  C   UNL     1     -10.829   4.512  65.530  1.00  0.00    -0.085 C  
HETATM   18  N   UNL     1      -8.356   4.483  65.150  1.00  0.00    -0.118 NA 
HETATM   19  C   UNL     1      -8.291   5.933  65.467  1.00  0.00    -0.145 C  
HETATM   20  C   UNL     1      -9.680   4.186  64.560  1.00  0.00    -0.165 C  
HETATM   21  C   UNL     1      -9.298   4.099  67.433  1.00  0.00    -0.204 C  
ENDBRANCH  13  14
ENDBRANCH   2  13
BRANCH   6  22
HETATM   22  C   UNL     1      -7.664   7.058  70.788  1.00  0.00    -0.095 A  
HETATM   23  C   UNL     1      -7.625   7.643  72.066  1.00  0.00    -0.089 A  
HETATM   24  C   UNL     1      -6.446   8.202  72.568  1.00  0.00    -0.081 A  
HETATM   25  C   UNL     1      -5.280   8.175  71.808  1.00  0.00    -0.034 A  
HETATM   26  C   UNL     1      -5.293   7.594  70.544  1.00  0.00    -0.023 A  
HETATM   27  C   UNL     1      -6.474   7.049  70.037  1.00  0.00    -0.036 A  
ENDBRANCH   6  22
TORSDOF 3
ENDMDL
MODEL       95
REMARK 921   NORMALIZED FREE ENERGY PREDICTED BY IDOCK:   -4.19 KCAL/MOL
REMARK 922        TOTAL FREE ENERGY PREDICTED BY IDOCK:   -5.89 KCAL/MOL
REMARK 923 INTER-LIGAND FREE ENERGY PREDICTED BY IDOCK:   -5.05 KCAL/MOL
REMARK 924 INTRA-LIGAND FREE ENERGY PREDICTED BY IDOCK:   -0.84 KCAL/MOL
REMARK 927      BINDING AFFINITY PREDICTED BY RF-SCORE:    0.00 PKD
ROOT
HETATM    1  O   UNL     1     -12.440  15.451  70.159  1.00  0.00    -0.368 OA 
HETATM    2  C   UNL     1     -11.963  14.547  69.481  1.00  0.00    -0.319 C  
HETATM    3  C   UNL     1      -6.009  13.682  67.751  1.00  0.00    -0.128 A  
HETATM    4  N   UNL     1     -10.907  14.711  68.609  1.00  0.00    -0.247 N  
HETATM    5  C   UNL     1     -10.338  16.037  68.422  1.00  0.00    -0.251 C  
HETATM    6  C   UNL     1     -10.331  13.610  67.833  1.00  0.00    -0.249 C  
HETATM    7  C   UNL     1      -8.807  13.656  67.843  1.00  0.00    -0.188 A  
HETATM    8  C   UNL     1      -8.833  16.057  68.672  1.00  0.00    -0.210 C  
HETATM    9  C   UNL     1      -8.087  12.499  67.489  1.00  0.00    -0.176 A  
HETATM   10  C   UNL     1      -8.107  14.832  68.170  1.00  0.00    -0.134 A  
HETATM   11  C   UNL     1      -6.697  12.513  67.449  1.00  0.00    -0.147 A  
HETATM   12  C   UNL     1      -6.708  14.835  68.115  1.00  0.00    -0.134 A  
ENDROOT
BRANCH   2  13
HETATM   13  O   UNL     1     -12.446  13.272  69.494  1.00  0.00    -0.138 OA 
BRANCH  13  14
HETATM   14  C   UNL     1     -11.694  12.355  70.302  1.00  0.00    -0.123 C  
HETATM   15  C   UNL     1     -13.393   9.969  70.420  1.00  0.00     0.214 C  
HETATM   16  C   UNL     1     -11.357  11.097  69.476  1.00  0.00    -0.359 C  
HETATM   17  C   UNL     1     -10.529  10.170  70.377  1.00  0.00    -0.237 C  
HETATM   18  N   UNL     1     -12.679  10.450  71.624  1.00  0.00    -0.434 NA 
HETATM   19  C   UNL     1     -12.543  11.927  71.527  1.00  0.00    -0.193 C  
HETATM   20  C   UNL     1     -11.327   9.850  71.653  1.00  0.00    -0.022 C  
HETATM   21  C   UNL     1     -12.658  10.355  69.127  1.00  0.00     0.795 C  
ENDBRANCH  13  14
ENDBRANCH   2  13
BRANCH   6  22
HETATM   22  C   UNL     1     -10.894  13.512  66.411  1.00  0.00    -0.291 A  
HETATM   23  C   UNL     1     -11.386  12.284  65.937  1.00  0.00    -0.406 A  
HETATM   24  C   UNL     1     -11.827  12.145  64.617  1.00  0.00    -0.400 A  
HETATM   25  C   UNL     1     -11.799  13.234  63.751  1.00  0.00    -0.522 A  
HETATM   26  C   UNL     1     -11.323  14.462  64.201  1.00  0.00    -0.033 A  
HETATM   27  C   UNL     1     -10.869  14.597  65.515  1.00  0.00    -0.352 A  
ENDBRANCH   6  22
TORSDOF 3
ENDMDL
MODEL       96
REMARK 921   NORMALIZED FREE ENERGY PREDICTED BY IDOCK:   -4.18 KCAL/MOL
REMARK 922        TOTAL FREE ENERGY PREDICTED BY IDOCK:   -5.88 KCAL/MOL
REMARK 923 INTER-LIGAND FREE ENERGY PREDICTED BY IDOCK:   -5.79 KCAL/MOL
REMARK 924 INTRA-LIGAND FREE ENERGY PREDICTED BY IDOCK:   -0.09 KCAL/MOL
REMARK 927      BINDING AFFINITY PREDICTED BY RF-SCORE:    0.00 PKD
ROOT
HETATM    1  O   UNL     1     -11.796  11.185  67.803  1.00  0.00    -0.608 OA 
HETATM    2  C   UNL     1     -11.161  10.147  67.960  1.00  0.00    -0.240 C  
HETATM    3  C   UNL     1     -11.527   6.006  72.641  1.00  0.00    -0.297 A  
HETATM    4  N   UNL     1     -10.777   9.655  69.190  1.00  0.00    -0.221 N  
HETATM    5  C   UNL     1     -11.086  10.419  70.390  1.00  0.00    -0.296 C  
HETATM    6  C   UNL     1     -10.046   8.397  69.357  1.00  0.00    -0.198 C  
HETATM    7  C   UNL     1     -10.607   7.572  70.510  1.00  0.00    -0.232 A  
HETATM    8  C   UNL     1     -11.854   9.591  71.416  1.00  0.00    -0.464 C  
HETATM    9  C   UNL     1     -10.301   6.200  70.581  1.00  0.00    -0.268 A  
HETATM   10  C   UNL     1     -11.401   8.155  71.516  1.00  0.00    -0.308 A  
HETATM   11  C   UNL     1     -10.763   5.423  71.637  1.00  0.00    -0.266 A  
HETATM   12  C   UNL     1     -11.850   7.363  72.579  1.00  0.00    -0.226 A  
ENDROOT
BRANCH   2  13
HETATM   13  O   UNL     1     -10.733   9.371  66.923  1.00  0.00    -0.205 OA 
BRANCH  13  14
HETATM   14  C   UNL     1      -9.342   9.517  66.601  1.00  0.00    -0.161 C  
HETATM   15  C   UNL     1      -9.361  10.467  63.829  1.00  0.00    -0.288 C  
HETATM   16  C   UNL     1      -9.043  10.991  66.264  1.00  0.00    -0.196 C  
HETATM   17  C   UNL     1      -7.541  11.093  65.959  1.00  0.00     0.023 C  
HETATM   18  N   UNL     1      -8.383   9.449  64.272  1.00  0.00    -0.162 NA 
HETATM   19  C   UNL     1      -9.004   8.650  65.361  1.00  0.00    -0.130 C  
HETATM   20  C   UNL     1      -7.187  10.134  64.809  1.00  0.00    -0.130 C  
HETATM   21  C   UNL     1      -9.798  11.383  64.982  1.00  0.00    -0.304 C  
ENDBRANCH  13  14
ENDBRANCH   2  13
BRANCH   6  22
HETATM   22  C   UNL     1      -8.529   8.588  69.473  1.00  0.00    -0.127 A  
HETATM   23  C   UNL     1      -8.014   9.661  70.220  1.00  0.00    -0.198 A  
HETATM   24  C   UNL     1      -6.640   9.908  70.273  1.00  0.00    -0.116 A  
HETATM   25  C   UNL     1      -5.752   9.079  69.593  1.00  0.00    -0.033 A  
HETATM   26  C   UNL     1      -6.239   8.005  68.854  1.00  0.00    -0.040 A  
HETATM   27  C   UNL     1      -7.614   7.767  68.788  1.00  0.00    -0.101 A  
ENDBRANCH   6  22
TORSDOF 3
ENDMDL
MODEL       97
REMARK 921   NORMALIZED FREE ENERGY PREDICTED BY IDOCK:   -4.16 KCAL/MOL
REMARK 922        TOTAL FREE ENERGY PREDICTED BY IDOCK:   -5.86 KCAL/MOL
REMARK 923 INTER-LIGAND FREE ENERGY PREDICTED BY IDOCK:   -7.17 KCAL/MOL
REMARK 924 INTRA-LIGAND FREE ENERGY PREDICTED BY IDOCK:    1.31 KCAL/MOL
REMARK 927      BINDING AFFINITY PREDICTED BY RF-SCORE:    0.00 PKD
ROOT
HETATM    1  O   UNL     1      -9.856   9.340  69.348  1.00  0.00    -0.165 OA 
HETATM    2  C   UNL     1      -9.693  10.493  68.962  1.00  0.00    -0.210 C  
HETATM    3  C   UNL     1     -12.249  15.759  71.183  1.00  0.00    -0.473 A  
HETATM    4  N   UNL     1     -10.675  11.461  68.983  1.00  0.00    -0.211 N  
HETATM    5  C   UNL     1     -12.012  11.108  69.437  1.00  0.00    -0.349 C  
HETATM    6  C   UNL     1     -10.448  12.841  68.548  1.00  0.00    -0.238 C  
HETATM    7  C   UNL     1     -11.079  13.842  69.510  1.00  0.00    -0.156 A  
HETATM    8  C   UNL     1     -12.494  12.014  70.565  1.00  0.00    -0.292 C  
HETATM    9  C   UNL     1     -10.654  15.183  69.477  1.00  0.00    -0.277 A  
HETATM   10  C   UNL     1     -12.093  13.461  70.410  1.00  0.00    -0.405 A  
HETATM   11  C   UNL     1     -11.232  16.132  70.312  1.00  0.00    -0.389 A  
HETATM   12  C   UNL     1     -12.674  14.429  71.237  1.00  0.00    -0.414 A  
ENDROOT
BRANCH   2  13
HETATM   13  O   UNL     1      -8.517  10.943  68.438  1.00  0.00    -0.127 OA 
BRANCH  13  14
HETATM   14  C   UNL     1      -7.809   9.981  67.641  1.00  0.00    -0.095 C  
HETATM   15  C   UNL     1      -9.929   8.266  66.567  1.00  0.00    -0.250 C  
HETATM   16  C   UNL     1      -8.260  10.100  66.172  1.00  0.00    -0.125 C  
HETATM   17  C   UNL     1      -7.450   9.074  65.364  1.00  0.00    -0.089 C  
HETATM   18  N   UNL     1      -8.659   7.684  67.056  1.00  0.00    -0.120 NA 
HETATM   19  C   UNL     1      -8.136   8.551  68.143  1.00  0.00    -0.119 C  
HETATM   20  C   UNL     1      -7.680   7.669  65.948  1.00  0.00    -0.098 C  
HETATM   21  C   UNL     1      -9.742   9.704  66.060  1.00  0.00    -0.331 C  
ENDBRANCH  13  14
ENDBRANCH   2  13
BRANCH   6  22
HETATM   22  C   UNL     1     -10.870  13.096  67.097  1.00  0.00    -0.271 A  
HETATM   23  C   UNL     1     -12.232  13.237  66.778  1.00  0.00    -0.340 A  
HETATM   24  C   UNL     1     -12.650  13.386  65.453  1.00  0.00    -0.528 A  
HETATM   25  C   UNL     1     -11.715  13.412  64.422  1.00  0.00    -0.435 A  
HETATM   26  C   UNL     1     -10.361  13.283  64.715  1.00  0.00    -0.381 A  
HETATM   27  C   UNL     1      -9.944  13.119  66.038  1.00  0.00    -0.283 A  
ENDBRANCH   6  22
TORSDOF 3
ENDMDL
MODEL       98
REMARK 921   NORMALIZED FREE ENERGY PREDICTED BY IDOCK:   -4.12 KCAL/MOL
REMARK 922        TOTAL FREE ENERGY PREDICTED BY IDOCK:   -5.81 KCAL/MOL
REMARK 923 INTER-LIGAND FREE ENERGY PREDICTED BY IDOCK:   -5.40 KCAL/MOL
REMARK 924 INTRA-LIGAND FREE ENERGY PREDICTED BY IDOCK:   -0.41 KCAL/MOL
REMARK 927      BINDING AFFINITY PREDICTED BY RF-SCORE:    0.00 PKD
ROOT
HETATM    1  O   UNL     1      -8.838   5.083  71.166  1.00  0.00    -0.125 OA 
HETATM    2  C   UNL     1      -9.289   6.049  70.561  1.00  0.00    -0.160 C  
HETATM    3  C   UNL     1      -6.533  11.537  69.341  1.00  0.00    -0.111 A  
HETATM    4  N   UNL     1      -8.988   7.361  70.865  1.00  0.00    -0.149 N  
HETATM    5  C   UNL     1      -8.125   7.647  72.001  1.00  0.00    -0.101 C  
HETATM    6  C   UNL     1      -9.514   8.499  70.108  1.00  0.00    -0.165 C  
HETATM    7  C   UNL     1      -8.432   9.540  69.839  1.00  0.00    -0.198 A  
HETATM    8  C   UNL     1      -6.929   8.511  71.611  1.00  0.00    -0.092 C  
HETATM    9  C   UNL     1      -8.638  10.494  68.824  1.00  0.00    -0.146 A  
HETATM   10  C   UNL     1      -7.247   9.584  70.598  1.00  0.00    -0.130 A  
HETATM   11  C   UNL     1      -7.692  11.481  68.575  1.00  0.00    -0.134 A  
HETATM   12  C   UNL     1      -6.308  10.591  70.343  1.00  0.00    -0.126 A  
ENDROOT
BRANCH   2  13
HETATM   13  O   UNL     1     -10.171   5.935  69.527  1.00  0.00    -0.186 OA 
BRANCH  13  14
HETATM   14  C   UNL     1      -9.778   5.006  68.505  1.00  0.00    -0.154 C  
HETATM   15  C   UNL     1      -9.050   6.721  66.243  1.00  0.00    -0.139 C  
HETATM   16  C   UNL     1      -8.302   5.246  68.132  1.00  0.00    -0.097 C  
HETATM   17  C   UNL     1      -7.929   4.209  67.063  1.00  0.00    -0.097 C  
HETATM   18  N   UNL     1      -9.822   5.477  66.030  1.00  0.00    -0.106 NA 
HETATM   19  C   UNL     1     -10.648   5.228  67.241  1.00  0.00    -0.127 C  
HETATM   20  C   UNL     1      -8.879   4.350  65.861  1.00  0.00    -0.120 C  
HETATM   21  C   UNL     1      -8.158   6.637  67.491  1.00  0.00    -0.118 C  
ENDBRANCH  13  14
ENDBRANCH   2  13
BRANCH   6  22
HETATM   22  C   UNL     1     -10.765   9.121  70.739  1.00  0.00    -0.327 A  
HETATM   23  C   UNL     1     -11.518   8.386  71.670  1.00  0.00    -0.349 A  
HETATM   24  C   UNL     1     -12.708   8.895  72.197  1.00  0.00    -0.470 A  
HETATM   25  C   UNL     1     -13.160  10.155  71.815  1.00  0.00    -0.568 A  
HETATM   26  C   UNL     1     -12.427  10.904  70.901  1.00  0.00    -0.507 A  
HETATM   27  C   UNL     1     -11.245  10.389  70.363  1.00  0.00    -0.399 A  
ENDBRANCH   6  22
TORSDOF 3
ENDMDL
MODEL       99
REMARK 921   NORMALIZED FREE ENERGY PREDICTED BY IDOCK:   -4.12 KCAL/MOL
REMARK 922        TOTAL FREE ENERGY PREDICTED BY IDOCK:   -5.81 KCAL/MOL
REMARK 923 INTER-LIGAND FREE ENERGY PREDICTED BY IDOCK:   -6.39 KCAL/MOL
REMARK 924 INTRA-LIGAND FREE ENERGY PREDICTED BY IDOCK:    0.58 KCAL/MOL
REMARK 927      BINDING AFFINITY PREDICTED BY RF-SCORE:    0.00 PKD
ROOT
HETATM    1  O   UNL     1     -12.036  15.210  67.071  1.00  0.00    -0.056 OA 
HETATM    2  C   UNL     1     -10.894  15.432  66.681  1.00  0.00    -0.302 C  
HETATM    3  C   UNL     1      -5.491  14.607  69.735  1.00  0.00    -0.096 A  
HETATM    4  N   UNL     1      -9.871  15.869  67.497  1.00  0.00    -0.229 N  
HETATM    5  C   UNL     1     -10.147  16.142  68.899  1.00  0.00    -0.238 C  
HETATM    6  C   UNL     1      -8.506  16.098  67.017  1.00  0.00    -0.208 C  
HETATM    7  C   UNL     1      -7.471  15.542  67.990  1.00  0.00    -0.136 A  
HETATM    8  C   UNL     1      -9.215  15.372  69.830  1.00  0.00    -0.093 C  
HETATM    9  C   UNL     1      -6.156  15.324  67.537  1.00  0.00    -0.070 A  
HETATM   10  C   UNL     1      -7.794  15.268  69.333  1.00  0.00    -0.227 A  
HETATM   11  C   UNL     1      -5.176  14.855  68.403  1.00  0.00    -0.111 A  
HETATM   12  C   UNL     1      -6.794  14.807  70.197  1.00  0.00    -0.066 A  
ENDROOT
BRANCH   2  13
HETATM   13  O   UNL     1     -10.511  15.297  65.380  1.00  0.00    -0.336 OA 
BRANCH  13  14
HETATM   14  C   UNL     1      -9.952  14.016  65.050  1.00  0.00    -0.182 C  
HETATM   15  C   UNL     1     -12.033  12.116  65.855  1.00  0.00    -0.177 C  
HETATM   16  C   UNL     1     -10.842  13.321  64.001  1.00  0.00    -0.287 C  
HETATM   17  C   UNL     1     -10.182  11.976  63.664  1.00  0.00    -0.470 C  
HETATM   18  N   UNL     1     -10.606  11.834  66.125  1.00  0.00    -0.251 NA 
HETATM   19  C   UNL     1      -9.904  13.129  66.320  1.00  0.00    -0.283 C  
HETATM   20  C   UNL     1     -10.020  11.150  64.952  1.00  0.00    -0.278 C  
HETATM   21  C   UNL     1     -12.216  13.014  64.622  1.00  0.00    -0.477 C  
ENDBRANCH  13  14
ENDBRANCH   2  13
BRANCH   6  22
HETATM   22  C   UNL     1      -8.228  17.561  66.656  1.00  0.00    -0.288 A  
HETATM   23  C   UNL     1      -9.196  18.544  66.923  1.00  0.00    -0.290 A  
HETATM   24  C   UNL     1      -9.003  19.871  66.528  1.00  0.00    -0.442 A  
HETATM   25  C   UNL     1      -7.833  20.244  65.872  1.00  0.00    -0.142 A  
HETATM   26  C   UNL     1      -6.858  19.289  65.604  1.00  0.00    -0.313 A  
HETATM   27  C   UNL     1      -7.057  17.960  65.986  1.00  0.00    -0.340 A  
ENDBRANCH   6  22
TORSDOF 3
ENDMDL
MODEL      100
REMARK 921   NORMALIZED FREE ENERGY PREDICTED BY IDOCK:   -4.11 KCAL/MOL
REMARK 922        TOTAL FREE ENERGY PREDICTED BY IDOCK:   -5.80 KCAL/MOL
REMARK 923 INTER-LIGAND FREE ENERGY PREDICTED BY IDOCK:   -5.42 KCAL/MOL
REMARK 924 INTRA-LIGAND FREE ENERGY PREDICTED BY IDOCK:   -0.38 KCAL/MOL
REMARK 927      BINDING AFFINITY PREDICTED BY RF-SCORE:    0.00 PKD
ROOT
HETATM    1  O   UNL     1     -11.574  17.032  67.566  1.00  0.00     0.322 OA 
HETATM    2  C   UNL     1     -10.597  17.124  68.303  1.00  0.00    -0.375 C  
HETATM    3  C   UNL     1      -5.898  21.254  68.070  1.00  0.00    -0.376 A  
HETATM    4  N   UNL     1      -9.349  17.533  67.882  1.00  0.00    -0.260 N  
HETATM    5  C   UNL     1      -9.135  17.832  66.474  1.00  0.00    -0.264 C  
HETATM    6  C   UNL     1      -8.203  17.667  68.786  1.00  0.00    -0.224 C  
HETATM    7  C   UNL     1      -7.426  18.951  68.518  1.00  0.00    -0.339 A  
HETATM    8  C   UNL     1      -8.564  19.231  66.263  1.00  0.00    -0.335 C  
HETATM    9  C   UNL     1      -6.548  19.436  69.505  1.00  0.00    -0.346 A  
HETATM   10  C   UNL     1      -7.547  19.646  67.299  1.00  0.00    -0.280 A  
HETATM   11  C   UNL     1      -5.794  20.583  69.283  1.00  0.00    -0.398 A  
HETATM   12  C   UNL     1      -6.773  20.792  67.085  1.00  0.00    -0.377 A  
ENDROOT
BRANCH   2  13
HETATM   13  O   UNL     1     -10.629  16.800  69.627  1.00  0.00    -0.319 OA 
BRANCH  13  14
HETATM   14  C   UNL     1     -10.797  15.400  69.897  1.00  0.00    -0.293 C  
HETATM   15  C   UNL     1     -13.323  15.270  71.378  1.00  0.00    -0.491 C  
HETATM   16  C   UNL     1     -12.088  14.897  69.223  1.00  0.00    -0.286 C  
HETATM   17  C   UNL     1     -12.199  13.393  69.517  1.00  0.00    -0.260 C  
HETATM   18  N   UNL     1     -12.163  14.446  71.786  1.00  0.00    -0.319 NA 
HETATM   19  C   UNL     1     -10.921  15.179  71.427  1.00  0.00    -0.058 C  
HETATM   20  C   UNL     1     -12.194  13.170  71.040  1.00  0.00    -0.165 C  
HETATM   21  C   UNL     1     -13.302  15.582  69.874  1.00  0.00     0.719 C  
ENDBRANCH  13  14
ENDBRANCH   2  13
BRANCH   6  22
HETATM   22  C   UNL     1      -7.291  16.435  68.794  1.00  0.00    -0.203 A  
HETATM   23  C   UNL     1      -7.253  15.600  69.924  1.00  0.00     0.013 A  
HETATM   24  C   UNL     1      -6.370  14.519  69.992  1.00  0.00    -0.165 A  
HETATM   25  C   UNL     1      -5.518  14.242  68.926  1.00  0.00    -0.086 A  
HETATM   26  C   UNL     1      -5.545  15.050  67.793  1.00  0.00    -0.088 A  
HETATM   27  C   UNL     1      -6.417  16.139  67.732  1.00  0.00    -0.168 A  
ENDBRANCH   6  22
TORSDOF 3
ENDMDL
MODEL      101
REMARK 921   NORMALIZED FREE ENERGY PREDICTED BY IDOCK:   -4.07 KCAL/MOL
REMARK 922        TOTAL FREE ENERGY PREDICTED BY IDOCK:   -5.75 KCAL/MOL
REMARK 923 INTER-LIGAND FREE ENERGY PREDICTED BY IDOCK:   -5.31 KCAL/MOL
REMARK 924 INTRA-LIGAND FREE ENERGY PREDICTED BY IDOCK:   -0.44 KCAL/MOL
REMARK 927      BINDING AFFINITY PREDICTED BY RF-SCORE:    0.00 PKD
ROOT
HETATM    1  O   UNL     1      -7.674  12.522  67.060  1.00  0.00    -0.135 OA 
HETATM    2  C   UNL     1      -8.385  11.669  67.580  1.00  0.00    -0.151 C  
HETATM    3  C   UNL     1      -7.251   8.202  72.669  1.00  0.00    -0.127 A  
HETATM    4  N   UNL     1      -7.903  10.539  68.207  1.00  0.00    -0.107 N  
HETATM    5  C   UNL     1      -6.470  10.291  68.223  1.00  0.00    -0.056 C  
HETATM    6  C   UNL     1      -8.770   9.548  68.851  1.00  0.00    -0.133 C  
HETATM    7  C   UNL     1      -8.214   9.112  70.202  1.00  0.00    -0.161 A  
HETATM    8  C   UNL     1      -5.937  10.087  69.638  1.00  0.00    -0.042 C  
HETATM    9  C   UNL     1      -9.071   8.477  71.121  1.00  0.00    -0.238 A  
HETATM   10  C   UNL     1      -6.861   9.305  70.540  1.00  0.00    -0.087 A  
HETATM   11  C   UNL     1      -8.593   8.032  72.347  1.00  0.00    -0.220 A  
HETATM   12  C   UNL     1      -6.390   8.841  71.773  1.00  0.00    -0.074 A  
ENDROOT
BRANCH   2  13
HETATM   13  O   UNL     1      -9.748  11.728  67.572  1.00  0.00    -0.177 OA 
BRANCH  13  14
HETATM   14  C   UNL     1     -10.311  12.675  68.492  1.00  0.00    -0.221 C  
HETATM   15  C   UNL     1     -11.286  14.835  66.767  1.00  0.00    -0.344 C  
HETATM   16  C   UNL     1     -11.815  12.843  68.202  1.00  0.00    -0.380 C  
HETATM   17  C   UNL     1     -12.370  13.838  69.232  1.00  0.00    -0.185 C  
HETATM   18  N   UNL     1     -10.595  15.137  68.041  1.00  0.00    -0.253 NA 
HETATM   19  C   UNL     1      -9.618  14.050  68.311  1.00  0.00    -0.224 C  
HETATM   20  C   UNL     1     -11.591  15.161  69.133  1.00  0.00    -0.323 C  
HETATM   21  C   UNL     1     -11.998  13.474  66.811  1.00  0.00    -0.453 C  
ENDBRANCH  13  14
ENDBRANCH   2  13
BRANCH   6  22
HETATM   22  C   UNL     1      -9.096   8.352  67.950  1.00  0.00    -0.137 A  
HETATM   23  C   UNL     1     -10.435   8.028  67.674  1.00  0.00    -0.301 A  
HETATM   24  C   UNL     1     -10.764   6.894  66.926  1.00  0.00    -0.386 A  
HETATM   25  C   UNL     1      -9.759   6.070  66.427  1.00  0.00    -0.158 A  
HETATM   26  C   UNL     1      -8.425   6.375  66.681  1.00  0.00    -0.115 A  
HETATM   27  C   UNL     1      -8.098   7.500  67.441  1.00  0.00    -0.116 A  
ENDBRANCH   6  22
TORSDOF 3
ENDMDL
MODEL      102
REMARK 921   NORMALIZED FREE ENERGY PREDICTED BY IDOCK:   -4.06 KCAL/MOL
REMARK 922        TOTAL FREE ENERGY PREDICTED BY IDOCK:   -5.74 KCAL/MOL
REMARK 923 INTER-LIGAND FREE ENERGY PREDICTED BY IDOCK:   -4.46 KCAL/MOL
REMARK 924 INTRA-LIGAND FREE ENERGY PREDICTED BY IDOCK:   -1.28 KCAL/MOL
REMARK 927      BINDING AFFINITY PREDICTED BY RF-SCORE:    0.00 PKD
ROOT
HETATM    1  O   UNL     1      -6.472  11.331  69.515  1.00  0.00    -0.091 OA 
HETATM    2  C   UNL     1      -7.269  10.449  69.213  1.00  0.00    -0.100 C  
HETATM    3  C   UNL     1     -10.266   6.431  72.964  1.00  0.00    -0.216 A  
HETATM    4  N   UNL     1      -7.378   9.245  69.877  1.00  0.00    -0.065 N  
HETATM    5  C   UNL     1      -6.469   8.955  70.976  1.00  0.00    -0.062 C  
HETATM    6  C   UNL     1      -8.359   8.218  69.519  1.00  0.00    -0.121 C  
HETATM    7  C   UNL     1      -9.025   7.625  70.756  1.00  0.00    -0.149 A  
HETATM    8  C   UNL     1      -7.214   8.586  72.256  1.00  0.00    -0.089 C  
HETATM    9  C   UNL     1     -10.236   6.922  70.609  1.00  0.00    -0.212 A  
HETATM   10  C   UNL     1      -8.445   7.741  72.033  1.00  0.00    -0.146 A  
HETATM   11  C   UNL     1     -10.853   6.335  71.707  1.00  0.00    -0.294 A  
HETATM   12  C   UNL     1      -9.071   7.135  73.129  1.00  0.00    -0.173 A  
ENDROOT
BRANCH   2  13
HETATM   13  O   UNL     1      -8.126  10.549  68.157  1.00  0.00    -0.108 OA 
BRANCH  13  14
HETATM   14  C   UNL     1      -9.292  11.350  68.406  1.00  0.00    -0.194 C  
HETATM   15  C   UNL     1     -10.212  12.102  65.727  1.00  0.00    -0.254 C  
HETATM   16  C   UNL     1     -10.524  10.676  67.771  1.00  0.00    -0.258 C  
HETATM   17  C   UNL     1     -11.741  11.555  68.095  1.00  0.00    -0.357 C  
HETATM   18  N   UNL     1     -10.218  13.085  66.833  1.00  0.00    -0.241 NA 
HETATM   19  C   UNL     1      -9.109  12.748  67.763  1.00  0.00    -0.197 C  
HETATM   20  C   UNL     1     -11.499  12.978  67.564  1.00  0.00    -0.328 C  
HETATM   21  C   UNL     1     -10.364  10.662  66.241  1.00  0.00    -0.296 C  
ENDBRANCH  13  14
ENDBRANCH   2  13
BRANCH   6  22
HETATM   22  C   UNL     1      -7.792   7.134  68.596  1.00  0.00    -0.122 A  
HETATM   23  C   UNL     1      -8.210   7.068  67.256  1.00  0.00    -0.119 A  
HETATM   24  C   UNL     1      -7.775   6.039  66.415  1.00  0.00    -0.102 A  
HETATM   25  C   UNL     1      -6.902   5.066  66.893  1.00  0.00    -0.063 A  
HETATM   26  C   UNL     1      -6.468   5.117  68.214  1.00  0.00    -0.040 A  
HETATM   27  C   UNL     1      -6.915   6.136  69.059  1.00  0.00    -0.068 A  
ENDBRANCH   6  22
TORSDOF 3
ENDMDL
MODEL      103
REMARK 921   NORMALIZED FREE ENERGY PREDICTED BY IDOCK:   -4.05 KCAL/MOL
REMARK 922        TOTAL FREE ENERGY PREDICTED BY IDOCK:   -5.73 KCAL/MOL
REMARK 923 INTER-LIGAND FREE ENERGY PREDICTED BY IDOCK:   -4.57 KCAL/MOL
REMARK 924 INTRA-LIGAND FREE ENERGY PREDICTED BY IDOCK:   -1.16 KCAL/MOL
REMARK 927      BINDING AFFINITY PREDICTED BY RF-SCORE:    0.00 PKD
ROOT
HETATM    1  O   UNL     1     -12.087  10.649  68.383  1.00  0.00    -0.423 OA 
HETATM    2  C   UNL     1     -10.871  10.577  68.236  1.00  0.00    -0.248 C  
HETATM    3  C   UNL     1      -7.559   6.300  65.084  1.00  0.00    -0.092 A  
HETATM    4  N   UNL     1     -10.172   9.391  68.151  1.00  0.00    -0.190 N  
HETATM    5  C   UNL     1     -10.887   8.132  68.294  1.00  0.00     0.089 C  
HETATM    6  C   UNL     1      -8.723   9.329  67.942  1.00  0.00    -0.124 C  
HETATM    7  C   UNL     1      -8.351   8.265  66.915  1.00  0.00    -0.114 A  
HETATM    8  C   UNL     1     -10.648   7.198  67.112  1.00  0.00    -0.417 C  
HETATM    9  C   UNL     1      -7.082   8.315  66.309  1.00  0.00    -0.070 A  
HETATM   10  C   UNL     1      -9.236   7.223  66.580  1.00  0.00    -0.195 A  
HETATM   11  C   UNL     1      -6.692   7.342  65.396  1.00  0.00    -0.048 A  
HETATM   12  C   UNL     1      -8.826   6.243  65.668  1.00  0.00    -0.086 A  
ENDROOT
BRANCH   2  13
HETATM   13  O   UNL     1     -10.064  11.674  68.166  1.00  0.00    -0.183 OA 
BRANCH  13  14
HETATM   14  C   UNL     1     -10.615  12.777  67.432  1.00  0.00    -0.229 C  
HETATM   15  C   UNL     1      -8.955  15.054  68.239  1.00  0.00    -0.174 C  
HETATM   16  C   UNL     1      -9.542  13.353  66.487  1.00  0.00    -0.277 C  
HETATM   17  C   UNL     1     -10.193  14.505  65.707  1.00  0.00    -0.354 C  
HETATM   18  N   UNL     1     -10.421  15.199  68.100  1.00  0.00    -0.242 NA 
HETATM   19  C   UNL     1     -11.051  13.891  68.419  1.00  0.00    -0.255 C  
HETATM   20  C   UNL     1     -10.738  15.548  66.698  1.00  0.00    -0.306 C  
HETATM   21  C   UNL     1      -8.398  13.954  67.322  1.00  0.00    -0.199 C  
ENDBRANCH  13  14
ENDBRANCH   2  13
BRANCH   6  22
HETATM   22  C   UNL     1      -7.929   9.173  69.244  1.00  0.00    -0.097 A  
HETATM   23  C   UNL     1      -7.212  10.265  69.761  1.00  0.00    -0.147 A  
HETATM   24  C   UNL     1      -6.412  10.129  70.899  1.00  0.00     0.033 A  
HETATM   25  C   UNL     1      -6.326   8.902  71.551  1.00  0.00    -0.075 A  
HETATM   26  C   UNL     1      -7.034   7.809  71.062  1.00  0.00    -0.049 A  
HETATM   27  C   UNL     1      -7.821   7.941  69.916  1.00  0.00    -0.103 A  
ENDBRANCH   6  22
TORSDOF 3
ENDMDL
MODEL      104
REMARK 921   NORMALIZED FREE ENERGY PREDICTED BY IDOCK:   -4.04 KCAL/MOL
REMARK 922        TOTAL FREE ENERGY PREDICTED BY IDOCK:   -5.72 KCAL/MOL
REMARK 923 INTER-LIGAND FREE ENERGY PREDICTED BY IDOCK:   -4.75 KCAL/MOL
REMARK 924 INTRA-LIGAND FREE ENERGY PREDICTED BY IDOCK:   -0.97 KCAL/MOL
REMARK 927      BINDING AFFINITY PREDICTED BY RF-SCORE:    0.00 PKD
ROOT
HETATM    1  O   UNL     1      -6.682   9.093  68.812  1.00  0.00    -0.052 OA 
HETATM    2  C   UNL     1      -7.728   8.475  68.641  1.00  0.00    -0.103 C  
HETATM    3  C   UNL     1     -12.483   7.656  72.630  1.00  0.00     0.096 A  
HETATM    4  N   UNL     1      -8.385   7.779  69.634  1.00  0.00    -0.127 N  
HETATM    5  C   UNL     1      -7.797   7.711  70.963  1.00  0.00    -0.090 C  
HETATM    6  C   UNL     1      -9.650   7.074  69.415  1.00  0.00    -0.155 C  
HETATM    7  C   UNL     1     -10.631   7.318  70.557  1.00  0.00    -0.237 A  
HETATM    8  C   UNL     1      -8.764   8.189  72.044  1.00  0.00    -0.221 C  
HETATM    9  C   UNL     1     -11.998   7.052  70.353  1.00  0.00    -0.256 A  
HETATM   10  C   UNL     1     -10.197   7.776  71.816  1.00  0.00    -0.235 A  
HETATM   11  C   UNL     1     -12.917   7.226  71.381  1.00  0.00    -0.420 A  
HETATM   12  C   UNL     1     -11.132   7.936  72.846  1.00  0.00    -0.442 A  
ENDROOT
BRANCH   2  13
HETATM   13  O   UNL     1      -8.350   8.383  67.431  1.00  0.00    -0.122 OA 
BRANCH  13  14
HETATM   14  C   UNL     1      -7.485   8.562  66.298  1.00  0.00    -0.090 C  
HETATM   15  C   UNL     1      -9.249   9.678  64.240  1.00  0.00    -0.178 C  
HETATM   16  C   UNL     1      -7.427  10.057  65.927  1.00  0.00    -0.115 C  
HETATM   17  C   UNL     1      -6.468  10.193  64.735  1.00  0.00    -0.128 C  
HETATM   18  N   UNL     1      -8.246   8.645  63.898  1.00  0.00    -0.162 NA 
HETATM   19  C   UNL     1      -8.048   7.775  65.087  1.00  0.00    -0.137 C  
HETATM   20  C   UNL     1      -6.963   9.309  63.578  1.00  0.00    -0.091 C  
HETATM   21  C   UNL     1      -8.816  10.518  65.452  1.00  0.00    -0.203 C  
ENDBRANCH  13  14
ENDBRANCH   2  13
BRANCH   6  22
HETATM   22  C   UNL     1      -9.470   5.581  69.122  1.00  0.00    -0.169 A  
HETATM   23  C   UNL     1      -9.423   5.130  67.791  1.00  0.00    -0.150 A  
HETATM   24  C   UNL     1      -9.344   3.766  67.494  1.00  0.00    -0.238 A  
HETATM   25  C   UNL     1      -9.296   2.828  68.522  1.00  0.00    -0.249 A  
HETATM   26  C   UNL     1      -9.334   3.252  69.846  1.00  0.00    -0.234 A  
HETATM   27  C   UNL     1      -9.428   4.614  70.143  1.00  0.00    -0.246 A  
ENDBRANCH   6  22
TORSDOF 3
ENDMDL
MODEL      105
REMARK 921   NORMALIZED FREE ENERGY PREDICTED BY IDOCK:   -4.03 KCAL/MOL
REMARK 922        TOTAL FREE ENERGY PREDICTED BY IDOCK:   -5.70 KCAL/MOL
REMARK 923 INTER-LIGAND FREE ENERGY PREDICTED BY IDOCK:   -4.44 KCAL/MOL
REMARK 924 INTRA-LIGAND FREE ENERGY PREDICTED BY IDOCK:   -1.26 KCAL/MOL
REMARK 927      BINDING AFFINITY PREDICTED BY RF-SCORE:    0.00 PKD
ROOT
HETATM    1  O   UNL     1     -11.443   8.699  71.138  1.00  0.00    -0.262 OA 
HETATM    2  C   UNL     1     -10.441   9.063  70.531  1.00  0.00    -0.223 C  
HETATM    3  C   UNL     1      -9.168  14.696  68.112  1.00  0.00    -0.192 A  
HETATM    4  N   UNL     1     -10.452   9.984  69.504  1.00  0.00    -0.222 N  
HETATM    5  C   UNL     1     -11.723  10.534  69.056  1.00  0.00    -0.170 C  
HETATM    6  C   UNL     1      -9.239  10.430  68.815  1.00  0.00    -0.172 C  
HETATM    7  C   UNL     1      -9.239  11.940  68.602  1.00  0.00    -0.066 A  
HETATM    8  C   UNL     1     -11.731  12.060  69.084  1.00  0.00    -0.389 C  
HETATM    9  C   UNL     1      -8.024  12.590  68.314  1.00  0.00    -0.153 A  
HETATM   10  C   UNL     1     -10.428  12.693  68.661  1.00  0.00    -0.224 A  
HETATM   11  C   UNL     1      -7.990  13.959  68.077  1.00  0.00    -0.154 A  
HETATM   12  C   UNL     1     -10.381  14.069  68.408  1.00  0.00    -0.251 A  
ENDROOT
BRANCH   2  13
HETATM   13  O   UNL     1      -9.195   8.574  70.789  1.00  0.00    -0.153 OA 
BRANCH  13  14
HETATM   14  C   UNL     1      -9.168   7.210  71.236  1.00  0.00    -0.151 C  
HETATM   15  C   UNL     1      -6.549   6.235  70.354  1.00  0.00    -0.048 C  
HETATM   16  C   UNL     1      -8.012   7.019  72.237  1.00  0.00    -0.092 C  
HETATM   17  C   UNL     1      -8.052   5.556  72.704  1.00  0.00    -0.106 C  
HETATM   18  N   UNL     1      -7.754   5.386  70.226  1.00  0.00    -0.075 NA 
HETATM   19  C   UNL     1      -8.929   6.272  70.024  1.00  0.00    -0.149 C  
HETATM   20  C   UNL     1      -7.942   4.627  71.482  1.00  0.00    -0.100 C  
HETATM   21  C   UNL     1      -6.672   7.234  71.515  1.00  0.00    -0.051 C  
ENDBRANCH  13  14
ENDBRANCH   2  13
BRANCH   6  22
HETATM   22  C   UNL     1      -8.965   9.667  67.514  1.00  0.00    -0.136 A  
HETATM   23  C   UNL     1      -8.078   8.577  67.516  1.00  0.00    -0.107 A  
HETATM   24  C   UNL     1      -7.745   7.916  66.330  1.00  0.00    -0.096 A  
HETATM   25  C   UNL     1      -8.305   8.323  65.122  1.00  0.00    -0.167 A  
HETATM   26  C   UNL     1      -9.192   9.394  65.097  1.00  0.00    -0.287 A  
HETATM   27  C   UNL     1      -9.513  10.064  66.280  1.00  0.00    -0.241 A  
ENDBRANCH   6  22
TORSDOF 3
ENDMDL
MODEL      106
REMARK 921   NORMALIZED FREE ENERGY PREDICTED BY IDOCK:   -4.03 KCAL/MOL
REMARK 922        TOTAL FREE ENERGY PREDICTED BY IDOCK:   -5.70 KCAL/MOL
REMARK 923 INTER-LIGAND FREE ENERGY PREDICTED BY IDOCK:   -4.82 KCAL/MOL
REMARK 924 INTRA-LIGAND FREE ENERGY PREDICTED BY IDOCK:   -0.88 KCAL/MOL
REMARK 927      BINDING AFFINITY PREDICTED BY RF-SCORE:    0.00 PKD
ROOT
HETATM    1  O   UNL     1     -12.164  13.998  67.021  1.00  0.00    -0.430 OA 
HETATM    2  C   UNL     1     -11.244  13.799  67.808  1.00  0.00    -0.288 C  
HETATM    3  C   UNL     1      -6.045  17.176  68.680  1.00  0.00    -0.153 A  
HETATM    4  N   UNL     1      -9.924  14.102  67.546  1.00  0.00    -0.234 N  
HETATM    5  C   UNL     1      -9.563  14.642  66.244  1.00  0.00    -0.308 C  
HETATM    6  C   UNL     1      -8.846  13.886  68.514  1.00  0.00    -0.137 C  
HETATM    7  C   UNL     1      -7.890  15.073  68.560  1.00  0.00    -0.137 A  
HETATM    8  C   UNL     1      -8.800  15.958  66.359  1.00  0.00    -0.368 C  
HETATM    9  C   UNL     1      -7.036  15.221  69.669  1.00  0.00    -0.187 A  
HETATM   10  C   UNL     1      -7.823  16.007  67.508  1.00  0.00    -0.170 A  
HETATM   11  C   UNL     1      -6.125  16.268  69.730  1.00  0.00    -0.198 A  
HETATM   12  C   UNL     1      -6.893  17.051  67.577  1.00  0.00    -0.166 A  
ENDROOT
BRANCH   2  13
HETATM   13  O   UNL     1     -11.422  13.225  69.033  1.00  0.00    -0.265 OA 
BRANCH  13  14
HETATM   14  C   UNL     1     -12.626  13.619  69.709  1.00  0.00    -0.001 C  
HETATM   15  C   UNL     1     -11.665  14.828  72.200  1.00  0.00    -0.154 C  
HETATM   16  C   UNL     1     -12.629  15.149  69.904  1.00  0.00    -0.205 C  
HETATM   17  C   UNL     1     -13.948  15.515  70.600  1.00  0.00     0.337 C  
HETATM   18  N   UNL     1     -12.847  13.937  72.198  1.00  0.00    -0.319 NA 
HETATM   19  C   UNL     1     -12.681  12.945  71.104  1.00  0.00    -0.276 C  
HETATM   20  C   UNL     1     -14.056  14.744  71.927  1.00  0.00    -0.518 C  
HETATM   21  C   UNL     1     -11.485  15.544  70.853  1.00  0.00    -0.410 C  
ENDBRANCH  13  14
ENDBRANCH   2  13
BRANCH   6  22
HETATM   22  C   UNL     1      -8.105  12.560  68.310  1.00  0.00    -0.165 A  
HETATM   23  C   UNL     1      -7.695  12.178  67.021  1.00  0.00    -0.112 A  
HETATM   24  C   UNL     1      -7.093  10.937  66.794  1.00  0.00    -0.129 A  
HETATM   25  C   UNL     1      -6.875  10.060  67.853  1.00  0.00    -0.075 A  
HETATM   26  C   UNL     1      -7.265  10.421  69.139  1.00  0.00    -0.089 A  
HETATM   27  C   UNL     1      -7.880  11.655  69.364  1.00  0.00     0.342 A  
ENDBRANCH   6  22
TORSDOF 3
ENDMDL
MODEL      107
REMARK 921   NORMALIZED FREE ENERGY PREDICTED BY IDOCK:   -4.02 KCAL/MOL
REMARK 922        TOTAL FREE ENERGY PREDICTED BY IDOCK:   -5.70 KCAL/MOL
REMARK 923 INTER-LIGAND FREE ENERGY PREDICTED BY IDOCK:   -4.40 KCAL/MOL
REMARK 924 INTRA-LIGAND FREE ENERGY PREDICTED BY IDOCK:   -1.30 KCAL/MOL
REMARK 927      BINDING AFFINITY PREDICTED BY RF-SCORE:    0.00 PKD
ROOT
HETATM    1  O   UNL     1      -6.405  10.159  65.374  1.00  0.00    -0.099 OA 
HETATM    2  C   UNL     1      -7.342   9.734  66.042  1.00  0.00    -0.102 C  
HETATM    3  C   UNL     1      -7.480   8.346  72.146  1.00  0.00    -0.146 A  
HETATM    4  N   UNL     1      -7.202   8.861  67.101  1.00  0.00    -0.082 N  
HETATM    5  C   UNL     1      -5.879   8.356  67.437  1.00  0.00    -0.043 C  
HETATM    6  C   UNL     1      -8.332   8.391  67.907  1.00  0.00    -0.131 C  
HETATM    7  C   UNL     1      -8.003   8.408  69.396  1.00  0.00    -0.112 A  
HETATM    8  C   UNL     1      -5.520   8.611  68.898  1.00  0.00    -0.036 C  
HETATM    9  C   UNL     1      -9.056   8.362  70.329  1.00  0.00    -0.149 A  
HETATM   10  C   UNL     1      -6.673   8.440  69.856  1.00  0.00    -0.042 A  
HETATM   11  C   UNL     1      -8.794   8.338  71.693  1.00  0.00    -0.224 A  
HETATM   12  C   UNL     1      -6.424   8.403  71.233  1.00  0.00    -0.051 A  
ENDROOT
BRANCH   2  13
HETATM   13  O   UNL     1      -8.643  10.058  65.792  1.00  0.00    -0.137 OA 
BRANCH  13  14
HETATM   14  C   UNL     1      -8.877  11.454  65.556  1.00  0.00    -0.030 C  
HETATM   15  C   UNL     1     -11.452  11.963  66.859  1.00  0.00    -0.322 C  
HETATM   16  C   UNL     1      -8.952  12.199  66.903  1.00  0.00    -0.201 C  
HETATM   17  C   UNL     1      -9.171  13.686  66.590  1.00  0.00    -0.225 C  
HETATM   18  N   UNL     1     -11.141  12.558  65.540  1.00  0.00    -0.291 NA 
HETATM   19  C   UNL     1     -10.227  11.636  64.817  1.00  0.00    -0.275 C  
HETATM   20  C   UNL     1     -10.447  13.848  65.746  1.00  0.00    -0.307 C  
HETATM   21  C   UNL     1     -10.182  11.710  67.687  1.00  0.00    -0.206 C  
ENDBRANCH  13  14
ENDBRANCH   2  13
BRANCH   6  22
HETATM   22  C   UNL     1      -8.875   7.032  67.454  1.00  0.00    -0.119 A  
HETATM   23  C   UNL     1      -8.031   5.908  67.446  1.00  0.00    -0.102 A  
HETATM   24  C   UNL     1      -8.476   4.676  66.959  1.00  0.00    -0.105 A  
HETATM   25  C   UNL     1      -9.777   4.539  66.484  1.00  0.00    -0.220 A  
HETATM   26  C   UNL     1     -10.633   5.636  66.490  1.00  0.00    -0.320 A  
HETATM   27  C   UNL     1     -10.184   6.871  66.963  1.00  0.00    -0.317 A  
ENDBRANCH   6  22
TORSDOF 3
ENDMDL
MODEL      108
REMARK 921   NORMALIZED FREE ENERGY PREDICTED BY IDOCK:   -4.02 KCAL/MOL
REMARK 922        TOTAL FREE ENERGY PREDICTED BY IDOCK:   -5.70 KCAL/MOL
REMARK 923 INTER-LIGAND FREE ENERGY PREDICTED BY IDOCK:   -4.39 KCAL/MOL
REMARK 924 INTRA-LIGAND FREE ENERGY PREDICTED BY IDOCK:   -1.31 KCAL/MOL
REMARK 927      BINDING AFFINITY PREDICTED BY RF-SCORE:    0.00 PKD
ROOT
HETATM    1  O   UNL     1     -11.602   6.261  69.197  1.00  0.00    -0.324 OA 
HETATM    2  C   UNL     1     -10.415   6.569  69.193  1.00  0.00    -0.221 C  
HETATM    3  C   UNL     1      -7.772  11.914  67.283  1.00  0.00    -0.164 A  
HETATM    4  N   UNL     1      -9.829   7.369  68.234  1.00  0.00    -0.156 N  
HETATM    5  C   UNL     1     -10.631   7.848  67.119  1.00  0.00    -0.313 C  
HETATM    6  C   UNL     1      -8.415   7.753  68.266  1.00  0.00    -0.124 C  
HETATM    7  C   UNL     1      -8.228   9.229  67.935  1.00  0.00    -0.115 A  
HETATM    8  C   UNL     1     -10.580   9.367  66.983  1.00  0.00    -0.272 C  
HETATM    9  C   UNL     1      -7.018   9.860  68.282  1.00  0.00    -0.072 A  
HETATM   10  C   UNL     1      -9.224   9.967  67.267  1.00  0.00    -0.156 A  
HETATM   11  C   UNL     1      -6.796  11.194  67.963  1.00  0.00    -0.067 A  
HETATM   12  C   UNL     1      -8.982  11.307  66.941  1.00  0.00    -0.163 A  
ENDROOT
BRANCH   2  13
HETATM   13  O   UNL     1      -9.527   6.129  70.129  1.00  0.00    -0.156 OA 
BRANCH  13  14
HETATM   14  C   UNL     1     -10.038   6.100  71.471  1.00  0.00    -0.192 C  
HETATM   15  C   UNL     1      -7.913   7.351  73.056  1.00  0.00    -0.104 C  
HETATM   16  C   UNL     1     -10.183   7.542  71.997  1.00  0.00    -0.234 C  
HETATM   17  C   UNL     1     -10.760   7.451  73.418  1.00  0.00    -0.407 C  
HETATM   18  N   UNL     1      -8.625   6.155  73.556  1.00  0.00    -0.125 NA 
HETATM   19  C   UNL     1      -9.045   5.339  72.387  1.00  0.00    -0.134 C  
HETATM   20  C   UNL     1      -9.834   6.587  74.291  1.00  0.00    -0.314 C  
HETATM   21  C   UNL     1      -8.790   8.185  72.109  1.00  0.00    -0.238 C  
ENDBRANCH  13  14
ENDBRANCH   2  13
BRANCH   6  22
HETATM   22  C   UNL     1      -7.523   6.853  67.403  1.00  0.00    -0.097 A  
HETATM   23  C   UNL     1      -7.432   7.079  66.019  1.00  0.00    -0.080 A  
HETATM   24  C   UNL     1      -6.694   6.223  65.196  1.00  0.00    -0.047 A  
HETATM   25  C   UNL     1      -6.020   5.135  65.743  1.00  0.00    -0.022 A  
HETATM   26  C   UNL     1      -6.090   4.896  67.112  1.00  0.00    -0.031 A  
HETATM   27  C   UNL     1      -6.840   5.743  67.932  1.00  0.00    -0.060 A  
ENDBRANCH   6  22
TORSDOF 3
ENDMDL
MODEL      109
REMARK 921   NORMALIZED FREE ENERGY PREDICTED BY IDOCK:   -3.93 KCAL/MOL
REMARK 922        TOTAL FREE ENERGY PREDICTED BY IDOCK:   -5.59 KCAL/MOL
REMARK 923 INTER-LIGAND FREE ENERGY PREDICTED BY IDOCK:   -4.60 KCAL/MOL
REMARK 924 INTRA-LIGAND FREE ENERGY PREDICTED BY IDOCK:   -0.99 KCAL/MOL
REMARK 927      BINDING AFFINITY PREDICTED BY RF-SCORE:    0.00 PKD
ROOT
HETATM    1  O   UNL     1      -8.850   9.145  66.152  1.00  0.00    -0.142 OA 
HETATM    2  C   UNL     1      -8.890   9.517  67.320  1.00  0.00    -0.128 C  
HETATM    3  C   UNL     1      -7.158   6.416  72.476  1.00  0.00    -0.078 A  
HETATM    4  N   UNL     1      -9.144   8.682  68.389  1.00  0.00    -0.138 N  
HETATM    5  C   UNL     1      -9.438   7.279  68.141  1.00  0.00    -0.133 C  
HETATM    6  C   UNL     1      -9.156   9.142  69.780  1.00  0.00    -0.167 C  
HETATM    7  C   UNL     1      -8.426   8.168  70.698  1.00  0.00    -0.128 A  
HETATM    8  C   UNL     1      -8.513   6.351  68.923  1.00  0.00    -0.121 C  
HETATM    9  C   UNL     1      -8.005   8.609  71.966  1.00  0.00    -0.115 A  
HETATM   10  C   UNL     1      -8.188   6.833  70.316  1.00  0.00    -0.125 A  
HETATM   11  C   UNL     1      -7.371   7.739  72.845  1.00  0.00    -0.106 A  
HETATM   12  C   UNL     1      -7.559   5.966  71.216  1.00  0.00    -0.104 A  
ENDROOT
BRANCH   2  13
HETATM   13  O   UNL     1      -8.714  10.817  67.695  1.00  0.00    -0.125 OA 
BRANCH  13  14
HETATM   14  C   UNL     1      -7.410  11.118  68.214  1.00  0.00    -0.090 C  
HETATM   15  C   UNL     1      -7.068  13.971  67.635  1.00  0.00    -0.179 C  
HETATM   16  C   UNL     1      -7.533  12.176  69.329  1.00  0.00     0.219 C  
HETATM   17  C   UNL     1      -6.118  12.435  69.868  1.00  0.00    -0.135 C  
HETATM   18  N   UNL     1      -5.951  13.020  67.441  1.00  0.00    -0.314 NA 
HETATM   19  C   UNL     1      -6.522  11.696  67.083  1.00  0.00    -0.137 C  
HETATM   20  C   UNL     1      -5.207  12.887  68.713  1.00  0.00    -0.067 C  
HETATM   21  C   UNL     1      -8.042  13.496  68.724  1.00  0.00     0.024 C  
ENDBRANCH  13  14
ENDBRANCH   2  13
BRANCH   6  22
HETATM   22  C   UNL     1     -10.560   9.476  70.296  1.00  0.00    -0.317 A  
HETATM   23  C   UNL     1     -11.093  10.760  70.092  1.00  0.00    -0.298 A  
HETATM   24  C   UNL     1     -12.335  11.118  70.625  1.00  0.00    -0.482 A  
HETATM   25  C   UNL     1     -13.074  10.194  71.359  1.00  0.00    -0.512 A  
HETATM   26  C   UNL     1     -12.570   8.915  71.566  1.00  0.00    -0.385 A  
HETATM   27  C   UNL     1     -11.322   8.562  71.047  1.00  0.00    -0.313 A  
ENDBRANCH   6  22
TORSDOF 3
ENDMDL
MODEL      110
REMARK 921   NORMALIZED FREE ENERGY PREDICTED BY IDOCK:   -3.91 KCAL/MOL
REMARK 922        TOTAL FREE ENERGY PREDICTED BY IDOCK:   -5.56 KCAL/MOL
REMARK 923 INTER-LIGAND FREE ENERGY PREDICTED BY IDOCK:   -4.08 KCAL/MOL
REMARK 924 INTRA-LIGAND FREE ENERGY PREDICTED BY IDOCK:   -1.49 KCAL/MOL
REMARK 927      BINDING AFFINITY PREDICTED BY RF-SCORE:    0.00 PKD
ROOT
HETATM    1  O   UNL     1     -11.006   6.775  67.195  1.00  0.00    -0.363 OA 
HETATM    2  C   UNL     1     -10.064   6.612  67.963  1.00  0.00    -0.154 C  
HETATM    3  C   UNL     1     -10.018   6.923  74.216  1.00  0.00    -0.308 A  
HETATM    4  N   UNL     1      -9.910   7.293  69.153  1.00  0.00    -0.164 N  
HETATM    5  C   UNL     1     -10.883   8.312  69.519  1.00  0.00    -0.116 C  
HETATM    6  C   UNL     1      -8.794   7.060  70.071  1.00  0.00    -0.142 C  
HETATM    7  C   UNL     1      -9.265   6.998  71.520  1.00  0.00    -0.153 A  
HETATM    8  C   UNL     1     -11.487   8.060  70.897  1.00  0.00    -0.291 C  
HETATM    9  C   UNL     1      -8.426   6.413  72.487  1.00  0.00    -0.123 A  
HETATM   10  C   UNL     1     -10.505   7.534  71.916  1.00  0.00    -0.235 A  
HETATM   11  C   UNL     1      -8.804   6.372  73.824  1.00  0.00    -0.134 A  
HETATM   12  C   UNL     1     -10.868   7.497  73.267  1.00  0.00    -0.409 A  
ENDROOT
BRANCH   2  13
HETATM   13  O   UNL     1      -9.038   5.749  67.712  1.00  0.00    -0.109 OA 
BRANCH  13  14
HETATM   14  C   UNL     1      -9.433   4.378  67.556  1.00  0.00    -0.166 C  
HETATM   15  C   UNL     1      -6.922   2.890  67.827  1.00  0.00    -0.049 C  
HETATM   16  C   UNL     1      -9.106   3.599  68.845  1.00  0.00    -0.201 C  
HETATM   17  C   UNL     1      -9.577   2.152  68.633  1.00  0.00    -0.113 C  
HETATM   18  N   UNL     1      -7.917   2.514  66.798  1.00  0.00    -0.075 NA 
HETATM   19  C   UNL     1      -8.644   3.742  66.382  1.00  0.00    -0.113 C  
HETATM   20  C   UNL     1      -8.886   1.566  67.390  1.00  0.00    -0.114 C  
HETATM   21  C   UNL     1      -7.581   3.559  69.043  1.00  0.00    -0.052 C  
ENDBRANCH  13  14
ENDBRANCH   2  13
BRANCH   6  22
HETATM   22  C   UNL     1      -7.638   8.049  69.885  1.00  0.00    -0.087 A  
HETATM   23  C   UNL     1      -6.587   7.739  69.005  1.00  0.00    -0.048 A  
HETATM   24  C   UNL     1      -5.480   8.583  68.878  1.00  0.00    -0.039 A  
HETATM   25  C   UNL     1      -5.409   9.760  69.619  1.00  0.00    -0.034 A  
HETATM   26  C   UNL     1      -6.441  10.091  70.490  1.00  0.00    -0.121 A  
HETATM   27  C   UNL     1      -7.541   9.240  70.627  1.00  0.00    -0.161 A  
ENDBRANCH   6  22
TORSDOF 3
ENDMDL
MODEL      111
REMARK 921   NORMALIZED FREE ENERGY PREDICTED BY IDOCK:   -3.87 KCAL/MOL
REMARK 922        TOTAL FREE ENERGY PREDICTED BY IDOCK:   -5.52 KCAL/MOL
REMARK 923 INTER-LIGAND FREE ENERGY PREDICTED BY IDOCK:   -4.46 KCAL/MOL
REMARK 924 INTRA-LIGAND FREE ENERGY PREDICTED BY IDOCK:   -1.06 KCAL/MOL
REMARK 927      BINDING AFFINITY PREDICTED BY RF-SCORE:    0.00 PKD
ROOT
HETATM    1  O   UNL     1     -12.335   6.808  69.904  1.00  0.00     0.007 OA 
HETATM    2  C   UNL     1     -11.251   6.288  69.659  1.00  0.00    -0.437 C  
HETATM    3  C   UNL     1      -6.102   8.923  67.261  1.00  0.00    -0.058 A  
HETATM    4  N   UNL     1     -10.441   6.651  68.602  1.00  0.00    -0.194 N  
HETATM    5  C   UNL     1     -10.899   7.674  67.675  1.00  0.00    -0.101 C  
HETATM    6  C   UNL     1      -9.135   6.039  68.347  1.00  0.00    -0.112 C  
HETATM    7  C   UNL     1      -8.087   7.086  67.987  1.00  0.00    -0.119 A  
HETATM    8  C   UNL     1      -9.894   8.814  67.534  1.00  0.00    -0.232 C  
HETATM    9  C   UNL     1      -6.724   6.749  68.083  1.00  0.00    -0.068 A  
HETATM   10  C   UNL     1      -8.452   8.370  67.537  1.00  0.00    -0.129 A  
HETATM   11  C   UNL     1      -5.740   7.665  67.727  1.00  0.00    -0.036 A  
HETATM   12  C   UNL     1      -7.450   9.277  67.172  1.00  0.00    -0.091 A  
ENDROOT
BRANCH   2  13
HETATM   13  O   UNL     1     -10.732   5.264  70.394  1.00  0.00    -0.250 OA 
BRANCH  13  14
HETATM   14  C   UNL     1     -10.232   5.647  71.685  1.00  0.00    -0.208 C  
HETATM   15  C   UNL     1     -10.950   3.390  73.411  1.00  0.00    -0.206 C  
HETATM   16  C   UNL     1      -9.170   4.630  72.147  1.00  0.00    -0.159 C  
HETATM   17  C   UNL     1      -8.649   5.105  73.512  1.00  0.00    -0.112 C  
HETATM   18  N   UNL     1     -11.101   4.783  73.886  1.00  0.00    -0.279 NA 
HETATM   19  C   UNL     1     -11.394   5.646  72.712  1.00  0.00    -0.299 C  
HETATM   20  C   UNL     1      -9.828   5.225  74.493  1.00  0.00    -0.206 C  
HETATM   21  C   UNL     1      -9.835   3.260  72.362  1.00  0.00    -0.226 C  
ENDBRANCH  13  14
ENDBRANCH   2  13
BRANCH   6  22
HETATM   22  C   UNL     1      -9.189   4.903  67.319  1.00  0.00    -0.133 A  
HETATM   23  C   UNL     1      -9.171   3.566  67.752  1.00  0.00    -0.229 A  
HETATM   24  C   UNL     1      -9.133   2.512  66.836  1.00  0.00    -0.147 A  
HETATM   25  C   UNL     1      -9.129   2.773  65.468  1.00  0.00    -0.137 A  
HETATM   26  C   UNL     1      -9.155   4.088  65.016  1.00  0.00    -0.140 A  
HETATM   27  C   UNL     1      -9.177   5.142  65.933  1.00  0.00    -0.163 A  
ENDBRANCH   6  22
TORSDOF 3
ENDMDL
MODEL      112
REMARK 921   NORMALIZED FREE ENERGY PREDICTED BY IDOCK:   -3.87 KCAL/MOL
REMARK 922        TOTAL FREE ENERGY PREDICTED BY IDOCK:   -5.52 KCAL/MOL
REMARK 923 INTER-LIGAND FREE ENERGY PREDICTED BY IDOCK:   -4.30 KCAL/MOL
REMARK 924 INTRA-LIGAND FREE ENERGY PREDICTED BY IDOCK:   -1.21 KCAL/MOL
REMARK 927      BINDING AFFINITY PREDICTED BY RF-SCORE:    0.00 PKD
ROOT
HETATM    1  O   UNL     1     -10.197   8.645  70.793  1.00  0.00    -0.190 OA 
HETATM    2  C   UNL     1     -10.028   8.559  69.581  1.00  0.00    -0.192 C  
HETATM    3  C   UNL     1      -9.206   3.417  66.105  1.00  0.00    -0.169 A  
HETATM    4  N   UNL     1      -9.236   7.604  68.978  1.00  0.00    -0.141 N  
HETATM    5  C   UNL     1      -8.502   6.661  69.808  1.00  0.00    -0.132 C  
HETATM    6  C   UNL     1      -9.073   7.499  67.526  1.00  0.00    -0.125 C  
HETATM    7  C   UNL     1      -9.145   6.049  67.059  1.00  0.00    -0.117 A  
HETATM    8  C   UNL     1      -8.798   5.212  69.432  1.00  0.00    -0.119 C  
HETATM    9  C   UNL     1      -9.392   5.781  65.699  1.00  0.00     0.010 A  
HETATM   10  C   UNL     1      -8.945   4.977  67.949  1.00  0.00    -0.116 A  
HETATM   11  C   UNL     1      -9.427   4.474  65.228  1.00  0.00    -0.175 A  
HETATM   12  C   UNL     1      -8.971   3.666  67.459  1.00  0.00    -0.164 A  
ENDROOT
BRANCH   2  13
HETATM   13  O   UNL     1     -10.588   9.423  68.687  1.00  0.00    -0.214 OA 
BRANCH  13  14
HETATM   14  C   UNL     1     -10.444  10.811  69.025  1.00  0.00    -0.215 C  
HETATM   15  C   UNL     1      -9.750  12.083  66.478  1.00  0.00    -0.216 C  
HETATM   16  C   UNL     1     -11.480  11.641  68.243  1.00  0.00    -0.369 C  
HETATM   17  C   UNL     1     -11.302  13.107  68.666  1.00  0.00    -0.327 C  
HETATM   18  N   UNL     1      -9.068  12.478  67.730  1.00  0.00    -0.183 NA 
HETATM   19  C   UNL     1      -9.025  11.296  68.630  1.00  0.00    -0.147 C  
HETATM   20  C   UNL     1      -9.853  13.545  68.388  1.00  0.00    -0.225 C  
HETATM   21  C   UNL     1     -11.170  11.557  66.739  1.00  0.00    -0.350 C  
ENDBRANCH  13  14
ENDBRANCH   2  13
BRANCH   6  22
HETATM   22  C   UNL     1      -7.820   8.209  67.003  1.00  0.00    -0.104 A  
HETATM   23  C   UNL     1      -7.898   9.003  65.846  1.00  0.00    -0.102 A  
HETATM   24  C   UNL     1      -6.755   9.594  65.299  1.00  0.00    -0.088 A  
HETATM   25  C   UNL     1      -5.515   9.415  65.907  1.00  0.00    -0.040 A  
HETATM   26  C   UNL     1      -5.416   8.640  67.058  1.00  0.00    -0.037 A  
HETATM   27  C   UNL     1      -6.556   8.037  67.596  1.00  0.00    -0.057 A  
ENDBRANCH   6  22
TORSDOF 3
ENDMDL
MODEL      113
REMARK 921   NORMALIZED FREE ENERGY PREDICTED BY IDOCK:   -3.81 KCAL/MOL
REMARK 922        TOTAL FREE ENERGY PREDICTED BY IDOCK:   -5.45 KCAL/MOL
REMARK 923 INTER-LIGAND FREE ENERGY PREDICTED BY IDOCK:   -5.17 KCAL/MOL
REMARK 924 INTRA-LIGAND FREE ENERGY PREDICTED BY IDOCK:   -0.27 KCAL/MOL
REMARK 927      BINDING AFFINITY PREDICTED BY RF-SCORE:    0.00 PKD
ROOT
HETATM    1  O   UNL     1      -8.001  10.783  69.813  1.00  0.00    -0.024 OA 
HETATM    2  C   UNL     1      -8.892   9.941  69.773  1.00  0.00    -0.211 C  
HETATM    3  C   UNL     1     -10.349   5.583  74.026  1.00  0.00    -0.297 A  
HETATM    4  N   UNL     1      -8.786   8.677  70.315  1.00  0.00    -0.139 N  
HETATM    5  C   UNL     1      -7.532   8.271  70.931  1.00  0.00    -0.064 C  
HETATM    6  C   UNL     1      -9.875   7.697  70.284  1.00  0.00    -0.180 C  
HETATM    7  C   UNL     1     -10.026   6.986  71.625  1.00  0.00    -0.187 A  
HETATM    8  C   UNL     1      -7.727   7.779  72.363  1.00  0.00    -0.120 C  
HETATM    9  C   UNL     1     -11.227   6.310  71.908  1.00  0.00    -0.332 A  
HETATM   10  C   UNL     1      -8.984   6.969  72.571  1.00  0.00    -0.144 A  
HETATM   11  C   UNL     1     -11.388   5.619  73.103  1.00  0.00    -0.232 A  
HETATM   12  C   UNL     1      -9.155   6.259  73.766  1.00  0.00    -0.136 A  
ENDROOT
BRANCH   2  13
HETATM   13  O   UNL     1     -10.091  10.153  69.158  1.00  0.00    -0.189 OA 
BRANCH  13  14
HETATM   14  C   UNL     1     -10.169  11.372  68.403  1.00  0.00    -0.198 C  
HETATM   15  C   UNL     1      -9.668  10.520  65.644  1.00  0.00    -0.234 C  
HETATM   16  C   UNL     1     -11.318  11.271  67.381  1.00  0.00    -0.349 C  
HETATM   17  C   UNL     1     -11.375  12.609  66.628  1.00  0.00    -0.379 C  
HETATM   18  N   UNL     1      -9.065  11.763  66.173  1.00  0.00    -0.210 NA 
HETATM   19  C   UNL     1      -8.842  11.589  67.632  1.00  0.00    -0.152 C  
HETATM   20  C   UNL     1     -10.012  12.881  65.968  1.00  0.00    -0.272 C  
HETATM   21  C   UNL     1     -10.989  10.178  66.351  1.00  0.00     0.123 C  
ENDBRANCH  13  14
ENDBRANCH   2  13
BRANCH   6  22
HETATM   22  C   UNL     1      -9.769   6.708  69.118  1.00  0.00    -0.148 A  
HETATM   23  C   UNL     1     -10.582   6.874  67.984  1.00  0.00    -0.273 A  
HETATM   24  C   UNL     1     -10.566   5.941  66.943  1.00  0.00    -0.384 A  
HETATM   25  C   UNL     1      -9.727   4.832  67.010  1.00  0.00    -0.205 A  
HETATM   26  C   UNL     1      -8.908   4.652  68.119  1.00  0.00    -0.119 A  
HETATM   27  C   UNL     1      -8.934   5.577  69.166  1.00  0.00    -0.120 A  
ENDBRANCH   6  22
TORSDOF 3
ENDMDL
MODEL      114
REMARK 921   NORMALIZED FREE ENERGY PREDICTED BY IDOCK:   -3.70 KCAL/MOL
REMARK 922        TOTAL FREE ENERGY PREDICTED BY IDOCK:   -5.32 KCAL/MOL
REMARK 923 INTER-LIGAND FREE ENERGY PREDICTED BY IDOCK:   -4.98 KCAL/MOL
REMARK 924 INTRA-LIGAND FREE ENERGY PREDICTED BY IDOCK:   -0.35 KCAL/MOL
REMARK 927      BINDING AFFINITY PREDICTED BY RF-SCORE:    0.00 PKD
ROOT
HETATM    1  O   UNL     1     -10.756  12.991  64.432  1.00  0.00    -0.350 OA 
HETATM    2  C   UNL     1     -10.018  12.324  65.150  1.00  0.00    -0.215 C  
HETATM    3  C   UNL     1      -5.615   8.199  63.477  1.00  0.00    -0.058 A  
HETATM    4  N   UNL     1      -9.589  11.049  64.845  1.00  0.00    -0.232 N  
HETATM    5  C   UNL     1     -10.068  10.409  63.629  1.00  0.00    -0.018 C  
HETATM    6  C   UNL     1      -8.682  10.283  65.702  1.00  0.00    -0.162 C  
HETATM    7  C   UNL     1      -7.603   9.578  64.887  1.00  0.00    -0.111 A  
HETATM    8  C   UNL     1      -8.922   9.927  62.744  1.00  0.00    -0.272 C  
HETATM    9  C   UNL     1      -6.442   9.122  65.539  1.00  0.00    -0.068 A  
HETATM   10  C   UNL     1      -7.754   9.351  63.505  1.00  0.00    -0.122 A  
HETATM   11  C   UNL     1      -5.454   8.443  64.836  1.00  0.00    -0.040 A  
HETATM   12  C   UNL     1      -6.756   8.655  62.813  1.00  0.00    -0.091 A  
ENDROOT
BRANCH   2  13
HETATM   13  O   UNL     1      -9.556  12.763  66.356  1.00  0.00    -0.251 OA 
BRANCH  13  14
HETATM   14  C   UNL     1      -9.862  14.135  66.650  1.00  0.00    -0.283 C  
HETATM   15  C   UNL     1     -11.684  13.970  68.939  1.00  0.00    -0.340 C  
HETATM   16  C   UNL     1      -9.381  14.474  68.075  1.00  0.00    -0.201 C  
HETATM   17  C   UNL     1      -9.703  15.956  68.323  1.00  0.00    -0.209 C  
HETATM   18  N   UNL     1     -11.934  14.930  67.841  1.00  0.00    -0.263 NA 
HETATM   19  C   UNL     1     -11.395  14.350  66.583  1.00  0.00    -0.353 C  
HETATM   20  C   UNL     1     -11.212  16.189  68.130  1.00  0.00    -0.311 C  
HETATM   21  C   UNL     1     -10.189  13.653  69.094  1.00  0.00     0.099 C  
ENDBRANCH  13  14
ENDBRANCH   2  13
BRANCH   6  22
HETATM   22  C   UNL     1      -9.409   9.319  66.647  1.00  0.00    -0.219 A  
HETATM   23  C   UNL     1      -9.856   8.075  66.168  1.00  0.00    -0.057 A  
HETATM   24  C   UNL     1     -10.595   7.213  66.983  1.00  0.00    -0.413 A  
HETATM   25  C   UNL     1     -10.888   7.570  68.297  1.00  0.00    -0.052 A  
HETATM   26  C   UNL     1     -10.448   8.793  68.794  1.00  0.00    -0.214 A  
HETATM   27  C   UNL     1      -9.723   9.661  67.975  1.00  0.00    -0.167 A  
ENDBRANCH   6  22
TORSDOF 3
ENDMDL
MODEL      115
REMARK 921   NORMALIZED FREE ENERGY PREDICTED BY IDOCK:   -3.69 KCAL/MOL
REMARK 922        TOTAL FREE ENERGY PREDICTED BY IDOCK:   -5.30 KCAL/MOL
REMARK 923 INTER-LIGAND FREE ENERGY PREDICTED BY IDOCK:   -4.77 KCAL/MOL
REMARK 924 INTRA-LIGAND FREE ENERGY PREDICTED BY IDOCK:   -0.53 KCAL/MOL
REMARK 927      BINDING AFFINITY PREDICTED BY RF-SCORE:    0.00 PKD
ROOT
HETATM    1  O   UNL     1      -6.561   7.288  71.083  1.00  0.00    -0.043 OA 
HETATM    2  C   UNL     1      -7.605   7.358  70.442  1.00  0.00    -0.091 C  
HETATM    3  C   UNL     1      -9.357   4.019  65.444  1.00  0.00    -0.162 A  
HETATM    4  N   UNL     1      -7.692   7.147  69.081  1.00  0.00    -0.107 N  
HETATM    5  C   UNL     1      -6.479   6.874  68.325  1.00  0.00    -0.050 C  
HETATM    6  C   UNL     1      -8.954   7.204  68.341  1.00  0.00    -0.125 C  
HETATM    7  C   UNL     1      -9.071   6.056  67.344  1.00  0.00    -0.106 A  
HETATM    8  C   UNL     1      -6.581   5.581  67.521  1.00  0.00    -0.053 C  
HETATM    9  C   UNL     1     -10.338   5.724  66.829  1.00  0.00    -0.312 A  
HETATM   10  C   UNL     1      -7.939   5.341  66.908  1.00  0.00    -0.101 A  
HETATM   11  C   UNL     1     -10.479   4.709  65.890  1.00  0.00    -0.305 A  
HETATM   12  C   UNL     1      -8.094   4.329  65.953  1.00  0.00    -0.098 A  
ENDROOT
BRANCH   2  13
HETATM   13  O   UNL     1      -8.804   7.683  71.004  1.00  0.00    -0.139 OA 
BRANCH  13  14
HETATM   14  C   UNL     1      -9.683   6.570  71.226  1.00  0.00    -0.173 C  
HETATM   15  C   UNL     1     -10.229   6.671  74.104  1.00  0.00    -0.363 C  
HETATM   16  C   UNL     1     -11.035   7.081  71.761  1.00  0.00    -0.263 C  
HETATM   17  C   UNL     1     -11.942   5.855  71.949  1.00  0.00    -0.069 C  
HETATM   18  N   UNL     1      -9.980   5.380  73.426  1.00  0.00    -0.167 NA 
HETATM   19  C   UNL     1      -9.061   5.622  72.283  1.00  0.00    -0.139 C  
HETATM   20  C   UNL     1     -11.261   4.858  72.902  1.00  0.00    -0.240 C  
HETATM   21  C   UNL     1     -10.828   7.714  73.147  1.00  0.00    -0.440 C  
ENDBRANCH  13  14
ENDBRANCH   2  13
BRANCH   6  22
HETATM   22  C   UNL     1      -9.211   8.564  67.683  1.00  0.00    -0.147 A  
HETATM   23  C   UNL     1      -8.201   9.172  66.917  1.00  0.00    -0.116 A  
HETATM   24  C   UNL     1      -8.376  10.449  66.376  1.00  0.00    -0.139 A  
HETATM   25  C   UNL     1      -9.570  11.136  66.577  1.00  0.00    -0.222 A  
HETATM   26  C   UNL     1     -10.587  10.551  67.325  1.00  0.00    -0.317 A  
HETATM   27  C   UNL     1     -10.405   9.281  67.878  1.00  0.00    -0.279 A  
ENDBRANCH   6  22
TORSDOF 3
ENDMDL
MODEL      116
REMARK 921   NORMALIZED FREE ENERGY PREDICTED BY IDOCK:   -3.68 KCAL/MOL
REMARK 922        TOTAL FREE ENERGY PREDICTED BY IDOCK:   -5.29 KCAL/MOL
REMARK 923 INTER-LIGAND FREE ENERGY PREDICTED BY IDOCK:   -4.11 KCAL/MOL
REMARK 924 INTRA-LIGAND FREE ENERGY PREDICTED BY IDOCK:   -1.18 KCAL/MOL
REMARK 927      BINDING AFFINITY PREDICTED BY RF-SCORE:    0.00 PKD
ROOT
HETATM    1  O   UNL     1     -11.970   6.855  70.254  1.00  0.00    -0.305 OA 
HETATM    2  C   UNL     1     -10.787   6.580  70.085  1.00  0.00    -0.282 C  
HETATM    3  C   UNL     1      -6.952   8.445  65.501  1.00  0.00    -0.070 A  
HETATM    4  N   UNL     1     -10.197   6.430  68.847  1.00  0.00    -0.171 N  
HETATM    5  C   UNL     1     -11.016   6.547  67.650  1.00  0.00    -0.337 C  
HETATM    6  C   UNL     1      -8.774   6.134  68.669  1.00  0.00    -0.112 C  
HETATM    7  C   UNL     1      -8.160   6.980  67.558  1.00  0.00    -0.113 A  
HETATM    8  C   UNL     1     -10.465   7.585  66.676  1.00  0.00    -0.201 C  
HETATM    9  C   UNL     1      -6.761   7.118  67.497  1.00  0.00    -0.064 A  
HETATM   10  C   UNL     1      -8.959   7.604  66.581  1.00  0.00    -0.181 A  
HETATM   11  C   UNL     1      -6.164   7.850  66.478  1.00  0.00    -0.046 A  
HETATM   12  C   UNL     1      -8.343   8.329  65.554  1.00  0.00    -0.163 A  
ENDROOT
BRANCH   2  13
HETATM   13  O   UNL     1      -9.918   6.363  71.114  1.00  0.00    -0.179 OA 
BRANCH  13  14
HETATM   14  C   UNL     1     -10.421   5.505  72.150  1.00  0.00    -0.220 C  
HETATM   15  C   UNL     1      -8.072   3.967  72.988  1.00  0.00    -0.088 C  
HETATM   16  C   UNL     1      -9.696   5.819  73.474  1.00  0.00    -0.159 C  
HETATM   17  C   UNL     1     -10.294   4.899  74.549  1.00  0.00    -0.324 C  
HETATM   18  N   UNL     1      -9.390   3.312  72.839  1.00  0.00    -0.091 NA 
HETATM   19  C   UNL     1     -10.148   4.026  71.778  1.00  0.00    -0.129 C  
HETATM   20  C   UNL     1     -10.133   3.432  74.113  1.00  0.00    -0.145 C  
HETATM   21  C   UNL     1      -8.208   5.457  73.337  1.00  0.00    -0.114 C  
ENDBRANCH  13  14
ENDBRANCH   2  13
BRANCH   6  22
HETATM   22  C   UNL     1      -8.484   4.640  68.478  1.00  0.00    -0.095 A  
HETATM   23  C   UNL     1      -9.096   3.938  67.426  1.00  0.00    -0.178 A  
HETATM   24  C   UNL     1      -8.917   2.560  67.279  1.00  0.00    -0.182 A  
HETATM   25  C   UNL     1      -8.111   1.859  68.172  1.00  0.00    -0.067 A  
HETATM   26  C   UNL     1      -7.489   2.535  69.217  1.00  0.00    -0.044 A  
HETATM   27  C   UNL     1      -7.680   3.910  69.373  1.00  0.00    -0.052 A  
ENDBRANCH   6  22
TORSDOF 3
ENDMDL
MODEL      117
REMARK 921   NORMALIZED FREE ENERGY PREDICTED BY IDOCK:   -3.64 KCAL/MOL
REMARK 922        TOTAL FREE ENERGY PREDICTED BY IDOCK:   -5.24 KCAL/MOL
REMARK 923 INTER-LIGAND FREE ENERGY PREDICTED BY IDOCK:   -4.25 KCAL/MOL
REMARK 924 INTRA-LIGAND FREE ENERGY PREDICTED BY IDOCK:   -1.00 KCAL/MOL
REMARK 927      BINDING AFFINITY PREDICTED BY RF-SCORE:    0.00 PKD
ROOT
HETATM    1  O   UNL     1     -11.336  16.299  70.343  1.00  0.00    -0.371 OA 
HETATM    2  C   UNL     1     -10.657  15.904  69.401  1.00  0.00    -0.263 C  
HETATM    3  C   UNL     1      -6.694  19.150  65.801  1.00  0.00    -0.295 A  
HETATM    4  N   UNL     1     -10.357  16.666  68.291  1.00  0.00    -0.287 N  
HETATM    5  C   UNL     1     -10.911  18.007  68.178  1.00  0.00    -0.131 C  
HETATM    6  C   UNL     1      -9.517  16.184  67.192  1.00  0.00    -0.223 C  
HETATM    7  C   UNL     1      -8.521  17.248  66.741  1.00  0.00    -0.275 A  
HETATM    8  C   UNL     1      -9.828  19.059  67.953  1.00  0.00    -0.400 C  
HETATM    9  C   UNL     1      -7.402  16.858  65.983  1.00  0.00     0.013 A  
HETATM   10  C   UNL     1      -8.711  18.610  67.043  1.00  0.00    -0.285 A  
HETATM   11  C   UNL     1      -6.493  17.803  65.522  1.00  0.00    -0.039 A  
HETATM   12  C   UNL     1      -7.794  19.552  66.563  1.00  0.00    -0.305 A  
ENDROOT
BRANCH   2  13
HETATM   13  O   UNL     1     -10.140  14.644  69.332  1.00  0.00    -0.167 OA 
BRANCH  13  14
HETATM   14  C   UNL     1     -11.090  13.593  69.568  1.00  0.00    -0.072 C  
HETATM   15  C   UNL     1     -10.652  11.741  67.340  1.00  0.00    -0.224 C  
HETATM   16  C   UNL     1     -10.342  12.261  69.777  1.00  0.00     1.077 C  
HETATM   17  C   UNL     1     -11.402  11.184  70.055  1.00  0.00    -0.326 C  
HETATM   18  N   UNL     1     -12.022  12.064  67.796  1.00  0.00    -0.553 NA 
HETATM   19  C   UNL     1     -12.019  13.449  68.335  1.00  0.00    -0.324 C  
HETATM   20  C   UNL     1     -12.397  11.133  68.883  1.00  0.00     0.118 C  
HETATM   21  C   UNL     1      -9.624  11.871  68.474  1.00  0.00    -0.160 C  
ENDBRANCH  13  14
ENDBRANCH   2  13
BRANCH   6  22
HETATM   22  C   UNL     1     -10.321  15.616  66.017  1.00  0.00    -0.351 A  
HETATM   23  C   UNL     1     -10.061  14.315  65.556  1.00  0.00    -0.370 A  
HETATM   24  C   UNL     1     -10.720  13.802  64.434  1.00  0.00    -0.333 A  
HETATM   25  C   UNL     1     -11.662  14.576  63.762  1.00  0.00     0.283 A  
HETATM   26  C   UNL     1     -11.942  15.864  64.206  1.00  0.00     0.008 A  
HETATM   27  C   UNL     1     -11.273  16.381  65.318  1.00  0.00     0.005 A  
ENDBRANCH   6  22
TORSDOF 3
ENDMDL
MODEL      118
REMARK 921   NORMALIZED FREE ENERGY PREDICTED BY IDOCK:   -3.63 KCAL/MOL
REMARK 922        TOTAL FREE ENERGY PREDICTED BY IDOCK:   -5.24 KCAL/MOL
REMARK 923 INTER-LIGAND FREE ENERGY PREDICTED BY IDOCK:   -4.08 KCAL/MOL
REMARK 924 INTRA-LIGAND FREE ENERGY PREDICTED BY IDOCK:   -1.16 KCAL/MOL
REMARK 927      BINDING AFFINITY PREDICTED BY RF-SCORE:    0.00 PKD
ROOT
HETATM    1  O   UNL     1     -11.407   6.449  67.666  1.00  0.00    -0.267 OA 
HETATM    2  C   UNL     1     -10.416   6.083  68.290  1.00  0.00    -0.235 C  
HETATM    3  C   UNL     1     -10.069   3.917  74.154  1.00  0.00    -0.206 A  
HETATM    4  N   UNL     1     -10.253   6.254  69.649  1.00  0.00    -0.176 N  
HETATM    5  C   UNL     1     -11.279   6.954  70.406  1.00  0.00    -0.312 C  
HETATM    6  C   UNL     1      -9.076   5.780  70.380  1.00  0.00    -0.146 C  
HETATM    7  C   UNL     1      -9.465   5.111  71.695  1.00  0.00    -0.193 A  
HETATM    8  C   UNL     1     -11.790   6.128  71.583  1.00  0.00    -0.241 C  
HETATM    9  C   UNL     1      -8.534   4.272  72.336  1.00  0.00    -0.105 A  
HETATM   10  C   UNL     1     -10.720   5.335  72.292  1.00  0.00    -0.282 A  
HETATM   11  C   UNL     1      -8.838   3.676  73.554  1.00  0.00    -0.092 A  
HETATM   12  C   UNL     1     -11.008   4.737  73.525  1.00  0.00    -0.398 A  
ENDROOT
BRANCH   2  13
HETATM   13  O   UNL     1      -9.342   5.485  67.700  1.00  0.00    -0.110 OA 
BRANCH  13  14
HETATM   14  C   UNL     1      -9.343   5.535  66.265  1.00  0.00    -0.156 C  
HETATM   15  C   UNL     1      -6.499   5.487  65.560  1.00  0.00    -0.040 C  
HETATM   16  C   UNL     1      -8.684   4.259  65.705  1.00  0.00    -0.119 C  
HETATM   17  C   UNL     1      -8.742   4.351  64.173  1.00  0.00    -0.139 C  
HETATM   18  N   UNL     1      -7.440   6.378  64.846  1.00  0.00    -0.079 NA 
HETATM   19  C   UNL     1      -8.524   6.762  65.788  1.00  0.00    -0.147 C  
HETATM   20  C   UNL     1      -8.037   5.639  63.713  1.00  0.00    -0.120 C  
HETATM   21  C   UNL     1      -7.200   4.234  66.107  1.00  0.00    -0.075 C  
ENDBRANCH  13  14
ENDBRANCH   2  13
BRANCH   6  22
HETATM   22  C   UNL     1      -8.009   6.863  70.580  1.00  0.00    -0.109 A  
HETATM   23  C   UNL     1      -6.913   6.935  69.703  1.00  0.00    -0.063 A  
HETATM   24  C   UNL     1      -5.884   7.858  69.911  1.00  0.00    -0.023 A  
HETATM   25  C   UNL     1      -5.938   8.735  70.991  1.00  0.00    -0.041 A  
HETATM   26  C   UNL     1      -7.017   8.687  71.867  1.00  0.00    -0.091 A  
HETATM   27  C   UNL     1      -8.039   7.755  71.668  1.00  0.00    -0.114 A  
ENDBRANCH   6  22
TORSDOF 3
ENDMDL
MODEL      119
REMARK 921   NORMALIZED FREE ENERGY PREDICTED BY IDOCK:   -3.61 KCAL/MOL
REMARK 922        TOTAL FREE ENERGY PREDICTED BY IDOCK:   -5.21 KCAL/MOL
REMARK 923 INTER-LIGAND FREE ENERGY PREDICTED BY IDOCK:   -3.86 KCAL/MOL
REMARK 924 INTRA-LIGAND FREE ENERGY PREDICTED BY IDOCK:   -1.35 KCAL/MOL
REMARK 927      BINDING AFFINITY PREDICTED BY RF-SCORE:    0.00 PKD
ROOT
HETATM    1  O   UNL     1     -11.609   7.028  69.954  1.00  0.00    -0.223 OA 
HETATM    2  C   UNL     1     -10.487   6.659  69.624  1.00  0.00    -0.213 C  
HETATM    3  C   UNL     1      -6.515   9.345  65.598  1.00  0.00    -0.069 A  
HETATM    4  N   UNL     1      -9.956   6.835  68.363  1.00  0.00    -0.147 N  
HETATM    5  C   UNL     1     -10.774   7.445  67.325  1.00  0.00    -0.308 C  
HETATM    6  C   UNL     1      -8.601   6.415  67.999  1.00  0.00    -0.117 C  
HETATM    7  C   UNL     1      -7.889   7.480  67.171  1.00  0.00    -0.117 A  
HETATM    8  C   UNL     1     -10.091   8.653  66.690  1.00  0.00    -0.364 C  
HETATM    9  C   UNL     1      -6.487   7.432  67.056  1.00  0.00    -0.060 A  
HETATM   10  C   UNL     1      -8.603   8.491  66.499  1.00  0.00    -0.130 A  
HETATM   11  C   UNL     1      -5.806   8.362  66.279  1.00  0.00    -0.044 A  
HETATM   12  C   UNL     1      -7.905   9.414  65.711  1.00  0.00    -0.099 A  
ENDROOT
BRANCH   2  13
HETATM   13  O   UNL     1      -9.640   6.002  70.467  1.00  0.00    -0.165 OA 
BRANCH  13  14
HETATM   14  C   UNL     1      -9.667   6.469  71.825  1.00  0.00    -0.158 C  
HETATM   15  C   UNL     1      -6.893   6.172  72.722  1.00  0.00    -0.074 C  
HETATM   16  C   UNL     1      -8.742   7.694  71.966  1.00  0.00    -0.146 C  
HETATM   17  C   UNL     1      -8.834   8.167  73.425  1.00  0.00    -0.322 C  
HETATM   18  N   UNL     1      -8.018   5.810  73.612  1.00  0.00    -0.108 NA 
HETATM   19  C   UNL     1      -9.152   5.351  72.767  1.00  0.00    -0.130 C  
HETATM   20  C   UNL     1      -8.443   7.012  74.362  1.00  0.00    -0.177 C  
HETATM   21  C   UNL     1      -7.287   7.264  71.716  1.00  0.00    -0.080 C  
ENDBRANCH  13  14
ENDBRANCH   2  13
BRANCH   6  22
HETATM   22  C   UNL     1      -8.552   5.038  67.328  1.00  0.00    -0.104 A  
HETATM   23  C   UNL     1      -8.059   3.931  68.039  1.00  0.00    -0.088 A  
HETATM   24  C   UNL     1      -7.925   2.682  67.425  1.00  0.00    -0.069 A  
HETATM   25  C   UNL     1      -8.294   2.513  66.094  1.00  0.00    -0.093 A  
HETATM   26  C   UNL     1      -8.792   3.593  65.373  1.00  0.00    -0.123 A  
HETATM   27  C   UNL     1      -8.912   4.844  65.981  1.00  0.00    -0.129 A  
ENDBRANCH   6  22
TORSDOF 3
ENDMDL
MODEL      120
REMARK 921   NORMALIZED FREE ENERGY PREDICTED BY IDOCK:   -3.59 KCAL/MOL
REMARK 922        TOTAL FREE ENERGY PREDICTED BY IDOCK:   -5.19 KCAL/MOL
REMARK 923 INTER-LIGAND FREE ENERGY PREDICTED BY IDOCK:   -3.96 KCAL/MOL
REMARK 924 INTRA-LIGAND FREE ENERGY PREDICTED BY IDOCK:   -1.22 KCAL/MOL
REMARK 927      BINDING AFFINITY PREDICTED BY RF-SCORE:    0.00 PKD
ROOT
HETATM    1  O   UNL     1     -11.248   8.879  69.696  1.00  0.00    -0.114 OA 
HETATM    2  C   UNL     1     -10.229   9.179  69.082  1.00  0.00    -0.207 C  
HETATM    3  C   UNL     1      -8.061  14.875  67.649  1.00  0.00    -0.180 A  
HETATM    4  N   UNL     1     -10.123  10.273  68.249  1.00  0.00    -0.149 N  
HETATM    5  C   UNL     1     -11.290  11.111  68.024  1.00  0.00    -0.312 C  
HETATM    6  C   UNL     1      -8.886  10.631  67.551  1.00  0.00    -0.132 C  
HETATM    7  C   UNL     1      -8.616  12.131  67.623  1.00  0.00    -0.166 A  
HETATM    8  C   UNL     1     -11.014  12.579  68.336  1.00  0.00    -0.277 C  
HETATM    9  C   UNL     1      -7.319  12.606  67.356  1.00  0.00    -0.140 A  
HETATM   10  C   UNL     1      -9.640  13.050  67.925  1.00  0.00    -0.215 A  
HETATM   11  C   UNL     1      -7.044  13.968  67.375  1.00  0.00    -0.096 A  
HETATM   12  C   UNL     1      -9.351  14.419  67.929  1.00  0.00    -0.203 A  
ENDROOT
BRANCH   2  13
HETATM   13  O   UNL     1      -9.083   8.441  69.134  1.00  0.00    -0.146 OA 
BRANCH  13  14
HETATM   14  C   UNL     1      -8.329   8.591  70.347  1.00  0.00    -0.124 C  
HETATM   15  C   UNL     1      -6.617   6.213  70.406  1.00  0.00    -0.048 C  
HETATM   16  C   UNL     1      -6.828   8.684  70.010  1.00  0.00    -0.042 C  
HETATM   17  C   UNL     1      -6.075   8.875  71.336  1.00  0.00    -0.061 C  
HETATM   18  N   UNL     1      -7.276   6.701  71.637  1.00  0.00    -0.083 NA 
HETATM   19  C   UNL     1      -8.555   7.355  71.254  1.00  0.00    -0.118 C  
HETATM   20  C   UNL     1      -6.404   7.707  72.282  1.00  0.00    -0.043 C  
HETATM   21  C   UNL     1      -6.358   7.350  69.405  1.00  0.00    -0.035 C  
ENDBRANCH  13  14
ENDBRANCH   2  13
BRANCH   6  22
HETATM   22  C   UNL     1      -8.827  10.106  66.112  1.00  0.00    -0.162 A  
HETATM   23  C   UNL     1      -9.332  10.890  65.061  1.00  0.00    -0.260 A  
HETATM   24  C   UNL     1      -9.368  10.402  63.751  1.00  0.00    -0.329 A  
HETATM   25  C   UNL     1      -8.887   9.127  63.466  1.00  0.00    -0.086 A  
HETATM   26  C   UNL     1      -8.375   8.337  64.490  1.00  0.00    -0.097 A  
HETATM   27  C   UNL     1      -8.352   8.819  65.801  1.00  0.00    -0.139 A  
ENDBRANCH   6  22
TORSDOF 3
ENDMDL
MODEL      121
REMARK 921   NORMALIZED FREE ENERGY PREDICTED BY IDOCK:   -3.56 KCAL/MOL
REMARK 922        TOTAL FREE ENERGY PREDICTED BY IDOCK:   -5.16 KCAL/MOL
REMARK 923 INTER-LIGAND FREE ENERGY PREDICTED BY IDOCK:   -4.05 KCAL/MOL
REMARK 924 INTRA-LIGAND FREE ENERGY PREDICTED BY IDOCK:   -1.10 KCAL/MOL
REMARK 927      BINDING AFFINITY PREDICTED BY RF-SCORE:    0.00 PKD
ROOT
HETATM    1  O   UNL     1      -6.951  13.091  68.092  1.00  0.00    -0.082 OA 
HETATM    2  C   UNL     1      -7.578  12.062  67.862  1.00  0.00    -0.124 C  
HETATM    3  C   UNL     1      -6.829   6.380  70.383  1.00  0.00    -0.058 A  
HETATM    4  N   UNL     1      -7.025  10.799  67.888  1.00  0.00    -0.073 N  
HETATM    5  C   UNL     1      -5.601  10.650  68.149  1.00  0.00    -0.036 C  
HETATM    6  C   UNL     1      -7.799   9.580  67.642  1.00  0.00    -0.102 C  
HETATM    7  C   UNL     1      -7.446   8.481  68.638  1.00  0.00    -0.093 A  
HETATM    8  C   UNL     1      -5.325   9.706  69.315  1.00  0.00    -0.035 C  
HETATM    9  C   UNL     1      -8.332   7.400  68.806  1.00  0.00    -0.129 A  
HETATM   10  C   UNL     1      -6.245   8.511  69.372  1.00  0.00    -0.037 A  
HETATM   11  C   UNL     1      -8.026   6.361  69.677  1.00  0.00    -0.116 A  
HETATM   12  C   UNL     1      -5.945   7.452  70.237  1.00  0.00    -0.024 A  
ENDROOT
BRANCH   2  13
HETATM   13  O   UNL     1      -8.899  12.054  67.525  1.00  0.00    -0.159 OA 
BRANCH  13  14
HETATM   14  C   UNL     1      -9.746  12.805  68.408  1.00  0.00    -0.186 C  
HETATM   15  C   UNL     1     -12.143  13.326  66.803  1.00  0.00    -0.345 C  
HETATM   16  C   UNL     1     -11.053  12.024  68.654  1.00  0.00    -0.298 C  
HETATM   17  C   UNL     1     -11.903  12.856  69.626  1.00  0.00    -0.387 C  
HETATM   18  N   UNL     1     -11.569  14.379  67.670  1.00  0.00    -0.352 NA 
HETATM   19  C   UNL     1     -10.101  14.165  67.754  1.00  0.00    -0.239 C  
HETATM   20  C   UNL     1     -12.146  14.252  69.026  1.00  0.00    -0.285 C  
HETATM   21  C   UNL     1     -11.837  11.917  67.335  1.00  0.00    -0.239 C  
ENDBRANCH  13  14
ENDBRANCH   2  13
BRANCH   6  22
HETATM   22  C   UNL     1      -7.714   9.089  66.192  1.00  0.00    -0.099 A  
HETATM   23  C   UNL     1      -6.540   8.469  65.732  1.00  0.00    -0.056 A  
HETATM   24  C   UNL     1      -6.403   8.088  64.394  1.00  0.00    -0.057 A  
HETATM   25  C   UNL     1      -7.442   8.306  63.494  1.00  0.00    -0.119 A  
HETATM   26  C   UNL     1      -8.617   8.912  63.929  1.00  0.00    -0.110 A  
HETATM   27  C   UNL     1      -8.748   9.306  65.263  1.00  0.00    -0.214 A  
ENDBRANCH   6  22
TORSDOF 3
ENDMDL
MODEL      122
REMARK 921   NORMALIZED FREE ENERGY PREDICTED BY IDOCK:   -3.44 KCAL/MOL
REMARK 922        TOTAL FREE ENERGY PREDICTED BY IDOCK:   -5.01 KCAL/MOL
REMARK 923 INTER-LIGAND FREE ENERGY PREDICTED BY IDOCK:   -3.46 KCAL/MOL
REMARK 924 INTRA-LIGAND FREE ENERGY PREDICTED BY IDOCK:   -1.55 KCAL/MOL
REMARK 927      BINDING AFFINITY PREDICTED BY RF-SCORE:    0.00 PKD
ROOT
HETATM    1  O   UNL     1     -11.434   6.551  66.845  1.00  0.00    -0.212 OA 
HETATM    2  C   UNL     1     -10.244   6.597  67.141  1.00  0.00    -0.213 C  
HETATM    3  C   UNL     1      -7.634   8.176  72.609  1.00  0.00    -0.165 A  
HETATM    4  N   UNL     1      -9.701   7.513  68.018  1.00  0.00    -0.143 N  
HETATM    5  C   UNL     1     -10.558   8.533  68.602  1.00  0.00    -0.118 C  
HETATM    6  C   UNL     1      -8.282   7.529  68.383  1.00  0.00    -0.125 C  
HETATM    7  C   UNL     1      -8.092   7.739  69.881  1.00  0.00    -0.120 A  
HETATM    8  C   UNL     1     -10.492   8.537  70.126  1.00  0.00    -0.226 C  
HETATM    9  C   UNL     1      -6.856   7.407  70.466  1.00  0.00    -0.052 A  
HETATM   10  C   UNL     1      -9.114   8.280  70.685  1.00  0.00    -0.164 A  
HETATM   11  C   UNL     1      -6.632   7.620  71.821  1.00  0.00    -0.042 A  
HETATM   12  C   UNL     1      -8.871   8.500  72.046  1.00  0.00    -0.286 A  
ENDROOT
BRANCH   2  13
HETATM   13  O   UNL     1      -9.311   5.755  66.611  1.00  0.00    -0.137 OA 
BRANCH  13  14
HETATM   14  C   UNL     1      -9.571   4.360  66.828  1.00  0.00    -0.199 C  
HETATM   15  C   UNL     1      -6.950   3.097  66.481  1.00  0.00    -0.054 C  
HETATM   16  C   UNL     1      -8.758   3.869  68.042  1.00  0.00    -0.122 C  
HETATM   17  C   UNL     1      -9.099   2.385  68.246  1.00  0.00    -0.225 C  
HETATM   18  N   UNL     1      -8.170   2.471  65.925  1.00  0.00    -0.085 NA 
HETATM   19  C   UNL     1      -9.132   3.551  65.581  1.00  0.00    -0.149 C  
HETATM   20  C   UNL     1      -8.779   1.606  66.959  1.00  0.00    -0.110 C  
HETATM   21  C   UNL     1      -7.257   3.954  67.718  1.00  0.00    -0.063 C  
ENDBRANCH  13  14
ENDBRANCH   2  13
BRANCH   6  22
HETATM   22  C   UNL     1      -7.454   8.518  67.555  1.00  0.00    -0.093 A  
HETATM   23  C   UNL     1      -6.669   8.050  66.487  1.00  0.00    -0.062 A  
HETATM   24  C   UNL     1      -5.840   8.917  65.769  1.00  0.00    -0.051 A  
HETATM   25  C   UNL     1      -5.791  10.269  66.095  1.00  0.00    -0.078 A  
HETATM   26  C   UNL     1      -6.566  10.756  67.142  1.00  0.00    -0.079 A  
HETATM   27  C   UNL     1      -7.383   9.887  67.869  1.00  0.00    -0.088 A  
ENDBRANCH   6  22
TORSDOF 3
ENDMDL
MODEL      123
REMARK 921   NORMALIZED FREE ENERGY PREDICTED BY IDOCK:   -3.38 KCAL/MOL
REMARK 922        TOTAL FREE ENERGY PREDICTED BY IDOCK:   -4.94 KCAL/MOL
REMARK 923 INTER-LIGAND FREE ENERGY PREDICTED BY IDOCK:   -5.47 KCAL/MOL
REMARK 924 INTRA-LIGAND FREE ENERGY PREDICTED BY IDOCK:    0.53 KCAL/MOL
REMARK 927      BINDING AFFINITY PREDICTED BY RF-SCORE:    0.00 PKD
ROOT
HETATM    1  O   UNL     1     -11.434  16.185  70.262  1.00  0.00    -0.346 OA 
HETATM    2  C   UNL     1     -11.064  16.281  69.096  1.00  0.00    -0.322 C  
HETATM    3  C   UNL     1     -10.639  11.798  64.747  1.00  0.00    -0.351 A  
HETATM    4  N   UNL     1     -10.377  15.294  68.420  1.00  0.00    -0.224 N  
HETATM    5  C   UNL     1     -10.009  14.075  69.123  1.00  0.00     0.078 C  
HETATM    6  C   UNL     1      -9.973  15.417  67.017  1.00  0.00    -0.238 C  
HETATM    7  C   UNL     1     -10.241  14.130  66.243  1.00  0.00    -0.301 A  
HETATM    8  C   UNL     1     -10.509  12.824  68.406  1.00  0.00    -0.253 C  
HETATM    9  C   UNL     1     -10.280  14.174  64.837  1.00  0.00    -0.371 A  
HETATM   10  C   UNL     1     -10.422  12.899  66.901  1.00  0.00    -0.252 A  
HETATM   11  C   UNL     1     -10.483  13.016  64.096  1.00  0.00    -0.395 A  
HETATM   12  C   UNL     1     -10.615  11.738  66.142  1.00  0.00    -0.301 A  
ENDROOT
BRANCH   2  13
HETATM   13  O   UNL     1     -11.268  17.396  68.339  1.00  0.00    -0.124 OA 
BRANCH  13  14
HETATM   14  C   UNL     1     -10.068  18.076  67.939  1.00  0.00    -0.355 C  
HETATM   15  C   UNL     1     -10.516  20.845  68.788  1.00  0.00     0.768 C  
HETATM   16  C   UNL     1      -9.363  18.650  69.183  1.00  0.00    -0.078 C  
HETATM   17  C   UNL     1      -8.075  19.335  68.701  1.00  0.00    -0.405 C  
HETATM   18  N   UNL     1      -9.891  20.547  67.480  1.00  0.00    -0.433 NA 
HETATM   19  C   UNL     1     -10.429  19.250  66.992  1.00  0.00    -0.456 C  
HETATM   20  C   UNL     1      -8.430  20.415  67.665  1.00  0.00    -0.221 C  
HETATM   21  C   UNL     1     -10.250  19.735  69.817  1.00  0.00     0.194 C  
ENDBRANCH  13  14
ENDBRANCH   2  13
BRANCH   6  22
HETATM   22  C   UNL     1      -8.530  15.903  66.842  1.00  0.00    -0.275 A  
HETATM   23  C   UNL     1      -7.507  15.358  67.637  1.00  0.00    -0.195 A  
HETATM   24  C   UNL     1      -6.198  15.841  67.558  1.00  0.00    -0.173 A  
HETATM   25  C   UNL     1      -5.883  16.868  66.672  1.00  0.00    -0.145 A  
HETATM   26  C   UNL     1      -6.878  17.416  65.869  1.00  0.00    -0.119 A  
HETATM   27  C   UNL     1      -8.189  16.944  65.959  1.00  0.00    -0.178 A  
ENDBRANCH   6  22
TORSDOF 3
ENDMDL
MODEL      124
REMARK 921   NORMALIZED FREE ENERGY PREDICTED BY IDOCK:   -3.33 KCAL/MOL
REMARK 922        TOTAL FREE ENERGY PREDICTED BY IDOCK:   -4.89 KCAL/MOL
REMARK 923 INTER-LIGAND FREE ENERGY PREDICTED BY IDOCK:   -3.72 KCAL/MOL
REMARK 924 INTRA-LIGAND FREE ENERGY PREDICTED BY IDOCK:   -1.16 KCAL/MOL
REMARK 927      BINDING AFFINITY PREDICTED BY RF-SCORE:    0.00 PKD
ROOT
HETATM    1  O   UNL     1     -10.342   4.414  72.357  1.00  0.00    -0.183 OA 
HETATM    2  C   UNL     1      -9.676   4.818  71.409  1.00  0.00    -0.175 C  
HETATM    3  C   UNL     1      -9.596  10.527  68.840  1.00  0.00    -0.199 A  
HETATM    4  N   UNL     1     -10.118   5.756  70.499  1.00  0.00    -0.196 N  
HETATM    5  C   UNL     1     -11.471   6.277  70.614  1.00  0.00    -0.329 C  
HETATM    6  C   UNL     1      -9.293   6.250  69.393  1.00  0.00    -0.140 C  
HETATM    7  C   UNL     1      -9.409   7.763  69.241  1.00  0.00    -0.148 A  
HETATM    8  C   UNL     1     -11.498   7.801  70.686  1.00  0.00    -0.259 C  
HETATM    9  C   UNL     1      -8.426   8.452  68.507  1.00  0.00    -0.132 A  
HETATM   10  C   UNL     1     -10.488   8.479  69.793  1.00  0.00    -0.220 A  
HETATM   11  C   UNL     1      -8.517   9.826  68.314  1.00  0.00    -0.114 A  
HETATM   12  C   UNL     1     -10.574   9.860  69.581  1.00  0.00    -0.273 A  
ENDROOT
BRANCH   2  13
HETATM   13  O   UNL     1      -8.422   4.361  71.131  1.00  0.00    -0.090 OA 
BRANCH  13  14
HETATM   14  C   UNL     1      -7.836   3.554  72.164  1.00  0.00    -0.059 C  
HETATM   15  C   UNL     1      -5.347   2.578  70.963  1.00  0.00    -0.004 C  
HETATM   16  C   UNL     1      -6.472   4.147  72.568  1.00  0.00    -0.021 C  
HETATM   17  C   UNL     1      -5.909   3.266  73.693  1.00  0.00     0.000 C  
HETATM   18  N   UNL     1      -6.195   1.681  71.779  1.00  0.00    -0.013 NA 
HETATM   19  C   UNL     1      -7.609   2.116  71.631  1.00  0.00    -0.040 C  
HETATM   20  C   UNL     1      -5.805   1.812  73.199  1.00  0.00    -0.004 C  
HETATM   21  C   UNL     1      -5.501   4.049  71.380  1.00  0.00    -0.008 C  
ENDBRANCH  13  14
ENDBRANCH   2  13
BRANCH   6  22
HETATM   22  C   UNL     1      -9.551   5.518  68.072  1.00  0.00    -0.147 A  
HETATM   23  C   UNL     1      -8.679   4.497  67.656  1.00  0.00    -0.111 A  
HETATM   24  C   UNL     1      -8.841   3.870  66.417  1.00  0.00    -0.125 A  
HETATM   25  C   UNL     1      -9.886   4.242  65.576  1.00  0.00    -0.221 A  
HETATM   26  C   UNL     1     -10.767   5.245  65.970  1.00  0.00    -0.139 A  
HETATM   27  C   UNL     1     -10.595   5.881  67.202  1.00  0.00    -0.373 A  
ENDBRANCH   6  22
TORSDOF 3
ENDMDL
MODEL      125
REMARK 921   NORMALIZED FREE ENERGY PREDICTED BY IDOCK:   -3.22 KCAL/MOL
REMARK 922        TOTAL FREE ENERGY PREDICTED BY IDOCK:   -4.75 KCAL/MOL
REMARK 923 INTER-LIGAND FREE ENERGY PREDICTED BY IDOCK:   -5.43 KCAL/MOL
REMARK 924 INTRA-LIGAND FREE ENERGY PREDICTED BY IDOCK:    0.69 KCAL/MOL
REMARK 927      BINDING AFFINITY PREDICTED BY RF-SCORE:    0.00 PKD
ROOT
HETATM    1  O   UNL     1      -8.038   6.228  69.592  1.00  0.00    -0.115 OA 
HETATM    2  C   UNL     1      -8.566   7.312  69.818  1.00  0.00    -0.141 C  
HETATM    3  C   UNL     1     -14.106   8.482  72.489  1.00  0.00    -0.322 A  
HETATM    4  N   UNL     1      -9.926   7.535  69.766  1.00  0.00    -0.184 N  
HETATM    5  C   UNL     1     -10.810   6.450  69.368  1.00  0.00    -0.321 C  
HETATM    6  C   UNL     1     -10.538   8.830  70.072  1.00  0.00    -0.223 C  
HETATM    7  C   UNL     1     -11.780   8.671  70.942  1.00  0.00    -0.287 A  
HETATM    8  C   UNL     1     -11.904   6.191  70.401  1.00  0.00    -0.002 C  
HETATM    9  C   UNL     1     -12.271   9.788  71.643  1.00  0.00    -0.488 A  
HETATM   10  C   UNL     1     -12.460   7.442  71.037  1.00  0.00    -0.285 A  
HETATM   11  C   UNL     1     -13.423   9.691  72.415  1.00  0.00    -0.421 A  
HETATM   12  C   UNL     1     -13.625   7.361  71.809  1.00  0.00    -0.396 A  
ENDROOT
BRANCH   2  13
HETATM   13  O   UNL     1      -7.857   8.436  70.124  1.00  0.00    -0.096 OA 
BRANCH  13  14
HETATM   14  C   UNL     1      -7.879   9.451  69.109  1.00  0.00    -0.080 C  
HETATM   15  C   UNL     1      -5.143  10.501  69.111  1.00  0.00    -0.038 C  
HETATM   16  C   UNL     1      -6.885   9.082  67.990  1.00  0.00    -0.069 C  
HETATM   17  C   UNL     1      -6.973  10.182  66.922  1.00  0.00    -0.089 C  
HETATM   18  N   UNL     1      -6.302  11.413  68.994  1.00  0.00    -0.057 NA 
HETATM   19  C   UNL     1      -7.447  10.807  69.724  1.00  0.00    -0.018 C  
HETATM   20  C   UNL     1      -6.667  11.545  67.566  1.00  0.00    -0.087 C  
HETATM   21  C   UNL     1      -5.454   9.104  68.553  1.00  0.00    -0.037 C  
ENDBRANCH  13  14
ENDBRANCH   2  13
BRANCH   6  22
HETATM   22  C   UNL     1     -10.813   9.680  68.827  1.00  0.00    -0.199 A  
HETATM   23  C   UNL     1     -10.445   9.202  67.558  1.00  0.00    -0.335 A  
HETATM   24  C   UNL     1     -10.607   9.990  66.415  1.00  0.00    -0.138 A  
HETATM   25  C   UNL     1     -11.154  11.266  66.517  1.00  0.00    -0.280 A  
HETATM   26  C   UNL     1     -11.534  11.758  67.762  1.00  0.00    -0.381 A  
HETATM   27  C   UNL     1     -11.357  10.975  68.906  1.00  0.00    -0.346 A  
ENDBRANCH   6  22
TORSDOF 3
ENDMDL
MODEL      126
REMARK 921   NORMALIZED FREE ENERGY PREDICTED BY IDOCK:   -3.17 KCAL/MOL
REMARK 922        TOTAL FREE ENERGY PREDICTED BY IDOCK:   -4.69 KCAL/MOL
REMARK 923 INTER-LIGAND FREE ENERGY PREDICTED BY IDOCK:   -3.28 KCAL/MOL
REMARK 924 INTRA-LIGAND FREE ENERGY PREDICTED BY IDOCK:   -1.41 KCAL/MOL
REMARK 927      BINDING AFFINITY PREDICTED BY RF-SCORE:    0.00 PKD
ROOT
HETATM    1  O   UNL     1      -8.227   6.199  65.005  1.00  0.00    -0.133 OA 
HETATM    2  C   UNL     1      -7.868   6.206  66.178  1.00  0.00    -0.105 C  
HETATM    3  C   UNL     1     -11.396   6.064  71.348  1.00  0.00    -0.301 A  
HETATM    4  N   UNL     1      -8.570   6.816  67.197  1.00  0.00    -0.119 N  
HETATM    5  C   UNL     1      -9.787   7.549  66.883  1.00  0.00    -0.226 C  
HETATM    6  C   UNL     1      -8.139   6.785  68.596  1.00  0.00    -0.120 C  
HETATM    7  C   UNL     1      -9.309   6.509  69.536  1.00  0.00    -0.148 A  
HETATM    8  C   UNL     1     -10.979   7.063  67.703  1.00  0.00    -0.259 C  
HETATM    9  C   UNL     1      -9.044   6.069  70.846  1.00  0.00    -0.161 A  
HETATM   10  C   UNL     1     -10.642   6.709  69.131  1.00  0.00    -0.280 A  
HETATM   11  C   UNL     1     -10.081   5.843  71.742  1.00  0.00    -0.228 A  
HETATM   12  C   UNL     1     -11.677   6.489  70.048  1.00  0.00    -0.388 A  
ENDROOT
BRANCH   2  13
HETATM   13  O   UNL     1      -6.709   5.630  66.606  1.00  0.00    -0.054 OA 
BRANCH  13  14
HETATM   14  C   UNL     1      -6.561   4.247  66.248  1.00  0.00    -0.042 C  
HETATM   15  C   UNL     1      -5.804   2.950  68.765  1.00  0.00    -0.023 C  
HETATM   16  C   UNL     1      -7.574   3.399  67.042  1.00  0.00    -0.079 C  
HETATM   17  C   UNL     1      -7.393   1.940  66.597  1.00  0.00    -0.056 C  
HETATM   18  N   UNL     1      -5.146   2.576  67.494  1.00  0.00    -0.008 NA 
HETATM   19  C   UNL     1      -5.130   3.769  66.608  1.00  0.00    -0.008 C  
HETATM   20  C   UNL     1      -5.936   1.510  66.840  1.00  0.00    -0.019 C  
HETATM   21  C   UNL     1      -7.233   3.468  68.540  1.00  0.00    -0.050 C  
ENDBRANCH  13  14
ENDBRANCH   2  13
BRANCH   6  22
HETATM   22  C   UNL     1      -7.348   8.029  69.016  1.00  0.00    -0.084 A  
HETATM   23  C   UNL     1      -8.022   9.139  69.552  1.00  0.00    -0.098 A  
HETATM   24  C   UNL     1      -7.337  10.317  69.864  1.00  0.00    -0.166 A  
HETATM   25  C   UNL     1      -5.962  10.402  69.660  1.00  0.00    -0.048 A  
HETATM   26  C   UNL     1      -5.273   9.312  69.138  1.00  0.00    -0.036 A  
HETATM   27  C   UNL     1      -5.960   8.141  68.812  1.00  0.00    -0.043 A  
ENDBRANCH   6  22
TORSDOF 3
ENDMDL
MODEL      127
REMARK 921   NORMALIZED FREE ENERGY PREDICTED BY IDOCK:   -3.11 KCAL/MOL
REMARK 922        TOTAL FREE ENERGY PREDICTED BY IDOCK:   -4.63 KCAL/MOL
REMARK 923 INTER-LIGAND FREE ENERGY PREDICTED BY IDOCK:   -3.51 KCAL/MOL
REMARK 924 INTRA-LIGAND FREE ENERGY PREDICTED BY IDOCK:   -1.11 KCAL/MOL
REMARK 927      BINDING AFFINITY PREDICTED BY RF-SCORE:    0.00 PKD
ROOT
HETATM    1  O   UNL     1     -10.654   8.891  67.387  1.00  0.00    -0.277 OA 
HETATM    2  C   UNL     1      -9.604   8.325  67.670  1.00  0.00    -0.152 C  
HETATM    3  C   UNL     1      -8.776   2.777  70.451  1.00  0.00    -0.128 A  
HETATM    4  N   UNL     1      -9.430   7.528  68.782  1.00  0.00    -0.148 N  
HETATM    5  C   UNL     1     -10.528   7.375  69.725  1.00  0.00    -0.229 C  
HETATM    6  C   UNL     1      -8.176   6.835  69.084  1.00  0.00    -0.121 C  
HETATM    7  C   UNL     1      -8.424   5.402  69.543  1.00  0.00    -0.100 A  
HETATM    8  C   UNL     1     -10.878   5.909  69.967  1.00  0.00    -0.421 C  
HETATM    9  C   UNL     1      -7.362   4.479  69.509  1.00  0.00    -0.051 A  
HETATM   10  C   UNL     1      -9.682   4.991  70.025  1.00  0.00    -0.278 A  
HETATM   11  C   UNL     1      -7.540   3.175  69.954  1.00  0.00    -0.044 A  
HETATM   12  C   UNL     1      -9.844   3.677  70.482  1.00  0.00    -0.111 A  
ENDROOT
BRANCH   2  13
HETATM   13  O   UNL     1      -8.469   8.442  66.922  1.00  0.00    -0.115 OA 
BRANCH  13  14
HETATM   14  C   UNL     1      -8.682   8.911  65.582  1.00  0.00    -0.182 C  
HETATM   15  C   UNL     1      -5.973   9.386  64.568  1.00  0.00    -0.076 C  
HETATM   16  C   UNL     1      -8.024   7.937  64.585  1.00  0.00    -0.143 C  
HETATM   17  C   UNL     1      -8.309   8.469  63.173  1.00  0.00    -0.116 C  
HETATM   18  N   UNL     1      -7.068  10.339  64.277  1.00  0.00    -0.100 NA 
HETATM   19  C   UNL     1      -8.028  10.307  65.411  1.00  0.00    -0.148 C  
HETATM   20  C   UNL     1      -7.769   9.904  63.049  1.00  0.00    -0.138 C  
HETATM   21  C   UNL     1      -6.499   7.959  64.783  1.00  0.00    -0.048 C  
ENDBRANCH  13  14
ENDBRANCH   2  13
BRANCH   6  22
HETATM   22  C   UNL     1      -7.277   7.603  70.059  1.00  0.00    -0.071 A  
HETATM   23  C   UNL     1      -7.526   7.535  71.441  1.00  0.00    -0.079 A  
HETATM   24  C   UNL     1      -6.776   8.291  72.347  1.00  0.00    -0.095 A  
HETATM   25  C   UNL     1      -5.754   9.118  71.890  1.00  0.00    -0.073 A  
HETATM   26  C   UNL     1      -5.484   9.195  70.528  1.00  0.00    -0.034 A  
HETATM   27  C   UNL     1      -6.243   8.451  69.621  1.00  0.00    -0.036 A  
ENDBRANCH   6  22
TORSDOF 3
ENDMDL
MODEL      128
REMARK 921   NORMALIZED FREE ENERGY PREDICTED BY IDOCK:   -3.10 KCAL/MOL
REMARK 922        TOTAL FREE ENERGY PREDICTED BY IDOCK:   -4.62 KCAL/MOL
REMARK 923 INTER-LIGAND FREE ENERGY PREDICTED BY IDOCK:   -5.72 KCAL/MOL
REMARK 924 INTRA-LIGAND FREE ENERGY PREDICTED BY IDOCK:    1.11 KCAL/MOL
REMARK 927      BINDING AFFINITY PREDICTED BY RF-SCORE:    0.00 PKD
ROOT
HETATM    1  O   UNL     1     -11.408  17.176  70.965  1.00  0.00     0.414 OA 
HETATM    2  C   UNL     1     -10.742  16.542  70.152  1.00  0.00    -0.164 C  
HETATM    3  C   UNL     1      -6.021  18.540  66.558  1.00  0.00    -0.181 A  
HETATM    4  N   UNL     1     -10.234  17.076  68.986  1.00  0.00    -0.307 N  
HETATM    5  C   UNL     1     -10.534  18.459  68.647  1.00  0.00    -0.125 C  
HETATM    6  C   UNL     1      -9.414  16.310  68.045  1.00  0.00    -0.223 C  
HETATM    7  C   UNL     1      -8.217  17.119  67.557  1.00  0.00    -0.196 A  
HETATM    8  C   UNL     1      -9.270  19.276  68.392  1.00  0.00    -0.409 C  
HETATM    9  C   UNL     1      -7.131  16.446  66.967  1.00  0.00    -0.259 A  
HETATM   10  C   UNL     1      -8.186  18.523  67.660  1.00  0.00    -0.267 A  
HETATM   11  C   UNL     1      -6.039  17.152  66.477  1.00  0.00    -0.237 A  
HETATM   12  C   UNL     1      -7.085  19.223  67.151  1.00  0.00    -0.218 A  
ENDROOT
BRANCH   2  13
HETATM   13  O   UNL     1     -10.451  15.218  70.298  1.00  0.00    -0.272 OA 
BRANCH  13  14
HETATM   14  C   UNL     1     -11.208  14.548  71.318  1.00  0.00     0.340 C  
HETATM   15  C   UNL     1     -13.976  15.338  70.768  1.00  0.00    -0.009 C  
HETATM   16  C   UNL     1     -12.199  13.567  70.661  1.00  0.00    -0.434 C  
HETATM   17  C   UNL     1     -12.956  12.858  71.794  1.00  0.00    -0.416 C  
HETATM   18  N   UNL     1     -13.468  15.280  72.156  1.00  0.00    -0.404 NA 
HETATM   19  C   UNL     1     -12.015  15.590  72.134  1.00  0.00    -0.446 C  
HETATM   20  C   UNL     1     -13.652  13.908  72.678  1.00  0.00    -0.517 C  
HETATM   21  C   UNL     1     -13.234  14.359  69.844  1.00  0.00     0.647 C  
ENDBRANCH  13  14
ENDBRANCH   2  13
BRANCH   6  22
HETATM   22  C   UNL     1     -10.218  15.717  66.882  1.00  0.00    -0.280 A  
HETATM   23  C   UNL     1     -10.736  14.415  66.983  1.00  0.00    -0.285 A  
HETATM   24  C   UNL     1     -11.401  13.818  65.907  1.00  0.00    -0.311 A  
HETATM   25  C   UNL     1     -11.573  14.518  64.716  1.00  0.00    -0.414 A  
HETATM   26  C   UNL     1     -11.076  15.812  64.597  1.00  0.00    -0.376 A  
HETATM   27  C   UNL     1     -10.399  16.402  65.667  1.00  0.00    -0.371 A  
ENDBRANCH   6  22
TORSDOF 3
ENDMDL
MODEL      129
REMARK 921   NORMALIZED FREE ENERGY PREDICTED BY IDOCK:   -3.08 KCAL/MOL
REMARK 922        TOTAL FREE ENERGY PREDICTED BY IDOCK:   -4.59 KCAL/MOL
REMARK 923 INTER-LIGAND FREE ENERGY PREDICTED BY IDOCK:   -4.38 KCAL/MOL
REMARK 924 INTRA-LIGAND FREE ENERGY PREDICTED BY IDOCK:   -0.21 KCAL/MOL
REMARK 927      BINDING AFFINITY PREDICTED BY RF-SCORE:    0.00 PKD
ROOT
HETATM    1  O   UNL     1      -9.558   7.405  66.203  1.00  0.00    -0.097 OA 
HETATM    2  C   UNL     1      -9.230   7.476  67.383  1.00  0.00    -0.132 C  
HETATM    3  C   UNL     1      -6.925   2.978  71.078  1.00  0.00    -0.033 A  
HETATM    4  N   UNL     1      -9.371   6.444  68.287  1.00  0.00    -0.111 N  
HETATM    5  C   UNL     1      -9.994   5.201  67.857  1.00  0.00    -0.152 C  
HETATM    6  C   UNL     1      -8.943   6.539  69.685  1.00  0.00    -0.141 C  
HETATM    7  C   UNL     1      -8.218   5.275  70.135  1.00  0.00    -0.091 A  
HETATM    8  C   UNL     1      -9.109   3.989  68.134  1.00  0.00    -0.179 C  
HETATM    9  C   UNL     1      -7.413   5.324  71.289  1.00  0.00    -0.091 A  
HETATM   10  C   UNL     1      -8.357   4.059  69.440  1.00  0.00    -0.078 A  
HETATM   11  C   UNL     1      -6.768   4.183  71.752  1.00  0.00    -0.030 A  
HETATM   12  C   UNL     1      -7.710   2.916  69.925  1.00  0.00    -0.045 A  
ENDROOT
BRANCH   2  13
HETATM   13  O   UNL     1      -8.708   8.604  67.944  1.00  0.00    -0.135 OA 
BRANCH  13  14
HETATM   14  C   UNL     1      -9.429   9.809  67.646  1.00  0.00    -0.144 C  
HETATM   15  C   UNL     1      -7.428  11.519  66.356  1.00  0.00     0.047 C  
HETATM   16  C   UNL     1      -9.442  10.036  66.121  1.00  0.00    -0.242 C  
HETATM   17  C   UNL     1     -10.249  11.316  65.859  1.00  0.00    -0.298 C  
HETATM   18  N   UNL     1      -8.382  12.080  67.338  1.00  0.00    -0.162 NA 
HETATM   19  C   UNL     1      -8.723  11.015  68.317  1.00  0.00    -0.144 C  
HETATM   20  C   UNL     1      -9.616  12.486  66.632  1.00  0.00    -0.239 C  
HETATM   21  C   UNL     1      -8.006  10.292  65.633  1.00  0.00    -0.150 C  
ENDBRANCH  13  14
ENDBRANCH   2  13
BRANCH   6  22
HETATM   22  C   UNL     1     -10.076   6.924  70.642  1.00  0.00    -0.208 A  
HETATM   23  C   UNL     1      -9.969   8.089  71.421  1.00  0.00    -0.221 A  
HETATM   24  C   UNL     1     -10.948   8.419  72.363  1.00  0.00    -0.425 A  
HETATM   25  C   UNL     1     -12.060   7.599  72.533  1.00  0.00    -0.204 A  
HETATM   26  C   UNL     1     -12.191   6.445  71.767  1.00  0.00    -0.312 A  
HETATM   27  C   UNL     1     -11.205   6.107  70.837  1.00  0.00    -0.365 A  
ENDBRANCH   6  22
TORSDOF 3
ENDMDL
MODEL      130
REMARK 921   NORMALIZED FREE ENERGY PREDICTED BY IDOCK:   -3.01 KCAL/MOL
REMARK 922        TOTAL FREE ENERGY PREDICTED BY IDOCK:   -4.50 KCAL/MOL
REMARK 923 INTER-LIGAND FREE ENERGY PREDICTED BY IDOCK:   -3.92 KCAL/MOL
REMARK 924 INTRA-LIGAND FREE ENERGY PREDICTED BY IDOCK:   -0.58 KCAL/MOL
REMARK 927      BINDING AFFINITY PREDICTED BY RF-SCORE:    0.00 PKD
ROOT
HETATM    1  O   UNL     1      -7.375   5.116  69.750  1.00  0.00    -0.058 OA 
HETATM    2  C   UNL     1      -7.845   6.094  69.178  1.00  0.00    -0.104 C  
HETATM    3  C   UNL     1      -7.449   7.650  63.126  1.00  0.00    -0.112 A  
HETATM    4  N   UNL     1      -7.239   6.734  68.117  1.00  0.00    -0.089 N  
HETATM    5  C   UNL     1      -5.936   6.276  67.661  1.00  0.00    -0.017 C  
HETATM    6  C   UNL     1      -7.835   7.880  67.427  1.00  0.00    -0.121 C  
HETATM    7  C   UNL     1      -7.698   7.756  65.913  1.00  0.00    -0.094 A  
HETATM    8  C   UNL     1      -5.930   5.949  66.170  1.00  0.00    -0.025 C  
HETATM    9  C   UNL     1      -8.523   8.540  65.086  1.00  0.00    -0.193 A  
HETATM   10  C   UNL     1      -6.750   6.895  65.327  1.00  0.00    -0.051 A  
HETATM   11  C   UNL     1      -8.402   8.482  63.702  1.00  0.00    -0.084 A  
HETATM   12  C   UNL     1      -6.631   6.855  63.933  1.00  0.00    -0.042 A  
ENDROOT
BRANCH   2  13
HETATM   13  O   UNL     1      -9.020   6.680  69.548  1.00  0.00    -0.138 OA 
BRANCH  13  14
HETATM   14  C   UNL     1      -9.330   6.567  70.946  1.00  0.00    -0.161 C  
HETATM   15  C   UNL     1     -11.704   8.254  71.274  1.00  0.00    -0.283 C  
HETATM   16  C   UNL     1     -10.731   5.945  71.112  1.00  0.00    -0.328 C  
HETATM   17  C   UNL     1     -10.996   5.818  72.620  1.00  0.00    -0.311 C  
HETATM   18  N   UNL     1     -10.621   8.268  72.282  1.00  0.00    -0.298 NA 
HETATM   19  C   UNL     1      -9.338   7.976  71.591  1.00  0.00    -0.160 C  
HETATM   20  C   UNL     1     -10.877   7.205  73.277  1.00  0.00    -0.338 C  
HETATM   21  C   UNL     1     -11.786   6.907  70.540  1.00  0.00    -0.385 C  
ENDBRANCH  13  14
ENDBRANCH   2  13
BRANCH   6  22
HETATM   22  C   UNL     1      -7.322   9.230  67.941  1.00  0.00    -0.080 A  
HETATM   23  C   UNL     1      -7.328   9.502  69.319  1.00  0.00    -0.072 A  
HETATM   24  C   UNL     1      -6.945  10.754  69.809  1.00  0.00    -0.141 A  
HETATM   25  C   UNL     1      -6.536  11.754  68.931  1.00  0.00    -0.076 A  
HETATM   26  C   UNL     1      -6.514  11.505  67.562  1.00  0.00    -0.079 A  
HETATM   27  C   UNL     1      -6.911  10.258  67.072  1.00  0.00    -0.084 A  
ENDBRANCH   6  22
TORSDOF 3
ENDMDL
MODEL      131
REMARK 921   NORMALIZED FREE ENERGY PREDICTED BY IDOCK:   -2.78 KCAL/MOL
REMARK 922        TOTAL FREE ENERGY PREDICTED BY IDOCK:   -4.24 KCAL/MOL
REMARK 923 INTER-LIGAND FREE ENERGY PREDICTED BY IDOCK:   -4.41 KCAL/MOL
REMARK 924 INTRA-LIGAND FREE ENERGY PREDICTED BY IDOCK:    0.17 KCAL/MOL
REMARK 927      BINDING AFFINITY PREDICTED BY RF-SCORE:    0.00 PKD
ROOT
HETATM    1  O   UNL     1     -10.325  19.441  69.546  1.00  0.00    -0.070 OA 
HETATM    2  C   UNL     1      -9.674  18.583  68.957  1.00  0.00    -0.239 C  
HETATM    3  C   UNL     1      -5.235  19.344  64.609  1.00  0.00    -0.214 A  
HETATM    4  N   UNL     1      -9.250  18.698  67.650  1.00  0.00    -0.279 N  
HETATM    5  C   UNL     1      -9.627  19.874  66.881  1.00  0.00    -0.394 C  
HETATM    6  C   UNL     1      -8.446  17.676  66.976  1.00  0.00    -0.236 C  
HETATM    7  C   UNL     1      -7.312  18.298  66.168  1.00  0.00    -0.298 A  
HETATM    8  C   UNL     1      -8.415  20.584  66.284  1.00  0.00     0.034 C  
HETATM    9  C   UNL     1      -6.230  17.490  65.774  1.00  0.00    -0.028 A  
HETATM   10  C   UNL     1      -7.338  19.653  65.785  1.00  0.00    -0.320 A  
HETATM   11  C   UNL     1      -5.196  18.012  65.005  1.00  0.00    -0.043 A  
HETATM   12  C   UNL     1      -6.296  20.163  65.000  1.00  0.00    -0.322 A  
ENDROOT
BRANCH   2  13
HETATM   13  O   UNL     1      -9.318  17.396  69.526  1.00  0.00     0.175 OA 
BRANCH  13  14
HETATM   14  C   UNL     1      -9.956  16.244  68.956  1.00  0.00    -0.256 C  
HETATM   15  C   UNL     1     -11.232  14.942  71.250  1.00  0.00    -0.129 C  
HETATM   16  C   UNL     1     -11.478  16.337  69.176  1.00  0.00    -0.257 C  
HETATM   17  C   UNL     1     -12.109  15.099  68.520  1.00  0.00    -0.146 C  
HETATM   18  N   UNL     1     -10.539  14.142  70.216  1.00  0.00     0.538 NA 
HETATM   19  C   UNL     1      -9.434  14.963  69.655  1.00  0.00     0.074 C  
HETATM   20  C   UNL     1     -11.494  13.828  69.131  1.00  0.00    -0.298 C  
HETATM   21  C   UNL     1     -11.780  16.261  70.683  1.00  0.00    -0.186 C  
ENDBRANCH  13  14
ENDBRANCH   2  13
BRANCH   6  22
HETATM   22  C   UNL     1      -9.282  16.703  66.137  1.00  0.00    -0.312 A  
HETATM   23  C   UNL     1     -10.377  17.180  65.396  1.00  0.00    -0.038 A  
HETATM   24  C   UNL     1     -11.206  16.304  64.690  1.00  0.00    -0.264 A  
HETATM   25  C   UNL     1     -10.949  14.936  64.699  1.00  0.00    -0.323 A  
HETATM   26  C   UNL     1      -9.867  14.442  65.420  1.00  0.00    -0.265 A  
HETATM   27  C   UNL     1      -9.046  15.316  66.137  1.00  0.00    -0.314 A  
ENDBRANCH   6  22
TORSDOF 3
ENDMDL
MODEL      132
REMARK 921   NORMALIZED FREE ENERGY PREDICTED BY IDOCK:   -2.70 KCAL/MOL
REMARK 922        TOTAL FREE ENERGY PREDICTED BY IDOCK:   -4.14 KCAL/MOL
REMARK 923 INTER-LIGAND FREE ENERGY PREDICTED BY IDOCK:   -3.17 KCAL/MOL
REMARK 924 INTRA-LIGAND FREE ENERGY PREDICTED BY IDOCK:   -0.97 KCAL/MOL
REMARK 927      BINDING AFFINITY PREDICTED BY RF-SCORE:    0.00 PKD
ROOT
HETATM    1  O   UNL     1     -10.966   6.360  66.739  1.00  0.00    -0.353 OA 
HETATM    2  C   UNL     1      -9.930   6.735  67.278  1.00  0.00    -0.157 C  
HETATM    3  C   UNL     1      -8.974   8.270  73.273  1.00  0.00    -0.283 A  
HETATM    4  N   UNL     1      -9.884   7.643  68.316  1.00  0.00    -0.161 N  
HETATM    5  C   UNL     1     -11.120   8.249  68.786  1.00  0.00     0.337 C  
HETATM    6  C   UNL     1      -8.637   8.053  68.967  1.00  0.00    -0.137 C  
HETATM    7  C   UNL     1      -8.787   8.099  70.484  1.00  0.00    -0.144 A  
HETATM    8  C   UNL     1     -11.320   8.059  70.287  1.00  0.00    -0.145 C  
HETATM    9  C   UNL     1      -7.630   8.094  71.285  1.00  0.00    -0.084 A  
HETATM   10  C   UNL     1     -10.052   8.173  71.098  1.00  0.00    -0.222 A  
HETATM   11  C   UNL     1      -7.725   8.173  72.670  1.00  0.00    -0.177 A  
HETATM   12  C   UNL     1     -10.132   8.264  72.492  1.00  0.00    -0.376 A  
ENDROOT
BRANCH   2  13
HETATM   13  O   UNL     1      -8.693   6.314  66.890  1.00  0.00    -0.112 OA 
BRANCH  13  14
HETATM   14  C   UNL     1      -8.455   6.381  65.475  1.00  0.00    -0.139 C  
HETATM   15  C   UNL     1      -6.639   4.138  64.963  1.00  0.00    -0.047 C  
HETATM   16  C   UNL     1      -8.959   5.087  64.807  1.00  0.00    -0.095 C  
HETATM   17  C   UNL     1      -8.709   5.227  63.298  1.00  0.00     0.009 C  
HETATM   18  N   UNL     1      -6.429   5.446  64.305  1.00  0.00    -0.039 NA 
HETATM   19  C   UNL     1      -6.933   6.511  65.211  1.00  0.00    -0.052 C  
HETATM   20  C   UNL     1      -7.212   5.483  63.050  1.00  0.00    -0.047 C  
HETATM   21  C   UNL     1      -8.119   3.897  65.302  1.00  0.00    -0.097 C  
ENDBRANCH  13  14
ENDBRANCH   2  13
BRANCH   6  22
HETATM   22  C   UNL     1      -8.061   9.358  68.407  1.00  0.00    -0.109 A  
HETATM   23  C   UNL     1      -6.869   9.334  67.664  1.00  0.00    -0.076 A  
HETATM   24  C   UNL     1      -6.276  10.518  67.213  1.00  0.00    -0.058 A  
HETATM   25  C   UNL     1      -6.873  11.746  67.484  1.00  0.00    -0.113 A  
HETATM   26  C   UNL     1      -8.058  11.793  68.210  1.00  0.00    -0.154 A  
HETATM   27  C   UNL     1      -8.642  10.612  68.673  1.00  0.00    -0.144 A  
ENDBRANCH   6  22
TORSDOF 3
ENDMDL
MODEL      133
REMARK 921   NORMALIZED FREE ENERGY PREDICTED BY IDOCK:   -2.64 KCAL/MOL
REMARK 922        TOTAL FREE ENERGY PREDICTED BY IDOCK:   -4.08 KCAL/MOL
REMARK 923 INTER-LIGAND FREE ENERGY PREDICTED BY IDOCK:   -3.68 KCAL/MOL
REMARK 924 INTRA-LIGAND FREE ENERGY PREDICTED BY IDOCK:   -0.40 KCAL/MOL
REMARK 927      BINDING AFFINITY PREDICTED BY RF-SCORE:    0.00 PKD
ROOT
HETATM    1  O   UNL     1      -6.710   8.705  71.011  1.00  0.00    -0.050 OA 
HETATM    2  C   UNL     1      -7.512   8.395  70.136  1.00  0.00    -0.063 C  
HETATM    3  C   UNL     1      -8.152   2.913  67.180  1.00  0.00    -0.079 A  
HETATM    4  N   UNL     1      -7.233   7.521  69.106  1.00  0.00    -0.082 N  
HETATM    5  C   UNL     1      -5.896   6.957  68.995  1.00  0.00    -0.019 C  
HETATM    6  C   UNL     1      -8.217   7.140  68.090  1.00  0.00    -0.124 C  
HETATM    7  C   UNL     1      -8.179   5.641  67.810  1.00  0.00    -0.101 A  
HETATM    8  C   UNL     1      -5.917   5.432  68.948  1.00  0.00    -0.024 C  
HETATM    9  C   UNL     1      -9.278   5.038  67.168  1.00  0.00    -0.124 A  
HETATM   10  C   UNL     1      -7.063   4.855  68.153  1.00  0.00    -0.062 A  
HETATM   11  C   UNL     1      -9.265   3.683  66.862  1.00  0.00    -0.204 A  
HETATM   12  C   UNL     1      -7.059   3.493  67.828  1.00  0.00    -0.051 A  
ENDROOT
BRANCH   2  13
HETATM   13  O   UNL     1      -8.774   8.906  70.068  1.00  0.00    -0.130 OA 
BRANCH  13  14
HETATM   14  C   UNL     1      -9.502   8.871  71.305  1.00  0.00    -0.272 C  
HETATM   15  C   UNL     1     -11.179   6.480  71.063  1.00  0.00    -0.309 C  
HETATM   16  C   UNL     1      -9.157   7.578  72.068  1.00  0.00    -0.157 C  
HETATM   17  C   UNL     1      -9.935   7.609  73.392  1.00  0.00    -0.373 C  
HETATM   18  N   UNL     1     -11.721   7.728  71.644  1.00  0.00    -0.270 NA 
HETATM   19  C   UNL     1     -11.024   8.878  71.011  1.00  0.00    -0.276 C  
HETATM   20  C   UNL     1     -11.439   7.744  73.096  1.00  0.00    -0.043 C  
HETATM   21  C   UNL     1      -9.661   6.364  71.268  1.00  0.00    -0.182 C  
ENDBRANCH  13  14
ENDBRANCH   2  13
BRANCH   6  22
HETATM   22  C   UNL     1      -8.112   7.967  66.804  1.00  0.00    -0.107 A  
HETATM   23  C   UNL     1      -9.279   8.327  66.107  1.00  0.00    -0.250 A  
HETATM   24  C   UNL     1      -9.209   9.008  64.889  1.00  0.00    -0.056 A  
HETATM   25  C   UNL     1      -7.973   9.357  64.351  1.00  0.00    -0.131 A  
HETATM   26  C   UNL     1      -6.806   9.018  65.028  1.00  0.00    -0.076 A  
HETATM   27  C   UNL     1      -6.875   8.324  66.238  1.00  0.00    -0.065 A  
ENDBRANCH   6  22
TORSDOF 3
ENDMDL
MODEL      134
REMARK 921   NORMALIZED FREE ENERGY PREDICTED BY IDOCK:   -2.60 KCAL/MOL
REMARK 922        TOTAL FREE ENERGY PREDICTED BY IDOCK:   -4.03 KCAL/MOL
REMARK 923 INTER-LIGAND FREE ENERGY PREDICTED BY IDOCK:   -3.48 KCAL/MOL
REMARK 924 INTRA-LIGAND FREE ENERGY PREDICTED BY IDOCK:   -0.55 KCAL/MOL
REMARK 927      BINDING AFFINITY PREDICTED BY RF-SCORE:    0.00 PKD
ROOT
HETATM    1  O   UNL     1      -6.609   6.267  72.273  1.00  0.00    -0.060 OA 
HETATM    2  C   UNL     1      -7.290   7.076  71.650  1.00  0.00    -0.083 C  
HETATM    3  C   UNL     1      -8.421   7.316  65.496  1.00  0.00    -0.119 A  
HETATM    4  N   UNL     1      -7.004   7.502  70.369  1.00  0.00    -0.051 N  
HETATM    5  C   UNL     1      -5.798   7.021  69.712  1.00  0.00    -0.023 C  
HETATM    6  C   UNL     1      -7.848   8.444  69.631  1.00  0.00    -0.100 C  
HETATM    7  C   UNL     1      -8.045   8.005  68.184  1.00  0.00    -0.129 A  
HETATM    8  C   UNL     1      -6.097   6.383  68.358  1.00  0.00    -0.024 C  
HETATM    9  C   UNL     1      -9.107   8.553  67.442  1.00  0.00    -0.148 A  
HETATM   10  C   UNL     1      -7.174   7.086  67.569  1.00  0.00    -0.090 A  
HETATM   11  C   UNL     1      -9.296   8.206  66.109  1.00  0.00    -0.232 A  
HETATM   12  C   UNL     1      -7.368   6.754  66.222  1.00  0.00    -0.073 A  
ENDROOT
BRANCH   2  13
HETATM   13  O   UNL     1      -8.402   7.670  72.169  1.00  0.00    -0.102 OA 
BRANCH  13  14
HETATM   14  C   UNL     1      -9.334   6.765  72.780  1.00  0.00    -0.135 C  
HETATM   15  C   UNL     1     -11.680   6.889  71.028  1.00  0.00    -0.345 C  
HETATM   16  C   UNL     1      -9.656   5.619  71.800  1.00  0.00    -0.184 C  
HETATM   17  C   UNL     1     -10.628   4.669  72.516  1.00  0.00    -0.243 C  
HETATM   18  N   UNL     1     -11.836   6.860  72.499  1.00  0.00    -0.165 NA 
HETATM   19  C   UNL     1     -10.649   7.518  73.106  1.00  0.00    -0.388 C  
HETATM   20  C   UNL     1     -11.879   5.453  72.950  1.00  0.00    -0.077 C  
HETATM   21  C   UNL     1     -10.390   6.189  70.574  1.00  0.00    -0.270 C  
ENDBRANCH  13  14
ENDBRANCH   2  13
BRANCH   6  22
HETATM   22  C   UNL     1      -7.367   9.896  69.730  1.00  0.00    -0.129 A  
HETATM   23  C   UNL     1      -8.040  10.906  69.021  1.00  0.00    -0.126 A  
HETATM   24  C   UNL     1      -7.573  12.223  69.026  1.00  0.00     0.103 A  
HETATM   25  C   UNL     1      -6.434  12.560  69.752  1.00  0.00    -0.018 A  
HETATM   26  C   UNL     1      -5.757  11.578  70.468  1.00  0.00    -0.146 A  
HETATM   27  C   UNL     1      -6.215  10.259  70.451  1.00  0.00    -0.120 A  
ENDBRANCH   6  22
TORSDOF 3
ENDMDL
MODEL      135
REMARK 921   NORMALIZED FREE ENERGY PREDICTED BY IDOCK:   -2.57 KCAL/MOL
REMARK 922        TOTAL FREE ENERGY PREDICTED BY IDOCK:   -3.99 KCAL/MOL
REMARK 923 INTER-LIGAND FREE ENERGY PREDICTED BY IDOCK:   -4.31 KCAL/MOL
REMARK 924 INTRA-LIGAND FREE ENERGY PREDICTED BY IDOCK:    0.32 KCAL/MOL
REMARK 927      BINDING AFFINITY PREDICTED BY RF-SCORE:    0.00 PKD
ROOT
HETATM    1  O   UNL     1      -9.091  10.570  69.704  1.00  0.00    -0.111 OA 
HETATM    2  C   UNL     1      -9.418   9.499  69.204  1.00  0.00    -0.163 C  
HETATM    3  C   UNL     1      -8.971   3.749  71.640  1.00  0.00    -0.155 A  
HETATM    4  N   UNL     1      -8.752   8.310  69.419  1.00  0.00    -0.140 N  
HETATM    5  C   UNL     1      -7.553   8.307  70.243  1.00  0.00    -0.072 C  
HETATM    6  C   UNL     1      -9.179   7.036  68.838  1.00  0.00    -0.136 C  
HETATM    7  C   UNL     1      -9.112   5.905  69.859  1.00  0.00    -0.156 A  
HETATM    8  C   UNL     1      -7.646   7.305  71.391  1.00  0.00    -0.083 C  
HETATM    9  C   UNL     1      -9.828   4.718  69.612  1.00  0.00    -0.292 A  
HETATM   10  C   UNL     1      -8.331   6.010  71.026  1.00  0.00    -0.124 A  
HETATM   11  C   UNL     1      -9.761   3.651  70.500  1.00  0.00    -0.210 A  
HETATM   12  C   UNL     1      -8.264   4.924  71.905  1.00  0.00    -0.115 A  
ENDROOT
BRANCH   2  13
HETATM   13  O   UNL     1     -10.472   9.367  68.348  1.00  0.00    -0.208 OA 
BRANCH  13  14
HETATM   14  C   UNL     1     -10.714  10.511  67.516  1.00  0.00    -0.276 C  
HETATM   15  C   UNL     1      -8.109  11.046  66.285  1.00  0.00    -0.159 C  
HETATM   16  C   UNL     1     -10.440  10.144  66.044  1.00  0.00    -0.165 C  
HETATM   17  C   UNL     1     -10.745  11.391  65.200  1.00  0.00    -0.332 C  
HETATM   18  N   UNL     1      -8.957  12.156  66.773  1.00  0.00    -0.200 NA 
HETATM   19  C   UNL     1      -9.757  11.661  67.923  1.00  0.00    -0.179 C  
HETATM   20  C   UNL     1      -9.881  12.565  65.693  1.00  0.00    -0.216 C  
HETATM   21  C   UNL     1      -8.945   9.826  65.869  1.00  0.00    -0.189 C  
ENDBRANCH  13  14
ENDBRANCH   2  13
BRANCH   6  22
HETATM   22  C   UNL     1      -8.443   6.683  67.541  1.00  0.00    -0.121 A  
HETATM   23  C   UNL     1      -9.169   6.238  66.423  1.00  0.00    -0.173 A  
HETATM   24  C   UNL     1      -8.517   5.830  65.256  1.00  0.00    -0.148 A  
HETATM   25  C   UNL     1      -7.127   5.874  65.178  1.00  0.00    -0.064 A  
HETATM   26  C   UNL     1      -6.389   6.319  66.270  1.00  0.00    -0.042 A  
HETATM   27  C   UNL     1      -7.040   6.712  67.441  1.00  0.00    -0.080 A  
ENDBRANCH   6  22
TORSDOF 3
ENDMDL
MODEL      136
REMARK 921   NORMALIZED FREE ENERGY PREDICTED BY IDOCK:   -2.40 KCAL/MOL
REMARK 922        TOTAL FREE ENERGY PREDICTED BY IDOCK:   -3.78 KCAL/MOL
REMARK 923 INTER-LIGAND FREE ENERGY PREDICTED BY IDOCK:   -5.06 KCAL/MOL
REMARK 924 INTRA-LIGAND FREE ENERGY PREDICTED BY IDOCK:    1.27 KCAL/MOL
REMARK 927      BINDING AFFINITY PREDICTED BY RF-SCORE:    0.00 PKD
ROOT
HETATM    1  O   UNL     1     -11.095  17.149  67.491  1.00  0.00    -0.178 OA 
HETATM    2  C   UNL     1     -10.656  16.004  67.497  1.00  0.00    -0.313 C  
HETATM    3  C   UNL     1     -12.620  11.081  70.831  1.00  0.00    -0.488 A  
HETATM    4  N   UNL     1     -10.629  15.193  68.613  1.00  0.00    -0.228 N  
HETATM    5  C   UNL     1     -11.095  15.720  69.887  1.00  0.00    -0.331 C  
HETATM    6  C   UNL     1     -10.130  13.816  68.591  1.00  0.00    -0.193 C  
HETATM    7  C   UNL     1     -11.043  12.877  69.373  1.00  0.00    -0.131 A  
HETATM    8  C   UNL     1     -12.178  14.845  70.510  1.00  0.00    -0.388 C  
HETATM    9  C   UNL     1     -10.947  11.490  69.152  1.00  0.00    -0.276 A  
HETATM   10  C   UNL     1     -11.956  13.363  70.327  1.00  0.00    -0.378 A  
HETATM   11  C   UNL     1     -11.735  10.601  69.873  1.00  0.00    -0.395 A  
HETATM   12  C   UNL     1     -12.735  12.455  71.054  1.00  0.00    -0.315 A  
ENDROOT
BRANCH   2  13
HETATM   13  O   UNL     1     -10.115  15.407  66.397  1.00  0.00    -0.256 OA 
BRANCH  13  14
HETATM   14  C   UNL     1     -10.730  14.163  66.027  1.00  0.00    -0.299 C  
HETATM   15  C   UNL     1     -12.860  14.958  64.177  1.00  0.00     0.613 C  
HETATM   16  C   UNL     1     -10.584  13.949  64.508  1.00  0.00    -0.375 C  
HETATM   17  C   UNL     1     -11.229  12.595  64.175  1.00  0.00    -0.437 C  
HETATM   18  N   UNL     1     -13.095  13.912  65.196  1.00  0.00    -0.764 NA 
HETATM   19  C   UNL     1     -12.240  14.208  66.375  1.00  0.00    -0.446 C  
HETATM   20  C   UNL     1     -12.696  12.601  64.639  1.00  0.00    -0.377 C  
HETATM   21  C   UNL     1     -11.382  15.032  63.762  1.00  0.00     0.891 C  
ENDBRANCH  13  14
ENDBRANCH   2  13
BRANCH   6  22
HETATM   22  C   UNL     1      -8.667  13.694  69.031  1.00  0.00     0.315 A  
HETATM   23  C   UNL     1      -8.015  14.798  69.606  1.00  0.00     0.058 A  
HETATM   24  C   UNL     1      -6.659  14.741  69.939  1.00  0.00    -0.175 A  
HETATM   25  C   UNL     1      -5.932  13.575  69.718  1.00  0.00    -0.123 A  
HETATM   26  C   UNL     1      -6.559  12.466  69.157  1.00  0.00    -0.099 A  
HETATM   27  C   UNL     1      -7.910  12.528  68.811  1.00  0.00     0.031 A  
ENDBRANCH   6  22
TORSDOF 3
ENDMDL
MODEL      137
REMARK 921   NORMALIZED FREE ENERGY PREDICTED BY IDOCK:   -2.36 KCAL/MOL
REMARK 922        TOTAL FREE ENERGY PREDICTED BY IDOCK:   -3.74 KCAL/MOL
REMARK 923 INTER-LIGAND FREE ENERGY PREDICTED BY IDOCK:   -3.88 KCAL/MOL
REMARK 924 INTRA-LIGAND FREE ENERGY PREDICTED BY IDOCK:    0.14 KCAL/MOL
REMARK 927      BINDING AFFINITY PREDICTED BY RF-SCORE:    0.00 PKD
ROOT
HETATM    1  O   UNL     1     -10.399   4.200  72.114  1.00  0.00    -0.172 OA 
HETATM    2  C   UNL     1      -9.671   4.785  71.318  1.00  0.00    -0.178 C  
HETATM    3  C   UNL     1      -9.970  10.736  69.394  1.00  0.00    -0.137 A  
HETATM    4  N   UNL     1     -10.104   5.772  70.457  1.00  0.00    -0.196 N  
HETATM    5  C   UNL     1     -11.516   6.123  70.431  1.00  0.00    -0.272 C  
HETATM    6  C   UNL     1      -9.211   6.481  69.538  1.00  0.00    -0.142 C  
HETATM    7  C   UNL     1      -9.494   7.980  69.528  1.00  0.00    -0.160 A  
HETATM    8  C   UNL     1     -11.741   7.616  70.656  1.00  0.00    -0.214 C  
HETATM    9  C   UNL     1      -8.517   8.856  69.018  1.00  0.00    -0.133 A  
HETATM   10  C   UNL     1     -10.716   8.502  69.991  1.00  0.00    -0.234 A  
HETATM   11  C   UNL     1      -8.753  10.224  68.958  1.00  0.00    -0.164 A  
HETATM   12  C   UNL     1     -10.945   9.881  69.914  1.00  0.00    -0.321 A  
ENDROOT
BRANCH   2  13
HETATM   13  O   UNL     1      -8.344   4.504  71.176  1.00  0.00    -0.087 OA 
BRANCH  13  14
HETATM   14  C   UNL     1      -7.560   4.704  72.362  1.00  0.00    -0.085 C  
HETATM   15  C   UNL     1      -6.120   7.202  71.835  1.00  0.00    -0.037 C  
HETATM   16  C   UNL     1      -7.980   6.023  73.040  1.00  0.00    -0.109 C  
HETATM   17  C   UNL     1      -7.135   6.169  74.314  1.00  0.00    -0.087 C  
HETATM   18  N   UNL     1      -5.438   6.058  72.479  1.00  0.00    -0.030 NA 
HETATM   19  C   UNL     1      -6.060   4.804  71.980  1.00  0.00    -0.017 C  
HETATM   20  C   UNL     1      -5.642   6.139  73.942  1.00  0.00    -0.049 C  
HETATM   21  C   UNL     1      -7.630   7.204  72.120  1.00  0.00    -0.089 C  
ENDBRANCH  13  14
ENDBRANCH   2  13
BRANCH   6  22
HETATM   22  C   UNL     1      -9.202   5.889  68.124  1.00  0.00    -0.116 A  
HETATM   23  C   UNL     1      -8.676   6.637  67.056  1.00  0.00    -0.113 A  
HETATM   24  C   UNL     1      -8.731   6.157  65.744  1.00  0.00    -0.151 A  
HETATM   25  C   UNL     1      -9.299   4.915  65.476  1.00  0.00    -0.163 A  
HETATM   26  C   UNL     1      -9.819   4.154  66.519  1.00  0.00    -0.214 A  
HETATM   27  C   UNL     1      -9.778   4.640  67.828  1.00  0.00    -0.205 A  
ENDBRANCH   6  22
TORSDOF 3
ENDMDL
MODEL      138
REMARK 921   NORMALIZED FREE ENERGY PREDICTED BY IDOCK:   -2.33 KCAL/MOL
REMARK 922        TOTAL FREE ENERGY PREDICTED BY IDOCK:   -3.70 KCAL/MOL
REMARK 923 INTER-LIGAND FREE ENERGY PREDICTED BY IDOCK:   -3.56 KCAL/MOL
REMARK 924 INTRA-LIGAND FREE ENERGY PREDICTED BY IDOCK:   -0.15 KCAL/MOL
REMARK 927      BINDING AFFINITY PREDICTED BY RF-SCORE:    0.00 PKD
ROOT
HETATM    1  O   UNL     1      -7.780  16.158  67.414  1.00  0.00    -0.136 OA 
HETATM    2  C   UNL     1      -8.474  15.162  67.592  1.00  0.00    -0.160 C  
HETATM    3  C   UNL     1      -6.949   9.791  70.424  1.00  0.00    -0.139 A  
HETATM    4  N   UNL     1      -7.988  13.871  67.585  1.00  0.00    -0.160 N  
HETATM    5  C   UNL     1      -6.579  13.643  67.300  1.00  0.00     0.235 C  
HETATM    6  C   UNL     1      -8.828  12.697  67.832  1.00  0.00    -0.182 C  
HETATM    7  C   UNL     1      -8.143  11.705  68.765  1.00  0.00    -0.072 A  
HETATM    8  C   UNL     1      -5.895  12.830  68.395  1.00  0.00    -0.061 C  
HETATM    9  C   UNL     1      -8.921  10.726  69.412  1.00  0.00     0.020 A  
HETATM   10  C   UNL     1      -6.750  11.728  68.971  1.00  0.00    -0.102 A  
HETATM   11  C   UNL     1      -8.327   9.781  70.240  1.00  0.00    -0.172 A  
HETATM   12  C   UNL     1      -6.164  10.762  69.798  1.00  0.00    -0.092 A  
ENDROOT
BRANCH   2  13
HETATM   13  O   UNL     1      -9.822  15.218  67.790  1.00  0.00    -0.219 OA 
BRANCH  13  14
HETATM   14  C   UNL     1     -10.283  14.529  68.962  1.00  0.00    -0.206 C  
HETATM   15  C   UNL     1     -12.345  16.303  70.053  1.00  0.00     0.545 C  
HETATM   16  C   UNL     1     -11.781  14.197  68.807  1.00  0.00    -0.380 C  
HETATM   17  C   UNL     1     -12.211  13.435  70.070  1.00  0.00    -0.367 C  
HETATM   18  N   UNL     1     -11.380  15.626  70.947  1.00  0.00    -0.351 NA 
HETATM   19  C   UNL     1     -10.106  15.440  70.203  1.00  0.00    -0.136 C  
HETATM   20  C   UNL     1     -11.915  14.296  71.311  1.00  0.00    -0.242 C  
HETATM   21  C   UNL     1     -12.590  15.505  68.763  1.00  0.00     0.555 C  
ENDBRANCH  13  14
ENDBRANCH   2  13
BRANCH   6  22
HETATM   22  C   UNL     1      -9.327  12.028  66.547  1.00  0.00    -0.226 A  
HETATM   23  C   UNL     1      -8.773  10.804  66.135  1.00  0.00    -0.186 A  
HETATM   24  C   UNL     1      -9.148  10.213  64.925  1.00  0.00    -0.256 A  
HETATM   25  C   UNL     1     -10.097  10.827  64.111  1.00  0.00    -0.418 A  
HETATM   26  C   UNL     1     -10.665  12.034  64.503  1.00  0.00    -0.358 A  
HETATM   27  C   UNL     1     -10.279  12.632  65.705  1.00  0.00    -0.290 A  
ENDBRANCH   6  22
TORSDOF 3
ENDMDL
MODEL      139
REMARK 921   NORMALIZED FREE ENERGY PREDICTED BY IDOCK:   -1.95 KCAL/MOL
REMARK 922        TOTAL FREE ENERGY PREDICTED BY IDOCK:   -3.26 KCAL/MOL
REMARK 923 INTER-LIGAND FREE ENERGY PREDICTED BY IDOCK:   -3.41 KCAL/MOL
REMARK 924 INTRA-LIGAND FREE ENERGY PREDICTED BY IDOCK:    0.16 KCAL/MOL
REMARK 927      BINDING AFFINITY PREDICTED BY RF-SCORE:    0.00 PKD
ROOT
HETATM    1  O   UNL     1      -8.752  11.052  68.470  1.00  0.00    -0.146 OA 
HETATM    2  C   UNL     1      -8.897   9.842  68.329  1.00  0.00    -0.119 C  
HETATM    3  C   UNL     1     -10.920   5.636  72.504  1.00  0.00    -0.313 A  
HETATM    4  N   UNL     1      -8.691   8.917  69.332  1.00  0.00    -0.139 N  
HETATM    5  C   UNL     1      -8.221   9.371  70.632  1.00  0.00    -0.168 C  
HETATM    6  C   UNL     1      -8.903   7.479  69.152  1.00  0.00    -0.136 C  
HETATM    7  C   UNL     1      -9.633   6.867  70.342  1.00  0.00    -0.171 A  
HETATM    8  C   UNL     1      -9.132   8.911  71.767  1.00  0.00    -0.241 C  
HETATM    9  C   UNL     1     -10.254   5.613  70.192  1.00  0.00    -0.318 A  
HETATM   10  C   UNL     1      -9.677   7.514  71.592  1.00  0.00    -0.184 A  
HETATM   11  C   UNL     1     -10.897   5.006  71.264  1.00  0.00     0.011 A  
HETATM   12  C   UNL     1     -10.318   6.886  72.666  1.00  0.00    -0.228 A  
ENDROOT
BRANCH   2  13
HETATM   13  O   UNL     1      -9.257   9.267  67.146  1.00  0.00    -0.128 OA 
BRANCH  13  14
HETATM   14  C   UNL     1      -8.201   9.181  66.177  1.00  0.00    -0.111 C  
HETATM   15  C   UNL     1      -9.496   9.941  63.661  1.00  0.00    -0.095 C  
HETATM   16  C   UNL     1      -7.965  10.569  65.549  1.00  0.00    -0.145 C  
HETATM   17  C   UNL     1      -6.809  10.426  64.549  1.00  0.00    -0.006 C  
HETATM   18  N   UNL     1      -8.532   8.820  63.706  1.00  0.00    -0.144 NA 
HETATM   19  C   UNL     1      -8.607   8.195  65.053  1.00  0.00    -0.050 C  
HETATM   20  C   UNL     1      -7.167   9.352  63.506  1.00  0.00    -0.100 C  
HETATM   21  C   UNL     1      -9.213  10.985  64.752  1.00  0.00    -0.198 C  
ENDBRANCH  13  14
ENDBRANCH   2  13
BRANCH   6  22
HETATM   22  C   UNL     1      -7.618   6.715  68.812  1.00  0.00    -0.104 A  
HETATM   23  C   UNL     1      -6.726   7.237  67.860  1.00  0.00    -0.061 A  
HETATM   24  C   UNL     1      -5.590   6.521  67.469  1.00  0.00    -0.012 A  
HETATM   25  C   UNL     1      -5.317   5.278  68.033  1.00  0.00    -0.011 A  
HETATM   26  C   UNL     1      -6.182   4.746  68.984  1.00  0.00    -0.031 A  
HETATM   27  C   UNL     1      -7.325   5.454  69.363  1.00  0.00    -0.065 A  
ENDBRANCH   6  22
TORSDOF 3
ENDMDL
MODEL      140
REMARK 921   NORMALIZED FREE ENERGY PREDICTED BY IDOCK:   -0.88 KCAL/MOL
REMARK 922        TOTAL FREE ENERGY PREDICTED BY IDOCK:   -2.00 KCAL/MOL
REMARK 923 INTER-LIGAND FREE ENERGY PREDICTED BY IDOCK:   -3.21 KCAL/MOL
REMARK 924 INTRA-LIGAND FREE ENERGY PREDICTED BY IDOCK:    1.21 KCAL/MOL
REMARK 927      BINDING AFFINITY PREDICTED BY RF-SCORE:    0.00 PKD
ROOT
HETATM    1  O   UNL     1      -7.477   9.488  65.021  1.00  0.00    -0.103 OA 
HETATM    2  C   UNL     1      -7.412   8.923  66.108  1.00  0.00    -0.090 C  
HETATM    3  C   UNL     1      -5.127   3.247  67.436  1.00  0.00    -0.008 A  
HETATM    4  N   UNL     1      -7.544   7.561  66.281  1.00  0.00    -0.086 N  
HETATM    5  C   UNL     1      -7.833   6.723  65.127  1.00  0.00    -0.119 C  
HETATM    6  C   UNL     1      -7.430   6.904  67.585  1.00  0.00    -0.098 C  
HETATM    7  C   UNL     1      -6.596   5.630  67.499  1.00  0.00    -0.053 A  
HETATM    8  C   UNL     1      -6.819   5.594  64.968  1.00  0.00    -0.051 C  
HETATM    9  C   UNL     1      -6.062   5.082  68.680  1.00  0.00    -0.030 A  
HETATM   10  C   UNL     1      -6.370   4.979  66.271  1.00  0.00    -0.036 A  
HETATM   11  C   UNL     1      -5.329   3.902  68.646  1.00  0.00    -0.012 A  
HETATM   12  C   UNL     1      -5.639   3.785  66.253  1.00  0.00    -0.018 A  
ENDROOT
BRANCH   2  13
HETATM   13  O   UNL     1      -7.225   9.590  67.284  1.00  0.00    -0.085 OA 
BRANCH  13  14
HETATM   14  C   UNL     1      -8.020  10.776  67.431  1.00  0.00    -0.112 C  
HETATM   15  C   UNL     1     -10.542  10.099  66.102  1.00  0.00    -0.028 C  
HETATM   16  C   UNL     1      -9.286  10.449  68.248  1.00  0.00    -0.150 C  
HETATM   17  C   UNL     1     -10.079  11.755  68.401  1.00  0.00    -0.201 C  
HETATM   18  N   UNL     1      -9.929  11.434  65.925  1.00  0.00    -0.224 NA 
HETATM   19  C   UNL     1      -8.454  11.287  66.034  1.00  0.00    -0.102 C  
HETATM   20  C   UNL     1     -10.397  12.326  67.008  1.00  0.00    -0.219 C  
HETATM   21  C   UNL     1     -10.166   9.470  67.452  1.00  0.00    -0.285 C  
ENDBRANCH  13  14
ENDBRANCH   2  13
BRANCH   6  22
HETATM   22  C   UNL     1      -8.783   6.659  68.261  1.00  0.00    -0.118 A  
HETATM   23  C   UNL     1      -9.733   5.827  67.644  1.00  0.00    -0.127 A  
HETATM   24  C   UNL     1     -11.006   5.654  68.196  1.00  0.00    -0.026 A  
HETATM   25  C   UNL     1     -11.348   6.296  69.383  1.00  0.00    -0.448 A  
HETATM   26  C   UNL     1     -10.421   7.118  70.016  1.00  0.00    -0.235 A  
HETATM   27  C   UNL     1      -9.154   7.303  69.456  1.00  0.00    -0.143 A  
ENDBRANCH   6  22
TORSDOF 3
ENDMDL
MODEL      141
REMARK 921   NORMALIZED FREE ENERGY PREDICTED BY IDOCK:   -0.79 KCAL/MOL
REMARK 922        TOTAL FREE ENERGY PREDICTED BY IDOCK:   -1.89 KCAL/MOL
REMARK 923 INTER-LIGAND FREE ENERGY PREDICTED BY IDOCK:   -4.23 KCAL/MOL
REMARK 924 INTRA-LIGAND FREE ENERGY PREDICTED BY IDOCK:    2.33 KCAL/MOL
REMARK 927      BINDING AFFINITY PREDICTED BY RF-SCORE:    0.00 PKD
ROOT
HETATM    1  O   UNL     1      -6.860  10.017  68.523  1.00  0.00    -0.054 OA 
HETATM    2  C   UNL     1      -8.033  10.108  68.175  1.00  0.00    -0.104 C  
HETATM    3  C   UNL     1     -10.785  14.628  64.831  1.00  0.00    -0.447 A  
HETATM    4  N   UNL     1      -8.715  11.301  68.061  1.00  0.00    -0.139 N  
HETATM    5  C   UNL     1      -8.043  12.541  68.417  1.00  0.00    -0.136 C  
HETATM    6  C   UNL     1     -10.107  11.388  67.613  1.00  0.00    -0.180 C  
HETATM    7  C   UNL     1     -10.305  12.528  66.619  1.00  0.00    -0.244 A  
HETATM    8  C   UNL     1      -8.082  13.563  67.284  1.00  0.00    -0.141 C  
HETATM    9  C   UNL     1     -11.452  12.532  65.803  1.00  0.00    -0.407 A  
HETATM   10  C   UNL     1      -9.382  13.586  66.518  1.00  0.00    -0.227 A  
HETATM   11  C   UNL     1     -11.685  13.572  64.912  1.00  0.00    -0.381 A  
HETATM   12  C   UNL     1      -9.636  14.634  65.625  1.00  0.00    -0.215 A  
ENDROOT
BRANCH   2  13
HETATM   13  O   UNL     1      -8.810   9.025  67.888  1.00  0.00    -0.128 OA 
BRANCH  13  14
HETATM   14  C   UNL     1      -8.832   8.015  68.909  1.00  0.00    -0.141 C  
HETATM   15  C   UNL     1      -7.168   9.142  71.042  1.00  0.00    -0.100 C  
HETATM   16  C   UNL     1      -9.465   8.593  70.190  1.00  0.00    -0.172 C  
HETATM   17  C   UNL     1      -9.491   7.465  71.233  1.00  0.00    -0.159 C  
HETATM   18  N   UNL     1      -7.064   7.711  70.678  1.00  0.00    -0.054 NA 
HETATM   19  C   UNL     1      -7.381   7.574  69.232  1.00  0.00    -0.089 C  
HETATM   20  C   UNL     1      -8.061   6.944  71.456  1.00  0.00    -0.109 C  
HETATM   21  C   UNL     1      -8.564   9.709  70.744  1.00  0.00     0.068 C  
ENDBRANCH  13  14
ENDBRANCH   2  13
BRANCH   6  22
HETATM   22  C   UNL     1     -11.113  11.453  68.768  1.00  0.00    -0.290 A  
HETATM   23  C   UNL     1     -11.917  10.337  69.057  1.00  0.00     0.119 A  
HETATM   24  C   UNL     1     -12.901  10.396  70.049  1.00  0.00     0.012 A  
HETATM   25  C   UNL     1     -13.088  11.566  70.781  1.00  0.00     0.069 A  
HETATM   26  C   UNL     1     -12.297  12.679  70.517  1.00  0.00    -0.350 A  
HETATM   27  C   UNL     1     -11.325  12.625  69.515  1.00  0.00    -0.227 A  
ENDBRANCH   6  22
TORSDOF 3
ENDMDL
MODEL      142
REMARK 921   NORMALIZED FREE ENERGY PREDICTED BY IDOCK:   -0.14 KCAL/MOL
REMARK 922        TOTAL FREE ENERGY PREDICTED BY IDOCK:   -1.13 KCAL/MOL
REMARK 923 INTER-LIGAND FREE ENERGY PREDICTED BY IDOCK:   -1.12 KCAL/MOL
REMARK 924 INTRA-LIGAND FREE ENERGY PREDICTED BY IDOCK:   -0.00 KCAL/MOL
REMARK 927      BINDING AFFINITY PREDICTED BY RF-SCORE:    0.00 PKD
ROOT
HETATM    1  O   UNL     1     -10.639  15.624  66.154  1.00  0.00    -0.305 OA 
HETATM    2  C   UNL     1     -10.282  14.579  66.687  1.00  0.00    -0.275 C  
HETATM    3  C   UNL     1      -5.271  13.542  70.295  1.00  0.00    -0.103 A  
HETATM    4  N   UNL     1      -8.964  14.219  66.875  1.00  0.00    -0.241 N  
HETATM    5  C   UNL     1      -7.911  15.088  66.373  1.00  0.00     0.820 C  
HETATM    6  C   UNL     1      -8.560  12.980  67.544  1.00  0.00    -0.192 C  
HETATM    7  C   UNL     1      -7.413  13.219  68.520  1.00  0.00    -0.115 A  
HETATM    8  C   UNL     1      -6.916  15.476  67.464  1.00  0.00    -0.223 C  
HETATM    9  C   UNL     1      -7.149  12.258  69.514  1.00  0.00     0.219 A  
HETATM   10  C   UNL     1      -6.598  14.364  68.433  1.00  0.00    -0.104 A  
HETATM   11  C   UNL     1      -6.089  12.423  70.398  1.00  0.00    -0.011 A  
HETATM   12  C   UNL     1      -5.526  14.511  69.322  1.00  0.00    -0.091 A  
ENDROOT
BRANCH   2  13
HETATM   13  O   UNL     1     -11.157  13.634  67.134  1.00  0.00    -0.287 OA 
BRANCH  13  14
HETATM   14  C   UNL     1     -12.177  14.130  68.014  1.00  0.00    -0.146 C  
HETATM   15  C   UNL     1     -10.892  14.124  70.648  1.00  0.00     0.853 C  
HETATM   16  C   UNL     1     -11.698  15.441  68.668  1.00  0.00    -0.371 C  
HETATM   17  C   UNL     1     -12.836  15.942  69.570  1.00  0.00     0.751 C  
HETATM   18  N   UNL     1     -12.294  13.679  70.490  1.00  0.00    -0.355 NA 
HETATM   19  C   UNL     1     -12.447  13.092  69.133  1.00  0.00     0.311 C  
HETATM   20  C   UNL     1     -13.186  14.854  70.601  1.00  0.00    -0.274 C  
HETATM   21  C   UNL     1     -10.490  15.147  69.574  1.00  0.00    -0.268 C  
ENDBRANCH  13  14
ENDBRANCH   2  13
BRANCH   6  22
HETATM   22  C   UNL     1      -8.255  11.836  66.570  1.00  0.00    -0.066 A  
HETATM   23  C   UNL     1      -9.311  11.129  65.969  1.00  0.00    -0.228 A  
HETATM   24  C   UNL     1      -9.064  10.029  65.144  1.00  0.00    -0.247 A  
HETATM   25  C   UNL     1      -7.757   9.623  64.890  1.00  0.00    -0.120 A  
HETATM   26  C   UNL     1      -6.696  10.313  65.467  1.00  0.00    -0.128 A  
HETATM   27  C   UNL     1      -6.943  11.404  66.304  1.00  0.00     0.072 A  
ENDBRANCH   6  22
TORSDOF 3
ENDMDL
MODEL      143
REMARK 921   NORMALIZED FREE ENERGY PREDICTED BY IDOCK:    0.14 KCAL/MOL
REMARK 922        TOTAL FREE ENERGY PREDICTED BY IDOCK:   -0.81 KCAL/MOL
REMARK 923 INTER-LIGAND FREE ENERGY PREDICTED BY IDOCK:   -0.80 KCAL/MOL
REMARK 924 INTRA-LIGAND FREE ENERGY PREDICTED BY IDOCK:   -0.00 KCAL/MOL
REMARK 927      BINDING AFFINITY PREDICTED BY RF-SCORE:    0.00 PKD
ROOT
HETATM    1  O   UNL     1     -11.664   9.526  67.449  1.00  0.00     0.902 OA 
HETATM    2  C   UNL     1     -11.390  10.703  67.659  1.00  0.00    -0.207 C  
HETATM    3  C   UNL     1      -5.938  13.188  69.474  1.00  0.00    -0.108 A  
HETATM    4  N   UNL     1     -10.502  11.130  68.624  1.00  0.00    -0.189 N  
HETATM    5  C   UNL     1      -9.875  10.149  69.497  1.00  0.00    -0.232 C  
HETATM    6  C   UNL     1     -10.165  12.540  68.835  1.00  0.00     0.009 C  
HETATM    7  C   UNL     1      -8.666  12.733  69.037  1.00  0.00     0.494 A  
HETATM    8  C   UNL     1      -8.353  10.250  69.476  1.00  0.00    -0.162 C  
HETATM    9  C   UNL     1      -8.114  14.017  68.873  1.00  0.00    -0.001 A  
HETATM   10  C   UNL     1      -7.828  11.663  69.407  1.00  0.00     0.342 A  
HETATM   11  C   UNL     1      -6.759  14.240  69.085  1.00  0.00    -0.118 A  
HETATM   12  C   UNL     1      -6.467  11.905  69.629  1.00  0.00    -0.101 A  
ENDROOT
BRANCH   2  13
HETATM   13  O   UNL     1     -11.961  11.734  66.972  1.00  0.00    -0.610 OA 
BRANCH  13  14
HETATM   14  C   UNL     1     -11.164  12.249  65.894  1.00  0.00    -0.340 C  
HETATM   15  C   UNL     1     -12.510  11.249  63.490  1.00  0.00     0.632 C  
HETATM   16  C   UNL     1     -12.025  13.181  65.019  1.00  0.00    -0.423 C  
HETATM   17  C   UNL     1     -11.117  13.725  63.905  1.00  0.00     0.114 C  
HETATM   18  N   UNL     1     -11.034  11.246  63.587  1.00  0.00    -0.362 NA 
HETATM   19  C   UNL     1     -10.661  11.075  65.016  1.00  0.00    -0.244 C  
HETATM   20  C   UNL     1     -10.518  12.549  63.115  1.00  0.00     0.243 C  
HETATM   21  C   UNL     1     -13.138  12.362  64.344  1.00  0.00    -0.050 C  
ENDBRANCH  13  14
ENDBRANCH   2  13
BRANCH   6  22
HETATM   22  C   UNL     1     -10.984  13.198  69.951  1.00  0.00     0.363 A  
HETATM   23  C   UNL     1     -10.756  14.544  70.285  1.00  0.00     0.181 A  
HETATM   24  C   UNL     1     -11.428  15.145  71.354  1.00  0.00    -0.405 A  
HETATM   25  C   UNL     1     -12.352  14.417  72.098  1.00  0.00    -0.298 A  
HETATM   26  C   UNL     1     -12.599  13.085  71.780  1.00  0.00    -0.153 A  
HETATM   27  C   UNL     1     -11.917  12.480  70.722  1.00  0.00    -0.078 A  
ENDBRANCH   6  22
TORSDOF 3
ENDMDL
MODEL      144
REMARK 921   NORMALIZED FREE ENERGY PREDICTED BY IDOCK:    0.45 KCAL/MOL
REMARK 922        TOTAL FREE ENERGY PREDICTED BY IDOCK:   -0.43 KCAL/MOL
REMARK 923 INTER-LIGAND FREE ENERGY PREDICTED BY IDOCK:   -2.06 KCAL/MOL
REMARK 924 INTRA-LIGAND FREE ENERGY PREDICTED BY IDOCK:    1.63 KCAL/MOL
REMARK 927      BINDING AFFINITY PREDICTED BY RF-SCORE:    0.00 PKD
ROOT
HETATM    1  O   UNL     1     -11.253  17.621  64.502  1.00  0.00    -0.811 OA 
HETATM    2  C   UNL     1     -10.607  16.851  65.205  1.00  0.00    -0.120 C  
HETATM    3  C   UNL     1     -11.399  15.491  71.265  1.00  0.00    -0.449 A  
HETATM    4  N   UNL     1     -10.359  17.054  66.547  1.00  0.00    -0.312 N  
HETATM    5  C   UNL     1     -10.835  18.273  67.181  1.00  0.00    -0.207 C  
HETATM    6  C   UNL     1      -9.612  16.105  67.376  1.00  0.00    -0.229 C  
HETATM    7  C   UNL     1     -10.281  15.898  68.731  1.00  0.00    -0.220 A  
HETATM    8  C   UNL     1     -11.693  17.986  68.410  1.00  0.00     2.116 C  
HETATM    9  C   UNL     1      -9.941  14.766  69.495  1.00  0.00    -0.035 A  
HETATM   10  C   UNL     1     -11.209  16.825  69.243  1.00  0.00    -0.009 A  
HETATM   11  C   UNL     1     -10.501  14.563  70.751  1.00  0.00     0.915 A  
HETATM   12  C   UNL     1     -11.757  16.614  70.514  1.00  0.00     0.447 A  
ENDROOT
BRANCH   2  13
HETATM   13  O   UNL     1     -10.033  15.709  64.728  1.00  0.00    -0.249 OA 
BRANCH  13  14
HETATM   14  C   UNL     1     -10.201  14.558  65.570  1.00  0.00    -0.370 C  
HETATM   15  C   UNL     1     -12.301  13.013  64.233  1.00  0.00    -0.366 C  
HETATM   16  C   UNL     1      -9.863  13.284  64.771  1.00  0.00    -0.028 C  
HETATM   17  C   UNL     1     -10.028  12.092  65.726  1.00  0.00    -0.266 C  
HETATM   18  N   UNL     1     -12.291  13.158  65.705  1.00  0.00    -0.462 NA 
HETATM   19  C   UNL     1     -11.676  14.469  66.039  1.00  0.00    -0.345 C  
HETATM   20  C   UNL     1     -11.460  12.082  66.288  1.00  0.00    -0.345 C  
HETATM   21  C   UNL     1     -10.888  13.107  63.637  1.00  0.00    -0.035 C  
ENDBRANCH  13  14
ENDBRANCH   2  13
BRANCH   6  22
HETATM   22  C   UNL     1      -8.128  16.459  67.517  1.00  0.00    -0.166 A  
HETATM   23  C   UNL     1      -7.643  16.970  68.733  1.00  0.00    -0.243 A  
HETATM   24  C   UNL     1      -6.313  17.380  68.864  1.00  0.00    -0.202 A  
HETATM   25  C   UNL     1      -5.439  17.275  67.786  1.00  0.00    -0.127 A  
HETATM   26  C   UNL     1      -5.895  16.765  66.574  1.00  0.00     0.056 A  
HETATM   27  C   UNL     1      -7.227  16.368  66.439  1.00  0.00     0.004 A  
ENDBRANCH   6  22
TORSDOF 3
ENDMDL
MODEL      145
REMARK 921   NORMALIZED FREE ENERGY PREDICTED BY IDOCK:    1.83 KCAL/MOL
REMARK 922        TOTAL FREE ENERGY PREDICTED BY IDOCK:    1.18 KCAL/MOL
REMARK 923 INTER-LIGAND FREE ENERGY PREDICTED BY IDOCK:    1.28 KCAL/MOL
REMARK 924 INTRA-LIGAND FREE ENERGY PREDICTED BY IDOCK:   -0.09 KCAL/MOL
REMARK 927      BINDING AFFINITY PREDICTED BY RF-SCORE:    0.00 PKD
ROOT
HETATM    1  O   UNL     1     -10.997  16.007  67.304  1.00  0.00    -0.300 OA 
HETATM    2  C   UNL     1     -10.148  15.650  68.114  1.00  0.00    -0.222 C  
HETATM    3  C   UNL     1      -5.132  18.788  70.161  1.00  0.00    -0.199 A  
HETATM    4  N   UNL     1      -8.818  16.007  68.047  1.00  0.00    -0.175 N  
HETATM    5  C   UNL     1      -8.353  16.813  66.928  1.00  0.00    -0.209 C  
HETATM    6  C   UNL     1      -7.826  15.595  69.043  1.00  0.00    -0.204 C  
HETATM    7  C   UNL     1      -6.907  16.750  69.428  1.00  0.00    -0.202 A  
HETATM    8  C   UNL     1      -7.636  18.078  67.388  1.00  0.00    -0.213 C  
HETATM    9  C   UNL     1      -6.161  16.662  70.619  1.00  0.00     0.684 A  
HETATM   10  C   UNL     1      -6.768  17.886  68.609  1.00  0.00    -0.239 A  
HETATM   11  C   UNL     1      -5.285  17.677  70.984  1.00  0.00    -0.204 A  
HETATM   12  C   UNL     1      -5.873  18.896  68.983  1.00  0.00    -0.236 A  
ENDROOT
BRANCH   2  13
HETATM   13  O   UNL     1     -10.422  14.828  69.168  1.00  0.00    -0.234 OA 
BRANCH  13  14
HETATM   14  C   UNL     1     -10.193  13.434  68.915  1.00  0.00    -0.037 C  
HETATM   15  C   UNL     1     -12.714  12.158  69.691  1.00  0.00     0.575 C  
HETATM   16  C   UNL     1     -11.190  12.933  67.852  1.00  0.00    -0.306 C  
HETATM   17  C   UNL     1     -10.879  11.450  67.599  1.00  0.00    -0.286 C  
HETATM   18  N   UNL     1     -11.416  11.541  70.041  1.00  0.00    -0.261 NA 
HETATM   19  C   UNL     1     -10.417  12.627  70.220  1.00  0.00     2.455 C  
HETATM   20  C   UNL     1     -10.979  10.675  68.924  1.00  0.00    -0.249 C  
HETATM   21  C   UNL     1     -12.618  13.011  68.417  1.00  0.00     0.772 C  
ENDBRANCH  13  14
ENDBRANCH   2  13
BRANCH   6  22
HETATM   22  C   UNL     1      -7.038  14.346  68.635  1.00  0.00    -0.116 A  
HETATM   23  C   UNL     1      -6.252  14.364  67.470  1.00  0.00     0.009 A  
HETATM   24  C   UNL     1      -5.591  13.215  67.028  1.00  0.00     0.663 A  
HETATM   25  C   UNL     1      -5.690  12.029  67.751  1.00  0.00    -0.070 A  
HETATM   26  C   UNL     1      -6.455  11.990  68.912  1.00  0.00    -0.083 A  
HETATM   27  C   UNL     1      -7.129  13.134  69.345  1.00  0.00     0.166 A  
ENDBRANCH   6  22
TORSDOF 3
ENDMDL
MODEL      146
REMARK 921   NORMALIZED FREE ENERGY PREDICTED BY IDOCK:    2.23 KCAL/MOL
REMARK 922        TOTAL FREE ENERGY PREDICTED BY IDOCK:    1.65 KCAL/MOL
REMARK 923 INTER-LIGAND FREE ENERGY PREDICTED BY IDOCK:   -2.45 KCAL/MOL
REMARK 924 INTRA-LIGAND FREE ENERGY PREDICTED BY IDOCK:    4.09 KCAL/MOL
REMARK 927      BINDING AFFINITY PREDICTED BY RF-SCORE:    0.00 PKD
ROOT
HETATM    1  O   UNL     1      -7.064   9.486  64.529  1.00  0.00    -0.098 OA 
HETATM    2  C   UNL     1      -7.036   8.461  65.201  1.00  0.00    -0.075 C  
HETATM    3  C   UNL     1      -6.938   2.510  63.258  1.00  0.00    -0.036 A  
HETATM    4  N   UNL     1      -7.655   7.283  64.839  1.00  0.00    -0.095 N  
HETATM    5  C   UNL     1      -8.439   7.238  63.615  1.00  0.00     0.345 C  
HETATM    6  C   UNL     1      -7.582   6.060  65.642  1.00  0.00    -0.084 C  
HETATM    7  C   UNL     1      -7.334   4.832  64.772  1.00  0.00    -0.071 A  
HETATM    8  C   UNL     1      -7.985   6.120  62.681  1.00  0.00    -0.101 C  
HETATM    9  C   UNL     1      -6.861   3.651  65.374  1.00  0.00    -0.049 A  
HETATM   10  C   UNL     1      -7.593   4.846  63.388  1.00  0.00    -0.061 A  
HETATM   11  C   UNL     1      -6.659   2.502  64.620  1.00  0.00    -0.034 A  
HETATM   12  C   UNL     1      -7.397   3.677  62.643  1.00  0.00    -0.049 A  
ENDROOT
BRANCH   2  13
HETATM   13  O   UNL     1      -6.407   8.379  66.409  1.00  0.00    -0.055 OA 
BRANCH  13  14
HETATM   14  C   UNL     1      -7.042   9.115  67.465  1.00  0.00    -0.079 C  
HETATM   15  C   UNL     1      -8.629  11.136  66.055  1.00  0.00    -0.154 C  
HETATM   16  C   UNL     1      -8.572   8.979  67.340  1.00  0.00    -0.115 C  
HETATM   17  C   UNL     1      -9.195   9.757  68.509  1.00  0.00    -0.134 C  
HETATM   18  N   UNL     1      -7.872  11.486  67.277  1.00  0.00    -0.145 NA 
HETATM   19  C   UNL     1      -6.670  10.616  67.347  1.00  0.00    -0.075 C  
HETATM   20  C   UNL     1      -8.720  11.219  68.460  1.00  0.00    -0.156 C  
HETATM   21  C   UNL     1      -9.039   9.655  66.040  1.00  0.00    -0.212 C  
ENDBRANCH  13  14
ENDBRANCH   2  13
BRANCH   6  22
HETATM   22  C   UNL     1      -8.786   5.872  66.571  1.00  0.00    -0.128 A  
HETATM   23  C   UNL     1      -9.988   6.548  66.303  1.00  0.00     0.006 A  
HETATM   24  C   UNL     1     -11.075   6.462  67.179  1.00  0.00    -0.422 A  
HETATM   25  C   UNL     1     -10.985   5.685  68.331  1.00  0.00    -0.038 A  
HETATM   26  C   UNL     1      -9.808   5.000  68.612  1.00  0.00    -0.227 A  
HETATM   27  C   UNL     1      -8.717   5.099  67.745  1.00  0.00    -0.103 A  
ENDBRANCH   6  22
TORSDOF 3
ENDMDL
MODEL      147
REMARK 921   NORMALIZED FREE ENERGY PREDICTED BY IDOCK:    3.93 KCAL/MOL
REMARK 922        TOTAL FREE ENERGY PREDICTED BY IDOCK:    3.65 KCAL/MOL
REMARK 923 INTER-LIGAND FREE ENERGY PREDICTED BY IDOCK:   -0.72 KCAL/MOL
REMARK 924 INTRA-LIGAND FREE ENERGY PREDICTED BY IDOCK:    4.37 KCAL/MOL
REMARK 927      BINDING AFFINITY PREDICTED BY RF-SCORE:    0.00 PKD
ROOT
HETATM    1  O   UNL     1      -6.047   9.415  67.938  1.00  0.00    -0.052 OA 
HETATM    2  C   UNL     1      -7.229   9.649  67.708  1.00  0.00    -0.085 C  
HETATM    3  C   UNL     1     -10.091  15.197  67.224  1.00  0.00    -0.235 A  
HETATM    4  N   UNL     1      -7.921  10.719  68.237  1.00  0.00    -0.113 N  
HETATM    5  C   UNL     1      -7.249  11.610  69.171  1.00  0.00    -0.064 C  
HETATM    6  C   UNL     1      -9.324  10.999  67.923  1.00  0.00    -0.158 C  
HETATM    7  C   UNL     1      -9.554  12.484  67.663  1.00  0.00    -0.190 A  
HETATM    8  C   UNL     1      -7.322  13.068  68.728  1.00  0.00    -0.064 C  
HETATM    9  C   UNL     1     -10.720  12.887  66.986  1.00  0.00    -0.273 A  
HETATM   10  C   UNL     1      -8.641  13.460  68.107  1.00  0.00    -0.174 A  
HETATM   11  C   UNL     1     -10.983  14.234  66.764  1.00  0.00    -0.304 A  
HETATM   12  C   UNL     1      -8.923  14.813  67.887  1.00  0.00    -0.172 A  
ENDROOT
BRANCH   2  13
HETATM   13  O   UNL     1      -8.006   8.856  66.917  1.00  0.00    -0.100 OA 
BRANCH  13  14
HETATM   14  C   UNL     1      -7.811   7.446  67.108  1.00  0.00    -0.117 C  
HETATM   15  C   UNL     1      -5.339   7.287  68.673  1.00  0.00    -0.021 C  
HETATM   16  C   UNL     1      -7.844   7.122  68.614  1.00  0.00    -0.122 C  
HETATM   17  C   UNL     1      -7.663   5.603  68.757  1.00  0.00    -0.089 C  
HETATM   18  N   UNL     1      -5.593   6.342  67.563  1.00  0.00    -0.008 NA 
HETATM   19  C   UNL     1      -6.427   7.033  66.545  1.00  0.00    -0.051 C  
HETATM   20  C   UNL     1      -6.346   5.181  68.083  1.00  0.00    -0.036 C  
HETATM   21  C   UNL     1      -6.644   7.793  69.305  1.00  0.00    -0.040 C  
ENDBRANCH  13  14
ENDBRANCH   2  13
BRANCH   6  22
HETATM   22  C   UNL     1     -10.302  10.440  68.963  1.00  0.00    -0.232 A  
HETATM   23  C   UNL     1     -11.368   9.622  68.552  1.00  0.00     0.106 A  
HETATM   24  C   UNL     1     -12.323   9.168  69.467  1.00  0.00     1.559 A  
HETATM   25  C   UNL     1     -12.221   9.511  70.813  1.00  0.00    -0.269 A  
HETATM   26  C   UNL     1     -11.170  10.313  71.243  1.00  0.00     0.017 A  
HETATM   27  C   UNL     1     -10.224  10.779  70.326  1.00  0.00     0.563 A  
ENDBRANCH   6  22
TORSDOF 3
ENDMDL
MODEL      148
REMARK 921   NORMALIZED FREE ENERGY PREDICTED BY IDOCK:   12.58 KCAL/MOL
REMARK 922        TOTAL FREE ENERGY PREDICTED BY IDOCK:   13.81 KCAL/MOL
REMARK 923 INTER-LIGAND FREE ENERGY PREDICTED BY IDOCK:    6.77 KCAL/MOL
REMARK 924 INTRA-LIGAND FREE ENERGY PREDICTED BY IDOCK:    7.04 KCAL/MOL
REMARK 927      BINDING AFFINITY PREDICTED BY RF-SCORE:    0.00 PKD
ROOT
HETATM    1  O   UNL     1     -13.156  15.778  67.233  1.00  0.00     2.811 OA 
HETATM    2  C   UNL     1     -12.211  15.961  67.994  1.00  0.00     0.715 C  
HETATM    3  C   UNL     1      -9.137  21.280  69.201  1.00  0.00     2.819 A  
HETATM    4  N   UNL     1     -11.197  16.867  67.762  1.00  0.00    -0.114 N  
HETATM    5  C   UNL     1     -11.193  17.628  66.522  1.00  0.00     0.755 C  
HETATM    6  C   UNL     1     -10.095  17.093  68.700  1.00  0.00    -0.329 C  
HETATM    7  C   UNL     1      -9.798  18.580  68.867  1.00  0.00    -0.377 A  
HETATM    8  C   UNL     1     -11.124  19.132  66.771  1.00  0.00    -0.087 C  
HETATM    9  C   UNL     1      -9.057  19.007  69.985  1.00  0.00     1.205 A  
HETATM   10  C   UNL     1     -10.226  19.527  67.918  1.00  0.00    -0.550 A  
HETATM   11  C   UNL     1      -8.734  20.349  70.151  1.00  0.00     1.598 A  
HETATM   12  C   UNL     1      -9.883  20.874  68.092  1.00  0.00     0.157 A  
ENDROOT
BRANCH   2  13
HETATM   13  O   UNL     1     -12.042  15.263  69.153  1.00  0.00    -0.304 OA 
BRANCH  13  14
HETATM   14  C   UNL     1     -11.715  13.876  68.974  1.00  0.00    -0.338 C  
HETATM   15  C   UNL     1     -11.229  13.638  66.094  1.00  0.00    -0.302 C  
HETATM   16  C   UNL     1     -10.283  13.753  68.417  1.00  0.00    -0.248 C  
HETATM   17  C   UNL     1      -9.977  12.254  68.276  1.00  0.00    -0.216 C  
HETATM   18  N   UNL     1     -11.984  12.594  66.822  1.00  0.00    -0.519 NA 
HETATM   19  C   UNL     1     -12.696  13.240  67.956  1.00  0.00     1.155 C  
HETATM   20  C   UNL     1     -11.031  11.602  67.364  1.00  0.00    -0.261 C  
HETATM   21  C   UNL     1     -10.231  14.366  67.007  1.00  0.00    -0.263 C  
ENDBRANCH  13  14
ENDBRANCH   2  13
BRANCH   6  22
HETATM   22  C   UNL     1      -8.835  16.291  68.360  1.00  0.00    -0.202 A  
HETATM   23  C   UNL     1      -8.596  15.891  67.034  1.00  0.00    -0.245 A  
HETATM   24  C   UNL     1      -7.500  15.088  66.708  1.00  0.00     0.393 A  
HETATM   25  C   UNL     1      -6.612  14.680  67.700  1.00  0.00    -0.177 A  
HETATM   26  C   UNL     1      -6.823  15.070  69.019  1.00  0.00    -0.118 A  
HETATM   27  C   UNL     1      -7.928  15.861  69.346  1.00  0.00    -0.184 A  
ENDBRANCH   6  22
TORSDOF 3
ENDMDL
MODEL      149
REMARK 921   NORMALIZED FREE ENERGY PREDICTED BY IDOCK:   13.54 KCAL/MOL
REMARK 922        TOTAL FREE ENERGY PREDICTED BY IDOCK:   14.94 KCAL/MOL
REMARK 923 INTER-LIGAND FREE ENERGY PREDICTED BY IDOCK:   11.47 KCAL/MOL
REMARK 924 INTRA-LIGAND FREE ENERGY PREDICTED BY IDOCK:    3.47 KCAL/MOL
REMARK 927      BINDING AFFINITY PREDICTED BY RF-SCORE:    0.00 PKD
ROOT
HETATM    1  O   UNL     1      -6.629  17.235  65.786  1.00  0.00    -0.059 OA 
HETATM    2  C   UNL     1      -7.250  16.690  66.693  1.00  0.00    -0.241 C  
HETATM    3  C   UNL     1      -5.791  11.486  69.853  1.00  0.00    -0.121 A  
HETATM    4  N   UNL     1      -7.292  15.325  66.888  1.00  0.00    -0.028 N  
HETATM    5  C   UNL     1      -6.612  14.450  65.945  1.00  0.00     7.135 C  
HETATM    6  C   UNL     1      -8.014  14.696  67.997  1.00  0.00    -0.136 C  
HETATM    7  C   UNL     1      -7.193  13.584  68.640  1.00  0.00    -0.107 A  
HETATM    8  C   UNL     1      -5.629  13.511  66.638  1.00  0.00     2.325 C  
HETATM    9  C   UNL     1      -7.542  13.133  69.927  1.00  0.00     1.371 A  
HETATM   10  C   UNL     1      -6.114  12.981  67.966  1.00  0.00    -0.112 A  
HETATM   11  C   UNL     1      -6.841  12.096  70.530  1.00  0.00     1.517 A  
HETATM   12  C   UNL     1      -5.424  11.929  68.580  1.00  0.00    -0.049 A  
ENDROOT
BRANCH   2  13
HETATM   13  O   UNL     1      -7.998  17.377  67.603  1.00  0.00    -0.189 OA 
BRANCH  13  14
HETATM   14  C   UNL     1      -9.104  18.102  67.043  1.00  0.00    -0.263 C  
HETATM   15  C   UNL     1     -11.341  17.449  68.820  1.00  0.00     0.658 C  
HETATM   16  C   UNL     1      -9.624  19.123  68.073  1.00  0.00    -0.397 C  
HETATM   17  C   UNL     1     -10.780  19.888  67.412  1.00  0.00    -0.447 C  
HETATM   18  N   UNL     1     -11.531  17.502  67.354  1.00  0.00     0.555 NA 
HETATM   19  C   UNL     1     -10.251  17.116  66.703  1.00  0.00    -0.319 C  
HETATM   20  C   UNL     1     -11.861  18.890  66.962  1.00  0.00     2.145 C  
HETATM   21  C   UNL     1     -10.204  18.373  69.285  1.00  0.00     0.030 C  
ENDBRANCH  13  14
ENDBRANCH   2  13
BRANCH   6  22
HETATM   22  C   UNL     1      -9.421  14.224  67.614  1.00  0.00    -0.211 A  
HETATM   23  C   UNL     1      -9.877  12.966  68.043  1.00  0.00    -0.223 A  
HETATM   24  C   UNL     1     -11.122  12.474  67.639  1.00  0.00    -0.301 A  
HETATM   25  C   UNL     1     -11.941  13.237  66.812  1.00  0.00    -0.438 A  
HETATM   26  C   UNL     1     -11.514  14.490  66.382  1.00  0.00    -0.362 A  
HETATM   27  C   UNL     1     -10.263  14.974  66.773  1.00  0.00    -0.260 A  
ENDBRANCH   6  22
TORSDOF 3
ENDMDL
MODEL      150
REMARK 921   NORMALIZED FREE ENERGY PREDICTED BY IDOCK:   14.20 KCAL/MOL
REMARK 922        TOTAL FREE ENERGY PREDICTED BY IDOCK:   15.72 KCAL/MOL
REMARK 923 INTER-LIGAND FREE ENERGY PREDICTED BY IDOCK:    8.22 KCAL/MOL
REMARK 924 INTRA-LIGAND FREE ENERGY PREDICTED BY IDOCK:    7.50 KCAL/MOL
REMARK 927      BINDING AFFINITY PREDICTED BY RF-SCORE:    0.00 PKD
ROOT
HETATM    1  O   UNL     1      -8.725   8.800  69.319  1.00  0.00    -0.132 OA 
HETATM    2  C   UNL     1      -8.851   8.626  68.111  1.00  0.00    -0.142 C  
HETATM    3  C   UNL     1      -9.450   3.238  64.979  1.00  0.00    -0.145 A  
HETATM    4  N   UNL     1      -8.335   7.544  67.429  1.00  0.00    -0.112 N  
HETATM    5  C   UNL     1      -7.542   6.561  68.150  1.00  0.00    -0.103 C  
HETATM    6  C   UNL     1      -8.525   7.339  65.991  1.00  0.00    -0.145 C  
HETATM    7  C   UNL     1      -8.869   5.888  65.673  1.00  0.00    -0.126 A  
HETATM    8  C   UNL     1      -8.081   5.144  67.972  1.00  0.00    -0.098 C  
HETATM    9  C   UNL     1      -9.452   5.580  64.429  1.00  0.00     0.716 A  
HETATM   10  C   UNL     1      -8.593   4.849  66.582  1.00  0.00    -0.109 A  
HETATM   11  C   UNL     1      -9.745   4.265  64.089  1.00  0.00    -0.096 A  
HETATM   12  C   UNL     1      -8.882   3.528  66.221  1.00  0.00    -0.131 A  
ENDROOT
BRANCH   2  13
HETATM   13  O   UNL     1      -9.499   9.506  67.295  1.00  0.00    -0.132 OA 
BRANCH  13  14
HETATM   14  C   UNL     1      -9.553   9.113  65.915  1.00  0.00    -0.273 C  
HETATM   15  C   UNL     1     -11.069  11.269  64.633  1.00  0.00    -0.153 C  
HETATM   16  C   UNL     1      -8.847  10.176  65.050  1.00  0.00    -0.205 C  
HETATM   17  C   UNL     1      -8.907   9.691  63.594  1.00  0.00    -0.256 C  
HETATM   18  N   UNL     1     -11.310   9.855  64.269  1.00  0.00     4.118 NA 
HETATM   19  C   UNL     1     -11.032   9.013  65.462  1.00  0.00     3.355 C  
HETATM   20  C   UNL     1     -10.375   9.471  63.189  1.00  0.00     3.020 C  
HETATM   21  C   UNL     1      -9.632  11.497  65.125  1.00  0.00    -0.235 C  
ENDBRANCH  13  14
ENDBRANCH   2  13
BRANCH   6  22
HETATM   22  C   UNL     1      -7.353   7.850  65.145  1.00  0.00    -0.071 A  
HETATM   23  C   UNL     1      -6.449   8.778  65.691  1.00  0.00    -0.059 A  
HETATM   24  C   UNL     1      -5.421   9.324  64.916  1.00  0.00    -0.050 A  
HETATM   25  C   UNL     1      -5.269   8.942  63.586  1.00  0.00    -0.061 A  
HETATM   26  C   UNL     1      -6.147   8.019  63.027  1.00  0.00    -0.076 A  
HETATM   27  C   UNL     1      -7.183   7.484  63.797  1.00  0.00    -0.078 A  
ENDBRANCH   6  22
TORSDOF 3
ENDMDL
MODEL      151
REMARK 921   NORMALIZED FREE ENERGY PREDICTED BY IDOCK:   16.42 KCAL/MOL
REMARK 922        TOTAL FREE ENERGY PREDICTED BY IDOCK:   18.33 KCAL/MOL
REMARK 923 INTER-LIGAND FREE ENERGY PREDICTED BY IDOCK:   15.93 KCAL/MOL
REMARK 924 INTRA-LIGAND FREE ENERGY PREDICTED BY IDOCK:    2.40 KCAL/MOL
REMARK 927      BINDING AFFINITY PREDICTED BY RF-SCORE:    0.00 PKD
ROOT
HETATM    1  O   UNL     1     -10.873  12.825  65.329  1.00  0.00    -0.281 OA 
HETATM    2  C   UNL     1     -10.321  12.426  66.349  1.00  0.00    -0.234 C  
HETATM    3  C   UNL     1      -5.553   8.405  66.899  1.00  0.00    -0.037 A  
HETATM    4  N   UNL     1      -9.803  11.157  66.501  1.00  0.00    -0.203 N  
HETATM    5  C   UNL     1      -9.953  10.194  65.421  1.00  0.00    -0.307 C  
HETATM    6  C   UNL     1      -9.118  10.712  67.717  1.00  0.00    -0.143 C  
HETATM    7  C   UNL     1      -7.856   9.920  67.391  1.00  0.00    -0.098 A  
HETATM    8  C   UNL     1      -8.614   9.604  64.986  1.00  0.00    -0.180 C  
HETATM    9  C   UNL     1      -6.882   9.743  68.392  1.00  0.00    -0.060 A  
HETATM   10  C   UNL     1      -7.657   9.340  66.123  1.00  0.00    -0.096 A  
HETATM   11  C   UNL     1      -5.737   8.996  68.144  1.00  0.00    -0.038 A  
HETATM   12  C   UNL     1      -6.504   8.581  65.891  1.00  0.00    -0.053 A  
ENDROOT
BRANCH   2  13
HETATM   13  O   UNL     1     -10.180  13.192  67.469  1.00  0.00    -0.222 OA 
BRANCH  13  14
HETATM   14  C   UNL     1     -11.370  13.888  67.872  1.00  0.00    -0.292 C  
HETATM   15  C   UNL     1     -13.168  11.747  68.750  1.00  0.00     3.629 C  
HETATM   16  C   UNL     1     -11.632  13.634  69.369  1.00  0.00    -0.368 C  
HETATM   17  C   UNL     1     -12.893  14.424  69.751  1.00  0.00     0.135 C  
HETATM   18  N   UNL     1     -13.677  12.880  67.946  1.00  0.00     6.326 NA 
HETATM   19  C   UNL     1     -12.580  13.355  67.063  1.00  0.00     0.238 C  
HETATM   20  C   UNL     1     -14.063  13.980  68.856  1.00  0.00     8.419 C  
HETATM   21  C   UNL     1     -11.942  12.143  69.586  1.00  0.00    -0.351 C  
ENDBRANCH  13  14
ENDBRANCH   2  13
BRANCH   6  22
HETATM   22  C   UNL     1     -10.034   9.958  68.688  1.00  0.00    -0.177 A  
HETATM   23  C   UNL     1     -10.721   8.811  68.253  1.00  0.00    -0.121 A  
HETATM   24  C   UNL     1     -11.627   8.153  69.090  1.00  0.00     0.941 A  
HETATM   25  C   UNL     1     -11.853   8.620  70.382  1.00  0.00     0.066 A  
HETATM   26  C   UNL     1     -11.177   9.748  70.836  1.00  0.00    -0.429 A  
HETATM   27  C   UNL     1     -10.283  10.414  69.995  1.00  0.00    -0.134 A  
ENDBRANCH   6  22
TORSDOF 3
ENDMDL
MODEL      152
REMARK 921   NORMALIZED FREE ENERGY PREDICTED BY IDOCK:   20.03 KCAL/MOL
REMARK 922        TOTAL FREE ENERGY PREDICTED BY IDOCK:   22.57 KCAL/MOL
REMARK 923 INTER-LIGAND FREE ENERGY PREDICTED BY IDOCK:   23.67 KCAL/MOL
REMARK 924 INTRA-LIGAND FREE ENERGY PREDICTED BY IDOCK:   -1.10 KCAL/MOL
REMARK 927      BINDING AFFINITY PREDICTED BY RF-SCORE:    0.00 PKD
ROOT
HETATM    1  O   UNL     1      -6.945  16.483  65.675  1.00  0.00     0.818 OA 
HETATM    2  C   UNL     1      -7.828  16.003  66.379  1.00  0.00    -0.092 C  
HETATM    3  C   UNL     1      -8.830  10.001  67.850  1.00  0.00    -0.125 A  
HETATM    4  N   UNL     1      -8.407  14.771  66.160  1.00  0.00     0.543 N  
HETATM    5  C   UNL     1      -8.003  13.992  64.999  1.00  0.00     7.884 C  
HETATM    6  C   UNL     1      -9.438  14.203  67.032  1.00  0.00    -0.251 C  
HETATM    7  C   UNL     1      -9.181  12.727  67.315  1.00  0.00    -0.203 A  
HETATM    8  C   UNL     1      -7.537  12.589  65.382  1.00  0.00     3.612 C  
HETATM    9  C   UNL     1      -9.823  12.119  68.410  1.00  0.00    -0.200 A  
HETATM   10  C   UNL     1      -8.339  11.954  66.492  1.00  0.00    -0.062 A  
HETATM   11  C   UNL     1      -9.643  10.767  68.677  1.00  0.00    -0.187 A  
HETATM   12  C   UNL     1      -8.176  10.591  66.766  1.00  0.00    -0.126 A  
ENDROOT
BRANCH   2  13
HETATM   13  O   UNL     1      -8.362  16.654  67.452  1.00  0.00    -0.168 OA 
BRANCH  13  14
HETATM   14  C   UNL     1      -7.400  17.093  68.424  1.00  0.00    -0.220 C  
HETATM   15  C   UNL     1      -8.103  15.583  70.835  1.00  0.00     2.598 C  
HETATM   16  C   UNL     1      -6.551  15.892  68.886  1.00  0.00    -0.126 C  
HETATM   17  C   UNL     1      -5.523  16.424  69.896  1.00  0.00    -0.166 C  
HETATM   18  N   UNL     1      -7.729  17.012  70.921  1.00  0.00     4.445 NA 
HETATM   19  C   UNL     1      -8.138  17.677  69.656  1.00  0.00     0.897 C  
HETATM   20  C   UNL     1      -6.259  17.116  71.057  1.00  0.00     1.486 C  
HETATM   21  C   UNL     1      -7.449  14.890  69.630  1.00  0.00    -0.126 C  
ENDBRANCH  13  14
ENDBRANCH   2  13
BRANCH   6  22
HETATM   22  C   UNL     1     -10.864  14.451  66.527  1.00  0.00    -0.310 A  
HETATM   23  C   UNL     1     -11.287  13.875  65.317  1.00  0.00    -0.316 A  
HETATM   24  C   UNL     1     -12.552  14.152  64.791  1.00  0.00    -0.326 A  
HETATM   25  C   UNL     1     -13.424  14.998  65.471  1.00  0.00     1.627 A  
HETATM   26  C   UNL     1     -13.029  15.573  66.675  1.00  0.00     2.825 A  
HETATM   27  C   UNL     1     -11.759  15.308  67.193  1.00  0.00    -0.061 A  
ENDBRANCH   6  22
TORSDOF 3
ENDMDL
MODEL      153
REMARK 921   NORMALIZED FREE ENERGY PREDICTED BY IDOCK:   21.89 KCAL/MOL
REMARK 922        TOTAL FREE ENERGY PREDICTED BY IDOCK:   24.76 KCAL/MOL
REMARK 923 INTER-LIGAND FREE ENERGY PREDICTED BY IDOCK:   19.54 KCAL/MOL
REMARK 924 INTRA-LIGAND FREE ENERGY PREDICTED BY IDOCK:    5.23 KCAL/MOL
REMARK 927      BINDING AFFINITY PREDICTED BY RF-SCORE:    0.00 PKD
ROOT
HETATM    1  O   UNL     1     -12.671  15.572  69.298  1.00  0.00     0.063 OA 
HETATM    2  C   UNL     1     -11.711  16.239  69.669  1.00  0.00    -0.077 C  
HETATM    3  C   UNL     1      -7.568  19.401  66.199  1.00  0.00    -0.308 A  
HETATM    4  N   UNL     1     -10.526  16.342  68.972  1.00  0.00    -0.267 N  
HETATM    5  C   UNL     1     -10.355  15.581  67.743  1.00  0.00    -0.263 C  
HETATM    6  C   UNL     1      -9.403  17.171  69.418  1.00  0.00     0.199 C  
HETATM    7  C   UNL     1      -8.794  17.957  68.262  1.00  0.00    -0.277 A  
HETATM    8  C   UNL     1      -9.964  16.470  66.566  1.00  0.00    -0.297 C  
HETATM    9  C   UNL     1      -7.981  19.070  68.546  1.00  0.00    -0.381 A  
HETATM   10  C   UNL     1      -9.005  17.580  66.922  1.00  0.00    -0.264 A  
HETATM   11  C   UNL     1      -7.378  19.789  67.521  1.00  0.00    -0.298 A  
HETATM   12  C   UNL     1      -8.382  18.306  65.900  1.00  0.00     0.093 A  
ENDROOT
BRANCH   2  13
HETATM   13  O   UNL     1     -11.699  16.940  70.839  1.00  0.00     0.357 OA 
BRANCH  13  14
HETATM   14  C   UNL     1     -11.478  16.141  72.012  1.00  0.00    -0.237 C  
HETATM   15  C   UNL     1     -12.976  13.680  71.476  1.00  0.00    -0.360 C  
HETATM   16  C   UNL     1     -10.753  14.839  71.619  1.00  0.00     1.022 C  
HETATM   17  C   UNL     1     -10.515  14.043  72.911  1.00  0.00     6.244 C  
HETATM   18  N   UNL     1     -13.001  14.303  72.817  1.00  0.00    -0.462 NA 
HETATM   19  C   UNL     1     -12.841  15.772  72.652  1.00  0.00    -0.461 C  
HETATM   20  C   UNL     1     -11.863  13.788  73.608  1.00  0.00     2.709 C  
HETATM   21  C   UNL     1     -11.674  13.994  70.722  1.00  0.00    -0.190 C  
ENDBRANCH  13  14
ENDBRANCH   2  13
BRANCH   6  22
HETATM   22  C   UNL     1      -8.344  16.387  70.200  1.00  0.00     1.638 A  
HETATM   23  C   UNL     1      -8.483  14.998  70.367  1.00  0.00     1.121 A  
HETATM   24  C   UNL     1      -7.577  14.272  71.146  1.00  0.00     2.913 A  
HETATM   25  C   UNL     1      -6.508  14.917  71.761  1.00  0.00     1.007 A  
HETATM   26  C   UNL     1      -6.346  16.290  71.603  1.00  0.00     2.492 A  
HETATM   27  C   UNL     1      -7.259  17.018  70.837  1.00  0.00     3.818 A  
ENDBRANCH   6  22
TORSDOF 3
ENDMDL
MODEL      154
REMARK 921   NORMALIZED FREE ENERGY PREDICTED BY IDOCK:   28.37 KCAL/MOL
REMARK 922        TOTAL FREE ENERGY PREDICTED BY IDOCK:   32.38 KCAL/MOL
REMARK 923 INTER-LIGAND FREE ENERGY PREDICTED BY IDOCK:   29.19 KCAL/MOL
REMARK 924 INTRA-LIGAND FREE ENERGY PREDICTED BY IDOCK:    3.18 KCAL/MOL
REMARK 927      BINDING AFFINITY PREDICTED BY RF-SCORE:    0.00 PKD
ROOT
HETATM    1  O   UNL     1      -7.175  15.921  64.861  1.00  0.00     6.002 OA 
HETATM    2  C   UNL     1      -7.125  14.950  65.609  1.00  0.00     7.146 C  
HETATM    3  C   UNL     1      -7.011   8.869  64.125  1.00  0.00    -0.089 A  
HETATM    4  N   UNL     1      -7.740  13.743  65.351  1.00  0.00     5.701 N  
HETATM    5  C   UNL     1      -8.548  13.599  64.150  1.00  0.00     6.963 C  
HETATM    6  C   UNL     1      -7.640  12.586  66.244  1.00  0.00     1.071 C  
HETATM    7  C   UNL     1      -7.398  11.297  65.465  1.00  0.00     0.483 A  
HETATM    8  C   UNL     1      -8.103  12.416  63.295  1.00  0.00     4.050 C  
HETATM    9  C   UNL     1      -6.902  10.170  66.146  1.00  0.00    -0.108 A  
HETATM   10  C   UNL     1      -7.685  11.202  64.090  1.00  0.00     0.848 A  
HETATM   11  C   UNL     1      -6.705   8.967  65.478  1.00  0.00    -0.072 A  
HETATM   12  C   UNL     1      -7.493   9.981  63.432  1.00  0.00    -0.139 A  
ENDROOT
BRANCH   2  13
HETATM   13  O   UNL     1      -6.472  14.965  66.806  1.00  0.00     0.250 OA 
BRANCH  13  14
HETATM   14  C   UNL     1      -7.054  15.830  67.794  1.00  0.00    -0.151 C  
HETATM   15  C   UNL     1      -6.898  18.491  66.576  1.00  0.00    -0.202 C  
HETATM   16  C   UNL     1      -8.307  16.510  67.209  1.00  0.00    -0.197 C  
HETATM   17  C   UNL     1      -8.903  17.394  68.315  1.00  0.00    -0.264 C  
HETATM   18  N   UNL     1      -6.590  18.296  68.010  1.00  0.00    -0.199 NA 
HETATM   19  C   UNL     1      -6.034  16.930  68.186  1.00  0.00    -0.122 C  
HETATM   20  C   UNL     1      -7.842  18.403  68.789  1.00  0.00    -0.264 C  
HETATM   21  C   UNL     1      -7.890  17.438  66.055  1.00  0.00    -0.218 C  
ENDBRANCH  13  14
ENDBRANCH   2  13
BRANCH   6  22
HETATM   22  C   UNL     1      -8.824  12.460  67.209  1.00  0.00    -0.192 A  
HETATM   23  C   UNL     1      -8.816  11.464  68.200  1.00  0.00    -0.162 A  
HETATM   24  C   UNL     1      -9.918  11.272  69.038  1.00  0.00    -0.124 A  
HETATM   25  C   UNL     1     -11.043  12.083  68.912  1.00  0.00    -0.298 A  
HETATM   26  C   UNL     1     -11.069  13.081  67.944  1.00  0.00    -0.282 A  
HETATM   27  C   UNL     1      -9.974  13.263  67.096  1.00  0.00    -0.238 A  
ENDBRANCH   6  22
TORSDOF 3
ENDMDL
MODEL      155
REMARK 921   NORMALIZED FREE ENERGY PREDICTED BY IDOCK:   30.96 KCAL/MOL
REMARK 922        TOTAL FREE ENERGY PREDICTED BY IDOCK:   35.42 KCAL/MOL
REMARK 923 INTER-LIGAND FREE ENERGY PREDICTED BY IDOCK:   23.51 KCAL/MOL
REMARK 924 INTRA-LIGAND FREE ENERGY PREDICTED BY IDOCK:   11.91 KCAL/MOL
REMARK 927      BINDING AFFINITY PREDICTED BY RF-SCORE:    0.00 PKD
ROOT
HETATM    1  O   UNL     1      -6.788  17.250  65.685  1.00  0.00    -0.042 OA 
HETATM    2  C   UNL     1      -7.767  17.399  66.409  1.00  0.00    -0.308 C  
HETATM    3  C   UNL     1      -9.169  14.441  71.746  1.00  0.00     6.245 A  
HETATM    4  N   UNL     1      -8.362  16.379  67.122  1.00  0.00    -0.175 N  
HETATM    5  C   UNL     1      -7.852  15.024  66.985  1.00  0.00    -0.129 C  
HETATM    6  C   UNL     1      -9.511  16.586  68.007  1.00  0.00    -0.222 C  
HETATM    7  C   UNL     1      -9.347  15.832  69.322  1.00  0.00    -0.261 A  
HETATM    8  C   UNL     1      -7.491  14.407  68.333  1.00  0.00    -0.119 C  
HETATM    9  C   UNL     1     -10.139  16.202  70.425  1.00  0.00     0.521 A  
HETATM   10  C   UNL     1      -8.444  14.760  69.449  1.00  0.00     0.016 A  
HETATM   11  C   UNL     1     -10.045  15.514  71.629  1.00  0.00     1.947 A  
HETATM   12  C   UNL     1      -8.368  14.068  70.664  1.00  0.00     3.469 A  
ENDROOT
BRANCH   2  13
HETATM   13  O   UNL     1      -8.399  18.596  66.570  1.00  0.00    -0.276 OA 
BRANCH  13  14
HETATM   14  C   UNL     1      -9.545  18.557  67.435  1.00  0.00    -0.293 C  
HETATM   15  C   UNL     1      -8.851  20.404  69.602  1.00  0.00     1.224 C  
HETATM   16  C   UNL     1     -10.177  19.960  67.516  1.00  0.00    -0.562 C  
HETATM   17  C   UNL     1     -11.411  19.851  68.425  1.00  0.00     1.426 C  
HETATM   18  N   UNL     1      -9.521  19.117  69.891  1.00  0.00     0.517 NA 
HETATM   19  C   UNL     1      -9.104  18.132  68.859  1.00  0.00    -0.133 C  
HETATM   20  C   UNL     1     -10.985  19.307  69.800  1.00  0.00     2.306 C  
HETATM   21  C   UNL     1      -9.190  20.924  68.196  1.00  0.00     0.318 C  
ENDBRANCH  13  14
ENDBRANCH   2  13
BRANCH   6  22
HETATM   22  C   UNL     1     -10.856  16.283  67.335  1.00  0.00    -0.242 A  
HETATM   23  C   UNL     1     -11.796  15.467  67.988  1.00  0.00    -0.128 A  
HETATM   24  C   UNL     1     -12.993  15.106  67.364  1.00  0.00     2.491 A  
HETATM   25  C   UNL     1     -13.281  15.566  66.082  1.00  0.00     3.003 A  
HETATM   26  C   UNL     1     -12.369  16.382  65.420  1.00  0.00     2.440 A  
HETATM   27  C   UNL     1     -11.165  16.730  66.037  1.00  0.00     0.481 A  
ENDBRANCH   6  22
TORSDOF 3
ENDMDL
MODEL      156
REMARK 921   NORMALIZED FREE ENERGY PREDICTED BY IDOCK:   35.28 KCAL/MOL
REMARK 922        TOTAL FREE ENERGY PREDICTED BY IDOCK:   40.50 KCAL/MOL
REMARK 923 INTER-LIGAND FREE ENERGY PREDICTED BY IDOCK:   39.54 KCAL/MOL
REMARK 924 INTRA-LIGAND FREE ENERGY PREDICTED BY IDOCK:    0.95 KCAL/MOL
REMARK 927      BINDING AFFINITY PREDICTED BY RF-SCORE:    0.00 PKD
ROOT
HETATM    1  O   UNL     1      -9.744  13.335  64.682  1.00  0.00    -0.038 OA 
HETATM    2  C   UNL     1     -10.442  13.852  65.548  1.00  0.00    -0.323 C  
HETATM    3  C   UNL     1     -11.599  19.927  66.529  1.00  0.00     1.127 A  
HETATM    4  N   UNL     1     -10.169  15.070  66.136  1.00  0.00    -0.281 N  
HETATM    5  C   UNL     1      -8.957  15.783  65.763  1.00  0.00    -0.037 C  
HETATM    6  C   UNL     1     -11.034  15.684  67.146  1.00  0.00    -0.270 C  
HETATM    7  C   UNL     1     -11.227  17.174  66.885  1.00  0.00     0.481 A  
HETATM    8  C   UNL     1      -9.248  17.205  65.292  1.00  0.00     1.452 C  
HETATM    9  C   UNL     1     -12.303  17.842  67.501  1.00  0.00     3.913 A  
HETATM   10  C   UNL     1     -10.341  17.900  66.067  1.00  0.00    -0.318 A  
HETATM   11  C   UNL     1     -12.489  19.207  67.318  1.00  0.00     4.307 A  
HETATM   12  C   UNL     1     -10.534  19.277  65.901  1.00  0.00    -0.534 A  
ENDROOT
BRANCH   2  13
HETATM   13  O   UNL     1     -11.563  13.262  66.052  1.00  0.00    -0.324 OA 
BRANCH  13  14
HETATM   14  C   UNL     1     -12.168  12.289  65.186  1.00  0.00    -0.276 C  
HETATM   15  C   UNL     1     -10.231  10.090  65.142  1.00  0.00    -0.076 C  
HETATM   16  C   UNL     1     -12.424  10.988  65.974  1.00  0.00     3.844 C  
HETATM   17  C   UNL     1     -13.098   9.999  65.011  1.00  0.00    13.065 C  
HETATM   18  N   UNL     1     -10.916  10.520  63.903  1.00  0.00     0.676 NA 
HETATM   19  C   UNL     1     -11.208  11.973  64.011  1.00  0.00    -0.397 C  
HETATM   20  C   UNL     1     -12.195   9.787  63.783  1.00  0.00    10.169 C  
HETATM   21  C   UNL     1     -11.077  10.374  66.393  1.00  0.00     0.156 C  
ENDBRANCH  13  14
ENDBRANCH   2  13
BRANCH   6  22
HETATM   22  C   UNL     1     -10.580  15.406  68.583  1.00  0.00    -0.239 A  
HETATM   23  C   UNL     1      -9.305  15.819  69.006  1.00  0.00    -0.244 A  
HETATM   24  C   UNL     1      -8.833  15.505  70.284  1.00  0.00     0.859 A  
HETATM   25  C   UNL     1      -9.632  14.786  71.168  1.00  0.00     2.589 A  
HETATM   26  C   UNL     1     -10.901  14.374  70.774  1.00  0.00     0.577 A  
HETATM   27  C   UNL     1     -11.367  14.674  69.491  1.00  0.00    -0.314 A  
ENDBRANCH   6  22
TORSDOF 3
ENDMDL
MODEL      157
REMARK 921   NORMALIZED FREE ENERGY PREDICTED BY IDOCK:   40.26 KCAL/MOL
REMARK 922        TOTAL FREE ENERGY PREDICTED BY IDOCK:   46.35 KCAL/MOL
REMARK 923 INTER-LIGAND FREE ENERGY PREDICTED BY IDOCK:   45.72 KCAL/MOL
REMARK 924 INTRA-LIGAND FREE ENERGY PREDICTED BY IDOCK:    0.63 KCAL/MOL
REMARK 927      BINDING AFFINITY PREDICTED BY RF-SCORE:    0.00 PKD
ROOT
HETATM    1  O   UNL     1      -8.205   9.453  69.415  1.00  0.00    -0.104 OA 
HETATM    2  C   UNL     1      -8.546   8.553  68.654  1.00  0.00    -0.135 C  
HETATM    3  C   UNL     1     -12.892   4.132  69.525  1.00  0.00    20.951 A  
HETATM    4  N   UNL     1      -8.952   7.302  69.070  1.00  0.00    -0.135 N  
HETATM    5  C   UNL     1      -8.934   6.985  70.490  1.00  0.00    -0.155 C  
HETATM    6  C   UNL     1      -9.385   6.252  68.146  1.00  0.00    -0.115 C  
HETATM    7  C   UNL     1     -10.634   5.540  68.654  1.00  0.00    -0.215 A  
HETATM    8  C   UNL     1     -10.290   6.489  70.985  1.00  0.00    -0.240 C  
HETATM    9  C   UNL     1     -11.406   4.786  67.750  1.00  0.00     3.099 A  
HETATM   10  C   UNL     1     -11.016   5.598  70.008  1.00  0.00    -0.311 A  
HETATM   11  C   UNL     1     -12.530   4.092  68.183  1.00  0.00    18.773 A  
HETATM   12  C   UNL     1     -12.144   4.885  70.432  1.00  0.00     5.882 A  
ENDROOT
BRANCH   2  13
HETATM   13  O   UNL     1      -8.535   8.681  67.297  1.00  0.00    -0.114 OA 
BRANCH  13  14
HETATM   14  C   UNL     1      -8.351  10.024  66.824  1.00  0.00    -0.125 C  
HETATM   15  C   UNL     1     -11.067  10.921  66.185  1.00  0.00     0.061 C  
HETATM   16  C   UNL     1      -9.102  11.003  67.747  1.00  0.00    -0.147 C  
HETATM   17  C   UNL     1      -8.845  12.420  67.215  1.00  0.00    -0.192 C  
HETATM   18  N   UNL     1      -9.933  11.247  65.292  1.00  0.00    -0.239 NA 
HETATM   19  C   UNL     1      -8.931  10.154  65.392  1.00  0.00    -0.177 C  
HETATM   20  C   UNL     1      -9.307  12.507  65.750  1.00  0.00     0.024 C  
HETATM   21  C   UNL     1     -10.614  10.742  67.643  1.00  0.00    -0.271 C  
ENDBRANCH  13  14
ENDBRANCH   2  13
BRANCH   6  22
HETATM   22  C   UNL     1      -8.270   5.266  67.782  1.00  0.00    -0.099 A  
HETATM   23  C   UNL     1      -8.360   3.925  68.194  1.00  0.00    -0.101 A  
HETATM   24  C   UNL     1      -7.319   3.024  67.949  1.00  0.00    -0.053 A  
HETATM   25  C   UNL     1      -6.175   3.443  67.275  1.00  0.00    -0.035 A  
HETATM   26  C   UNL     1      -6.068   4.764  66.851  1.00  0.00    -0.031 A  
HETATM   27  C   UNL     1      -7.101   5.667  67.109  1.00  0.00    -0.074 A  
ENDBRANCH   6  22
TORSDOF 3
ENDMDL
MODEL      158
REMARK 921   NORMALIZED FREE ENERGY PREDICTED BY IDOCK:   50.17 KCAL/MOL
REMARK 922        TOTAL FREE ENERGY PREDICTED BY IDOCK:   58.00 KCAL/MOL
REMARK 923 INTER-LIGAND FREE ENERGY PREDICTED BY IDOCK:   34.92 KCAL/MOL
REMARK 924 INTRA-LIGAND FREE ENERGY PREDICTED BY IDOCK:   23.08 KCAL/MOL
REMARK 927      BINDING AFFINITY PREDICTED BY RF-SCORE:    0.00 PKD
ROOT
HETATM    1  O   UNL     1      -7.939  17.843  63.607  1.00  0.00    10.784 OA 
HETATM    2  C   UNL     1      -8.057  18.468  64.656  1.00  0.00     4.571 C  
HETATM    3  C   UNL     1      -8.424  16.260  70.503  1.00  0.00     2.676 A  
HETATM    4  N   UNL     1      -8.764  18.014  65.750  1.00  0.00     0.227 N  
HETATM    5  C   UNL     1      -9.468  16.743  65.665  1.00  0.00     0.124 C  
HETATM    6  C   UNL     1      -8.866  18.763  67.005  1.00  0.00    -0.294 C  
HETATM    7  C   UNL     1      -8.685  17.853  68.216  1.00  0.00    -0.277 A  
HETATM    8  C   UNL     1      -9.067  15.788  66.785  1.00  0.00    -0.276 C  
HETATM    9  C   UNL     1      -8.372  18.427  69.462  1.00  0.00     0.590 A  
HETATM   10  C   UNL     1      -8.851  16.458  68.120  1.00  0.00    -0.192 A  
HETATM   11  C   UNL     1      -8.237  17.634  70.595  1.00  0.00     4.851 A  
HETATM   12  C   UNL     1      -8.723  15.672  69.272  1.00  0.00    -0.267 A  
ENDROOT
BRANCH   2  13
HETATM   13  O   UNL     1      -7.520  19.706  64.851  1.00  0.00    -0.122 OA 
BRANCH  13  14
HETATM   14  C   UNL     1      -6.407  19.741  65.758  1.00  0.00    -0.209 C  
HETATM   15  C   UNL     1      -7.563  20.772  68.246  1.00  0.00     0.248 C  
HETATM   16  C   UNL     1      -6.688  18.806  66.951  1.00  0.00    -0.207 C  
HETATM   17  C   UNL     1      -5.457  18.858  67.868  1.00  0.00    -0.177 C  
HETATM   18  N   UNL     1      -6.237  21.233  67.780  1.00  0.00    -0.386 NA 
HETATM   19  C   UNL     1      -6.220  21.183  66.295  1.00  0.00    -0.258 C  
HETATM   20  C   UNL     1      -5.200  20.313  68.297  1.00  0.00    -0.203 C  
HETATM   21  C   UNL     1      -7.881  19.351  67.755  1.00  0.00    -0.315 C  
ENDBRANCH  13  14
ENDBRANCH   2  13
BRANCH   6  22
HETATM   22  C   UNL     1     -10.142  19.606  67.106  1.00  0.00    -0.533 A  
HETATM   23  C   UNL     1     -10.559  20.096  68.356  1.00  0.00    -0.163 A  
HETATM   24  C   UNL     1     -11.761  20.796  68.491  1.00  0.00     3.355 A  
HETATM   25  C   UNL     1     -12.562  21.033  67.377  1.00  0.00     7.268 A  
HETATM   26  C   UNL     1     -12.165  20.565  66.128  1.00  0.00     4.293 A  
HETATM   27  C   UNL     1     -10.971  19.852  65.996  1.00  0.00    -0.183 A  
ENDBRANCH   6  22
TORSDOF 3
ENDMDL
MODEL      159
REMARK 921   NORMALIZED FREE ENERGY PREDICTED BY IDOCK:   50.26 KCAL/MOL
REMARK 922        TOTAL FREE ENERGY PREDICTED BY IDOCK:   58.10 KCAL/MOL
REMARK 923 INTER-LIGAND FREE ENERGY PREDICTED BY IDOCK:   25.86 KCAL/MOL
REMARK 924 INTRA-LIGAND FREE ENERGY PREDICTED BY IDOCK:   32.25 KCAL/MOL
REMARK 927      BINDING AFFINITY PREDICTED BY RF-SCORE:    0.00 PKD
ROOT
HETATM    1  O   UNL     1      -5.600  12.103  66.198  1.00  0.00     0.056 OA 
HETATM    2  C   UNL     1      -6.729  11.683  66.426  1.00  0.00     0.135 C  
HETATM    3  C   UNL     1     -11.574  11.163  62.494  1.00  0.00     1.690 A  
HETATM    4  N   UNL     1      -7.870  12.167  65.820  1.00  0.00     1.047 N  
HETATM    5  C   UNL     1      -7.763  13.280  64.888  1.00  0.00     8.255 C  
HETATM    6  C   UNL     1      -9.207  11.629  66.082  1.00  0.00    -0.219 C  
HETATM    7  C   UNL     1     -10.005  11.459  64.794  1.00  0.00    -0.313 A  
HETATM    8  C   UNL     1      -8.386  12.957  63.533  1.00  0.00     6.116 C  
HETATM    9  C   UNL     1     -11.134  10.619  64.795  1.00  0.00     0.498 A  
HETATM   10  C   UNL     1      -9.654  12.143  63.614  1.00  0.00    -0.019 A  
HETATM   11  C   UNL     1     -11.909  10.469  63.651  1.00  0.00     3.155 A  
HETATM   12  C   UNL     1     -10.450  11.991  62.472  1.00  0.00     1.400 A  
ENDROOT
BRANCH   2  13
HETATM   13  O   UNL     1      -6.990  10.699  67.333  1.00  0.00    -0.078 OA 
BRANCH  13  14
HETATM   14  C   UNL     1      -7.479  11.167  68.600  1.00  0.00    -0.119 C  
HETATM   15  C   UNL     1     -10.283  10.318  68.625  1.00  0.00    -0.180 C  
HETATM   16  C   UNL     1      -7.938   9.966  69.449  1.00  0.00    -0.135 C  
HETATM   17  C   UNL     1      -8.418  10.521  70.799  1.00  0.00     2.221 C  
HETATM   18  N   UNL     1      -9.893  11.654  69.126  1.00  0.00     0.066 NA 
HETATM   19  C   UNL     1      -8.694  12.103  68.373  1.00  0.00    -0.141 C  
HETATM   20  C   UNL     1      -9.540  11.546  70.559  1.00  0.00     4.171 C  
HETATM   21  C   UNL     1      -9.146   9.296  68.773  1.00  0.00    -0.136 C  
ENDBRANCH  13  14
ENDBRANCH   2  13
BRANCH   6  22
HETATM   22  C   UNL     1      -9.984  12.423  67.139  1.00  0.00    -0.211 A  
HETATM   23  C   UNL     1      -9.846  13.820  67.205  1.00  0.00    -0.242 A  
HETATM   24  C   UNL     1     -10.476  14.560  68.210  1.00  0.00    -0.242 A  
HETATM   25  C   UNL     1     -11.267  13.919  69.159  1.00  0.00    -0.311 A  
HETATM   26  C   UNL     1     -11.424  12.537  69.108  1.00  0.00    -0.361 A  
HETATM   27  C   UNL     1     -10.783  11.797  68.113  1.00  0.00    -0.247 A  
ENDBRANCH   6  22
TORSDOF 3
ENDMDL
MODEL      160
REMARK 921   NORMALIZED FREE ENERGY PREDICTED BY IDOCK:   52.11 KCAL/MOL
REMARK 922        TOTAL FREE ENERGY PREDICTED BY IDOCK:   60.28 KCAL/MOL
REMARK 923 INTER-LIGAND FREE ENERGY PREDICTED BY IDOCK:   51.59 KCAL/MOL
REMARK 924 INTRA-LIGAND FREE ENERGY PREDICTED BY IDOCK:    8.70 KCAL/MOL
REMARK 927      BINDING AFFINITY PREDICTED BY RF-SCORE:    0.00 PKD
ROOT
HETATM    1  O   UNL     1     -13.604  15.669  69.319  1.00  0.00     1.503 OA 
HETATM    2  C   UNL     1     -12.690  16.457  69.099  1.00  0.00     1.911 C  
HETATM    3  C   UNL     1      -9.411  17.271  63.828  1.00  0.00    12.400 A  
HETATM    4  N   UNL     1     -11.621  16.188  68.270  1.00  0.00    -0.269 N  
HETATM    5  C   UNL     1     -11.517  14.878  67.646  1.00  0.00    -0.352 C  
HETATM    6  C   UNL     1     -10.556  17.157  67.996  1.00  0.00    -0.374 C  
HETATM    7  C   UNL     1     -10.192  17.184  66.515  1.00  0.00    -0.322 A  
HETATM    8  C   UNL     1     -11.383  14.973  66.129  1.00  0.00    -0.270 C  
HETATM    9  C   UNL     1      -9.486  18.290  66.006  1.00  0.00    -0.038 A  
HETATM   10  C   UNL     1     -10.523  16.120  65.655  1.00  0.00    -0.402 A  
HETATM   11  C   UNL     1      -9.104  18.334  64.671  1.00  0.00     5.643 A  
HETATM   12  C   UNL     1     -10.122  16.172  64.315  1.00  0.00     2.607 A  
ENDROOT
BRANCH   2  13
HETATM   13  O   UNL     1     -12.614  17.690  69.678  1.00  0.00     5.751 OA 
BRANCH  13  14
HETATM   14  C   UNL     1     -11.889  17.725  70.917  1.00  0.00     5.131 C  
HETATM   15  C   UNL     1     -12.537  15.162  72.181  1.00  0.00    -0.332 C  
HETATM   16  C   UNL     1     -10.866  16.573  70.947  1.00  0.00     0.345 C  
HETATM   17  C   UNL     1     -10.101  16.679  72.276  1.00  0.00     6.004 C  
HETATM   18  N   UNL     1     -12.487  16.407  72.979  1.00  0.00    -0.403 NA 
HETATM   19  C   UNL     1     -12.875  17.541  72.099  1.00  0.00     6.834 C  
HETATM   20  C   UNL     1     -11.100  16.623  73.445  1.00  0.00     2.287 C  
HETATM   21  C   UNL     1     -11.613  15.229  70.955  1.00  0.00    -0.399 C  
ENDBRANCH  13  14
ENDBRANCH   2  13
BRANCH   6  22
HETATM   22  C   UNL     1      -9.323  16.970  68.887  1.00  0.00    -0.224 A  
HETATM   23  C   UNL     1      -9.094  15.734  69.515  1.00  0.00    -0.202 A  
HETATM   24  C   UNL     1      -8.025  15.561  70.399  1.00  0.00     1.106 A  
HETATM   25  C   UNL     1      -7.155  16.616  70.660  1.00  0.00     2.326 A  
HETATM   26  C   UNL     1      -7.357  17.847  70.043  1.00  0.00     1.217 A  
HETATM   27  C   UNL     1      -8.435  18.024  69.172  1.00  0.00     0.108 A  
ENDBRANCH   6  22
TORSDOF 3
ENDMDL
MODEL      161
REMARK 921   NORMALIZED FREE ENERGY PREDICTED BY IDOCK:   55.57 KCAL/MOL
REMARK 922        TOTAL FREE ENERGY PREDICTED BY IDOCK:   64.35 KCAL/MOL
REMARK 923 INTER-LIGAND FREE ENERGY PREDICTED BY IDOCK:   64.79 KCAL/MOL
REMARK 924 INTRA-LIGAND FREE ENERGY PREDICTED BY IDOCK:   -0.44 KCAL/MOL
REMARK 927      BINDING AFFINITY PREDICTED BY RF-SCORE:    0.00 PKD
ROOT
HETATM    1  O   UNL     1      -8.445   9.004  69.460  1.00  0.00    -0.117 OA 
HETATM    2  C   UNL     1      -9.085   8.545  68.520  1.00  0.00    -0.135 C  
HETATM    3  C   UNL     1     -12.675   3.418  68.368  1.00  0.00    27.717 A  
HETATM    4  N   UNL     1      -9.284   7.197  68.305  1.00  0.00    -0.133 N  
HETATM    5  C   UNL     1      -8.663   6.235  69.203  1.00  0.00    -0.123 C  
HETATM    6  C   UNL     1     -10.080   6.671  67.194  1.00  0.00    -0.174 C  
HETATM    7  C   UNL     1     -10.997   5.540  67.649  1.00  0.00     0.106 A  
HETATM    8  C   UNL     1      -9.680   5.269  69.804  1.00  0.00    -0.257 C  
HETATM    9  C   UNL     1     -12.088   5.177  66.836  1.00  0.00     5.566 A  
HETATM   10  C   UNL     1     -10.762   4.837  68.845  1.00  0.00     0.667 A  
HETATM   11  C   UNL     1     -12.923   4.127  67.198  1.00  0.00    20.396 A  
HETATM   12  C   UNL     1     -11.604   3.774  69.191  1.00  0.00     9.920 A  
ENDROOT
BRANCH   2  13
HETATM   13  O   UNL     1      -9.656   9.323  67.556  1.00  0.00    -0.142 OA 
BRANCH  13  14
HETATM   14  C   UNL     1      -8.748  10.215  66.891  1.00  0.00    -0.129 C  
HETATM   15  C   UNL     1     -10.463  12.410  65.980  1.00  0.00    -0.254 C  
HETATM   16  C   UNL     1      -8.746  11.578  67.612  1.00  0.00    -0.142 C  
HETATM   17  C   UNL     1      -7.738  12.477  66.881  1.00  0.00     0.050 C  
HETATM   18  N   UNL     1      -9.396  11.872  65.108  1.00  0.00    -0.040 NA 
HETATM   19  C   UNL     1      -9.213  10.432  65.428  1.00  0.00    -0.193 C  
HETATM   20  C   UNL     1      -8.133  12.586  65.398  1.00  0.00     2.447 C  
HETATM   21  C   UNL     1     -10.131  12.231  67.469  1.00  0.00    -0.206 C  
ENDBRANCH  13  14
ENDBRANCH   2  13
BRANCH   6  22
HETATM   22  C   UNL     1      -9.236   6.273  65.978  1.00  0.00    -0.103 A  
HETATM   23  C   UNL     1      -8.017   6.926  65.729  1.00  0.00    -0.116 A  
HETATM   24  C   UNL     1      -7.268   6.642  64.583  1.00  0.00    -0.071 A  
HETATM   25  C   UNL     1      -7.716   5.690  63.672  1.00  0.00    -0.095 A  
HETATM   26  C   UNL     1      -8.916   5.025  63.903  1.00  0.00     0.027 A  
HETATM   27  C   UNL     1      -9.672   5.319  65.040  1.00  0.00     0.327 A  
ENDBRANCH   6  22
TORSDOF 3
ENDMDL
MODEL      162
REMARK 921   NORMALIZED FREE ENERGY PREDICTED BY IDOCK:   65.65 KCAL/MOL
REMARK 922        TOTAL FREE ENERGY PREDICTED BY IDOCK:   76.20 KCAL/MOL
REMARK 923 INTER-LIGAND FREE ENERGY PREDICTED BY IDOCK:   68.99 KCAL/MOL
REMARK 924 INTRA-LIGAND FREE ENERGY PREDICTED BY IDOCK:    7.21 KCAL/MOL
REMARK 927      BINDING AFFINITY PREDICTED BY RF-SCORE:    0.00 PKD
ROOT
HETATM    1  O   UNL     1     -12.309  16.409  66.328  1.00  0.00     2.160 OA 
HETATM    2  C   UNL     1     -11.250  16.123  66.877  1.00  0.00     0.128 C  
HETATM    3  C   UNL     1      -9.000  10.461  68.317  1.00  0.00    -0.135 A  
HETATM    4  N   UNL     1     -11.088  15.052  67.732  1.00  0.00    -0.299 N  
HETATM    5  C   UNL     1     -12.239  14.226  68.063  1.00  0.00    -0.133 C  
HETATM    6  C   UNL     1      -9.806  14.709  68.351  1.00  0.00    -0.220 C  
HETATM    7  C   UNL     1      -9.546  13.207  68.303  1.00  0.00    -0.218 A  
HETATM    8  C   UNL     1     -11.988  12.748  67.774  1.00  0.00    -0.316 C  
HETATM    9  C   UNL     1      -8.234  12.734  68.493  1.00  0.00    -0.068 A  
HETATM   10  C   UNL     1     -10.590  12.284  68.101  1.00  0.00    -0.232 A  
HETATM   11  C   UNL     1      -7.964  11.371  68.494  1.00  0.00    -0.143 A  
HETATM   12  C   UNL     1     -10.305  10.913  68.116  1.00  0.00    -0.202 A  
ENDROOT
BRANCH   2  13
HETATM   13  O   UNL     1     -10.110  16.854  66.724  1.00  0.00    -0.275 OA 
BRANCH  13  14
HETATM   14  C   UNL     1     -10.155  17.818  65.661  1.00  0.00     0.082 C  
HETATM   15  C   UNL     1     -12.169  16.741  63.825  1.00  0.00     3.525 C  
HETATM   16  C   UNL     1     -11.568  18.430  65.582  1.00  0.00     2.390 C  
HETATM   17  C   UNL     1     -11.549  19.473  64.454  1.00  0.00     4.731 C  
HETATM   18  N   UNL     1     -10.919  17.340  63.308  1.00  0.00     5.020 NA 
HETATM   19  C   UNL     1      -9.846  17.118  64.313  1.00  0.00     5.427 C  
HETATM   20  C   UNL     1     -11.118  18.796  63.141  1.00  0.00    16.187 C  
HETATM   21  C   UNL     1     -12.574  17.339  65.181  1.00  0.00     6.453 C  
ENDBRANCH  13  14
ENDBRANCH   2  13
BRANCH   6  22
HETATM   22  C   UNL     1      -9.646  15.274  69.767  1.00  0.00    -0.140 A  
HETATM   23  C   UNL     1      -9.917  16.631  70.013  1.00  0.00     0.467 A  
HETATM   24  C   UNL     1      -9.699  17.193  71.274  1.00  0.00     5.279 A  
HETATM   25  C   UNL     1      -9.219  16.406  72.317  1.00  0.00    10.251 A  
HETATM   26  C   UNL     1      -8.951  15.058  72.099  1.00  0.00     6.126 A  
HETATM   27  C   UNL     1      -9.155  14.501  70.835  1.00  0.00     3.145 A  
ENDBRANCH   6  22
TORSDOF 3
ENDMDL
MODEL      163
REMARK 921   NORMALIZED FREE ENERGY PREDICTED BY IDOCK:   85.96 KCAL/MOL
REMARK 922        TOTAL FREE ENERGY PREDICTED BY IDOCK:  100.07 KCAL/MOL
REMARK 923 INTER-LIGAND FREE ENERGY PREDICTED BY IDOCK:  100.98 KCAL/MOL
REMARK 924 INTRA-LIGAND FREE ENERGY PREDICTED BY IDOCK:   -0.91 KCAL/MOL
REMARK 927      BINDING AFFINITY PREDICTED BY RF-SCORE:    0.00 PKD
ROOT
HETATM    1  O   UNL     1     -11.216  12.876  73.347  1.00  0.00     7.355 OA 
HETATM    2  C   UNL     1     -10.848  13.321  72.265  1.00  0.00     7.501 C  
HETATM    3  C   UNL     1     -14.182  14.126  67.028  1.00  0.00    10.196 A  
HETATM    4  N   UNL     1     -11.335  12.894  71.047  1.00  0.00     1.542 N  
HETATM    5  C   UNL     1     -12.307  11.812  71.011  1.00  0.00    -0.282 C  
HETATM    6  C   UNL     1     -10.904  13.462  69.768  1.00  0.00     0.364 C  
HETATM    7  C   UNL     1     -12.087  13.702  68.835  1.00  0.00    -0.335 A  
HETATM    8  C   UNL     1     -13.572  12.201  70.250  1.00  0.00     2.314 C  
HETATM    9  C   UNL     1     -11.930  14.575  67.743  1.00  0.00    -0.345 A  
HETATM   10  C   UNL     1     -13.320  13.050  69.027  1.00  0.00     3.371 A  
HETATM   11  C   UNL     1     -12.973  14.789  66.850  1.00  0.00     1.717 A  
HETATM   12  C   UNL     1     -14.358  13.266  68.113  1.00  0.00    15.003 A  
ENDROOT
BRANCH   2  13
HETATM   13  O   UNL     1      -9.885  14.280  72.142  1.00  0.00     4.610 OA 
BRANCH  13  14
HETATM   14  C   UNL     1      -8.863  14.234  73.150  1.00  0.00    10.072 C  
HETATM   15  C   UNL     1      -6.405  13.745  71.632  1.00  0.00     0.981 C  
HETATM   16  C   UNL     1      -7.845  15.364  72.901  1.00  0.00     9.063 C  
HETATM   17  C   UNL     1      -6.797  15.288  74.021  1.00  0.00     4.887 C  
HETATM   18  N   UNL     1      -6.653  13.049  72.914  1.00  0.00     3.400 NA 
HETATM   19  C   UNL     1      -8.120  12.876  73.074  1.00  0.00    16.497 C  
HETATM   20  C   UNL     1      -6.152  13.891  74.022  1.00  0.00     0.459 C  
HETATM   21  C   UNL     1      -7.114  15.107  71.572  1.00  0.00     2.148 C  
ENDBRANCH  13  14
ENDBRANCH   2  13
BRANCH   6  22
HETATM   22  C   UNL     1      -9.792  12.655  69.089  1.00  0.00     0.437 A  
HETATM   23  C   UNL     1      -8.466  13.120  69.130  1.00  0.00     0.606 A  
HETATM   24  C   UNL     1      -7.446  12.449  68.449  1.00  0.00    -0.123 A  
HETATM   25  C   UNL     1      -7.729  11.293  67.727  1.00  0.00    -0.113 A  
HETATM   26  C   UNL     1      -9.033  10.810  67.679  1.00  0.00    -0.140 A  
HETATM   27  C   UNL     1     -10.055  11.489  68.347  1.00  0.00    -0.207 A  
ENDBRANCH   6  22
TORSDOF 3
ENDMDL
