MODEL        1
REMARK 921   NORMALIZED FREE ENERGY PREDICTED BY IDOCK:   -5.91 KCAL/MOL
REMARK 922        TOTAL FREE ENERGY PREDICTED BY IDOCK:   -7.83 KCAL/MOL
REMARK 923 INTER-LIGAND FREE ENERGY PREDICTED BY IDOCK:   -7.64 KCAL/MOL
REMARK 924 INTRA-LIGAND FREE ENERGY PREDICTED BY IDOCK:   -0.20 KCAL/MOL
REMARK 927      BINDING AFFINITY PREDICTED BY RF-SCORE:    0.00 PKD
ROOT
HETATM    1  N   UNL     1     -11.737  16.417  63.738  1.00  0.00    -1.498 NA 
HETATM    2  H1  UNL     1     -11.748  17.432  63.836  1.00  0.00     0.000 HD 
HETATM    3  H2  UNL     1     -12.611  16.060  63.349  1.00  0.00     0.000 HD 
HETATM    4  C   UNL     1     -11.411  15.786  65.036  1.00  0.00    -0.220 C  
ENDROOT
BRANCH   4   5
HETATM    5  C   UNL     1     -10.061  16.293  65.596  1.00  0.00    -0.340 C  
BRANCH   5   6
HETATM    6  C   UNL     1     -10.198  17.488  66.515  1.00  0.00    -0.342 A  
HETATM    7  C   UNL     1     -10.275  19.728  68.203  1.00  0.00    -0.577 A  
HETATM    8  C   UNL     1     -10.056  17.340  67.902  1.00  0.00    -0.317 A  
HETATM    9  C   UNL     1     -10.429  18.768  65.992  1.00  0.00    -0.483 A  
HETATM   10  C   UNL     1     -10.456  19.883  66.830  1.00  0.00    -0.575 A  
HETATM   11  C   UNL     1     -10.091  18.456  68.740  1.00  0.00    -0.393 A  
ENDBRANCH   5   6
ENDBRANCH   4   5
BRANCH   4  12
HETATM   12  C   UNL     1     -11.393  14.249  64.889  1.00  0.00    -0.372 C  
BRANCH  12  13
HETATM   13  O   UNL     1     -12.416  13.812  63.971  1.00  0.00    -0.674 OA 
BRANCH  13  14
HETATM   14  C   UNL     1     -12.232  12.575  63.455  1.00  0.00    -0.558 C  
HETATM   15  H1  UNL     1     -10.783  11.437  62.813  1.00  0.00     0.000 HD 
HETATM   16  O   UNL     1     -13.099  11.746  63.235  1.00  0.00    -0.598 OA 
HETATM   17  N   UNL     1     -10.923  12.369  63.202  1.00  0.00    -0.688 N  
HETATM   18  H2  UNL     1     -10.180  13.047  63.375  1.00  0.00     0.000 HD 
ENDBRANCH  13  14
ENDBRANCH  12  13
ENDBRANCH   4  12
TORSDOF 5
ENDMDL
MODEL        2
REMARK 921   NORMALIZED FREE ENERGY PREDICTED BY IDOCK:   -5.80 KCAL/MOL
REMARK 922        TOTAL FREE ENERGY PREDICTED BY IDOCK:   -7.69 KCAL/MOL
REMARK 923 INTER-LIGAND FREE ENERGY PREDICTED BY IDOCK:   -7.46 KCAL/MOL
REMARK 924 INTRA-LIGAND FREE ENERGY PREDICTED BY IDOCK:   -0.23 KCAL/MOL
REMARK 927      BINDING AFFINITY PREDICTED BY RF-SCORE:    0.00 PKD
ROOT
HETATM    1  N   UNL     1     -11.387  16.221  63.984  1.00  0.00    -1.475 NA 
HETATM    2  H1  UNL     1     -11.411  17.241  64.007  1.00  0.00     0.000 HD 
HETATM    3  H2  UNL     1     -12.254  15.826  63.619  1.00  0.00     0.000 HD 
HETATM    4  C   UNL     1     -11.058  15.691  65.326  1.00  0.00    -0.303 C  
ENDROOT
BRANCH   4   5
HETATM    5  C   UNL     1      -9.717  16.255  65.851  1.00  0.00    -0.354 C  
BRANCH   5   6
HETATM    6  C   UNL     1      -9.877  17.487  66.715  1.00  0.00    -0.306 A  
HETATM    7  C   UNL     1     -10.352  19.752  68.303  1.00  0.00    -0.536 A  
HETATM    8  C   UNL     1      -9.975  18.758  66.132  1.00  0.00    -0.378 A  
HETATM    9  C   UNL     1      -9.971  17.374  68.109  1.00  0.00    -0.308 A  
HETATM   10  C   UNL     1     -10.218  18.498  68.898  1.00  0.00    -0.269 A  
HETATM   11  C   UNL     1     -10.215  19.884  66.923  1.00  0.00    -0.600 A  
ENDBRANCH   5   6
ENDBRANCH   4   5
BRANCH   4  12
HETATM   12  C   UNL     1     -11.022  14.148  65.291  1.00  0.00    -0.337 C  
BRANCH  12  13
HETATM   13  O   UNL     1     -11.418  13.656  63.995  1.00  0.00    -0.360 OA 
BRANCH  13  14
HETATM   14  C   UNL     1     -12.282  12.615  64.018  1.00  0.00    -0.463 C  
HETATM   15  H1  UNL     1     -12.585  10.919  63.104  1.00  0.00     0.000 HD 
HETATM   16  O   UNL     1     -13.245  12.491  64.756  1.00  0.00    -0.839 OA 
HETATM   17  N   UNL     1     -11.934  11.703  63.087  1.00  0.00    -0.926 N  
HETATM   18  H2  UNL     1     -11.135  11.786  62.458  1.00  0.00     0.000 HD 
ENDBRANCH  13  14
ENDBRANCH  12  13
ENDBRANCH   4  12
TORSDOF 5
ENDMDL
MODEL        3
REMARK 921   NORMALIZED FREE ENERGY PREDICTED BY IDOCK:   -5.56 KCAL/MOL
REMARK 922        TOTAL FREE ENERGY PREDICTED BY IDOCK:   -7.38 KCAL/MOL
REMARK 923 INTER-LIGAND FREE ENERGY PREDICTED BY IDOCK:   -7.25 KCAL/MOL
REMARK 924 INTRA-LIGAND FREE ENERGY PREDICTED BY IDOCK:   -0.14 KCAL/MOL
REMARK 927      BINDING AFFINITY PREDICTED BY RF-SCORE:    0.00 PKD
ROOT
HETATM    1  N   UNL     1     -12.660  14.069  67.197  1.00  0.00    -0.429 NA 
HETATM    2  H1  UNL     1     -13.186  13.547  67.898  1.00  0.00     0.000 HD 
HETATM    3  H2  UNL     1     -12.445  13.499  66.378  1.00  0.00     0.000 HD 
HETATM    4  C   UNL     1     -11.443  14.650  67.803  1.00  0.00    -0.340 C  
ENDROOT
BRANCH   4   5
HETATM    5  C   UNL     1     -11.781  15.554  69.013  1.00  0.00    -0.392 C  
BRANCH   5   6
HETATM    6  C   UNL     1     -12.410  14.806  70.169  1.00  0.00    -0.381 A  
HETATM    7  C   UNL     1     -13.711  13.373  72.200  1.00  0.00    -0.646 A  
HETATM    8  C   UNL     1     -13.322  15.446  71.020  1.00  0.00    -0.545 A  
HETATM    9  C   UNL     1     -12.123  13.450  70.382  1.00  0.00    -0.405 A  
HETATM   10  C   UNL     1     -12.778  12.735  71.385  1.00  0.00    -0.353 A  
HETATM   11  C   UNL     1     -13.971  14.731  72.028  1.00  0.00    -0.582 A  
ENDBRANCH   5   6
ENDBRANCH   4   5
BRANCH   4  12
HETATM   12  C   UNL     1     -10.648  15.441  66.742  1.00  0.00    -0.309 C  
BRANCH  12  13
HETATM   13  O   UNL     1     -10.762  14.815  65.447  1.00  0.00    -0.322 OA 
BRANCH  13  14
HETATM   14  C   UNL     1     -11.400  15.553  64.510  1.00  0.00    -0.314 C  
HETATM   15  H1  UNL     1     -12.789  15.351  63.155  1.00  0.00     0.000 HD 
HETATM   16  O   UNL     1     -11.204  16.731  64.260  1.00  0.00    -1.163 OA 
HETATM   17  N   UNL     1     -12.309  14.795  63.862  1.00  0.00    -1.070 N  
HETATM   18  H2  UNL     1     -12.489  13.809  64.051  1.00  0.00     0.000 HD 
ENDBRANCH  13  14
ENDBRANCH  12  13
ENDBRANCH   4  12
TORSDOF 5
ENDMDL
MODEL        4
REMARK 921   NORMALIZED FREE ENERGY PREDICTED BY IDOCK:   -5.49 KCAL/MOL
REMARK 922        TOTAL FREE ENERGY PREDICTED BY IDOCK:   -7.29 KCAL/MOL
REMARK 923 INTER-LIGAND FREE ENERGY PREDICTED BY IDOCK:   -6.94 KCAL/MOL
REMARK 924 INTRA-LIGAND FREE ENERGY PREDICTED BY IDOCK:   -0.35 KCAL/MOL
REMARK 927      BINDING AFFINITY PREDICTED BY RF-SCORE:    0.00 PKD
ROOT
HETATM    1  N   UNL     1     -11.264  15.196  66.984  1.00  0.00    -0.331 NA 
HETATM    2  H1  UNL     1     -11.273  15.964  67.656  1.00  0.00     0.000 HD 
HETATM    3  H2  UNL     1     -11.661  15.470  66.084  1.00  0.00     0.000 HD 
HETATM    4  C   UNL     1     -11.947  14.015  67.554  1.00  0.00    -0.395 C  
ENDROOT
BRANCH   4   5
HETATM    5  C   UNL     1     -11.308  13.574  68.892  1.00  0.00    -0.332 C  
BRANCH   5   6
HETATM    6  C   UNL     1     -12.169  13.875  70.101  1.00  0.00    -0.425 A  
HETATM    7  C   UNL     1     -13.909  14.399  72.238  1.00  0.00    -0.589 A  
HETATM    8  C   UNL     1     -12.636  15.176  70.336  1.00  0.00    -0.405 A  
HETATM    9  C   UNL     1     -12.547  12.852  70.980  1.00  0.00    -0.376 A  
HETATM   10  C   UNL     1     -13.421  13.110  72.036  1.00  0.00    -0.598 A  
HETATM   11  C   UNL     1     -13.505  15.435  71.398  1.00  0.00    -0.607 A  
ENDBRANCH   5   6
ENDBRANCH   4   5
BRANCH   4  12
HETATM   12  C   UNL     1     -11.932  12.852  66.537  1.00  0.00    -0.377 C  
BRANCH  12  13
HETATM   13  O   UNL     1     -11.389  13.285  65.274  1.00  0.00    -0.292 OA 
BRANCH  13  14
HETATM   14  C   UNL     1     -12.275  13.323  64.253  1.00  0.00    -0.392 C  
HETATM   15  H1  UNL     1     -13.076  14.617  63.032  1.00  0.00     0.000 HD 
HETATM   16  O   UNL     1     -12.884  12.374  63.788  1.00  0.00    -0.734 OA 
HETATM   17  N   UNL     1     -12.408  14.588  63.801  1.00  0.00    -1.087 N  
HETATM   18  H2  UNL     1     -11.912  15.397  64.175  1.00  0.00     0.000 HD 
ENDBRANCH  13  14
ENDBRANCH  12  13
ENDBRANCH   4  12
TORSDOF 5
ENDMDL
MODEL        5
REMARK 921   NORMALIZED FREE ENERGY PREDICTED BY IDOCK:   -5.47 KCAL/MOL
REMARK 922        TOTAL FREE ENERGY PREDICTED BY IDOCK:   -7.26 KCAL/MOL
REMARK 923 INTER-LIGAND FREE ENERGY PREDICTED BY IDOCK:   -6.93 KCAL/MOL
REMARK 924 INTRA-LIGAND FREE ENERGY PREDICTED BY IDOCK:   -0.33 KCAL/MOL
REMARK 927      BINDING AFFINITY PREDICTED BY RF-SCORE:    0.00 PKD
ROOT
HETATM    1  N   UNL     1     -11.286  16.495  64.144  1.00  0.00    -1.452 NA 
HETATM    2  H1  UNL     1     -11.088  17.488  64.020  1.00  0.00     0.000 HD 
HETATM    3  H2  UNL     1     -12.245  16.260  63.882  1.00  0.00     0.000 HD 
HETATM    4  C   UNL     1     -10.973  16.083  65.529  1.00  0.00    -0.209 C  
ENDROOT
BRANCH   4   5
HETATM    5  C   UNL     1      -9.504  16.394  65.902  1.00  0.00    -0.289 C  
BRANCH   5   6
HETATM    6  C   UNL     1      -9.300  17.797  66.433  1.00  0.00    -0.264 A  
HETATM    7  C   UNL     1      -8.953  20.333  67.584  1.00  0.00    -0.393 A  
HETATM    8  C   UNL     1     -10.386  18.674  66.565  1.00  0.00    -0.462 A  
HETATM    9  C   UNL     1      -8.031  18.228  66.841  1.00  0.00    -0.251 A  
HETATM   10  C   UNL     1      -7.860  19.484  67.423  1.00  0.00    -0.291 A  
HETATM   11  C   UNL     1     -10.213  19.934  67.141  1.00  0.00    -0.579 A  
ENDBRANCH   5   6
ENDBRANCH   4   5
BRANCH   4  12
HETATM   12  C   UNL     1     -11.272  14.579  65.716  1.00  0.00    -0.334 C  
BRANCH  12  13
HETATM   13  O   UNL     1     -12.620  14.272  65.307  1.00  0.00    -0.466 OA 
BRANCH  13  14
HETATM   14  C   UNL     1     -12.726  13.314  64.358  1.00  0.00    -0.117 C  
HETATM   15  H1  UNL     1     -12.472  13.096  62.436  1.00  0.00     0.000 HD 
HETATM   16  O   UNL     1     -13.073  12.158  64.532  1.00  0.00    -0.720 OA 
HETATM   17  N   UNL     1     -12.392  13.817  63.152  1.00  0.00    -1.106 N  
HETATM   18  H2  UNL     1     -12.101  14.780  62.980  1.00  0.00     0.000 HD 
ENDBRANCH  13  14
ENDBRANCH  12  13
ENDBRANCH   4  12
TORSDOF 5
ENDMDL
MODEL        6
REMARK 921   NORMALIZED FREE ENERGY PREDICTED BY IDOCK:   -5.44 KCAL/MOL
REMARK 922        TOTAL FREE ENERGY PREDICTED BY IDOCK:   -7.22 KCAL/MOL
REMARK 923 INTER-LIGAND FREE ENERGY PREDICTED BY IDOCK:   -6.88 KCAL/MOL
REMARK 924 INTRA-LIGAND FREE ENERGY PREDICTED BY IDOCK:   -0.34 KCAL/MOL
REMARK 927      BINDING AFFINITY PREDICTED BY RF-SCORE:    0.00 PKD
ROOT
HETATM    1  N   UNL     1     -11.637  16.228  63.876  1.00  0.00    -1.573 NA 
HETATM    2  H1  UNL     1     -11.507  17.085  64.413  1.00  0.00     0.000 HD 
HETATM    3  H2  UNL     1     -12.370  16.325  63.172  1.00  0.00     0.000 HD 
HETATM    4  C   UNL     1     -11.892  15.092  64.788  1.00  0.00    -0.341 C  
ENDROOT
BRANCH   4   5
HETATM    5  C   UNL     1     -10.753  14.919  65.820  1.00  0.00    -0.338 C  
BRANCH   5   6
HETATM    6  C   UNL     1     -11.243  14.562  67.207  1.00  0.00    -0.341 A  
HETATM    7  C   UNL     1     -11.980  13.893  69.830  1.00  0.00    -0.405 A  
HETATM    8  C   UNL     1     -11.420  13.221  67.577  1.00  0.00    -0.361 A  
HETATM    9  C   UNL     1     -11.489  15.563  68.156  1.00  0.00    -0.332 A  
HETATM   10  C   UNL     1     -11.844  15.231  69.463  1.00  0.00    -0.368 A  
HETATM   11  C   UNL     1     -11.783  12.890  68.884  1.00  0.00    -0.370 A  
ENDBRANCH   5   6
ENDBRANCH   4   5
BRANCH   4  12
HETATM   12  C   UNL     1     -12.089  13.794  63.974  1.00  0.00    -0.403 C  
BRANCH  12  13
HETATM   13  O   UNL     1     -10.879  13.008  63.966  1.00  0.00    -0.395 OA 
BRANCH  13  14
HETATM   14  C   UNL     1     -11.060  11.681  63.778  1.00  0.00    -0.420 C  
HETATM   15  H1  UNL     1     -12.317  10.462  62.917  1.00  0.00     0.000 HD 
HETATM   16  O   UNL     1     -10.339  10.787  64.189  1.00  0.00    -0.357 OA 
HETATM   17  N   UNL     1     -12.180  11.463  63.058  1.00  0.00    -0.875 N  
HETATM   18  H2  UNL     1     -12.800  12.193  62.706  1.00  0.00     0.000 HD 
ENDBRANCH  13  14
ENDBRANCH  12  13
ENDBRANCH   4  12
TORSDOF 5
ENDMDL
MODEL        7
REMARK 921   NORMALIZED FREE ENERGY PREDICTED BY IDOCK:   -5.42 KCAL/MOL
REMARK 922        TOTAL FREE ENERGY PREDICTED BY IDOCK:   -7.21 KCAL/MOL
REMARK 923 INTER-LIGAND FREE ENERGY PREDICTED BY IDOCK:   -7.02 KCAL/MOL
REMARK 924 INTRA-LIGAND FREE ENERGY PREDICTED BY IDOCK:   -0.18 KCAL/MOL
REMARK 927      BINDING AFFINITY PREDICTED BY RF-SCORE:    0.00 PKD
ROOT
HETATM    1  N   UNL     1     -11.564  16.138  63.953  1.00  0.00    -1.469 NA 
HETATM    2  H1  UNL     1     -12.009  16.972  64.335  1.00  0.00     0.000 HD 
HETATM    3  H2  UNL     1     -12.114  15.719  63.203  1.00  0.00     0.000 HD 
HETATM    4  C   UNL     1     -11.281  15.173  65.038  1.00  0.00    -0.409 C  
ENDROOT
BRANCH   4   5
HETATM    5  C   UNL     1     -10.404  15.798  66.148  1.00  0.00    -0.333 C  
BRANCH   5   6
HETATM    6  C   UNL     1     -10.865  15.456  67.548  1.00  0.00    -0.305 A  
HETATM    7  C   UNL     1     -11.879  14.901  70.105  1.00  0.00    -0.357 A  
HETATM    8  C   UNL     1     -10.657  16.351  68.606  1.00  0.00    -0.305 A  
HETATM    9  C   UNL     1     -11.546  14.257  67.801  1.00  0.00    -0.383 A  
HETATM   10  C   UNL     1     -12.059  13.986  69.070  1.00  0.00    -0.358 A  
HETATM   11  C   UNL     1     -11.165  16.076  69.877  1.00  0.00    -0.361 A  
ENDBRANCH   5   6
ENDBRANCH   4   5
BRANCH   4  12
HETATM   12  C   UNL     1     -10.606  13.909  64.460  1.00  0.00    -0.354 C  
BRANCH  12  13
HETATM   13  O   UNL     1     -11.352  12.726  64.809  1.00  0.00    -0.292 OA 
BRANCH  13  14
HETATM   14  C   UNL     1     -12.012  12.142  63.783  1.00  0.00    -0.513 C  
HETATM   15  H1  UNL     1     -11.644  11.021  62.229  1.00  0.00     0.000 HD 
HETATM   16  O   UNL     1     -13.210  12.205  63.564  1.00  0.00    -0.744 OA 
HETATM   17  N   UNL     1     -11.147  11.461  63.003  1.00  0.00    -0.840 N  
HETATM   18  H2  UNL     1     -10.141  11.396  63.164  1.00  0.00     0.000 HD 
ENDBRANCH  13  14
ENDBRANCH  12  13
ENDBRANCH   4  12
TORSDOF 5
ENDMDL
MODEL        8
REMARK 921   NORMALIZED FREE ENERGY PREDICTED BY IDOCK:   -5.41 KCAL/MOL
REMARK 922        TOTAL FREE ENERGY PREDICTED BY IDOCK:   -7.19 KCAL/MOL
REMARK 923 INTER-LIGAND FREE ENERGY PREDICTED BY IDOCK:   -6.95 KCAL/MOL
REMARK 924 INTRA-LIGAND FREE ENERGY PREDICTED BY IDOCK:   -0.25 KCAL/MOL
REMARK 927      BINDING AFFINITY PREDICTED BY RF-SCORE:    0.00 PKD
ROOT
HETATM    1  N   UNL     1     -10.746  16.544  67.667  1.00  0.00    -0.329 NA 
HETATM    2  H1  UNL     1     -10.626  17.299  68.343  1.00  0.00     0.000 HD 
HETATM    3  H2  UNL     1     -11.171  16.871  66.799  1.00  0.00     0.000 HD 
HETATM    4  C   UNL     1     -11.512  15.435  68.275  1.00  0.00    -0.353 C  
ENDROOT
BRANCH   4   5
HETATM    5  C   UNL     1     -10.836  14.909  69.563  1.00  0.00    -0.272 C  
BRANCH   5   6
HETATM    6  C   UNL     1     -11.732  14.965  70.782  1.00  0.00    -0.364 A  
HETATM    7  C   UNL     1     -13.257  14.992  73.136  1.00  0.00    -0.587 A  
HETATM    8  C   UNL     1     -12.568  13.886  71.101  1.00  0.00    -0.446 A  
HETATM    9  C   UNL     1     -11.708  16.077  71.634  1.00  0.00    -0.583 A  
HETATM   10  C   UNL     1     -12.458  16.086  72.810  1.00  0.00    -0.582 A  
HETATM   11  C   UNL     1     -13.324  13.899  72.275  1.00  0.00    -0.599 A  
ENDBRANCH   5   6
ENDBRANCH   4   5
BRANCH   4  12
HETATM   12  C   UNL     1     -11.693  14.292  67.252  1.00  0.00    -0.395 C  
BRANCH  12  13
HETATM   13  O   UNL     1     -11.512  14.777  65.906  1.00  0.00    -0.351 OA 
BRANCH  13  14
HETATM   14  C   UNL     1     -12.481  14.420  65.034  1.00  0.00    -0.359 C  
HETATM   15  H1  UNL     1     -13.040  14.793  63.203  1.00  0.00     0.000 HD 
HETATM   16  O   UNL     1     -13.393  13.637  65.247  1.00  0.00    -0.669 OA 
HETATM   17  N   UNL     1     -12.309  15.062  63.860  1.00  0.00    -1.059 N  
HETATM   18  H2  UNL     1     -11.557  15.721  63.659  1.00  0.00     0.000 HD 
ENDBRANCH  13  14
ENDBRANCH  12  13
ENDBRANCH   4  12
TORSDOF 5
ENDMDL
MODEL        9
REMARK 921   NORMALIZED FREE ENERGY PREDICTED BY IDOCK:   -5.40 KCAL/MOL
REMARK 922        TOTAL FREE ENERGY PREDICTED BY IDOCK:   -7.17 KCAL/MOL
REMARK 923 INTER-LIGAND FREE ENERGY PREDICTED BY IDOCK:   -6.74 KCAL/MOL
REMARK 924 INTRA-LIGAND FREE ENERGY PREDICTED BY IDOCK:   -0.43 KCAL/MOL
REMARK 927      BINDING AFFINITY PREDICTED BY RF-SCORE:    0.00 PKD
ROOT
HETATM    1  N   UNL     1     -11.024  13.275  69.478  1.00  0.00    -0.459 NA 
HETATM    2  H1  UNL     1     -11.227  13.328  70.477  1.00  0.00     0.000 HD 
HETATM    3  H2  UNL     1     -10.270  12.617  69.276  1.00  0.00     0.000 HD 
HETATM    4  C   UNL     1     -10.739  14.625  68.946  1.00  0.00    -0.248 C  
ENDROOT
BRANCH   4   5
HETATM    5  C   UNL     1     -11.907  15.604  69.212  1.00  0.00    -0.378 C  
BRANCH   5   6
HETATM    6  C   UNL     1     -12.387  15.596  70.647  1.00  0.00    -0.457 A  
HETATM    7  C   UNL     1     -13.336  15.751  73.283  1.00  0.00    -0.649 A  
HETATM    8  C   UNL     1     -11.549  16.039  71.681  1.00  0.00    -0.538 A  
HETATM    9  C   UNL     1     -13.690  15.186  70.962  1.00  0.00    -0.450 A  
HETATM   10  C   UNL     1     -14.165  15.273  72.270  1.00  0.00    -0.642 A  
HETATM   11  C   UNL     1     -12.024  16.118  72.992  1.00  0.00    -0.593 A  
ENDBRANCH   5   6
ENDBRANCH   4   5
BRANCH   4  12
HETATM   12  C   UNL     1     -10.433  14.545  67.434  1.00  0.00    -0.264 C  
BRANCH  12  13
HETATM   13  O   UNL     1     -11.634  14.730  66.659  1.00  0.00    -0.360 OA 
BRANCH  13  14
HETATM   14  C   UNL     1     -12.207  13.590  66.209  1.00  0.00    -0.416 C  
HETATM   15  H1  UNL     1     -13.597  13.019  64.966  1.00  0.00     0.000 HD 
HETATM   16  O   UNL     1     -11.924  12.454  66.553  1.00  0.00    -0.564 OA 
HETATM   17  N   UNL     1     -13.165  13.878  65.304  1.00  0.00    -0.721 N  
HETATM   18  H2  UNL     1     -13.421  14.818  65.003  1.00  0.00     0.000 HD 
ENDBRANCH  13  14
ENDBRANCH  12  13
ENDBRANCH   4  12
TORSDOF 5
ENDMDL
MODEL       10
REMARK 921   NORMALIZED FREE ENERGY PREDICTED BY IDOCK:   -5.37 KCAL/MOL
REMARK 922        TOTAL FREE ENERGY PREDICTED BY IDOCK:   -7.13 KCAL/MOL
REMARK 923 INTER-LIGAND FREE ENERGY PREDICTED BY IDOCK:   -6.93 KCAL/MOL
REMARK 924 INTRA-LIGAND FREE ENERGY PREDICTED BY IDOCK:   -0.20 KCAL/MOL
REMARK 927      BINDING AFFINITY PREDICTED BY RF-SCORE:    0.00 PKD
ROOT
HETATM    1  N   UNL     1     -11.648  16.294  63.911  1.00  0.00    -1.573 NA 
HETATM    2  H1  UNL     1     -11.961  15.608  63.224  1.00  0.00     0.000 HD 
HETATM    3  H2  UNL     1     -11.149  17.071  63.476  1.00  0.00     0.000 HD 
HETATM    4  C   UNL     1     -10.839  15.632  64.957  1.00  0.00    -0.450 C  
ENDROOT
BRANCH   4   5
HETATM    5  C   UNL     1     -11.620  14.489  65.647  1.00  0.00    -0.344 C  
BRANCH   5   6
HETATM    6  C   UNL     1     -11.177  13.107  65.213  1.00  0.00    -0.315 A  
HETATM    7  C   UNL     1     -10.193  10.616  64.377  1.00  0.00    -0.400 A  
HETATM    8  C   UNL     1     -11.287  12.712  63.873  1.00  0.00    -0.501 A  
HETATM    9  C   UNL     1     -10.612  12.217  66.136  1.00  0.00    -0.290 A  
HETATM   10  C   UNL     1     -10.113  10.983  65.719  1.00  0.00    -0.305 A  
HETATM   11  C   UNL     1     -10.793  11.474  63.457  1.00  0.00    -0.473 A  
ENDBRANCH   5   6
ENDBRANCH   4   5
BRANCH   4  12
HETATM   12  C   UNL     1     -10.366  16.670  65.997  1.00  0.00    -0.340 C  
BRANCH  12  13
HETATM   13  O   UNL     1     -10.516  18.011  65.487  1.00  0.00    -0.636 OA 
BRANCH  13  14
HETATM   14  C   UNL     1     -10.323  18.994  66.395  1.00  0.00    -0.448 C  
HETATM   15  H1  UNL     1     -10.101  20.931  66.460  1.00  0.00     0.000 HD 
HETATM   16  O   UNL     1     -10.225  18.854  67.603  1.00  0.00    -0.350 OA 
HETATM   17  N   UNL     1     -10.247  20.190  65.775  1.00  0.00    -0.505 N  
HETATM   18  H2  UNL     1     -10.323  20.332  64.768  1.00  0.00     0.000 HD 
ENDBRANCH  13  14
ENDBRANCH  12  13
ENDBRANCH   4  12
TORSDOF 5
ENDMDL
MODEL       11
REMARK 921   NORMALIZED FREE ENERGY PREDICTED BY IDOCK:   -5.36 KCAL/MOL
REMARK 922        TOTAL FREE ENERGY PREDICTED BY IDOCK:   -7.13 KCAL/MOL
REMARK 923 INTER-LIGAND FREE ENERGY PREDICTED BY IDOCK:   -6.88 KCAL/MOL
REMARK 924 INTRA-LIGAND FREE ENERGY PREDICTED BY IDOCK:   -0.25 KCAL/MOL
REMARK 927      BINDING AFFINITY PREDICTED BY RF-SCORE:    0.00 PKD
ROOT
HETATM    1  N   UNL     1      -9.721  14.617  67.733  1.00  0.00    -0.213 NA 
HETATM    2  H1  UNL     1      -9.235  14.679  68.628  1.00  0.00     0.000 HD 
HETATM    3  H2  UNL     1      -9.406  15.332  67.077  1.00  0.00     0.000 HD 
HETATM    4  C   UNL     1     -11.183  14.664  67.946  1.00  0.00    -0.304 C  
ENDROOT
BRANCH   4   5
HETATM    5  C   UNL     1     -11.660  13.545  68.901  1.00  0.00    -0.364 C  
BRANCH   5   6
HETATM    6  C   UNL     1     -12.256  14.066  70.192  1.00  0.00    -0.425 A  
HETATM    7  C   UNL     1     -13.197  15.010  72.661  1.00  0.00    -0.528 A  
HETATM    8  C   UNL     1     -12.826  13.185  71.121  1.00  0.00    -0.349 A  
HETATM    9  C   UNL     1     -12.209  15.433  70.498  1.00  0.00    -0.436 A  
HETATM   10  C   UNL     1     -12.667  15.901  71.730  1.00  0.00    -0.466 A  
HETATM   11  C   UNL     1     -13.291  13.655  72.351  1.00  0.00    -0.641 A  
ENDBRANCH   5   6
ENDBRANCH   4   5
BRANCH   4  12
HETATM   12  C   UNL     1     -11.919  14.569  66.591  1.00  0.00    -0.338 C  
BRANCH  12  13
HETATM   13  O   UNL     1     -11.035  14.914  65.505  1.00  0.00    -0.319 OA 
BRANCH  13  14
HETATM   14  C   UNL     1     -11.648  15.397  64.400  1.00  0.00    -0.264 C  
HETATM   15  H1  UNL     1     -12.802  14.779  62.953  1.00  0.00     0.000 HD 
HETATM   16  O   UNL     1     -11.601  16.545  63.990  1.00  0.00    -1.154 OA 
HETATM   17  N   UNL     1     -12.340  14.415  63.786  1.00  0.00    -1.079 N  
HETATM   18  H2  UNL     1     -12.393  13.448  64.108  1.00  0.00     0.000 HD 
ENDBRANCH  13  14
ENDBRANCH  12  13
ENDBRANCH   4  12
TORSDOF 5
ENDMDL
MODEL       12
REMARK 921   NORMALIZED FREE ENERGY PREDICTED BY IDOCK:   -5.36 KCAL/MOL
REMARK 922        TOTAL FREE ENERGY PREDICTED BY IDOCK:   -7.13 KCAL/MOL
REMARK 923 INTER-LIGAND FREE ENERGY PREDICTED BY IDOCK:   -6.86 KCAL/MOL
REMARK 924 INTRA-LIGAND FREE ENERGY PREDICTED BY IDOCK:   -0.27 KCAL/MOL
REMARK 927      BINDING AFFINITY PREDICTED BY RF-SCORE:    0.00 PKD
ROOT
HETATM    1  N   UNL     1     -11.844  14.696  66.660  1.00  0.00    -0.352 NA 
HETATM    2  H1  UNL     1     -12.012  15.310  67.457  1.00  0.00     0.000 HD 
HETATM    3  H2  UNL     1     -12.431  14.939  65.860  1.00  0.00     0.000 HD 
HETATM    4  C   UNL     1     -12.013  13.283  67.062  1.00  0.00    -0.365 C  
ENDROOT
BRANCH   4   5
HETATM    5  C   UNL     1     -11.084  12.909  68.241  1.00  0.00    -0.294 C  
BRANCH   5   6
HETATM    6  C   UNL     1     -11.829  12.438  69.472  1.00  0.00    -0.368 A  
HETATM    7  C   UNL     1     -13.051  11.545  71.835  1.00  0.00    -0.492 A  
HETATM    8  C   UNL     1     -12.100  11.075  69.662  1.00  0.00    -0.411 A  
HETATM    9  C   UNL     1     -12.223  13.350  70.460  1.00  0.00    -0.425 A  
HETATM   10  C   UNL     1     -12.821  12.905  71.639  1.00  0.00    -0.368 A  
HETATM   11  C   UNL     1     -12.705  10.632  70.840  1.00  0.00    -0.498 A  
ENDBRANCH   5   6
ENDBRANCH   4   5
BRANCH   4  12
HETATM   12  C   UNL     1     -11.758  12.354  65.855  1.00  0.00    -0.419 C  
BRANCH  12  13
HETATM   13  O   UNL     1     -12.858  12.412  64.925  1.00  0.00    -0.711 OA 
BRANCH  13  14
HETATM   14  C   UNL     1     -12.510  12.671  63.644  1.00  0.00    -0.427 C  
HETATM   15  H1  UNL     1     -11.950  11.718  62.036  1.00  0.00     0.000 HD 
HETATM   16  O   UNL     1     -12.461  13.770  63.116  1.00  0.00    -0.786 OA 
HETATM   17  N   UNL     1     -12.212  11.523  63.002  1.00  0.00    -0.941 N  
HETATM   18  H2  UNL     1     -12.244  10.594  63.422  1.00  0.00     0.000 HD 
ENDBRANCH  13  14
ENDBRANCH  12  13
ENDBRANCH   4  12
TORSDOF 5
ENDMDL
MODEL       13
REMARK 921   NORMALIZED FREE ENERGY PREDICTED BY IDOCK:   -5.31 KCAL/MOL
REMARK 922        TOTAL FREE ENERGY PREDICTED BY IDOCK:   -7.07 KCAL/MOL
REMARK 923 INTER-LIGAND FREE ENERGY PREDICTED BY IDOCK:   -6.61 KCAL/MOL
REMARK 924 INTRA-LIGAND FREE ENERGY PREDICTED BY IDOCK:   -0.46 KCAL/MOL
REMARK 927      BINDING AFFINITY PREDICTED BY RF-SCORE:    0.00 PKD
ROOT
HETATM    1  N   UNL     1      -9.730  14.448  65.331  1.00  0.00    -0.553 NA 
HETATM    2  H1  UNL     1      -8.923  15.069  65.374  1.00  0.00     0.000 HD 
HETATM    3  H2  UNL     1      -9.879  14.079  64.391  1.00  0.00     0.000 HD 
HETATM    4  C   UNL     1     -10.930  15.137  65.852  1.00  0.00    -0.339 C  
ENDROOT
BRANCH   4   5
HETATM    5  C   UNL     1     -10.716  15.649  67.296  1.00  0.00    -0.305 C  
BRANCH   5   6
HETATM    6  C   UNL     1     -10.384  17.124  67.371  1.00  0.00    -0.333 A  
HETATM    7  C   UNL     1      -9.945  19.890  67.541  1.00  0.00    -0.552 A  
HETATM    8  C   UNL     1     -10.436  17.925  66.221  1.00  0.00    -0.320 A  
HETATM    9  C   UNL     1     -10.062  17.721  68.597  1.00  0.00    -0.384 A  
HETATM   10  C   UNL     1      -9.854  19.098  68.684  1.00  0.00    -0.485 A  
HETATM   11  C   UNL     1     -10.221  19.302  66.308  1.00  0.00    -0.546 A  
ENDBRANCH   5   6
ENDBRANCH   4   5
BRANCH   4  12
HETATM   12  C   UNL     1     -12.153  14.196  65.786  1.00  0.00    -0.420 C  
BRANCH  12  13
HETATM   13  O   UNL     1     -12.636  14.079  64.433  1.00  0.00    -0.651 OA 
BRANCH  13  14
HETATM   14  C   UNL     1     -12.577  12.833  63.910  1.00  0.00    -0.289 C  
HETATM   15  H1  UNL     1     -11.422  11.758  62.763  1.00  0.00     0.000 HD 
HETATM   16  O   UNL     1     -13.394  11.941  64.072  1.00  0.00    -0.646 OA 
HETATM   17  N   UNL     1     -11.466  12.697  63.158  1.00  0.00    -0.788 N  
HETATM   18  H2  UNL     1     -10.770  13.428  63.005  1.00  0.00     0.000 HD 
ENDBRANCH  13  14
ENDBRANCH  12  13
ENDBRANCH   4  12
TORSDOF 5
ENDMDL
MODEL       14
REMARK 921   NORMALIZED FREE ENERGY PREDICTED BY IDOCK:   -5.28 KCAL/MOL
REMARK 922        TOTAL FREE ENERGY PREDICTED BY IDOCK:   -7.02 KCAL/MOL
REMARK 923 INTER-LIGAND FREE ENERGY PREDICTED BY IDOCK:   -6.78 KCAL/MOL
REMARK 924 INTRA-LIGAND FREE ENERGY PREDICTED BY IDOCK:   -0.24 KCAL/MOL
REMARK 927      BINDING AFFINITY PREDICTED BY RF-SCORE:    0.00 PKD
ROOT
HETATM    1  N   UNL     1      -9.210  14.450  66.014  1.00  0.00    -0.521 NA 
HETATM    2  H1  UNL     1      -8.431  14.808  66.566  1.00  0.00     0.000 HD 
HETATM    3  H2  UNL     1      -8.895  14.014  65.146  1.00  0.00     0.000 HD 
HETATM    4  C   UNL     1     -10.194  15.525  65.767  1.00  0.00    -0.366 C  
ENDROOT
BRANCH   4   5
HETATM    5  C   UNL     1     -10.706  16.148  67.088  1.00  0.00    -0.262 C  
BRANCH   5   6
HETATM    6  C   UNL     1     -10.476  17.641  67.181  1.00  0.00    -0.319 A  
HETATM    7  C   UNL     1      -9.874  20.378  67.330  1.00  0.00    -0.597 A  
HETATM    8  C   UNL     1     -10.215  18.246  68.418  1.00  0.00    -0.402 A  
HETATM    9  C   UNL     1     -10.479  18.436  66.027  1.00  0.00    -0.400 A  
HETATM   10  C   UNL     1     -10.169  19.794  66.099  1.00  0.00    -0.618 A  
HETATM   11  C   UNL     1      -9.912  19.607  68.490  1.00  0.00    -0.542 A  
ENDBRANCH   5   6
ENDBRANCH   4   5
BRANCH   4  12
HETATM   12  C   UNL     1     -11.374  14.982  64.932  1.00  0.00    -0.417 C  
BRANCH  12  13
HETATM   13  O   UNL     1     -11.026  13.729  64.310  1.00  0.00    -0.367 OA 
BRANCH  13  14
HETATM   14  C   UNL     1     -12.044  12.847  64.190  1.00  0.00    -0.432 C  
HETATM   15  H1  UNL     1     -12.642  11.424  62.997  1.00  0.00     0.000 HD 
HETATM   16  O   UNL     1     -12.993  12.731  64.948  1.00  0.00    -0.805 OA 
HETATM   17  N   UNL     1     -11.874  12.089  63.087  1.00  0.00    -0.730 N  
HETATM   18  H2  UNL     1     -11.092  12.169  62.438  1.00  0.00     0.000 HD 
ENDBRANCH  13  14
ENDBRANCH  12  13
ENDBRANCH   4  12
TORSDOF 5
ENDMDL
MODEL       15
REMARK 921   NORMALIZED FREE ENERGY PREDICTED BY IDOCK:   -5.21 KCAL/MOL
REMARK 922        TOTAL FREE ENERGY PREDICTED BY IDOCK:   -6.93 KCAL/MOL
REMARK 923 INTER-LIGAND FREE ENERGY PREDICTED BY IDOCK:   -6.61 KCAL/MOL
REMARK 924 INTRA-LIGAND FREE ENERGY PREDICTED BY IDOCK:   -0.33 KCAL/MOL
REMARK 927      BINDING AFFINITY PREDICTED BY RF-SCORE:    0.00 PKD
ROOT
HETATM    1  N   UNL     1      -9.787  13.209  66.198  1.00  0.00    -0.286 NA 
HETATM    2  H1  UNL     1      -9.110  13.312  66.954  1.00  0.00     0.000 HD 
HETATM    3  H2  UNL     1      -9.768  14.003  65.557  1.00  0.00     0.000 HD 
HETATM    4  C   UNL     1     -11.137  12.978  66.754  1.00  0.00    -0.286 C  
ENDROOT
BRANCH   4   5
HETATM    5  C   UNL     1     -11.170  11.743  67.685  1.00  0.00    -0.345 C  
BRANCH   5   6
HETATM    6  C   UNL     1     -11.709  12.042  69.067  1.00  0.00    -0.382 A  
HETATM    7  C   UNL     1     -12.874  12.604  71.557  1.00  0.00    -0.368 A  
HETATM    8  C   UNL     1     -11.837  13.366  69.511  1.00  0.00    -0.391 A  
HETATM    9  C   UNL     1     -12.128  11.004  69.910  1.00  0.00    -0.435 A  
HETATM   10  C   UNL     1     -12.717  11.283  71.143  1.00  0.00    -0.492 A  
HETATM   11  C   UNL     1     -12.420  13.645  70.749  1.00  0.00    -0.432 A  
ENDBRANCH   5   6
ENDBRANCH   4   5
BRANCH   4  12
HETATM   12  C   UNL     1     -12.162  12.821  65.610  1.00  0.00    -0.444 C  
BRANCH  12  13
HETATM   13  O   UNL     1     -12.840  14.069  65.357  1.00  0.00    -0.658 OA 
BRANCH  13  14
HETATM   14  C   UNL     1     -12.480  14.695  64.214  1.00  0.00    -0.239 C  
HETATM   15  H1  UNL     1     -12.027  14.264  62.366  1.00  0.00     0.000 HD 
HETATM   16  O   UNL     1     -12.328  15.896  64.064  1.00  0.00    -0.724 OA 
HETATM   17  N   UNL     1     -12.299  13.792  63.227  1.00  0.00    -1.124 N  
HETATM   18  H2  UNL     1     -12.418  12.784  63.329  1.00  0.00     0.000 HD 
ENDBRANCH  13  14
ENDBRANCH  12  13
ENDBRANCH   4  12
TORSDOF 5
ENDMDL
MODEL       16
REMARK 921   NORMALIZED FREE ENERGY PREDICTED BY IDOCK:   -5.19 KCAL/MOL
REMARK 922        TOTAL FREE ENERGY PREDICTED BY IDOCK:   -6.91 KCAL/MOL
REMARK 923 INTER-LIGAND FREE ENERGY PREDICTED BY IDOCK:   -6.64 KCAL/MOL
REMARK 924 INTRA-LIGAND FREE ENERGY PREDICTED BY IDOCK:   -0.27 KCAL/MOL
REMARK 927      BINDING AFFINITY PREDICTED BY RF-SCORE:    0.00 PKD
ROOT
HETATM    1  N   UNL     1      -8.872  12.461  66.207  1.00  0.00    -0.422 NA 
HETATM    2  H1  UNL     1      -8.580  12.004  67.071  1.00  0.00     0.000 HD 
HETATM    3  H2  UNL     1      -8.166  13.112  65.861  1.00  0.00     0.000 HD 
HETATM    4  C   UNL     1     -10.184  13.117  66.399  1.00  0.00    -0.286 C  
ENDROOT
BRANCH   4   5
HETATM    5  C   UNL     1     -11.262  12.115  66.875  1.00  0.00    -0.375 C  
BRANCH   5   6
HETATM    6  C   UNL     1     -11.740  12.369  68.289  1.00  0.00    -0.398 A  
HETATM    7  C   UNL     1     -12.452  12.849  70.960  1.00  0.00    -0.374 A  
HETATM    8  C   UNL     1     -11.957  11.301  69.171  1.00  0.00    -0.405 A  
HETATM    9  C   UNL     1     -11.932  13.678  68.752  1.00  0.00    -0.394 A  
HETATM   10  C   UNL     1     -12.276  13.917  70.083  1.00  0.00    -0.425 A  
HETATM   11  C   UNL     1     -12.308  11.541  70.501  1.00  0.00    -0.432 A  
ENDBRANCH   5   6
ENDBRANCH   4   5
BRANCH   4  12
HETATM   12  C   UNL     1     -10.627  13.808  65.090  1.00  0.00    -0.374 C  
BRANCH  12  13
HETATM   13  O   UNL     1     -10.888  12.833  64.061  1.00  0.00    -0.376 OA 
BRANCH  13  14
HETATM   14  C   UNL     1     -12.116  12.908  63.499  1.00  0.00    -0.555 C  
HETATM   15  H1  UNL     1     -13.373  14.254  62.857  1.00  0.00     0.000 HD 
HETATM   16  O   UNL     1     -12.843  11.969  63.222  1.00  0.00    -0.732 OA 
HETATM   17  N   UNL     1     -12.448  14.197  63.280  1.00  0.00    -1.098 N  
HETATM   18  H2  UNL     1     -11.858  14.999  63.506  1.00  0.00     0.000 HD 
ENDBRANCH  13  14
ENDBRANCH  12  13
ENDBRANCH   4  12
TORSDOF 5
ENDMDL
MODEL       17
REMARK 921   NORMALIZED FREE ENERGY PREDICTED BY IDOCK:   -5.15 KCAL/MOL
REMARK 922        TOTAL FREE ENERGY PREDICTED BY IDOCK:   -6.85 KCAL/MOL
REMARK 923 INTER-LIGAND FREE ENERGY PREDICTED BY IDOCK:   -6.43 KCAL/MOL
REMARK 924 INTRA-LIGAND FREE ENERGY PREDICTED BY IDOCK:   -0.42 KCAL/MOL
REMARK 927      BINDING AFFINITY PREDICTED BY RF-SCORE:    0.00 PKD
ROOT
HETATM    1  N   UNL     1      -9.600  11.808  62.900  1.00  0.00    -0.602 NA 
HETATM    2  H1  UNL     1      -8.617  11.808  63.174  1.00  0.00     0.000 HD 
HETATM    3  H2  UNL     1      -9.789  12.480  62.155  1.00  0.00     0.000 HD 
HETATM    4  C   UNL     1     -10.456  12.038  64.083  1.00  0.00    -0.353 C  
ENDROOT
BRANCH   4   5
HETATM    5  C   UNL     1     -10.201  10.986  65.188  1.00  0.00    -0.352 C  
BRANCH   5   6
HETATM    6  C   UNL     1     -10.570  11.466  66.576  1.00  0.00    -0.309 A  
HETATM    7  C   UNL     1     -11.421  12.387  69.086  1.00  0.00    -0.358 A  
HETATM    8  C   UNL     1     -10.434  12.818  66.922  1.00  0.00    -0.250 A  
HETATM    9  C   UNL     1     -11.093  10.575  67.523  1.00  0.00    -0.358 A  
HETATM   10  C   UNL     1     -11.526  11.034  68.767  1.00  0.00    -0.372 A  
HETATM   11  C   UNL     1     -10.862  13.275  68.170  1.00  0.00    -0.270 A  
ENDBRANCH   5   6
ENDBRANCH   4   5
BRANCH   4  12
HETATM   12  C   UNL     1     -11.944  12.038  63.668  1.00  0.00    -0.515 C  
BRANCH  12  13
HETATM   13  O   UNL     1     -12.349  13.346  63.218  1.00  0.00    -0.714 OA 
BRANCH  13  14
HETATM   14  C   UNL     1     -12.527  14.260  64.199  1.00  0.00    -0.218 C  
HETATM   15  H1  UNL     1     -12.105  16.125  64.585  1.00  0.00     0.000 HD 
HETATM   16  O   UNL     1     -13.099  14.078  65.261  1.00  0.00    -0.782 OA 
HETATM   17  N   UNL     1     -11.971  15.436  63.845  1.00  0.00    -0.972 N  
HETATM   18  H2  UNL     1     -11.486  15.612  62.965  1.00  0.00     0.000 HD 
ENDBRANCH  13  14
ENDBRANCH  12  13
ENDBRANCH   4  12
TORSDOF 5
ENDMDL
MODEL       18
REMARK 921   NORMALIZED FREE ENERGY PREDICTED BY IDOCK:   -5.13 KCAL/MOL
REMARK 922        TOTAL FREE ENERGY PREDICTED BY IDOCK:   -6.82 KCAL/MOL
REMARK 923 INTER-LIGAND FREE ENERGY PREDICTED BY IDOCK:   -6.81 KCAL/MOL
REMARK 924 INTRA-LIGAND FREE ENERGY PREDICTED BY IDOCK:   -0.01 KCAL/MOL
REMARK 927      BINDING AFFINITY PREDICTED BY RF-SCORE:    0.00 PKD
ROOT
HETATM    1  N   UNL     1     -11.767  16.276  63.732  1.00  0.00    -1.488 NA 
HETATM    2  H1  UNL     1     -11.750  17.292  63.828  1.00  0.00     0.000 HD 
HETATM    3  H2  UNL     1     -12.646  15.944  63.335  1.00  0.00     0.000 HD 
HETATM    4  C   UNL     1     -11.470  15.639  65.034  1.00  0.00    -0.175 C  
ENDROOT
BRANCH   4   5
HETATM    5  C   UNL     1     -10.112  16.108  65.605  1.00  0.00    -0.366 C  
BRANCH   5   6
HETATM    6  C   UNL     1     -10.218  17.337  66.484  1.00  0.00    -0.325 A  
HETATM    7  C   UNL     1     -10.239  19.643  68.083  1.00  0.00    -0.580 A  
HETATM    8  C   UNL     1      -9.972  17.250  67.862  1.00  0.00    -0.297 A  
HETATM    9  C   UNL     1     -10.522  18.587  65.929  1.00  0.00    -0.379 A  
HETATM   10  C   UNL     1     -10.522  19.735  66.721  1.00  0.00    -0.610 A  
HETATM   11  C   UNL     1      -9.979  18.399  68.655  1.00  0.00    -0.415 A  
ENDBRANCH   5   6
ENDBRANCH   4   5
BRANCH   4  12
HETATM   12  C   UNL     1     -11.495  14.102  64.889  1.00  0.00    -0.366 C  
BRANCH  12  13
HETATM   13  O   UNL     1     -12.549  13.530  65.690  1.00  0.00    -0.469 OA 
BRANCH  13  14
HETATM   14  C   UNL     1     -12.152  13.019  66.878  1.00  0.00    -0.285 C  
HETATM   15  H1  UNL     1     -11.621  13.630  68.653  1.00  0.00     0.000 HD 
HETATM   16  O   UNL     1     -12.009  11.837  67.145  1.00  0.00    -0.617 OA 
HETATM   17  N   UNL     1     -11.921  14.015  67.758  1.00  0.00    -0.440 N  
HETATM   18  H2  UNL     1     -12.030  15.009  67.557  1.00  0.00     0.000 HD 
ENDBRANCH  13  14
ENDBRANCH  12  13
ENDBRANCH   4  12
TORSDOF 5
ENDMDL
MODEL       19
REMARK 921   NORMALIZED FREE ENERGY PREDICTED BY IDOCK:   -5.11 KCAL/MOL
REMARK 922        TOTAL FREE ENERGY PREDICTED BY IDOCK:   -6.80 KCAL/MOL
REMARK 923 INTER-LIGAND FREE ENERGY PREDICTED BY IDOCK:   -6.45 KCAL/MOL
REMARK 924 INTRA-LIGAND FREE ENERGY PREDICTED BY IDOCK:   -0.35 KCAL/MOL
REMARK 927      BINDING AFFINITY PREDICTED BY RF-SCORE:    0.00 PKD
ROOT
HETATM    1  N   UNL     1     -12.303  12.510  66.120  1.00  0.00    -0.539 NA 
HETATM    2  H1  UNL     1     -12.592  11.903  66.888  1.00  0.00     0.000 HD 
HETATM    3  H2  UNL     1     -12.577  12.133  65.211  1.00  0.00     0.000 HD 
HETATM    4  C   UNL     1     -10.850  12.769  66.197  1.00  0.00    -0.279 C  
ENDROOT
BRANCH   4   5
HETATM    5  C   UNL     1     -10.449  13.388  67.558  1.00  0.00    -0.236 C  
BRANCH   5   6
HETATM    6  C   UNL     1     -11.164  12.764  68.738  1.00  0.00    -0.327 A  
HETATM    7  C   UNL     1     -12.339  11.641  71.025  1.00  0.00    -0.405 A  
HETATM    8  C   UNL     1     -11.048  11.391  68.997  1.00  0.00    -0.300 A  
HETATM    9  C   UNL     1     -11.918  13.556  69.614  1.00  0.00    -0.397 A  
HETATM   10  C   UNL     1     -12.493  13.000  70.757  1.00  0.00    -0.384 A  
HETATM   11  C   UNL     1     -11.630  10.834  70.137  1.00  0.00    -0.424 A  
ENDBRANCH   5   6
ENDBRANCH   4   5
BRANCH   4  12
HETATM   12  C   UNL     1     -10.413  13.688  65.035  1.00  0.00    -0.391 C  
BRANCH  12  13
HETATM   13  O   UNL     1     -10.811  15.051  65.284  1.00  0.00    -0.334 OA 
BRANCH  13  14
HETATM   14  C   UNL     1     -11.525  15.629  64.291  1.00  0.00    -0.193 C  
HETATM   15  H1  UNL     1     -12.768  15.130  62.873  1.00  0.00     0.000 HD 
HETATM   16  O   UNL     1     -11.547  16.817  64.013  1.00  0.00    -1.195 OA 
HETATM   17  N   UNL     1     -12.230  14.694  63.622  1.00  0.00    -1.049 N  
HETATM   18  H2  UNL     1     -12.226  13.696  63.834  1.00  0.00     0.000 HD 
ENDBRANCH  13  14
ENDBRANCH  12  13
ENDBRANCH   4  12
TORSDOF 5
ENDMDL
MODEL       20
REMARK 921   NORMALIZED FREE ENERGY PREDICTED BY IDOCK:   -5.07 KCAL/MOL
REMARK 922        TOTAL FREE ENERGY PREDICTED BY IDOCK:   -6.75 KCAL/MOL
REMARK 923 INTER-LIGAND FREE ENERGY PREDICTED BY IDOCK:   -6.36 KCAL/MOL
REMARK 924 INTRA-LIGAND FREE ENERGY PREDICTED BY IDOCK:   -0.39 KCAL/MOL
REMARK 927      BINDING AFFINITY PREDICTED BY RF-SCORE:    0.00 PKD
ROOT
HETATM    1  N   UNL     1     -12.273  14.356  68.107  1.00  0.00    -0.590 NA 
HETATM    2  H1  UNL     1     -11.902  14.052  69.008  1.00  0.00     0.000 HD 
HETATM    3  H2  UNL     1     -13.249  14.648  68.174  1.00  0.00     0.000 HD 
HETATM    4  C   UNL     1     -12.080  13.295  67.095  1.00  0.00    -0.298 C  
ENDROOT
BRANCH   4   5
HETATM    5  C   UNL     1     -10.593  12.893  66.962  1.00  0.00    -0.261 C  
BRANCH   5   6
HETATM    6  C   UNL     1     -10.385  11.410  66.736  1.00  0.00    -0.271 A  
HETATM    7  C   UNL     1      -9.842   8.678  66.401  1.00  0.00    -0.341 A  
HETATM    8  C   UNL     1      -9.734  10.950  65.583  1.00  0.00    -0.279 A  
HETATM    9  C   UNL     1     -10.803  10.477  67.694  1.00  0.00    -0.355 A  
HETATM   10  C   UNL     1     -10.523   9.120  67.533  1.00  0.00    -0.335 A  
HETATM   11  C   UNL     1      -9.461   9.591  65.419  1.00  0.00    -0.336 A  
ENDBRANCH   5   6
ENDBRANCH   4   5
BRANCH   4  12
HETATM   12  C   UNL     1     -12.641  13.755  65.732  1.00  0.00    -0.480 C  
BRANCH  12  13
HETATM   13  O   UNL     1     -12.976  12.620  64.908  1.00  0.00    -0.830 OA 
BRANCH  13  14
HETATM   14  C   UNL     1     -12.552  12.698  63.626  1.00  0.00    -0.337 C  
HETATM   15  H1  UNL     1     -11.909  11.530  62.202  1.00  0.00     0.000 HD 
HETATM   16  O   UNL     1     -12.460  13.713  62.955  1.00  0.00    -0.719 OA 
HETATM   17  N   UNL     1     -12.229  11.471  63.168  1.00  0.00    -0.932 N  
HETATM   18  H2  UNL     1     -12.295  10.609  63.710  1.00  0.00     0.000 HD 
ENDBRANCH  13  14
ENDBRANCH  12  13
ENDBRANCH   4  12
TORSDOF 5
ENDMDL
MODEL       21
REMARK 921   NORMALIZED FREE ENERGY PREDICTED BY IDOCK:   -5.06 KCAL/MOL
REMARK 922        TOTAL FREE ENERGY PREDICTED BY IDOCK:   -6.74 KCAL/MOL
REMARK 923 INTER-LIGAND FREE ENERGY PREDICTED BY IDOCK:   -6.26 KCAL/MOL
REMARK 924 INTRA-LIGAND FREE ENERGY PREDICTED BY IDOCK:   -0.47 KCAL/MOL
REMARK 927      BINDING AFFINITY PREDICTED BY RF-SCORE:    0.00 PKD
ROOT
HETATM    1  N   UNL     1     -12.218  12.262  65.763  1.00  0.00    -0.603 NA 
HETATM    2  H1  UNL     1     -12.173  11.259  65.941  1.00  0.00     0.000 HD 
HETATM    3  H2  UNL     1     -11.845  12.505  64.845  1.00  0.00     0.000 HD 
HETATM    4  C   UNL     1     -11.539  13.002  66.849  1.00  0.00    -0.366 C  
ENDROOT
BRANCH   4   5
HETATM    5  C   UNL     1     -12.142  12.668  68.234  1.00  0.00    -0.135 C  
BRANCH   5   6
HETATM    6  C   UNL     1     -11.450  11.517  68.933  1.00  0.00    -0.352 A  
HETATM    7  C   UNL     1     -10.102   9.504  70.349  1.00  0.00    -0.329 A  
HETATM    8  C   UNL     1     -10.143  11.153  68.582  1.00  0.00    -0.208 A  
HETATM    9  C   UNL     1     -12.089  10.825  69.971  1.00  0.00    -0.423 A  
HETATM   10  C   UNL     1     -11.415   9.832  70.682  1.00  0.00    -0.397 A  
HETATM   11  C   UNL     1      -9.472  10.154  69.290  1.00  0.00    -0.231 A  
ENDBRANCH   5   6
ENDBRANCH   4   5
BRANCH   4  12
HETATM   12  C   UNL     1     -11.608  14.521  66.580  1.00  0.00    -0.371 C  
BRANCH  12  13
HETATM   13  O   UNL     1     -10.859  14.864  65.396  1.00  0.00    -0.323 OA 
BRANCH  13  14
HETATM   14  C   UNL     1     -11.544  15.579  64.474  1.00  0.00    -0.283 C  
HETATM   15  H1  UNL     1     -12.974  15.335  63.171  1.00  0.00     0.000 HD 
HETATM   16  O   UNL     1     -11.380  16.758  64.205  1.00  0.00    -1.194 OA 
HETATM   17  N   UNL     1     -12.459  14.796  63.866  1.00  0.00    -1.049 N  
HETATM   18  H2  UNL     1     -12.613  13.809  64.072  1.00  0.00     0.000 HD 
ENDBRANCH  13  14
ENDBRANCH  12  13
ENDBRANCH   4  12
TORSDOF 5
ENDMDL
MODEL       22
REMARK 921   NORMALIZED FREE ENERGY PREDICTED BY IDOCK:   -5.02 KCAL/MOL
REMARK 922        TOTAL FREE ENERGY PREDICTED BY IDOCK:   -6.69 KCAL/MOL
REMARK 923 INTER-LIGAND FREE ENERGY PREDICTED BY IDOCK:   -6.37 KCAL/MOL
REMARK 924 INTRA-LIGAND FREE ENERGY PREDICTED BY IDOCK:   -0.32 KCAL/MOL
REMARK 927      BINDING AFFINITY PREDICTED BY RF-SCORE:    0.00 PKD
ROOT
HETATM    1  N   UNL     1     -11.843  12.005  67.154  1.00  0.00    -0.604 NA 
HETATM    2  H1  UNL     1     -11.090  11.809  67.813  1.00  0.00     0.000 HD 
HETATM    3  H2  UNL     1     -11.867  11.330  66.389  1.00  0.00     0.000 HD 
HETATM    4  C   UNL     1     -11.737  13.396  66.662  1.00  0.00    -0.385 C  
ENDROOT
BRANCH   4   5
HETATM    5  C   UNL     1     -11.752  14.417  67.824  1.00  0.00    -0.407 C  
BRANCH   5   6
HETATM    6  C   UNL     1     -10.765  15.551  67.644  1.00  0.00    -0.302 A  
HETATM    7  C   UNL     1      -9.050  17.725  67.187  1.00  0.00    -0.247 A  
HETATM    8  C   UNL     1      -9.757  15.471  66.672  1.00  0.00    -0.264 A  
HETATM    9  C   UNL     1     -10.869  16.717  68.415  1.00  0.00    -0.361 A  
HETATM   10  C   UNL     1     -10.024  17.801  68.181  1.00  0.00    -0.342 A  
HETATM   11  C   UNL     1      -8.907  16.555  66.444  1.00  0.00    -0.345 A  
ENDBRANCH   5   6
ENDBRANCH   4   5
BRANCH   4  12
HETATM   12  C   UNL     1     -12.878  13.693  65.665  1.00  0.00    -0.371 C  
BRANCH  12  13
HETATM   13  O   UNL     1     -13.111  12.561  64.802  1.00  0.00    -0.853 OA 
BRANCH  13  14
HETATM   14  C   UNL     1     -12.335  12.517  63.695  1.00  0.00    -0.522 C  
HETATM   15  H1  UNL     1     -11.911  13.610  62.136  1.00  0.00     0.000 HD 
HETATM   16  O   UNL     1     -11.592  11.606  63.368  1.00  0.00    -0.395 OA 
HETATM   17  N   UNL     1     -12.495  13.643  62.970  1.00  0.00    -0.973 N  
HETATM   18  H2  UNL     1     -13.112  14.416  63.221  1.00  0.00     0.000 HD 
ENDBRANCH  13  14
ENDBRANCH  12  13
ENDBRANCH   4  12
TORSDOF 5
ENDMDL
MODEL       23
REMARK 921   NORMALIZED FREE ENERGY PREDICTED BY IDOCK:   -4.98 KCAL/MOL
REMARK 922        TOTAL FREE ENERGY PREDICTED BY IDOCK:   -6.64 KCAL/MOL
REMARK 923 INTER-LIGAND FREE ENERGY PREDICTED BY IDOCK:   -6.63 KCAL/MOL
REMARK 924 INTRA-LIGAND FREE ENERGY PREDICTED BY IDOCK:   -0.01 KCAL/MOL
REMARK 927      BINDING AFFINITY PREDICTED BY RF-SCORE:    0.00 PKD
ROOT
HETATM    1  N   UNL     1     -11.774  10.304  67.929  1.00  0.00    -0.621 NA 
HETATM    2  H1  UNL     1     -11.442   9.562  68.546  1.00  0.00     0.000 HD 
HETATM    3  H2  UNL     1     -11.497  10.148  66.959  1.00  0.00     0.000 HD 
HETATM    4  C   UNL     1     -11.320  11.620  68.430  1.00  0.00    -0.279 C  
ENDROOT
BRANCH   4   5
HETATM    5  C   UNL     1     -11.786  11.871  69.884  1.00  0.00    -0.418 C  
BRANCH   5   6
HETATM    6  C   UNL     1     -11.922  10.605  70.702  1.00  0.00    -0.466 A  
HETATM    7  C   UNL     1     -12.135   8.357  72.367  1.00  0.00    -0.443 A  
HETATM    8  C   UNL     1     -10.807   9.791  70.946  1.00  0.00    -0.399 A  
HETATM    9  C   UNL     1     -13.155  10.249  71.266  1.00  0.00    -0.492 A  
HETATM   10  C   UNL     1     -13.258   9.137  72.102  1.00  0.00    -0.524 A  
HETATM   11  C   UNL     1     -10.913   8.675  71.777  1.00  0.00    -0.396 A  
ENDBRANCH   5   6
ENDBRANCH   4   5
BRANCH   4  12
HETATM   12  C   UNL     1     -11.822  12.744  67.498  1.00  0.00    -0.343 C  
BRANCH  12  13
HETATM   13  O   UNL     1     -12.090  12.230  66.177  1.00  0.00    -0.625 OA 
BRANCH  13  14
HETATM   14  C   UNL     1     -12.380  13.168  65.247  1.00  0.00    -0.481 C  
HETATM   15  H1  UNL     1     -11.799  13.724  63.469  1.00  0.00     0.000 HD 
HETATM   16  O   UNL     1     -13.230  14.039  65.337  1.00  0.00    -0.761 OA 
HETATM   17  N   UNL     1     -11.581  13.017  64.170  1.00  0.00    -0.382 N  
HETATM   18  H2  UNL     1     -10.862  12.300  64.072  1.00  0.00     0.000 HD 
ENDBRANCH  13  14
ENDBRANCH  12  13
ENDBRANCH   4  12
TORSDOF 5
ENDMDL
MODEL       24
REMARK 921   NORMALIZED FREE ENERGY PREDICTED BY IDOCK:   -4.96 KCAL/MOL
REMARK 922        TOTAL FREE ENERGY PREDICTED BY IDOCK:   -6.61 KCAL/MOL
REMARK 923 INTER-LIGAND FREE ENERGY PREDICTED BY IDOCK:   -6.19 KCAL/MOL
REMARK 924 INTRA-LIGAND FREE ENERGY PREDICTED BY IDOCK:   -0.42 KCAL/MOL
REMARK 927      BINDING AFFINITY PREDICTED BY RF-SCORE:    0.00 PKD
ROOT
HETATM    1  N   UNL     1     -13.760   9.617  70.590  1.00  0.00    -0.500 NA 
HETATM    2  H1  UNL     1     -14.531  10.232  70.328  1.00  0.00     0.000 HD 
HETATM    3  H2  UNL     1     -14.074   8.830  71.158  1.00  0.00     0.000 HD 
HETATM    4  C   UNL     1     -12.697  10.396  71.261  1.00  0.00    -0.432 C  
ENDROOT
BRANCH   4   5
HETATM    5  C   UNL     1     -12.190  11.557  70.374  1.00  0.00    -0.442 C  
BRANCH   5   6
HETATM    6  C   UNL     1     -12.598  12.925  70.877  1.00  0.00    -0.355 A  
HETATM    7  C   UNL     1     -13.498  15.453  71.699  1.00  0.00    -0.593 A  
HETATM    8  C   UNL     1     -12.145  14.086  70.234  1.00  0.00    -0.425 A  
HETATM    9  C   UNL     1     -13.469  13.053  71.968  1.00  0.00    -0.584 A  
HETATM   10  C   UNL     1     -13.925  14.309  72.370  1.00  0.00    -0.597 A  
HETATM   11  C   UNL     1     -12.596  15.343  70.642  1.00  0.00    -0.491 A  
ENDBRANCH   5   6
ENDBRANCH   4   5
BRANCH   4  12
HETATM   12  C   UNL     1     -11.529   9.466  71.657  1.00  0.00    -0.393 C  
BRANCH  12  13
HETATM   13  O   UNL     1     -12.025   8.232  72.215  1.00  0.00    -0.341 OA 
BRANCH  13  14
HETATM   14  C   UNL     1     -11.547   7.109  71.633  1.00  0.00    -0.276 C  
HETATM   15  H1  UNL     1     -11.370   6.317  69.859  1.00  0.00     0.000 HD 
HETATM   16  O   UNL     1     -11.025   6.165  72.203  1.00  0.00    -0.237 OA 
HETATM   17  N   UNL     1     -11.730   7.164  70.298  1.00  0.00    -0.525 N  
HETATM   18  H2  UNL     1     -12.165   7.940  69.799  1.00  0.00     0.000 HD 
ENDBRANCH  13  14
ENDBRANCH  12  13
ENDBRANCH   4  12
TORSDOF 5
ENDMDL
MODEL       25
REMARK 921   NORMALIZED FREE ENERGY PREDICTED BY IDOCK:   -4.94 KCAL/MOL
REMARK 922        TOTAL FREE ENERGY PREDICTED BY IDOCK:   -6.59 KCAL/MOL
REMARK 923 INTER-LIGAND FREE ENERGY PREDICTED BY IDOCK:   -6.29 KCAL/MOL
REMARK 924 INTRA-LIGAND FREE ENERGY PREDICTED BY IDOCK:   -0.30 KCAL/MOL
REMARK 927      BINDING AFFINITY PREDICTED BY RF-SCORE:    0.00 PKD
ROOT
HETATM    1  N   UNL     1      -9.915  14.340  69.059  1.00  0.00    -0.395 NA 
HETATM    2  H1  UNL     1      -9.321  14.923  69.649  1.00  0.00     0.000 HD 
HETATM    3  H2  UNL     1      -9.434  13.495  68.749  1.00  0.00     0.000 HD 
HETATM    4  C   UNL     1     -10.434  15.130  67.922  1.00  0.00    -0.245 C  
ENDROOT
BRANCH   4   5
HETATM    5  C   UNL     1     -11.206  16.383  68.400  1.00  0.00    -0.324 C  
BRANCH   5   6
HETATM    6  C   UNL     1     -10.587  17.686  67.941  1.00  0.00    -0.390 A  
HETATM    7  C   UNL     1      -9.592  20.184  67.139  1.00  0.00    -0.554 A  
HETATM    8  C   UNL     1     -10.756  18.129  66.622  1.00  0.00    -0.189 A  
HETATM    9  C   UNL     1      -9.870  18.490  68.838  1.00  0.00    -0.377 A  
HETATM   10  C   UNL     1      -9.385  19.737  68.443  1.00  0.00    -0.396 A  
HETATM   11  C   UNL     1     -10.264  19.374  66.225  1.00  0.00    -0.566 A  
ENDBRANCH   5   6
ENDBRANCH   4   5
BRANCH   4  12
HETATM   12  C   UNL     1     -11.333  14.247  67.030  1.00  0.00    -0.341 C  
BRANCH  12  13
HETATM   13  O   UNL     1     -11.290  14.695  65.660  1.00  0.00    -0.330 OA 
BRANCH  13  14
HETATM   14  C   UNL     1     -12.364  14.353  64.912  1.00  0.00    -0.405 C  
HETATM   15  H1  UNL     1     -13.186  14.806  63.202  1.00  0.00     0.000 HD 
HETATM   16  O   UNL     1     -13.217  13.531  65.204  1.00  0.00    -0.720 OA 
HETATM   17  N   UNL     1     -12.376  15.063  63.765  1.00  0.00    -1.058 N  
HETATM   18  H2  UNL     1     -11.676  15.757  63.500  1.00  0.00     0.000 HD 
ENDBRANCH  13  14
ENDBRANCH  12  13
ENDBRANCH   4  12
TORSDOF 5
ENDMDL
MODEL       26
REMARK 921   NORMALIZED FREE ENERGY PREDICTED BY IDOCK:   -4.92 KCAL/MOL
REMARK 922        TOTAL FREE ENERGY PREDICTED BY IDOCK:   -6.56 KCAL/MOL
REMARK 923 INTER-LIGAND FREE ENERGY PREDICTED BY IDOCK:   -6.30 KCAL/MOL
REMARK 924 INTRA-LIGAND FREE ENERGY PREDICTED BY IDOCK:   -0.26 KCAL/MOL
REMARK 927      BINDING AFFINITY PREDICTED BY RF-SCORE:    0.00 PKD
ROOT
HETATM    1  N   UNL     1     -12.440  10.914  68.876  1.00  0.00    -0.705 NA 
HETATM    2  H1  UNL     1     -12.401   9.898  68.962  1.00  0.00     0.000 HD 
HETATM    3  H2  UNL     1     -11.898  11.251  68.079  1.00  0.00     0.000 HD 
HETATM    4  C   UNL     1     -12.015  11.548  70.142  1.00  0.00    -0.369 C  
ENDROOT
BRANCH   4   5
HETATM    5  C   UNL     1     -12.873  11.072  71.338  1.00  0.00    -0.548 C  
BRANCH   5   6
HETATM    6  C   UNL     1     -12.791   9.580  71.585  1.00  0.00    -0.483 A  
HETATM    7  C   UNL     1     -12.608   6.795  71.865  1.00  0.00    -0.328 A  
HETATM    8  C   UNL     1     -13.937   8.778  71.491  1.00  0.00    -0.391 A  
HETATM    9  C   UNL     1     -11.561   8.971  71.869  1.00  0.00    -0.441 A  
HETATM   10  C   UNL     1     -11.468   7.585  71.997  1.00  0.00    -0.319 A  
HETATM   11  C   UNL     1     -13.844   7.392  71.627  1.00  0.00    -0.490 A  
ENDBRANCH   5   6
ENDBRANCH   4   5
BRANCH   4  12
HETATM   12  C   UNL     1     -12.073  13.086  70.012  1.00  0.00    -0.297 C  
BRANCH  12  13
HETATM   13  O   UNL     1     -12.391  13.695  71.279  1.00  0.00    -0.345 OA 
BRANCH  13  14
HETATM   14  C   UNL     1     -12.532  15.039  71.249  1.00  0.00    -0.334 C  
HETATM   15  H1  UNL     1     -13.908  16.379  70.909  1.00  0.00     0.000 HD 
HETATM   16  O   UNL     1     -11.659  15.864  71.467  1.00  0.00    -0.405 OA 
HETATM   17  N   UNL     1     -13.802  15.366  70.933  1.00  0.00    -0.844 N  
HETATM   18  H2  UNL     1     -14.548  14.696  70.744  1.00  0.00     0.000 HD 
ENDBRANCH  13  14
ENDBRANCH  12  13
ENDBRANCH   4  12
TORSDOF 5
ENDMDL
MODEL       27
REMARK 921   NORMALIZED FREE ENERGY PREDICTED BY IDOCK:   -4.91 KCAL/MOL
REMARK 922        TOTAL FREE ENERGY PREDICTED BY IDOCK:   -6.55 KCAL/MOL
REMARK 923 INTER-LIGAND FREE ENERGY PREDICTED BY IDOCK:   -6.27 KCAL/MOL
REMARK 924 INTRA-LIGAND FREE ENERGY PREDICTED BY IDOCK:   -0.28 KCAL/MOL
REMARK 927      BINDING AFFINITY PREDICTED BY RF-SCORE:    0.00 PKD
ROOT
HETATM    1  N   UNL     1     -10.214  12.015  68.699  1.00  0.00    -0.301 NA 
HETATM    2  H1  UNL     1      -9.748  11.730  69.560  1.00  0.00     0.000 HD 
HETATM    3  H2  UNL     1      -9.548  12.212  67.951  1.00  0.00     0.000 HD 
HETATM    4  C   UNL     1     -11.108  13.163  68.961  1.00  0.00    -0.234 C  
ENDROOT
BRANCH   4   5
HETATM    5  C   UNL     1     -12.148  12.840  70.060  1.00  0.00    -0.355 C  
BRANCH   5   6
HETATM    6  C   UNL     1     -12.406  13.994  71.005  1.00  0.00    -0.443 A  
HETATM    7  C   UNL     1     -12.792  16.044  72.882  1.00  0.00    -0.552 A  
HETATM    8  C   UNL     1     -13.536  13.997  71.835  1.00  0.00    -0.520 A  
HETATM    9  C   UNL     1     -11.499  15.059  71.096  1.00  0.00    -0.355 A  
HETATM   10  C   UNL     1     -11.685  16.072  72.036  1.00  0.00    -0.588 A  
HETATM   11  C   UNL     1     -13.725  15.015  72.772  1.00  0.00    -0.526 A  
ENDBRANCH   5   6
ENDBRANCH   4   5
BRANCH   4  12
HETATM   12  C   UNL     1     -11.815  13.594  67.657  1.00  0.00    -0.369 C  
BRANCH  12  13
HETATM   13  O   UNL     1     -12.113  12.447  66.835  1.00  0.00    -0.564 OA 
BRANCH  13  14
HETATM   14  C   UNL     1     -11.822  12.593  65.522  1.00  0.00    -0.431 C  
HETATM   15  H1  UNL     1     -12.722  13.001  63.840  1.00  0.00     0.000 HD 
HETATM   16  O   UNL     1     -10.722  12.478  65.007  1.00  0.00    -0.278 OA 
HETATM   17  N   UNL     1     -12.941  12.891  64.829  1.00  0.00    -0.751 N  
HETATM   18  H2  UNL     1     -13.871  12.990  65.236  1.00  0.00     0.000 HD 
ENDBRANCH  13  14
ENDBRANCH  12  13
ENDBRANCH   4  12
TORSDOF 5
ENDMDL
MODEL       28
REMARK 921   NORMALIZED FREE ENERGY PREDICTED BY IDOCK:   -4.90 KCAL/MOL
REMARK 922        TOTAL FREE ENERGY PREDICTED BY IDOCK:   -6.53 KCAL/MOL
REMARK 923 INTER-LIGAND FREE ENERGY PREDICTED BY IDOCK:   -6.28 KCAL/MOL
REMARK 924 INTRA-LIGAND FREE ENERGY PREDICTED BY IDOCK:   -0.25 KCAL/MOL
REMARK 927      BINDING AFFINITY PREDICTED BY RF-SCORE:    0.00 PKD
ROOT
HETATM    1  N   UNL     1     -12.060  10.617  68.103  1.00  0.00    -0.707 NA 
HETATM    2  H1  UNL     1     -12.524  11.365  67.588  1.00  0.00     0.000 HD 
HETATM    3  H2  UNL     1     -12.449   9.700  67.880  1.00  0.00     0.000 HD 
HETATM    4  C   UNL     1     -12.103  10.898  69.555  1.00  0.00    -0.309 C  
ENDROOT
BRANCH   4   5
HETATM    5  C   UNL     1     -11.467  12.267  69.893  1.00  0.00    -0.190 C  
BRANCH   5   6
HETATM    6  C   UNL     1     -12.406  13.207  70.618  1.00  0.00    -0.405 A  
HETATM    7  C   UNL     1     -14.013  14.983  72.080  1.00  0.00    -0.605 A  
HETATM    8  C   UNL     1     -13.224  12.738  71.655  1.00  0.00    -0.410 A  
HETATM    9  C   UNL     1     -12.442  14.570  70.293  1.00  0.00    -0.405 A  
HETATM   10  C   UNL     1     -13.232  15.455  71.026  1.00  0.00    -0.560 A  
HETATM   11  C   UNL     1     -14.021  13.623  72.384  1.00  0.00    -0.651 A  
ENDBRANCH   5   6
ENDBRANCH   4   5
BRANCH   4  12
HETATM   12  C   UNL     1     -11.400   9.766  70.335  1.00  0.00    -0.297 C  
BRANCH  12  13
HETATM   13  O   UNL     1     -11.852   9.732  71.704  1.00  0.00    -0.389 OA 
BRANCH  13  14
HETATM   14  C   UNL     1     -12.585   8.646  72.038  1.00  0.00    -0.378 C  
HETATM   15  H1  UNL     1     -12.478   7.086  73.205  1.00  0.00     0.000 HD 
HETATM   16  O   UNL     1     -13.681   8.348  71.594  1.00  0.00    -0.359 OA 
HETATM   17  N   UNL     1     -11.926   7.905  72.953  1.00  0.00    -0.619 N  
HETATM   18  H2  UNL     1     -11.008   8.132  73.337  1.00  0.00     0.000 HD 
ENDBRANCH  13  14
ENDBRANCH  12  13
ENDBRANCH   4  12
TORSDOF 5
ENDMDL
MODEL       29
REMARK 921   NORMALIZED FREE ENERGY PREDICTED BY IDOCK:   -4.89 KCAL/MOL
REMARK 922        TOTAL FREE ENERGY PREDICTED BY IDOCK:   -6.51 KCAL/MOL
REMARK 923 INTER-LIGAND FREE ENERGY PREDICTED BY IDOCK:   -6.17 KCAL/MOL
REMARK 924 INTRA-LIGAND FREE ENERGY PREDICTED BY IDOCK:   -0.35 KCAL/MOL
REMARK 927      BINDING AFFINITY PREDICTED BY RF-SCORE:    0.00 PKD
ROOT
HETATM    1  N   UNL     1      -9.857  13.356  65.988  1.00  0.00    -0.359 NA 
HETATM    2  H1  UNL     1      -9.060  12.909  66.442  1.00  0.00     0.000 HD 
HETATM    3  H2  UNL     1      -9.717  14.361  65.873  1.00  0.00     0.000 HD 
HETATM    4  C   UNL     1     -11.100  13.051  66.727  1.00  0.00    -0.286 C  
ENDROOT
BRANCH   4   5
HETATM    5  C   UNL     1     -11.332  11.526  66.853  1.00  0.00    -0.324 C  
BRANCH   5   6
HETATM    6  C   UNL     1     -11.263  11.021  68.278  1.00  0.00    -0.340 A  
HETATM    7  C   UNL     1     -11.286   9.990  70.888  1.00  0.00    -0.415 A  
HETATM    8  C   UNL     1     -11.899  11.719  69.314  1.00  0.00    -0.389 A  
HETATM    9  C   UNL     1     -10.597   9.825  68.579  1.00  0.00    -0.252 A  
HETATM   10  C   UNL     1     -10.617   9.307  69.874  1.00  0.00    -0.246 A  
HETATM   11  C   UNL     1     -11.913  11.203  70.612  1.00  0.00    -0.459 A  
ENDBRANCH   5   6
ENDBRANCH   4   5
BRANCH   4  12
HETATM   12  C   UNL     1     -12.306  13.727  66.039  1.00  0.00    -0.457 C  
BRANCH  12  13
HETATM   13  O   UNL     1     -13.027  12.780  65.224  1.00  0.00    -0.690 OA 
BRANCH  13  14
HETATM   14  C   UNL     1     -12.752  12.837  63.901  1.00  0.00    -0.194 C  
HETATM   15  H1  UNL     1     -12.095  14.109  62.576  1.00  0.00     0.000 HD 
HETATM   16  O   UNL     1     -12.883  11.931  63.095  1.00  0.00    -0.636 OA 
HETATM   17  N   UNL     1     -12.302  14.066  63.574  1.00  0.00    -1.118 N  
HETATM   18  H2  UNL     1     -12.187  14.840  64.228  1.00  0.00     0.000 HD 
ENDBRANCH  13  14
ENDBRANCH  12  13
ENDBRANCH   4  12
TORSDOF 5
ENDMDL
MODEL       30
REMARK 921   NORMALIZED FREE ENERGY PREDICTED BY IDOCK:   -4.87 KCAL/MOL
REMARK 922        TOTAL FREE ENERGY PREDICTED BY IDOCK:   -6.49 KCAL/MOL
REMARK 923 INTER-LIGAND FREE ENERGY PREDICTED BY IDOCK:   -6.13 KCAL/MOL
REMARK 924 INTRA-LIGAND FREE ENERGY PREDICTED BY IDOCK:   -0.36 KCAL/MOL
REMARK 927      BINDING AFFINITY PREDICTED BY RF-SCORE:    0.00 PKD
ROOT
HETATM    1  N   UNL     1     -14.057   8.910  73.127  1.00  0.00    -1.225 NA 
HETATM    2  H1  UNL     1     -14.339   7.969  73.399  1.00  0.00     0.000 HD 
HETATM    3  H2  UNL     1     -14.849   9.469  72.806  1.00  0.00     0.000 HD 
HETATM    4  C   UNL     1     -12.979   8.846  72.116  1.00  0.00    -0.416 C  
ENDROOT
BRANCH   4   5
HETATM    5  C   UNL     1     -11.761   8.041  72.628  1.00  0.00    -0.418 C  
BRANCH   5   6
HETATM    6  C   UNL     1     -11.288   6.979  71.659  1.00  0.00    -0.288 A  
HETATM    7  C   UNL     1     -10.264   5.111  69.832  1.00  0.00    -0.361 A  
HETATM    8  C   UNL     1     -11.619   7.058  70.299  1.00  0.00    -0.309 A  
HETATM    9  C   UNL     1     -10.478   5.923  72.097  1.00  0.00    -0.250 A  
HETATM   10  C   UNL     1      -9.960   5.000  71.188  1.00  0.00    -0.276 A  
HETATM   11  C   UNL     1     -11.105   6.130  69.390  1.00  0.00    -0.479 A  
ENDBRANCH   5   6
ENDBRANCH   4   5
BRANCH   4  12
HETATM   12  C   UNL     1     -12.552  10.271  71.705  1.00  0.00    -0.432 C  
BRANCH  12  13
HETATM   13  O   UNL     1     -12.985  10.567  70.361  1.00  0.00    -0.314 OA 
BRANCH  13  14
HETATM   14  C   UNL     1     -11.989  10.829  69.484  1.00  0.00    -0.292 C  
HETATM   15  H1  UNL     1     -10.040  10.904  69.432  1.00  0.00     0.000 HD 
HETATM   16  O   UNL     1     -12.120  11.138  68.311  1.00  0.00    -0.620 OA 
HETATM   17  N   UNL     1     -10.791  10.706  70.092  1.00  0.00    -0.451 N  
HETATM   18  H2  UNL     1     -10.656  10.451  71.071  1.00  0.00     0.000 HD 
ENDBRANCH  13  14
ENDBRANCH  12  13
ENDBRANCH   4  12
TORSDOF 5
ENDMDL
MODEL       31
REMARK 921   NORMALIZED FREE ENERGY PREDICTED BY IDOCK:   -4.86 KCAL/MOL
REMARK 922        TOTAL FREE ENERGY PREDICTED BY IDOCK:   -6.48 KCAL/MOL
REMARK 923 INTER-LIGAND FREE ENERGY PREDICTED BY IDOCK:   -5.92 KCAL/MOL
REMARK 924 INTRA-LIGAND FREE ENERGY PREDICTED BY IDOCK:   -0.57 KCAL/MOL
REMARK 927      BINDING AFFINITY PREDICTED BY RF-SCORE:    0.00 PKD
ROOT
HETATM    1  N   UNL     1     -12.734  14.243  69.331  1.00  0.00    -0.420 NA 
HETATM    2  H1  UNL     1     -13.626  13.749  69.357  1.00  0.00     0.000 HD 
HETATM    3  H2  UNL     1     -12.834  15.228  69.581  1.00  0.00     0.000 HD 
HETATM    4  C   UNL     1     -12.096  14.069  68.008  1.00  0.00    -0.277 C  
ENDROOT
BRANCH   4   5
HETATM    5  C   UNL     1     -11.900  12.575  67.658  1.00  0.00    -0.381 C  
BRANCH   5   6
HETATM    6  C   UNL     1     -11.642  12.329  66.187  1.00  0.00    -0.450 A  
HETATM    7  C   UNL     1     -11.270  11.726  63.472  1.00  0.00    -0.494 A  
HETATM    8  C   UNL     1     -10.573  11.519  65.777  1.00  0.00    -0.315 A  
HETATM    9  C   UNL     1     -12.491  12.871  65.213  1.00  0.00    -0.552 A  
HETATM   10  C   UNL     1     -12.313  12.563  63.864  1.00  0.00    -0.576 A  
HETATM   11  C   UNL     1     -10.392  11.217  64.426  1.00  0.00    -0.407 A  
ENDBRANCH   5   6
ENDBRANCH   4   5
BRANCH   4  12
HETATM   12  C   UNL     1     -10.744  14.816  67.970  1.00  0.00    -0.248 C  
BRANCH  12  13
HETATM   13  O   UNL     1     -10.815  15.956  67.089  1.00  0.00    -0.319 OA 
BRANCH  13  14
HETATM   14  C   UNL     1     -10.315  15.753  65.849  1.00  0.00    -0.354 C  
HETATM   15  H1  UNL     1      -8.809  14.865  64.984  1.00  0.00     0.000 HD 
HETATM   16  O   UNL     1     -10.788  16.163  64.802  1.00  0.00    -0.634 OA 
HETATM   17  N   UNL     1      -9.186  15.017  65.919  1.00  0.00    -0.489 N  
HETATM   18  H2  UNL     1      -8.770  14.666  66.782  1.00  0.00     0.000 HD 
ENDBRANCH  13  14
ENDBRANCH  12  13
ENDBRANCH   4  12
TORSDOF 5
ENDMDL
MODEL       32
REMARK 921   NORMALIZED FREE ENERGY PREDICTED BY IDOCK:   -4.86 KCAL/MOL
REMARK 922        TOTAL FREE ENERGY PREDICTED BY IDOCK:   -6.48 KCAL/MOL
REMARK 923 INTER-LIGAND FREE ENERGY PREDICTED BY IDOCK:   -6.16 KCAL/MOL
REMARK 924 INTRA-LIGAND FREE ENERGY PREDICTED BY IDOCK:   -0.32 KCAL/MOL
REMARK 927      BINDING AFFINITY PREDICTED BY RF-SCORE:    0.00 PKD
ROOT
HETATM    1  N   UNL     1     -12.518  14.460  63.554  1.00  0.00    -1.090 NA 
HETATM    2  H1  UNL     1     -13.255  13.758  63.485  1.00  0.00     0.000 HD 
HETATM    3  H2  UNL     1     -12.041  14.603  62.663  1.00  0.00     0.000 HD 
HETATM    4  C   UNL     1     -11.576  14.102  64.636  1.00  0.00    -0.406 C  
ENDROOT
BRANCH   4   5
HETATM    5  C   UNL     1     -12.298  13.938  65.994  1.00  0.00    -0.511 C  
BRANCH   5   6
HETATM    6  C   UNL     1     -11.760  12.796  66.830  1.00  0.00    -0.459 A  
HETATM    7  C   UNL     1     -10.925  10.599  68.361  1.00  0.00    -0.303 A  
HETATM    8  C   UNL     1     -11.909  12.802  68.224  1.00  0.00    -0.357 A  
HETATM    9  C   UNL     1     -11.143  11.696  66.220  1.00  0.00    -0.345 A  
HETATM   10  C   UNL     1     -10.737  10.598  66.980  1.00  0.00    -0.317 A  
HETATM   11  C   UNL     1     -11.497  11.706  68.984  1.00  0.00    -0.356 A  
ENDBRANCH   5   6
ENDBRANCH   4   5
BRANCH   4  12
HETATM   12  C   UNL     1     -10.461  15.166  64.740  1.00  0.00    -0.209 C  
BRANCH  12  13
HETATM   13  O   UNL     1     -10.976  16.478  64.438  1.00  0.00    -0.872 OA 
BRANCH  13  14
HETATM   14  C   UNL     1     -10.707  17.425  65.365  1.00  0.00    -0.035 C  
HETATM   15  H1  UNL     1     -10.125  17.560  67.223  1.00  0.00     0.000 HD 
HETATM   16  O   UNL     1     -10.788  18.633  65.211  1.00  0.00    -0.591 OA 
HETATM   17  N   UNL     1     -10.328  16.847  66.524  1.00  0.00    -0.311 N  
HETATM   18  H2  UNL     1     -10.255  15.841  66.678  1.00  0.00     0.000 HD 
ENDBRANCH  13  14
ENDBRANCH  12  13
ENDBRANCH   4  12
TORSDOF 5
ENDMDL
MODEL       33
REMARK 921   NORMALIZED FREE ENERGY PREDICTED BY IDOCK:   -4.83 KCAL/MOL
REMARK 922        TOTAL FREE ENERGY PREDICTED BY IDOCK:   -6.44 KCAL/MOL
REMARK 923 INTER-LIGAND FREE ENERGY PREDICTED BY IDOCK:   -6.17 KCAL/MOL
REMARK 924 INTRA-LIGAND FREE ENERGY PREDICTED BY IDOCK:   -0.27 KCAL/MOL
REMARK 927      BINDING AFFINITY PREDICTED BY RF-SCORE:    0.00 PKD
ROOT
HETATM    1  N   UNL     1     -12.013  11.481  68.027  1.00  0.00    -0.627 NA 
HETATM    2  H1  UNL     1     -12.073  11.857  68.973  1.00  0.00     0.000 HD 
HETATM    3  H2  UNL     1     -11.492  10.604  67.995  1.00  0.00     0.000 HD 
HETATM    4  C   UNL     1     -11.446  12.496  67.113  1.00  0.00    -0.351 C  
ENDROOT
BRANCH   4   5
HETATM    5  C   UNL     1     -12.271  13.804  67.127  1.00  0.00    -0.352 C  
BRANCH   5   6
HETATM    6  C   UNL     1     -11.589  14.940  67.860  1.00  0.00    -0.364 A  
HETATM    7  C   UNL     1     -10.470  17.148  69.180  1.00  0.00    -0.296 A  
HETATM    8  C   UNL     1     -10.758  15.835  67.172  1.00  0.00    -0.312 A  
HETATM    9  C   UNL     1     -11.812  15.141  69.229  1.00  0.00    -0.347 A  
HETATM   10  C   UNL     1     -11.264  16.244  69.883  1.00  0.00    -0.319 A  
HETATM   11  C   UNL     1     -10.204  16.935  67.829  1.00  0.00    -0.308 A  
ENDBRANCH   5   6
ENDBRANCH   4   5
BRANCH   4  12
HETATM   12  C   UNL     1     -11.357  11.927  65.680  1.00  0.00    -0.284 C  
BRANCH  12  13
HETATM   13  O   UNL     1     -12.529  12.278  64.916  1.00  0.00    -0.500 OA 
BRANCH  13  14
HETATM   14  C   UNL     1     -12.303  12.540  63.609  1.00  0.00    -0.522 C  
HETATM   15  H1  UNL     1     -11.553  11.672  62.030  1.00  0.00     0.000 HD 
HETATM   16  O   UNL     1     -12.569  13.575  63.021  1.00  0.00    -0.716 OA 
HETATM   17  N   UNL     1     -11.724  11.475  63.016  1.00  0.00    -0.874 N  
HETATM   18  H2  UNL     1     -11.490  10.600  63.486  1.00  0.00     0.000 HD 
ENDBRANCH  13  14
ENDBRANCH  12  13
ENDBRANCH   4  12
TORSDOF 5
ENDMDL
MODEL       34
REMARK 921   NORMALIZED FREE ENERGY PREDICTED BY IDOCK:   -4.83 KCAL/MOL
REMARK 922        TOTAL FREE ENERGY PREDICTED BY IDOCK:   -6.43 KCAL/MOL
REMARK 923 INTER-LIGAND FREE ENERGY PREDICTED BY IDOCK:   -6.25 KCAL/MOL
REMARK 924 INTRA-LIGAND FREE ENERGY PREDICTED BY IDOCK:   -0.18 KCAL/MOL
REMARK 927      BINDING AFFINITY PREDICTED BY RF-SCORE:    0.00 PKD
ROOT
HETATM    1  N   UNL     1      -9.428  14.469  69.134  1.00  0.00    -0.396 NA 
HETATM    2  H1  UNL     1      -9.442  14.209  70.120  1.00  0.00     0.000 HD 
HETATM    3  H2  UNL     1      -8.525  14.853  68.852  1.00  0.00     0.000 HD 
HETATM    4  C   UNL     1     -10.541  15.397  68.838  1.00  0.00    -0.244 C  
ENDROOT
BRANCH   4   5
HETATM    5  C   UNL     1     -11.911  14.788  69.220  1.00  0.00    -0.352 C  
BRANCH   5   6
HETATM    6  C   UNL     1     -12.336  15.101  70.639  1.00  0.00    -0.420 A  
HETATM    7  C   UNL     1     -13.215  15.822  73.204  1.00  0.00    -0.694 A  
HETATM    8  C   UNL     1     -11.570  15.961  71.439  1.00  0.00    -0.529 A  
HETATM    9  C   UNL     1     -13.522  14.569  71.162  1.00  0.00    -0.396 A  
HETATM   10  C   UNL     1     -13.965  14.936  72.433  1.00  0.00    -0.582 A  
HETATM   11  C   UNL     1     -12.011  16.322  72.714  1.00  0.00    -0.636 A  
ENDBRANCH   5   6
ENDBRANCH   4   5
BRANCH   4  12
HETATM   12  C   UNL     1     -10.520  15.789  67.345  1.00  0.00    -0.297 C  
BRANCH  12  13
HETATM   13  O   UNL     1      -9.869  17.062  67.160  1.00  0.00    -0.255 OA 
BRANCH  13  14
HETATM   14  C   UNL     1     -10.304  17.779  66.098  1.00  0.00    -0.340 C  
HETATM   15  H1  UNL     1     -10.500  19.639  65.544  1.00  0.00     0.000 HD 
HETATM   16  O   UNL     1     -10.756  17.329  65.058  1.00  0.00    -0.708 OA 
HETATM   17  N   UNL     1     -10.172  19.099  66.344  1.00  0.00    -0.406 N  
HETATM   18  H2  UNL     1      -9.800  19.499  67.205  1.00  0.00     0.000 HD 
ENDBRANCH  13  14
ENDBRANCH  12  13
ENDBRANCH   4  12
TORSDOF 5
ENDMDL
MODEL       35
REMARK 921   NORMALIZED FREE ENERGY PREDICTED BY IDOCK:   -4.79 KCAL/MOL
REMARK 922        TOTAL FREE ENERGY PREDICTED BY IDOCK:   -6.39 KCAL/MOL
REMARK 923 INTER-LIGAND FREE ENERGY PREDICTED BY IDOCK:   -5.94 KCAL/MOL
REMARK 924 INTRA-LIGAND FREE ENERGY PREDICTED BY IDOCK:   -0.46 KCAL/MOL
REMARK 927      BINDING AFFINITY PREDICTED BY RF-SCORE:    0.00 PKD
ROOT
HETATM    1  N   UNL     1     -13.710  13.013  72.222  1.00  0.00    -0.557 NA 
HETATM    2  H1  UNL     1     -13.516  12.083  71.850  1.00  0.00     0.000 HD 
HETATM    3  H2  UNL     1     -14.670  13.098  72.558  1.00  0.00     0.000 HD 
HETATM    4  C   UNL     1     -13.384  14.041  71.211  1.00  0.00    -0.272 C  
ENDROOT
BRANCH   4   5
HETATM    5  C   UNL     1     -11.913  13.939  70.743  1.00  0.00    -0.348 C  
BRANCH   5   6
HETATM    6  C   UNL     1     -11.759  13.344  69.359  1.00  0.00    -0.382 A  
HETATM    7  C   UNL     1     -11.651  12.202  66.799  1.00  0.00    -0.412 A  
HETATM    8  C   UNL     1     -11.454  11.985  69.198  1.00  0.00    -0.357 A  
HETATM    9  C   UNL     1     -11.960  14.131  68.218  1.00  0.00    -0.367 A  
HETATM   10  C   UNL     1     -11.917  13.562  66.945  1.00  0.00    -0.447 A  
HETATM   11  C   UNL     1     -11.404  11.417  67.923  1.00  0.00    -0.371 A  
ENDBRANCH   5   6
ENDBRANCH   4   5
BRANCH   4  12
HETATM   12  C   UNL     1     -13.676  15.449  71.774  1.00  0.00    -0.511 C  
BRANCH  12  13
HETATM   13  O   UNL     1     -13.892  15.395  73.198  1.00  0.00    -0.394 OA 
BRANCH  13  14
HETATM   14  C   UNL     1     -12.882  15.892  73.949  1.00  0.00    -0.539 C  
HETATM   15  H1  UNL     1     -11.378  15.259  75.018  1.00  0.00     0.000 HD 
HETATM   16  O   UNL     1     -12.651  17.071  74.162  1.00  0.00    -0.422 OA 
HETATM   17  N   UNL     1     -12.139  14.884  74.452  1.00  0.00    -0.557 N  
HETATM   18  H2  UNL     1     -12.314  13.892  74.290  1.00  0.00     0.000 HD 
ENDBRANCH  13  14
ENDBRANCH  12  13
ENDBRANCH   4  12
TORSDOF 5
ENDMDL
MODEL       36
REMARK 921   NORMALIZED FREE ENERGY PREDICTED BY IDOCK:   -4.77 KCAL/MOL
REMARK 922        TOTAL FREE ENERGY PREDICTED BY IDOCK:   -6.37 KCAL/MOL
REMARK 923 INTER-LIGAND FREE ENERGY PREDICTED BY IDOCK:   -6.09 KCAL/MOL
REMARK 924 INTRA-LIGAND FREE ENERGY PREDICTED BY IDOCK:   -0.28 KCAL/MOL
REMARK 927      BINDING AFFINITY PREDICTED BY RF-SCORE:    0.00 PKD
ROOT
HETATM    1  N   UNL     1     -10.763  13.439  69.419  1.00  0.00    -0.446 NA 
HETATM    2  H1  UNL     1     -10.616  13.017  70.336  1.00  0.00     0.000 HD 
HETATM    3  H2  UNL     1     -10.979  14.434  69.486  1.00  0.00     0.000 HD 
HETATM    4  C   UNL     1     -11.805  12.694  68.680  1.00  0.00    -0.302 C  
ENDROOT
BRANCH   4   5
HETATM    5  C   UNL     1     -11.448  11.196  68.537  1.00  0.00    -0.371 C  
BRANCH   5   6
HETATM    6  C   UNL     1     -11.553  10.424  69.835  1.00  0.00    -0.358 A  
HETATM    7  C   UNL     1     -11.799   8.849  72.144  1.00  0.00    -0.417 A  
HETATM    8  C   UNL     1     -12.761  10.385  70.546  1.00  0.00    -0.355 A  
HETATM    9  C   UNL     1     -10.457   9.701  70.326  1.00  0.00    -0.338 A  
HETATM   10  C   UNL     1     -10.582   8.910  71.468  1.00  0.00    -0.399 A  
HETATM   11  C   UNL     1     -12.883   9.598  71.692  1.00  0.00    -0.499 A  
ENDBRANCH   5   6
ENDBRANCH   4   5
BRANCH   4  12
HETATM   12  C   UNL     1     -12.027  13.333  67.291  1.00  0.00    -0.343 C  
BRANCH  12  13
HETATM   13  O   UNL     1     -12.274  12.319  66.296  1.00  0.00    -0.628 OA 
BRANCH  13  14
HETATM   14  C   UNL     1     -12.617  12.787  65.074  1.00  0.00    -0.468 C  
HETATM   15  H1  UNL     1     -12.396  14.390  63.984  1.00  0.00     0.000 HD 
HETATM   16  O   UNL     1     -13.267  12.195  64.229  1.00  0.00    -0.768 OA 
HETATM   17  N   UNL     1     -12.136  14.036  64.904  1.00  0.00    -0.398 N  
HETATM   18  H2  UNL     1     -11.593  14.552  65.597  1.00  0.00     0.000 HD 
ENDBRANCH  13  14
ENDBRANCH  12  13
ENDBRANCH   4  12
TORSDOF 5
ENDMDL
MODEL       37
REMARK 921   NORMALIZED FREE ENERGY PREDICTED BY IDOCK:   -4.75 KCAL/MOL
REMARK 922        TOTAL FREE ENERGY PREDICTED BY IDOCK:   -6.33 KCAL/MOL
REMARK 923 INTER-LIGAND FREE ENERGY PREDICTED BY IDOCK:   -6.09 KCAL/MOL
REMARK 924 INTRA-LIGAND FREE ENERGY PREDICTED BY IDOCK:   -0.25 KCAL/MOL
REMARK 927      BINDING AFFINITY PREDICTED BY RF-SCORE:    0.00 PKD
ROOT
HETATM    1  N   UNL     1      -9.910  13.669  68.715  1.00  0.00    -0.403 NA 
HETATM    2  H1  UNL     1      -9.385  13.714  67.841  1.00  0.00     0.000 HD 
HETATM    3  H2  UNL     1      -9.350  13.288  69.478  1.00  0.00     0.000 HD 
HETATM    4  C   UNL     1     -11.163  12.910  68.514  1.00  0.00    -0.274 C  
ENDROOT
BRANCH   4   5
HETATM    5  C   UNL     1     -12.031  13.523  67.390  1.00  0.00    -0.398 C  
BRANCH   5   6
HETATM    6  C   UNL     1     -11.801  12.888  66.035  1.00  0.00    -0.485 A  
HETATM    7  C   UNL     1     -11.224  11.810  63.509  1.00  0.00    -0.494 A  
HETATM    8  C   UNL     1     -12.314  13.482  64.873  1.00  0.00    -0.447 A  
HETATM    9  C   UNL     1     -11.035  11.720  65.916  1.00  0.00    -0.354 A  
HETATM   10  C   UNL     1     -10.739  11.190  64.660  1.00  0.00    -0.350 A  
HETATM   11  C   UNL     1     -12.023  12.946  63.617  1.00  0.00    -0.613 A  
ENDBRANCH   5   6
ENDBRANCH   4   5
BRANCH   4  12
HETATM   12  C   UNL     1     -11.959  12.843  69.836  1.00  0.00    -0.307 C  
BRANCH  12  13
HETATM   13  O   UNL     1     -12.166  14.164  70.376  1.00  0.00    -0.312 OA 
BRANCH  13  14
HETATM   14  C   UNL     1     -13.249  14.291  71.176  1.00  0.00    -0.321 C  
HETATM   15  H1  UNL     1     -14.784  15.470  71.418  1.00  0.00     0.000 HD 
HETATM   16  O   UNL     1     -13.557  13.556  72.100  1.00  0.00    -0.468 OA 
HETATM   17  N   UNL     1     -13.968  15.374  70.815  1.00  0.00    -0.859 N  
HETATM   18  H2  UNL     1     -13.730  16.004  70.049  1.00  0.00     0.000 HD 
ENDBRANCH  13  14
ENDBRANCH  12  13
ENDBRANCH   4  12
TORSDOF 5
ENDMDL
MODEL       38
REMARK 921   NORMALIZED FREE ENERGY PREDICTED BY IDOCK:   -4.72 KCAL/MOL
REMARK 922        TOTAL FREE ENERGY PREDICTED BY IDOCK:   -6.30 KCAL/MOL
REMARK 923 INTER-LIGAND FREE ENERGY PREDICTED BY IDOCK:   -5.95 KCAL/MOL
REMARK 924 INTRA-LIGAND FREE ENERGY PREDICTED BY IDOCK:   -0.35 KCAL/MOL
REMARK 927      BINDING AFFINITY PREDICTED BY RF-SCORE:    0.00 PKD
ROOT
HETATM    1  N   UNL     1     -11.661  16.237  63.928  1.00  0.00    -1.573 NA 
HETATM    2  H1  UNL     1     -12.389  15.964  63.269  1.00  0.00     0.000 HD 
HETATM    3  H2  UNL     1     -10.916  16.770  63.476  1.00  0.00     0.000 HD 
HETATM    4  C   UNL     1     -11.140  15.045  64.632  1.00  0.00    -0.321 C  
ENDROOT
BRANCH   4   5
HETATM    5  C   UNL     1     -12.266  14.271  65.357  1.00  0.00    -0.408 C  
BRANCH   5   6
HETATM    6  C   UNL     1     -11.768  13.081  66.149  1.00  0.00    -0.445 A  
HETATM    7  C   UNL     1     -10.691  10.967  67.647  1.00  0.00    -0.288 A  
HETATM    8  C   UNL     1     -11.044  12.059  65.520  1.00  0.00    -0.361 A  
HETATM    9  C   UNL     1     -11.986  13.002  67.531  1.00  0.00    -0.360 A  
HETATM   10  C   UNL     1     -11.441  11.957  68.278  1.00  0.00    -0.372 A  
HETATM   11  C   UNL     1     -10.505  11.009  66.267  1.00  0.00    -0.310 A  
ENDBRANCH   5   6
ENDBRANCH   4   5
BRANCH   4  12
HETATM   12  C   UNL     1     -10.038  15.459  65.631  1.00  0.00    -0.376 C  
BRANCH  12  13
HETATM   13  O   UNL     1     -10.392  16.684  66.305  1.00  0.00    -0.311 OA 
BRANCH  13  14
HETATM   14  C   UNL     1     -10.388  16.615  67.655  1.00  0.00    -0.305 C  
HETATM   15  H1  UNL     1      -9.128  16.371  69.125  1.00  0.00     0.000 HD 
HETATM   16  O   UNL     1     -11.360  16.707  68.387  1.00  0.00    -0.321 OA 
HETATM   17  N   UNL     1      -9.131  16.423  68.107  1.00  0.00    -0.198 N  
HETATM   18  H2  UNL     1      -8.304  16.341  67.515  1.00  0.00     0.000 HD 
ENDBRANCH  13  14
ENDBRANCH  12  13
ENDBRANCH   4  12
TORSDOF 5
ENDMDL
MODEL       39
REMARK 921   NORMALIZED FREE ENERGY PREDICTED BY IDOCK:   -4.71 KCAL/MOL
REMARK 922        TOTAL FREE ENERGY PREDICTED BY IDOCK:   -6.29 KCAL/MOL
REMARK 923 INTER-LIGAND FREE ENERGY PREDICTED BY IDOCK:   -5.97 KCAL/MOL
REMARK 924 INTRA-LIGAND FREE ENERGY PREDICTED BY IDOCK:   -0.31 KCAL/MOL
REMARK 927      BINDING AFFINITY PREDICTED BY RF-SCORE:    0.00 PKD
ROOT
HETATM    1  N   UNL     1      -8.836  14.857  66.167  1.00  0.00    -0.467 NA 
HETATM    2  H1  UNL     1      -8.171  15.580  66.441  1.00  0.00     0.000 HD 
HETATM    3  H2  UNL     1      -8.537  14.360  65.328  1.00  0.00     0.000 HD 
HETATM    4  C   UNL     1     -10.186  15.442  66.012  1.00  0.00    -0.324 C  
ENDROOT
BRANCH   4   5
HETATM    5  C   UNL     1     -10.655  16.151  67.305  1.00  0.00    -0.305 C  
BRANCH   5   6
HETATM    6  C   UNL     1     -10.355  17.635  67.323  1.00  0.00    -0.354 A  
HETATM    7  C   UNL     1      -9.976  20.414  67.387  1.00  0.00    -0.556 A  
HETATM    8  C   UNL     1     -10.419  18.389  66.143  1.00  0.00    -0.422 A  
HETATM    9  C   UNL     1     -10.051  18.286  68.526  1.00  0.00    -0.419 A  
HETATM   10  C   UNL     1      -9.873  19.669  68.560  1.00  0.00    -0.519 A  
HETATM   11  C   UNL     1     -10.234  19.773  66.177  1.00  0.00    -0.618 A  
ENDBRANCH   5   6
ENDBRANCH   4   5
BRANCH   4  12
HETATM   12  C   UNL     1     -11.193  14.348  65.597  1.00  0.00    -0.323 C  
BRANCH  12  13
HETATM   13  O   UNL     1     -12.082  14.032  66.688  1.00  0.00    -0.428 OA 
BRANCH  13  14
HETATM   14  C   UNL     1     -11.896  12.812  67.241  1.00  0.00    -0.350 C  
HETATM   15  H1  UNL     1     -11.657  12.001  69.000  1.00  0.00     0.000 HD 
HETATM   16  O   UNL     1     -11.822  11.750  66.644  1.00  0.00    -0.569 OA 
HETATM   17  N   UNL     1     -11.798  12.920  68.582  1.00  0.00    -0.319 N  
HETATM   18  H2  UNL     1     -11.854  13.796  69.103  1.00  0.00     0.000 HD 
ENDBRANCH  13  14
ENDBRANCH  12  13
ENDBRANCH   4  12
TORSDOF 5
ENDMDL
MODEL       40
REMARK 921   NORMALIZED FREE ENERGY PREDICTED BY IDOCK:   -4.64 KCAL/MOL
REMARK 922        TOTAL FREE ENERGY PREDICTED BY IDOCK:   -6.19 KCAL/MOL
REMARK 923 INTER-LIGAND FREE ENERGY PREDICTED BY IDOCK:   -5.94 KCAL/MOL
REMARK 924 INTRA-LIGAND FREE ENERGY PREDICTED BY IDOCK:   -0.25 KCAL/MOL
REMARK 927      BINDING AFFINITY PREDICTED BY RF-SCORE:    0.00 PKD
ROOT
HETATM    1  N   UNL     1     -12.257  10.566  68.900  1.00  0.00    -0.773 NA 
HETATM    2  H1  UNL     1     -12.322  10.024  68.039  1.00  0.00     0.000 HD 
HETATM    3  H2  UNL     1     -13.072  10.432  69.500  1.00  0.00     0.000 HD 
HETATM    4  C   UNL     1     -12.029  11.993  68.586  1.00  0.00    -0.235 C  
ENDROOT
BRANCH   4   5
HETATM    5  C   UNL     1     -10.763  12.194  67.719  1.00  0.00    -0.241 C  
BRANCH   5   6
HETATM    6  C   UNL     1     -11.033  12.130  66.231  1.00  0.00    -0.332 A  
HETATM    7  C   UNL     1     -11.649  11.876  63.505  1.00  0.00    -0.537 A  
HETATM    8  C   UNL     1     -10.269  11.295  65.403  1.00  0.00    -0.323 A  
HETATM    9  C   UNL     1     -12.078  12.872  65.663  1.00  0.00    -0.511 A  
HETATM   10  C   UNL     1     -12.391  12.738  64.311  1.00  0.00    -0.493 A  
HETATM   11  C   UNL     1     -10.579  11.167  64.048  1.00  0.00    -0.436 A  
ENDBRANCH   5   6
ENDBRANCH   4   5
BRANCH   4  12
HETATM   12  C   UNL     1     -11.928  12.814  69.890  1.00  0.00    -0.298 C  
BRANCH  12  13
HETATM   13  O   UNL     1     -11.943  14.228  69.607  1.00  0.00    -0.297 OA 
BRANCH  13  14
HETATM   14  C   UNL     1     -12.122  15.025  70.684  1.00  0.00    -0.321 C  
HETATM   15  H1  UNL     1     -13.392  16.343  71.360  1.00  0.00     0.000 HD 
HETATM   16  O   UNL     1     -11.384  15.111  71.652  1.00  0.00    -0.381 OA 
HETATM   17  N   UNL     1     -13.257  15.741  70.548  1.00  0.00    -0.767 N  
HETATM   18  H2  UNL     1     -13.889  15.689  69.749  1.00  0.00     0.000 HD 
ENDBRANCH  13  14
ENDBRANCH  12  13
ENDBRANCH   4  12
TORSDOF 5
ENDMDL
MODEL       41
REMARK 921   NORMALIZED FREE ENERGY PREDICTED BY IDOCK:   -4.64 KCAL/MOL
REMARK 922        TOTAL FREE ENERGY PREDICTED BY IDOCK:   -6.19 KCAL/MOL
REMARK 923 INTER-LIGAND FREE ENERGY PREDICTED BY IDOCK:   -5.60 KCAL/MOL
REMARK 924 INTRA-LIGAND FREE ENERGY PREDICTED BY IDOCK:   -0.59 KCAL/MOL
REMARK 927      BINDING AFFINITY PREDICTED BY RF-SCORE:    0.00 PKD
ROOT
HETATM    1  N   UNL     1     -12.753  11.392  62.727  1.00  0.00    -0.722 NA 
HETATM    2  H1  UNL     1     -13.741  11.610  62.859  1.00  0.00     0.000 HD 
HETATM    3  H2  UNL     1     -12.587  10.387  62.666  1.00  0.00     0.000 HD 
HETATM    4  C   UNL     1     -11.947  12.023  63.794  1.00  0.00    -0.490 C  
ENDROOT
BRANCH   4   5
HETATM    5  C   UNL     1     -12.164  13.554  63.847  1.00  0.00    -0.458 C  
BRANCH   5   6
HETATM    6  C   UNL     1     -11.602  14.200  65.096  1.00  0.00    -0.344 A  
HETATM    7  C   UNL     1     -10.691  15.524  67.396  1.00  0.00    -0.301 A  
HETATM    8  C   UNL     1     -10.621  15.197  65.002  1.00  0.00    -0.439 A  
HETATM    9  C   UNL     1     -12.084  13.843  66.362  1.00  0.00    -0.489 A  
HETATM   10  C   UNL     1     -11.639  14.508  67.505  1.00  0.00    -0.403 A  
HETATM   11  C   UNL     1     -10.171  15.857  66.147  1.00  0.00    -0.340 A  
ENDBRANCH   5   6
ENDBRANCH   4   5
BRANCH   4  12
HETATM   12  C   UNL     1     -10.451  11.694  63.593  1.00  0.00    -0.429 C  
BRANCH  12  13
HETATM   13  O   UNL     1     -10.040  10.627  64.471  1.00  0.00    -0.320 OA 
BRANCH  13  14
HETATM   14  C   UNL     1      -9.818  10.994  65.753  1.00  0.00    -0.235 C  
HETATM   15  H1  UNL     1      -8.703  12.229  66.771  1.00  0.00     0.000 HD 
HETATM   16  O   UNL     1     -10.374  10.543  66.741  1.00  0.00    -0.228 OA 
HETATM   17  N   UNL     1      -8.870  11.953  65.804  1.00  0.00    -0.407 N  
HETATM   18  H2  UNL     1      -8.390  12.344  64.993  1.00  0.00     0.000 HD 
ENDBRANCH  13  14
ENDBRANCH  12  13
ENDBRANCH   4  12
TORSDOF 5
ENDMDL
MODEL       42
REMARK 921   NORMALIZED FREE ENERGY PREDICTED BY IDOCK:   -4.63 KCAL/MOL
REMARK 922        TOTAL FREE ENERGY PREDICTED BY IDOCK:   -6.18 KCAL/MOL
REMARK 923 INTER-LIGAND FREE ENERGY PREDICTED BY IDOCK:   -5.95 KCAL/MOL
REMARK 924 INTRA-LIGAND FREE ENERGY PREDICTED BY IDOCK:   -0.24 KCAL/MOL
REMARK 927      BINDING AFFINITY PREDICTED BY RF-SCORE:    0.00 PKD
ROOT
HETATM    1  N   UNL     1      -9.006  15.173  69.394  1.00  0.00    -0.380 NA 
HETATM    2  H1  UNL     1      -9.025  14.321  69.956  1.00  0.00     0.000 HD 
HETATM    3  H2  UNL     1      -8.199  15.758  69.614  1.00  0.00     0.000 HD 
HETATM    4  C   UNL     1     -10.281  15.907  69.543  1.00  0.00    -0.279 C  
ENDROOT
BRANCH   4   5
HETATM    5  C   UNL     1     -11.496  15.030  69.160  1.00  0.00    -0.320 C  
BRANCH   5   6
HETATM    6  C   UNL     1     -12.303  14.562  70.352  1.00  0.00    -0.400 A  
HETATM    7  C   UNL     1     -13.941  13.676  72.451  1.00  0.00    -0.651 A  
HETATM    8  C   UNL     1     -13.019  15.480  71.133  1.00  0.00    -0.560 A  
HETATM    9  C   UNL     1     -12.382  13.199  70.669  1.00  0.00    -0.405 A  
HETATM   10  C   UNL     1     -13.205  12.758  71.706  1.00  0.00    -0.471 A  
HETATM   11  C   UNL     1     -13.837  15.038  72.175  1.00  0.00    -0.584 A  
ENDBRANCH   5   6
ENDBRANCH   4   5
BRANCH   4  12
HETATM   12  C   UNL     1     -10.253  17.196  68.692  1.00  0.00    -0.336 C  
BRANCH  12  13
HETATM   13  O   UNL     1      -8.952  17.816  68.747  1.00  0.00    -0.277 OA 
BRANCH  13  14
HETATM   14  C   UNL     1      -8.951  19.158  68.578  1.00  0.00    -0.363 C  
HETATM   15  H1  UNL     1     -10.167  20.675  68.741  1.00  0.00     0.000 HD 
HETATM   16  O   UNL     1      -8.007  19.841  68.215  1.00  0.00    -0.321 OA 
HETATM   17  N   UNL     1     -10.168  19.664  68.868  1.00  0.00    -0.599 N  
HETATM   18  H2  UNL     1     -10.972  19.114  69.171  1.00  0.00     0.000 HD 
ENDBRANCH  13  14
ENDBRANCH  12  13
ENDBRANCH   4  12
TORSDOF 5
ENDMDL
MODEL       43
REMARK 921   NORMALIZED FREE ENERGY PREDICTED BY IDOCK:   -4.62 KCAL/MOL
REMARK 922        TOTAL FREE ENERGY PREDICTED BY IDOCK:   -6.17 KCAL/MOL
REMARK 923 INTER-LIGAND FREE ENERGY PREDICTED BY IDOCK:   -6.33 KCAL/MOL
REMARK 924 INTRA-LIGAND FREE ENERGY PREDICTED BY IDOCK:    0.17 KCAL/MOL
REMARK 927      BINDING AFFINITY PREDICTED BY RF-SCORE:    0.00 PKD
ROOT
HETATM    1  N   UNL     1     -12.532  11.748  63.251  1.00  0.00    -0.904 NA 
HETATM    2  H1  UNL     1     -12.093  11.092  62.605  1.00  0.00     0.000 HD 
HETATM    3  H2  UNL     1     -13.437  12.074  62.909  1.00  0.00     0.000 HD 
HETATM    4  C   UNL     1     -11.612  12.870  63.537  1.00  0.00    -0.468 C  
ENDROOT
BRANCH   4   5
HETATM    5  C   UNL     1     -10.261  12.374  64.103  1.00  0.00    -0.377 C  
BRANCH   5   6
HETATM    6  C   UNL     1     -10.407  11.322  65.182  1.00  0.00    -0.353 A  
HETATM    7  C   UNL     1     -10.525   9.433  67.253  1.00  0.00    -0.332 A  
HETATM    8  C   UNL     1      -9.836  10.051  65.020  1.00  0.00    -0.374 A  
HETATM    9  C   UNL     1     -11.080  11.614  66.376  1.00  0.00    -0.347 A  
HETATM   10  C   UNL     1     -11.129  10.679  67.410  1.00  0.00    -0.341 A  
HETATM   11  C   UNL     1      -9.892   9.114  66.054  1.00  0.00    -0.342 A  
ENDBRANCH   5   6
ENDBRANCH   4   5
BRANCH   4  12
HETATM   12  C   UNL     1     -12.277  13.864  64.516  1.00  0.00    -0.417 C  
BRANCH  12  13
HETATM   13  O   UNL     1     -11.281  14.657  65.194  1.00  0.00    -0.337 OA 
BRANCH  13  14
HETATM   14  C   UNL     1     -11.259  15.964  64.849  1.00  0.00    -0.337 C  
HETATM   15  H1  UNL     1     -10.625  17.672  65.548  1.00  0.00     0.000 HD 
HETATM   16  O   UNL     1     -11.724  16.453  63.832  1.00  0.00    -1.085 OA 
HETATM   17  N   UNL     1     -10.641  16.686  65.807  1.00  0.00    -0.317 N  
HETATM   18  H2  UNL     1     -10.248  16.301  66.666  1.00  0.00     0.000 HD 
ENDBRANCH  13  14
ENDBRANCH  12  13
ENDBRANCH   4  12
TORSDOF 5
ENDMDL
MODEL       44
REMARK 921   NORMALIZED FREE ENERGY PREDICTED BY IDOCK:   -4.61 KCAL/MOL
REMARK 922        TOTAL FREE ENERGY PREDICTED BY IDOCK:   -6.15 KCAL/MOL
REMARK 923 INTER-LIGAND FREE ENERGY PREDICTED BY IDOCK:   -5.74 KCAL/MOL
REMARK 924 INTRA-LIGAND FREE ENERGY PREDICTED BY IDOCK:   -0.41 KCAL/MOL
REMARK 927      BINDING AFFINITY PREDICTED BY RF-SCORE:    0.00 PKD
ROOT
HETATM    1  N   UNL     1     -12.280  10.805  68.695  1.00  0.00    -0.827 NA 
HETATM    2  H1  UNL     1     -12.187   9.801  68.850  1.00  0.00     0.000 HD 
HETATM    3  H2  UNL     1     -11.793  11.108  67.850  1.00  0.00     0.000 HD 
HETATM    4  C   UNL     1     -11.828  11.547  69.892  1.00  0.00    -0.355 C  
ENDROOT
BRANCH   4   5
HETATM    5  C   UNL     1     -12.605  11.118  71.159  1.00  0.00    -0.513 C  
BRANCH   5   6
HETATM    6  C   UNL     1     -12.520   9.635  71.447  1.00  0.00    -0.465 A  
HETATM    7  C   UNL     1     -12.345   6.857  71.802  1.00  0.00    -0.401 A  
HETATM    8  C   UNL     1     -13.678   8.845  71.465  1.00  0.00    -0.394 A  
HETATM    9  C   UNL     1     -11.279   9.019  71.658  1.00  0.00    -0.431 A  
HETATM   10  C   UNL     1     -11.191   7.637  71.824  1.00  0.00    -0.285 A  
HETATM   11  C   UNL     1     -13.590   7.462  71.638  1.00  0.00    -0.449 A  
ENDBRANCH   5   6
ENDBRANCH   4   5
BRANCH   4  12
HETATM   12  C   UNL     1     -11.969  13.067  69.657  1.00  0.00    -0.302 C  
BRANCH  12  13
HETATM   13  O   UNL     1     -11.013  13.524  68.681  1.00  0.00    -0.247 OA 
BRANCH  13  14
HETATM   14  C   UNL     1     -11.498  14.400  67.771  1.00  0.00    -0.336 C  
HETATM   15  H1  UNL     1     -12.840  14.479  66.358  1.00  0.00     0.000 HD 
HETATM   16  O   UNL     1     -11.127  15.550  67.604  1.00  0.00    -0.313 OA 
HETATM   17  N   UNL     1     -12.475  13.819  67.044  1.00  0.00    -0.424 N  
HETATM   18  H2  UNL     1     -12.800  12.860  67.162  1.00  0.00     0.000 HD 
ENDBRANCH  13  14
ENDBRANCH  12  13
ENDBRANCH   4  12
TORSDOF 5
ENDMDL
MODEL       45
REMARK 921   NORMALIZED FREE ENERGY PREDICTED BY IDOCK:   -4.58 KCAL/MOL
REMARK 922        TOTAL FREE ENERGY PREDICTED BY IDOCK:   -6.12 KCAL/MOL
REMARK 923 INTER-LIGAND FREE ENERGY PREDICTED BY IDOCK:   -5.87 KCAL/MOL
REMARK 924 INTRA-LIGAND FREE ENERGY PREDICTED BY IDOCK:   -0.25 KCAL/MOL
REMARK 927      BINDING AFFINITY PREDICTED BY RF-SCORE:    0.00 PKD
ROOT
HETATM    1  N   UNL     1      -9.772  15.047  69.968  1.00  0.00    -0.470 NA 
HETATM    2  H1  UNL     1      -9.259  14.498  69.279  1.00  0.00     0.000 HD 
HETATM    3  H2  UNL     1      -9.560  14.757  70.924  1.00  0.00     0.000 HD 
HETATM    4  C   UNL     1     -11.222  14.993  69.682  1.00  0.00    -0.275 C  
ENDROOT
BRANCH   4   5
HETATM    5  C   UNL     1     -11.542  15.482  68.250  1.00  0.00    -0.344 C  
BRANCH   5   6
HETATM    6  C   UNL     1     -11.674  14.359  67.244  1.00  0.00    -0.429 A  
HETATM    7  C   UNL     1     -11.739  12.283  65.357  1.00  0.00    -0.424 A  
HETATM    8  C   UNL     1     -11.846  14.640  65.881  1.00  0.00    -0.272 A  
HETATM    9  C   UNL     1     -11.585  13.022  67.652  1.00  0.00    -0.403 A  
HETATM   10  C   UNL     1     -11.606  11.990  66.713  1.00  0.00    -0.391 A  
HETATM   11  C   UNL     1     -11.874  13.607  64.943  1.00  0.00    -0.398 A  
ENDBRANCH   5   6
ENDBRANCH   4   5
BRANCH   4  12
HETATM   12  C   UNL     1     -11.999  15.825  70.726  1.00  0.00    -0.407 C  
BRANCH  12  13
HETATM   13  O   UNL     1     -13.336  15.312  70.896  1.00  0.00    -0.445 OA 
BRANCH  13  14
HETATM   14  C   UNL     1     -13.707  15.098  72.179  1.00  0.00    -0.477 C  
HETATM   15  H1  UNL     1     -14.360  13.651  73.313  1.00  0.00     0.000 HD 
HETATM   16  O   UNL     1     -13.718  15.925  73.076  1.00  0.00    -0.591 OA 
HETATM   17  N   UNL     1     -14.080  13.812  72.346  1.00  0.00    -0.546 N  
HETATM   18  H2  UNL     1     -14.082  13.104  71.612  1.00  0.00     0.000 HD 
ENDBRANCH  13  14
ENDBRANCH  12  13
ENDBRANCH   4  12
TORSDOF 5
ENDMDL
MODEL       46
REMARK 921   NORMALIZED FREE ENERGY PREDICTED BY IDOCK:   -4.58 KCAL/MOL
REMARK 922        TOTAL FREE ENERGY PREDICTED BY IDOCK:   -6.11 KCAL/MOL
REMARK 923 INTER-LIGAND FREE ENERGY PREDICTED BY IDOCK:   -5.87 KCAL/MOL
REMARK 924 INTRA-LIGAND FREE ENERGY PREDICTED BY IDOCK:   -0.24 KCAL/MOL
REMARK 927      BINDING AFFINITY PREDICTED BY RF-SCORE:    0.00 PKD
ROOT
HETATM    1  N   UNL     1     -12.287  14.342  63.475  1.00  0.00    -1.122 NA 
HETATM    2  H1  UNL     1     -11.789  14.434  62.589  1.00  0.00     0.000 HD 
HETATM    3  H2  UNL     1     -12.322  15.223  63.988  1.00  0.00     0.000 HD 
HETATM    4  C   UNL     1     -11.690  13.255  64.281  1.00  0.00    -0.407 C  
ENDROOT
BRANCH   4   5
HETATM    5  C   UNL     1     -11.686  11.910  63.516  1.00  0.00    -0.550 C  
BRANCH   5   6
HETATM    6  C   UNL     1     -10.383  11.149  63.639  1.00  0.00    -0.449 A  
HETATM    7  C   UNL     1      -8.051   9.597  63.789  1.00  0.00    -0.148 A  
HETATM    8  C   UNL     1     -10.110  10.383  64.780  1.00  0.00    -0.387 A  
HETATM    9  C   UNL     1      -9.448  11.164  62.595  1.00  0.00    -0.310 A  
HETATM   10  C   UNL     1      -8.293  10.384  62.665  1.00  0.00    -0.189 A  
HETATM   11  C   UNL     1      -8.951   9.608  64.852  1.00  0.00    -0.260 A  
ENDBRANCH   5   6
ENDBRANCH   4   5
BRANCH   4  12
HETATM   12  C   UNL     1     -12.444  13.114  65.621  1.00  0.00    -0.425 C  
BRANCH  12  13
HETATM   13  O   UNL     1     -11.600  13.497  66.725  1.00  0.00    -0.330 OA 
BRANCH  13  14
HETATM   14  C   UNL     1     -11.946  12.967  67.921  1.00  0.00    -0.291 C  
HETATM   15  H1  UNL     1     -12.459  13.553  69.710  1.00  0.00     0.000 HD 
HETATM   16  O   UNL     1     -12.025  11.780  68.191  1.00  0.00    -0.521 OA 
HETATM   17  N   UNL     1     -12.198  13.951  68.808  1.00  0.00    -0.481 N  
HETATM   18  H2  UNL     1     -12.137  14.950  68.607  1.00  0.00     0.000 HD 
ENDBRANCH  13  14
ENDBRANCH  12  13
ENDBRANCH   4  12
TORSDOF 5
ENDMDL
MODEL       47
REMARK 921   NORMALIZED FREE ENERGY PREDICTED BY IDOCK:   -4.57 KCAL/MOL
REMARK 922        TOTAL FREE ENERGY PREDICTED BY IDOCK:   -6.11 KCAL/MOL
REMARK 923 INTER-LIGAND FREE ENERGY PREDICTED BY IDOCK:   -5.82 KCAL/MOL
REMARK 924 INTRA-LIGAND FREE ENERGY PREDICTED BY IDOCK:   -0.29 KCAL/MOL
REMARK 927      BINDING AFFINITY PREDICTED BY RF-SCORE:    0.00 PKD
ROOT
HETATM    1  N   UNL     1      -8.777  17.103  65.834  1.00  0.00    -0.537 NA 
HETATM    2  H1  UNL     1      -8.306  16.697  65.025  1.00  0.00     0.000 HD 
HETATM    3  H2  UNL     1      -8.124  17.313  66.590  1.00  0.00     0.000 HD 
HETATM    4  C   UNL     1      -9.874  16.218  66.280  1.00  0.00    -0.313 C  
ENDROOT
BRANCH   4   5
HETATM    5  C   UNL     1     -10.887  15.944  65.144  1.00  0.00    -0.438 C  
BRANCH   5   6
HETATM    6  C   UNL     1     -11.029  14.477  64.801  1.00  0.00    -0.404 A  
HETATM    7  C   UNL     1     -11.195  11.788  64.014  1.00  0.00    -0.461 A  
HETATM    8  C   UNL     1     -12.108  14.026  64.028  1.00  0.00    -0.413 A  
HETATM    9  C   UNL     1     -10.061  13.551  65.214  1.00  0.00    -0.277 A  
HETATM   10  C   UNL     1     -10.137  12.217  64.814  1.00  0.00    -0.271 A  
HETATM   11  C   UNL     1     -12.188  12.689  63.634  1.00  0.00    -0.624 A  
ENDBRANCH   5   6
ENDBRANCH   4   5
BRANCH   4  12
HETATM   12  C   UNL     1     -10.586  16.832  67.505  1.00  0.00    -0.309 C  
BRANCH  12  13
HETATM   13  O   UNL     1      -9.820  17.928  68.045  1.00  0.00    -0.292 OA 
BRANCH  13  14
HETATM   14  C   UNL     1     -10.360  19.153  67.853  1.00  0.00    -0.414 C  
HETATM   15  H1  UNL     1     -10.760  20.773  68.863  1.00  0.00     0.000 HD 
HETATM   16  O   UNL     1     -10.800  19.594  66.803  1.00  0.00    -0.474 OA 
HETATM   17  N   UNL     1     -10.353  19.850  69.008  1.00  0.00    -0.599 N  
HETATM   18  H2  UNL     1      -9.993  19.503  69.897  1.00  0.00     0.000 HD 
ENDBRANCH  13  14
ENDBRANCH  12  13
ENDBRANCH   4  12
TORSDOF 5
ENDMDL
MODEL       48
REMARK 921   NORMALIZED FREE ENERGY PREDICTED BY IDOCK:   -4.55 KCAL/MOL
REMARK 922        TOTAL FREE ENERGY PREDICTED BY IDOCK:   -6.08 KCAL/MOL
REMARK 923 INTER-LIGAND FREE ENERGY PREDICTED BY IDOCK:   -5.86 KCAL/MOL
REMARK 924 INTRA-LIGAND FREE ENERGY PREDICTED BY IDOCK:   -0.22 KCAL/MOL
REMARK 927      BINDING AFFINITY PREDICTED BY RF-SCORE:    0.00 PKD
ROOT
HETATM    1  N   UNL     1     -13.766   8.984  73.164  1.00  0.00    -1.092 NA 
HETATM    2  H1  UNL     1     -13.709   8.082  73.637  1.00  0.00     0.000 HD 
HETATM    3  H2  UNL     1     -14.732   9.263  72.988  1.00  0.00     0.000 HD 
HETATM    4  C   UNL     1     -12.962   8.959  71.924  1.00  0.00    -0.382 C  
ENDROOT
BRANCH   4   5
HETATM    5  C   UNL     1     -11.487   8.586  72.205  1.00  0.00    -0.446 C  
BRANCH   5   6
HETATM    6  C   UNL     1     -11.035   7.330  71.492  1.00  0.00    -0.259 A  
HETATM    7  C   UNL     1     -10.036   5.078  70.149  1.00  0.00    -0.328 A  
HETATM    8  C   UNL     1     -11.169   7.212  70.101  1.00  0.00    -0.295 A  
HETATM    9  C   UNL     1     -10.438   6.281  72.204  1.00  0.00    -0.228 A  
HETATM   10  C   UNL     1      -9.931   5.166  71.536  1.00  0.00    -0.248 A  
HETATM   11  C   UNL     1     -10.668   6.093  69.433  1.00  0.00    -0.385 A  
ENDBRANCH   5   6
ENDBRANCH   4   5
BRANCH   4  12
HETATM   12  C   UNL     1     -13.048  10.325  71.208  1.00  0.00    -0.398 C  
BRANCH  12  13
HETATM   13  O   UNL     1     -13.379  11.372  72.144  1.00  0.00    -0.469 OA 
BRANCH  13  14
HETATM   14  C   UNL     1     -13.114  12.627  71.714  1.00  0.00    -0.360 C  
HETATM   15  H1  UNL     1     -13.687  14.461  72.051  1.00  0.00     0.000 HD 
HETATM   16  O   UNL     1     -12.306  12.943  70.857  1.00  0.00    -0.370 OA 
HETATM   17  N   UNL     1     -13.886  13.515  72.374  1.00  0.00    -0.595 N  
HETATM   18  H2  UNL     1     -14.570  13.275  73.092  1.00  0.00     0.000 HD 
ENDBRANCH  13  14
ENDBRANCH  12  13
ENDBRANCH   4  12
TORSDOF 5
ENDMDL
MODEL       49
REMARK 921   NORMALIZED FREE ENERGY PREDICTED BY IDOCK:   -4.55 KCAL/MOL
REMARK 922        TOTAL FREE ENERGY PREDICTED BY IDOCK:   -6.08 KCAL/MOL
REMARK 923 INTER-LIGAND FREE ENERGY PREDICTED BY IDOCK:   -5.87 KCAL/MOL
REMARK 924 INTRA-LIGAND FREE ENERGY PREDICTED BY IDOCK:   -0.21 KCAL/MOL
REMARK 927      BINDING AFFINITY PREDICTED BY RF-SCORE:    0.00 PKD
ROOT
HETATM    1  N   UNL     1     -12.530  15.499  69.027  1.00  0.00    -0.567 NA 
HETATM    2  H1  UNL     1     -12.803  16.481  68.986  1.00  0.00     0.000 HD 
HETATM    3  H2  UNL     1     -12.780  15.069  69.918  1.00  0.00     0.000 HD 
HETATM    4  C   UNL     1     -11.088  15.361  68.731  1.00  0.00    -0.283 C  
ENDROOT
BRANCH   4   5
HETATM    5  C   UNL     1     -10.724  15.969  67.356  1.00  0.00    -0.306 C  
BRANCH   5   6
HETATM    6  C   UNL     1     -10.478  17.462  67.402  1.00  0.00    -0.336 A  
HETATM    7  C   UNL     1      -9.846  20.196  67.464  1.00  0.00    -0.574 A  
HETATM    8  C   UNL     1     -10.190  18.100  68.618  1.00  0.00    -0.382 A  
HETATM    9  C   UNL     1     -10.492  18.225  66.226  1.00  0.00    -0.397 A  
HETATM   10  C   UNL     1     -10.167  19.581  66.255  1.00  0.00    -0.582 A  
HETATM   11  C   UNL     1      -9.872  19.459  68.646  1.00  0.00    -0.522 A  
ENDBRANCH   5   6
ENDBRANCH   4   5
BRANCH   4  12
HETATM   12  C   UNL     1     -10.674  13.874  68.792  1.00  0.00    -0.262 C  
BRANCH  12  13
HETATM   13  O   UNL     1     -11.834  13.018  68.735  1.00  0.00    -0.303 OA 
BRANCH  13  14
HETATM   14  C   UNL     1     -11.565  11.694  68.678  1.00  0.00    -0.312 C  
HETATM   15  H1  UNL     1     -10.671  10.315  69.729  1.00  0.00     0.000 HD 
HETATM   16  O   UNL     1     -11.884  10.929  67.782  1.00  0.00    -0.579 OA 
HETATM   17  N   UNL     1     -10.874  11.313  69.772  1.00  0.00    -0.465 N  
HETATM   18  H2  UNL     1     -10.594  11.933  70.532  1.00  0.00     0.000 HD 
ENDBRANCH  13  14
ENDBRANCH  12  13
ENDBRANCH   4  12
TORSDOF 5
ENDMDL
MODEL       50
REMARK 921   NORMALIZED FREE ENERGY PREDICTED BY IDOCK:   -4.54 KCAL/MOL
REMARK 922        TOTAL FREE ENERGY PREDICTED BY IDOCK:   -6.07 KCAL/MOL
REMARK 923 INTER-LIGAND FREE ENERGY PREDICTED BY IDOCK:   -5.64 KCAL/MOL
REMARK 924 INTRA-LIGAND FREE ENERGY PREDICTED BY IDOCK:   -0.42 KCAL/MOL
REMARK 927      BINDING AFFINITY PREDICTED BY RF-SCORE:    0.00 PKD
ROOT
HETATM    1  N   UNL     1     -11.392  15.615  67.747  1.00  0.00    -0.303 NA 
HETATM    2  H1  UNL     1     -11.700  15.772  68.707  1.00  0.00     0.000 HD 
HETATM    3  H2  UNL     1     -11.184  14.632  67.569  1.00  0.00     0.000 HD 
HETATM    4  C   UNL     1     -10.244  16.491  67.433  1.00  0.00    -0.287 C  
ENDROOT
BRANCH   4   5
HETATM    5  C   UNL     1     -10.583  17.984  67.656  1.00  0.00    -0.413 C  
BRANCH   5   6
HETATM    6  C   UNL     1      -9.363  18.878  67.719  1.00  0.00    -0.330 A  
HETATM    7  C   UNL     1      -7.020  20.422  67.720  1.00  0.00    -0.347 A  
HETATM    8  C   UNL     1      -8.358  18.646  68.669  1.00  0.00    -0.344 A  
HETATM    9  C   UNL     1      -9.199  19.925  66.803  1.00  0.00    -0.480 A  
HETATM   10  C   UNL     1      -8.029  20.686  66.796  1.00  0.00    -0.182 A  
HETATM   11  C   UNL     1      -7.191  19.413  68.666  1.00  0.00    -0.374 A  
ENDBRANCH   5   6
ENDBRANCH   4   5
BRANCH   4  12
HETATM   12  C   UNL     1      -9.778  16.253  65.980  1.00  0.00    -0.339 C  
BRANCH  12  13
HETATM   13  O   UNL     1     -10.740  16.776  65.042  1.00  0.00    -0.692 OA 
BRANCH  13  14
HETATM   14  C   UNL     1     -11.457  15.842  64.376  1.00  0.00    -0.263 C  
HETATM   15  H1  UNL     1     -11.523  13.905  64.151  1.00  0.00     0.000 HD 
HETATM   16  O   UNL     1     -12.396  16.050  63.626  1.00  0.00    -0.705 OA 
HETATM   17  N   UNL     1     -10.983  14.609  64.653  1.00  0.00    -0.582 N  
HETATM   18  H2  UNL     1     -10.198  14.411  65.275  1.00  0.00     0.000 HD 
ENDBRANCH  13  14
ENDBRANCH  12  13
ENDBRANCH   4  12
TORSDOF 5
ENDMDL
MODEL       51
REMARK 921   NORMALIZED FREE ENERGY PREDICTED BY IDOCK:   -4.53 KCAL/MOL
REMARK 922        TOTAL FREE ENERGY PREDICTED BY IDOCK:   -6.06 KCAL/MOL
REMARK 923 INTER-LIGAND FREE ENERGY PREDICTED BY IDOCK:   -5.83 KCAL/MOL
REMARK 924 INTRA-LIGAND FREE ENERGY PREDICTED BY IDOCK:   -0.22 KCAL/MOL
REMARK 927      BINDING AFFINITY PREDICTED BY RF-SCORE:    0.00 PKD
ROOT
HETATM    1  N   UNL     1     -11.840  14.220  67.329  1.00  0.00    -0.401 NA 
HETATM    2  H1  UNL     1     -12.078  15.208  67.240  1.00  0.00     0.000 HD 
HETATM    3  H2  UNL     1     -12.335  13.644  66.646  1.00  0.00     0.000 HD 
HETATM    4  C   UNL     1     -12.078  13.764  68.715  1.00  0.00    -0.309 C  
ENDROOT
BRANCH   4   5
HETATM    5  C   UNL     1     -11.285  14.608  69.740  1.00  0.00    -0.296 C  
BRANCH   5   6
HETATM    6  C   UNL     1     -12.080  14.953  70.982  1.00  0.00    -0.380 A  
HETATM    7  C   UNL     1     -13.549  15.766  73.230  1.00  0.00    -0.495 A  
HETATM    8  C   UNL     1     -11.426  15.294  72.174  1.00  0.00    -0.499 A  
HETATM    9  C   UNL     1     -13.481  14.978  70.948  1.00  0.00    -0.402 A  
HETATM   10  C   UNL     1     -14.211  15.392  72.062  1.00  0.00    -0.650 A  
HETATM   11  C   UNL     1     -12.158  15.702  73.291  1.00  0.00    -0.600 A  
ENDBRANCH   5   6
ENDBRANCH   4   5
BRANCH   4  12
HETATM   12  C   UNL     1     -11.717  12.268  68.850  1.00  0.00    -0.328 C  
BRANCH  12  13
HETATM   13  O   UNL     1     -12.043  11.781  70.167  1.00  0.00    -0.320 OA 
BRANCH  13  14
HETATM   14  C   UNL     1     -12.018  10.435  70.301  1.00  0.00    -0.302 C  
HETATM   15  H1  UNL     1     -13.250   8.951  70.595  1.00  0.00     0.000 HD 
HETATM   16  O   UNL     1     -11.029   9.722  70.263  1.00  0.00    -0.253 OA 
HETATM   17  N   UNL     1     -13.268   9.965  70.493  1.00  0.00    -0.600 N  
HETATM   18  H2  UNL     1     -14.110  10.541  70.532  1.00  0.00     0.000 HD 
ENDBRANCH  13  14
ENDBRANCH  12  13
ENDBRANCH   4  12
TORSDOF 5
ENDMDL
MODEL       52
REMARK 921   NORMALIZED FREE ENERGY PREDICTED BY IDOCK:   -4.53 KCAL/MOL
REMARK 922        TOTAL FREE ENERGY PREDICTED BY IDOCK:   -6.05 KCAL/MOL
REMARK 923 INTER-LIGAND FREE ENERGY PREDICTED BY IDOCK:   -5.59 KCAL/MOL
REMARK 924 INTRA-LIGAND FREE ENERGY PREDICTED BY IDOCK:   -0.47 KCAL/MOL
REMARK 927      BINDING AFFINITY PREDICTED BY RF-SCORE:    0.00 PKD
ROOT
HETATM    1  N   UNL     1     -11.708  10.344  68.082  1.00  0.00    -0.743 NA 
HETATM    2  H1  UNL     1     -11.730  10.561  67.085  1.00  0.00     0.000 HD 
HETATM    3  H2  UNL     1     -12.318   9.559  68.316  1.00  0.00     0.000 HD 
HETATM    4  C   UNL     1     -12.031  11.552  68.871  1.00  0.00    -0.299 C  
ENDROOT
BRANCH   4   5
HETATM    5  C   UNL     1     -11.071  12.721  68.549  1.00  0.00    -0.300 C  
BRANCH   5   6
HETATM    6  C   UNL     1     -11.245  13.277  67.151  1.00  0.00    -0.327 A  
HETATM    7  C   UNL     1     -11.585  14.137  64.502  1.00  0.00    -0.400 A  
HETATM    8  C   UNL     1     -10.135  13.457  66.313  1.00  0.00    -0.299 A  
HETATM    9  C   UNL     1     -12.521  13.580  66.658  1.00  0.00    -0.263 A  
HETATM   10  C   UNL     1     -12.691  13.998  65.338  1.00  0.00    -0.499 A  
HETATM   11  C   UNL     1     -10.306  13.882  64.994  1.00  0.00    -0.418 A  
ENDBRANCH   5   6
ENDBRANCH   4   5
BRANCH   4  12
HETATM   12  C   UNL     1     -11.997  11.224  70.380  1.00  0.00    -0.380 C  
BRANCH  12  13
HETATM   13  O   UNL     1     -13.138  10.426  70.755  1.00  0.00    -0.385 OA 
BRANCH  13  14
HETATM   14  C   UNL     1     -12.851   9.324  71.486  1.00  0.00    -0.354 C  
HETATM   15  H1  UNL     1     -11.871   7.646  71.316  1.00  0.00     0.000 HD 
HETATM   16  O   UNL     1     -13.215   9.098  72.628  1.00  0.00    -0.436 OA 
HETATM   17  N   UNL     1     -12.087   8.477  70.766  1.00  0.00    -0.483 N  
HETATM   18  H2  UNL     1     -11.772   8.642  69.810  1.00  0.00     0.000 HD 
ENDBRANCH  13  14
ENDBRANCH  12  13
ENDBRANCH   4  12
TORSDOF 5
ENDMDL
MODEL       53
REMARK 921   NORMALIZED FREE ENERGY PREDICTED BY IDOCK:   -4.52 KCAL/MOL
REMARK 922        TOTAL FREE ENERGY PREDICTED BY IDOCK:   -6.04 KCAL/MOL
REMARK 923 INTER-LIGAND FREE ENERGY PREDICTED BY IDOCK:   -5.88 KCAL/MOL
REMARK 924 INTRA-LIGAND FREE ENERGY PREDICTED BY IDOCK:   -0.17 KCAL/MOL
REMARK 927      BINDING AFFINITY PREDICTED BY RF-SCORE:    0.00 PKD
ROOT
HETATM    1  N   UNL     1     -11.185  16.790  64.181  1.00  0.00    -1.383 NA 
HETATM    2  H1  UNL     1     -11.195  15.994  63.544  1.00  0.00     0.000 HD 
HETATM    3  H2  UNL     1     -10.734  17.607  63.767  1.00  0.00     0.000 HD 
HETATM    4  C   UNL     1     -10.560  16.404  65.465  1.00  0.00    -0.330 C  
ENDROOT
BRANCH   4   5
HETATM    5  C   UNL     1     -11.280  15.198  66.113  1.00  0.00    -0.271 C  
BRANCH   5   6
HETATM    6  C   UNL     1     -11.458  14.024  65.174  1.00  0.00    -0.328 A  
HETATM    7  C   UNL     1     -11.743  11.740  63.570  1.00  0.00    -0.485 A  
HETATM    8  C   UNL     1     -10.373  13.535  64.432  1.00  0.00    -0.306 A  
HETATM    9  C   UNL     1     -12.698  13.382  65.062  1.00  0.00    -0.420 A  
HETATM   10  C   UNL     1     -12.837  12.240  64.273  1.00  0.00    -0.336 A  
HETATM   11  C   UNL     1     -10.516  12.396  63.637  1.00  0.00    -0.460 A  
ENDBRANCH   5   6
ENDBRANCH   4   5
BRANCH   4  12
HETATM   12  C   UNL     1     -10.545  17.609  66.431  1.00  0.00    -0.208 C  
BRANCH  12  13
HETATM   13  O   UNL     1      -9.191  17.990  66.752  1.00  0.00    -0.265 OA 
BRANCH  13  14
HETATM   14  C   UNL     1      -8.936  19.316  66.675  1.00  0.00    -0.338 C  
HETATM   15  H1  UNL     1      -9.786  20.956  66.048  1.00  0.00     0.000 HD 
HETATM   16  O   UNL     1      -7.923  19.880  67.052  1.00  0.00    -0.278 OA 
HETATM   17  N   UNL     1      -9.978  19.957  66.107  1.00  0.00    -0.467 N  
HETATM   18  H2  UNL     1     -10.834  19.506  65.781  1.00  0.00     0.000 HD 
ENDBRANCH  13  14
ENDBRANCH  12  13
ENDBRANCH   4  12
TORSDOF 5
ENDMDL
MODEL       54
REMARK 921   NORMALIZED FREE ENERGY PREDICTED BY IDOCK:   -4.52 KCAL/MOL
REMARK 922        TOTAL FREE ENERGY PREDICTED BY IDOCK:   -6.03 KCAL/MOL
REMARK 923 INTER-LIGAND FREE ENERGY PREDICTED BY IDOCK:   -5.61 KCAL/MOL
REMARK 924 INTRA-LIGAND FREE ENERGY PREDICTED BY IDOCK:   -0.43 KCAL/MOL
REMARK 927      BINDING AFFINITY PREDICTED BY RF-SCORE:    0.00 PKD
ROOT
HETATM    1  N   UNL     1     -11.747  15.592  68.061  1.00  0.00    -0.358 NA 
HETATM    2  H1  UNL     1     -12.107  16.209  68.789  1.00  0.00     0.000 HD 
HETATM    3  H2  UNL     1     -12.068  15.867  67.133  1.00  0.00     0.000 HD 
HETATM    4  C   UNL     1     -12.089  14.187  68.372  1.00  0.00    -0.273 C  
ENDROOT
BRANCH   4   5
HETATM    5  C   UNL     1     -11.555  13.760  69.760  1.00  0.00    -0.324 C  
BRANCH   5   6
HETATM    6  C   UNL     1     -12.192  14.512  70.909  1.00  0.00    -0.409 A  
HETATM    7  C   UNL     1     -13.334  15.764  73.145  1.00  0.00    -0.685 A  
HETATM    8  C   UNL     1     -13.559  14.370  71.184  1.00  0.00    -0.338 A  
HETATM    9  C   UNL     1     -11.417  15.330  71.742  1.00  0.00    -0.494 A  
HETATM   10  C   UNL     1     -11.982  15.944  72.860  1.00  0.00    -0.609 A  
HETATM   11  C   UNL     1     -14.126  14.990  72.299  1.00  0.00    -0.612 A  
ENDBRANCH   5   6
ENDBRANCH   4   5
BRANCH   4  12
HETATM   12  C   UNL     1     -11.543  13.253  67.270  1.00  0.00    -0.359 C  
BRANCH  12  13
HETATM   13  O   UNL     1     -10.165  12.913  67.526  1.00  0.00    -0.211 OA 
BRANCH  13  14
HETATM   14  C   UNL     1      -9.258  13.649  66.843  1.00  0.00    -0.250 C  
HETATM   15  H1  UNL     1      -7.342  13.677  66.479  1.00  0.00     0.000 HD 
HETATM   16  O   UNL     1      -9.488  14.648  66.182  1.00  0.00    -0.296 OA 
HETATM   17  N   UNL     1      -8.025  13.122  66.993  1.00  0.00    -0.391 N  
HETATM   18  H2  UNL     1      -7.808  12.290  67.542  1.00  0.00     0.000 HD 
ENDBRANCH  13  14
ENDBRANCH  12  13
ENDBRANCH   4  12
TORSDOF 5
ENDMDL
MODEL       55
REMARK 921   NORMALIZED FREE ENERGY PREDICTED BY IDOCK:   -4.50 KCAL/MOL
REMARK 922        TOTAL FREE ENERGY PREDICTED BY IDOCK:   -6.01 KCAL/MOL
REMARK 923 INTER-LIGAND FREE ENERGY PREDICTED BY IDOCK:   -5.62 KCAL/MOL
REMARK 924 INTRA-LIGAND FREE ENERGY PREDICTED BY IDOCK:   -0.39 KCAL/MOL
REMARK 927      BINDING AFFINITY PREDICTED BY RF-SCORE:    0.00 PKD
ROOT
HETATM    1  N   UNL     1      -8.676  17.050  65.958  1.00  0.00    -0.523 NA 
HETATM    2  H1  UNL     1      -8.383  16.078  66.064  1.00  0.00     0.000 HD 
HETATM    3  H2  UNL     1      -8.201  17.667  66.617  1.00  0.00     0.000 HD 
HETATM    4  C   UNL     1     -10.147  17.151  66.066  1.00  0.00    -0.288 C  
ENDROOT
BRANCH   4   5
HETATM    5  C   UNL     1     -10.861  16.252  65.029  1.00  0.00    -0.337 C  
BRANCH   5   6
HETATM    6  C   UNL     1     -11.052  14.824  65.497  1.00  0.00    -0.346 A  
HETATM    7  C   UNL     1     -11.574  12.188  66.302  1.00  0.00    -0.424 A  
HETATM    8  C   UNL     1     -11.521  14.555  66.790  1.00  0.00    -0.376 A  
HETATM    9  C   UNL     1     -10.802  13.751  64.631  1.00  0.00    -0.416 A  
HETATM   10  C   UNL     1     -11.072  12.441  65.027  1.00  0.00    -0.344 A  
HETATM   11  C   UNL     1     -11.784  13.243  67.188  1.00  0.00    -0.425 A  
ENDBRANCH   5   6
ENDBRANCH   4   5
BRANCH   4  12
HETATM   12  C   UNL     1     -10.591  18.621  65.905  1.00  0.00    -0.321 C  
BRANCH  12  13
HETATM   13  O   UNL     1     -10.959  19.187  67.179  1.00  0.00    -0.453 OA 
BRANCH  13  14
HETATM   14  C   UNL     1      -9.926  19.645  67.922  1.00  0.00    -0.411 C  
HETATM   15  H1  UNL     1      -9.501  20.049  69.782  1.00  0.00     0.000 HD 
HETATM   16  O   UNL     1      -8.825  19.969  67.508  1.00  0.00    -0.326 OA 
HETATM   17  N   UNL     1     -10.279  19.703  69.222  1.00  0.00    -0.628 N  
HETATM   18  H2  UNL     1     -11.193  19.440  69.592  1.00  0.00     0.000 HD 
ENDBRANCH  13  14
ENDBRANCH  12  13
ENDBRANCH   4  12
TORSDOF 5
ENDMDL
MODEL       56
REMARK 921   NORMALIZED FREE ENERGY PREDICTED BY IDOCK:   -4.49 KCAL/MOL
REMARK 922        TOTAL FREE ENERGY PREDICTED BY IDOCK:   -6.00 KCAL/MOL
REMARK 923 INTER-LIGAND FREE ENERGY PREDICTED BY IDOCK:   -5.85 KCAL/MOL
REMARK 924 INTRA-LIGAND FREE ENERGY PREDICTED BY IDOCK:   -0.15 KCAL/MOL
REMARK 927      BINDING AFFINITY PREDICTED BY RF-SCORE:    0.00 PKD
ROOT
HETATM    1  N   UNL     1     -11.547  12.722  70.170  1.00  0.00    -0.536 NA 
HETATM    2  H1  UNL     1     -11.575  13.113  71.112  1.00  0.00     0.000 HD 
HETATM    3  H2  UNL     1     -11.006  11.857  70.131  1.00  0.00     0.000 HD 
HETATM    4  C   UNL     1     -11.044  13.734  69.216  1.00  0.00    -0.208 C  
ENDROOT
BRANCH   4   5
HETATM    5  C   UNL     1     -11.899  15.023  69.244  1.00  0.00    -0.344 C  
BRANCH   5   6
HETATM    6  C   UNL     1     -12.415  15.375  70.623  1.00  0.00    -0.478 A  
HETATM    7  C   UNL     1     -13.317  15.866  73.234  1.00  0.00    -0.660 A  
HETATM    8  C   UNL     1     -13.733  15.071  70.989  1.00  0.00    -0.417 A  
HETATM    9  C   UNL     1     -11.571  15.973  71.568  1.00  0.00    -0.529 A  
HETATM   10  C   UNL     1     -12.016  16.207  72.870  1.00  0.00    -0.623 A  
HETATM   11  C   UNL     1     -14.180  15.313  72.290  1.00  0.00    -0.642 A  
ENDBRANCH   5   6
ENDBRANCH   4   5
BRANCH   4  12
HETATM   12  C   UNL     1     -11.002  13.142  67.790  1.00  0.00    -0.251 C  
BRANCH  12  13
HETATM   13  O   UNL     1     -10.156  11.975  67.746  1.00  0.00    -0.187 OA 
BRANCH  13  14
HETATM   14  C   UNL     1     -10.613  10.967  66.968  1.00  0.00    -0.257 C  
HETATM   15  H1  UNL     1     -11.557   9.269  67.143  1.00  0.00     0.000 HD 
HETATM   16  O   UNL     1     -10.510  10.885  65.755  1.00  0.00    -0.248 OA 
HETATM   17  N   UNL     1     -11.214  10.029  67.729  1.00  0.00    -0.471 N  
HETATM   18  H2  UNL     1     -11.310  10.074  68.744  1.00  0.00     0.000 HD 
ENDBRANCH  13  14
ENDBRANCH  12  13
ENDBRANCH   4  12
TORSDOF 5
ENDMDL
MODEL       57
REMARK 921   NORMALIZED FREE ENERGY PREDICTED BY IDOCK:   -4.47 KCAL/MOL
REMARK 922        TOTAL FREE ENERGY PREDICTED BY IDOCK:   -5.97 KCAL/MOL
REMARK 923 INTER-LIGAND FREE ENERGY PREDICTED BY IDOCK:   -5.81 KCAL/MOL
REMARK 924 INTRA-LIGAND FREE ENERGY PREDICTED BY IDOCK:   -0.16 KCAL/MOL
REMARK 927      BINDING AFFINITY PREDICTED BY RF-SCORE:    0.00 PKD
ROOT
HETATM    1  N   UNL     1     -10.086  14.813  64.581  1.00  0.00    -0.511 NA 
HETATM    2  H1  UNL     1      -9.241  15.288  64.899  1.00  0.00     0.000 HD 
HETATM    3  H2  UNL     1     -10.353  15.097  63.638  1.00  0.00     0.000 HD 
HETATM    4  C   UNL     1     -11.181  15.019  65.552  1.00  0.00    -0.344 C  
ENDROOT
BRANCH   4   5
HETATM    5  C   UNL     1     -10.789  14.538  66.969  1.00  0.00    -0.297 C  
BRANCH   5   6
HETATM    6  C   UNL     1     -10.652  13.034  67.081  1.00  0.00    -0.251 A  
HETATM    7  C   UNL     1     -10.509  10.233  67.144  1.00  0.00    -0.311 A  
HETATM    8  C   UNL     1     -11.549  12.293  67.862  1.00  0.00    -0.416 A  
HETATM    9  C   UNL     1      -9.653  12.354  66.371  1.00  0.00    -0.249 A  
HETATM   10  C   UNL     1      -9.588  10.961  66.394  1.00  0.00    -0.229 A  
HETATM   11  C   UNL     1     -11.480  10.899  67.890  1.00  0.00    -0.344 A  
ENDBRANCH   5   6
ENDBRANCH   4   5
BRANCH   4  12
HETATM   12  C   UNL     1     -12.460  14.298  65.071  1.00  0.00    -0.400 C  
BRANCH  12  13
HETATM   13  O   UNL     1     -12.366  13.975  63.669  1.00  0.00    -0.728 OA 
BRANCH  13  14
HETATM   14  C   UNL     1     -12.409  12.654  63.382  1.00  0.00    -0.456 C  
HETATM   15  H1  UNL     1     -11.200  11.198  62.907  1.00  0.00     0.000 HD 
HETATM   16  O   UNL     1     -13.407  11.952  63.351  1.00  0.00    -0.569 OA 
HETATM   17  N   UNL     1     -11.167  12.194  63.123  1.00  0.00    -0.703 N  
HETATM   18  H2  UNL     1     -10.319  12.761  63.140  1.00  0.00     0.000 HD 
ENDBRANCH  13  14
ENDBRANCH  12  13
ENDBRANCH   4  12
TORSDOF 5
ENDMDL
MODEL       58
REMARK 921   NORMALIZED FREE ENERGY PREDICTED BY IDOCK:   -4.46 KCAL/MOL
REMARK 922        TOTAL FREE ENERGY PREDICTED BY IDOCK:   -5.96 KCAL/MOL
REMARK 923 INTER-LIGAND FREE ENERGY PREDICTED BY IDOCK:   -5.59 KCAL/MOL
REMARK 924 INTRA-LIGAND FREE ENERGY PREDICTED BY IDOCK:   -0.37 KCAL/MOL
REMARK 927      BINDING AFFINITY PREDICTED BY RF-SCORE:    0.00 PKD
ROOT
HETATM    1  N   UNL     1     -11.219  11.710  69.995  1.00  0.00    -0.489 NA 
HETATM    2  H1  UNL     1     -10.814  10.941  69.462  1.00  0.00     0.000 HD 
HETATM    3  H2  UNL     1     -11.937  11.388  70.646  1.00  0.00     0.000 HD 
HETATM    4  C   UNL     1     -11.731  12.750  69.077  1.00  0.00    -0.323 C  
ENDROOT
BRANCH   4   5
HETATM    5  C   UNL     1     -10.626  13.270  68.128  1.00  0.00    -0.259 C  
BRANCH   5   6
HETATM    6  C   UNL     1     -11.155  13.763  66.798  1.00  0.00    -0.316 A  
HETATM    7  C   UNL     1     -11.986  14.609  64.255  1.00  0.00    -0.406 A  
HETATM    8  C   UNL     1     -10.825  15.043  66.330  1.00  0.00    -0.326 A  
HETATM    9  C   UNL     1     -11.947  12.933  65.993  1.00  0.00    -0.505 A  
HETATM   10  C   UNL     1     -12.351  13.349  64.725  1.00  0.00    -0.444 A  
HETATM   11  C   UNL     1     -11.237  15.462  65.063  1.00  0.00    -0.393 A  
ENDBRANCH   5   6
ENDBRANCH   4   5
BRANCH   4  12
HETATM   12  C   UNL     1     -12.343  13.915  69.885  1.00  0.00    -0.300 C  
BRANCH  12  13
HETATM   13  O   UNL     1     -12.295  13.637  71.299  1.00  0.00    -0.345 OA 
BRANCH  13  14
HETATM   14  C   UNL     1     -13.501  13.510  71.898  1.00  0.00    -0.442 C  
HETATM   15  H1  UNL     1     -14.544  12.175  72.866  1.00  0.00     0.000 HD 
HETATM   16  O   UNL     1     -14.365  14.368  71.976  1.00  0.00    -0.495 OA 
HETATM   17  N   UNL     1     -13.635  12.271  72.414  1.00  0.00    -0.543 N  
HETATM   18  H2  UNL     1     -12.929  11.536  72.360  1.00  0.00     0.000 HD 
ENDBRANCH  13  14
ENDBRANCH  12  13
ENDBRANCH   4  12
TORSDOF 5
ENDMDL
MODEL       59
REMARK 921   NORMALIZED FREE ENERGY PREDICTED BY IDOCK:   -4.44 KCAL/MOL
REMARK 922        TOTAL FREE ENERGY PREDICTED BY IDOCK:   -5.94 KCAL/MOL
REMARK 923 INTER-LIGAND FREE ENERGY PREDICTED BY IDOCK:   -5.66 KCAL/MOL
REMARK 924 INTRA-LIGAND FREE ENERGY PREDICTED BY IDOCK:   -0.28 KCAL/MOL
REMARK 927      BINDING AFFINITY PREDICTED BY RF-SCORE:    0.00 PKD
ROOT
HETATM    1  N   UNL     1     -11.134  15.479  67.592  1.00  0.00    -0.319 NA 
HETATM    2  H1  UNL     1     -11.090  16.263  68.243  1.00  0.00     0.000 HD 
HETATM    3  H2  UNL     1     -11.505  15.757  66.683  1.00  0.00     0.000 HD 
HETATM    4  C   UNL     1     -11.903  14.366  68.188  1.00  0.00    -0.327 C  
ENDROOT
BRANCH   4   5
HETATM    5  C   UNL     1     -11.304  13.915  69.541  1.00  0.00    -0.293 C  
BRANCH   5   6
HETATM    6  C   UNL     1     -11.987  14.536  70.741  1.00  0.00    -0.388 A  
HETATM    7  C   UNL     1     -13.317  15.816  72.855  1.00  0.00    -0.661 A  
HETATM    8  C   UNL     1     -11.335  15.514  71.505  1.00  0.00    -0.466 A  
HETATM    9  C   UNL     1     -13.298  14.175  71.082  1.00  0.00    -0.330 A  
HETATM   10  C   UNL     1     -13.963  14.819  72.126  1.00  0.00    -0.590 A  
HETATM   11  C   UNL     1     -11.999  16.152  72.555  1.00  0.00    -0.660 A  
ENDBRANCH   5   6
ENDBRANCH   4   5
BRANCH   4  12
HETATM   12  C   UNL     1     -11.969  13.179  67.202  1.00  0.00    -0.341 C  
BRANCH  12  13
HETATM   13  O   UNL     1     -11.904  11.924  67.909  1.00  0.00    -0.492 OA 
BRANCH  13  14
HETATM   14  C   UNL     1     -10.980  11.053  67.444  1.00  0.00    -0.291 C  
HETATM   15  H1  UNL     1      -9.345  11.053  66.380  1.00  0.00     0.000 HD 
HETATM   16  O   UNL     1     -10.967   9.846  67.624  1.00  0.00    -0.289 OA 
HETATM   17  N   UNL     1     -10.042  11.709  66.730  1.00  0.00    -0.210 N  
HETATM   18  H2  UNL     1     -10.032  12.716  66.564  1.00  0.00     0.000 HD 
ENDBRANCH  13  14
ENDBRANCH  12  13
ENDBRANCH   4  12
TORSDOF 5
ENDMDL
MODEL       60
REMARK 921   NORMALIZED FREE ENERGY PREDICTED BY IDOCK:   -4.42 KCAL/MOL
REMARK 922        TOTAL FREE ENERGY PREDICTED BY IDOCK:   -5.92 KCAL/MOL
REMARK 923 INTER-LIGAND FREE ENERGY PREDICTED BY IDOCK:   -5.65 KCAL/MOL
REMARK 924 INTRA-LIGAND FREE ENERGY PREDICTED BY IDOCK:   -0.27 KCAL/MOL
REMARK 927      BINDING AFFINITY PREDICTED BY RF-SCORE:    0.00 PKD
ROOT
HETATM    1  N   UNL     1     -11.558   7.572  73.313  1.00  0.00    -0.617 NA 
HETATM    2  H1  UNL     1     -11.999   8.168  74.014  1.00  0.00     0.000 HD 
HETATM    3  H2  UNL     1     -10.717   7.119  73.671  1.00  0.00     0.000 HD 
HETATM    4  C   UNL     1     -11.289   8.349  72.084  1.00  0.00    -0.366 C  
ENDROOT
BRANCH   4   5
HETATM    5  C   UNL     1     -12.578   8.992  71.518  1.00  0.00    -0.400 C  
BRANCH   5   6
HETATM    6  C   UNL     1     -12.403  10.440  71.115  1.00  0.00    -0.505 A  
HETATM    7  C   UNL     1     -12.234  13.112  70.274  1.00  0.00    -0.376 A  
HETATM    8  C   UNL     1     -11.706  10.776  69.946  1.00  0.00    -0.412 A  
HETATM    9  C   UNL     1     -12.972  11.467  71.881  1.00  0.00    -0.453 A  
HETATM   10  C   UNL     1     -12.897  12.794  71.457  1.00  0.00    -0.369 A  
HETATM   11  C   UNL     1     -11.626  12.105  69.527  1.00  0.00    -0.382 A  
ENDBRANCH   5   6
ENDBRANCH   4   5
BRANCH   4  12
HETATM   12  C   UNL     1     -10.623   7.447  71.022  1.00  0.00    -0.224 C  
BRANCH  12  13
HETATM   13  O   UNL     1     -11.613   6.878  70.141  1.00  0.00    -0.322 OA 
BRANCH  13  14
HETATM   14  C   UNL     1     -11.117   6.124  69.134  1.00  0.00    -0.378 C  
HETATM   15  H1  UNL     1     -11.125   6.062  67.184  1.00  0.00     0.000 HD 
HETATM   16  O   UNL     1     -10.425   5.125  69.250  1.00  0.00    -0.219 OA 
HETATM   17  N   UNL     1     -11.498   6.631  67.943  1.00  0.00    -0.626 N  
HETATM   18  H2  UNL     1     -12.078   7.461  67.821  1.00  0.00     0.000 HD 
ENDBRANCH  13  14
ENDBRANCH  12  13
ENDBRANCH   4  12
TORSDOF 5
ENDMDL
MODEL       61
REMARK 921   NORMALIZED FREE ENERGY PREDICTED BY IDOCK:   -4.41 KCAL/MOL
REMARK 922        TOTAL FREE ENERGY PREDICTED BY IDOCK:   -5.89 KCAL/MOL
REMARK 923 INTER-LIGAND FREE ENERGY PREDICTED BY IDOCK:   -5.58 KCAL/MOL
REMARK 924 INTRA-LIGAND FREE ENERGY PREDICTED BY IDOCK:   -0.31 KCAL/MOL
REMARK 927      BINDING AFFINITY PREDICTED BY RF-SCORE:    0.00 PKD
ROOT
HETATM    1  N   UNL     1     -12.131  10.587  68.220  1.00  0.00    -0.725 NA 
HETATM    2  H1  UNL     1     -12.786  11.178  67.708  1.00  0.00     0.000 HD 
HETATM    3  H2  UNL     1     -12.384   9.599  68.166  1.00  0.00     0.000 HD 
HETATM    4  C   UNL     1     -12.015  11.053  69.619  1.00  0.00    -0.353 C  
ENDROOT
BRANCH   4   5
HETATM    5  C   UNL     1     -11.583  12.536  69.695  1.00  0.00    -0.323 C  
BRANCH   5   6
HETATM    6  C   UNL     1     -12.491  13.387  70.558  1.00  0.00    -0.350 A  
HETATM    7  C   UNL     1     -14.033  14.988  72.269  1.00  0.00    -0.611 A  
HETATM    8  C   UNL     1     -13.228  12.809  71.601  1.00  0.00    -0.410 A  
HETATM    9  C   UNL     1     -12.576  14.771  70.355  1.00  0.00    -0.399 A  
HETATM   10  C   UNL     1     -13.334  15.568  71.212  1.00  0.00    -0.588 A  
HETATM   11  C   UNL     1     -13.992  13.608  72.454  1.00  0.00    -0.651 A  
ENDBRANCH   5   6
ENDBRANCH   4   5
BRANCH   4  12
HETATM   12  C   UNL     1     -11.023  10.159  70.395  1.00  0.00    -0.319 C  
BRANCH  12  13
HETATM   13  O   UNL     1     -10.278   9.318  69.490  1.00  0.00    -0.191 OA 
BRANCH  13  14
HETATM   14  C   UNL     1      -8.954   9.231  69.749  1.00  0.00    -0.172 C  
HETATM   15  H1  UNL     1      -7.399  10.394  69.933  1.00  0.00     0.000 HD 
HETATM   16  O   UNL     1      -8.324   8.208  69.963  1.00  0.00    -0.118 OA 
HETATM   17  N   UNL     1      -8.397  10.460  69.738  1.00  0.00    -0.373 N  
HETATM   18  H2  UNL     1      -8.902  11.328  69.560  1.00  0.00     0.000 HD 
ENDBRANCH  13  14
ENDBRANCH  12  13
ENDBRANCH   4  12
TORSDOF 5
ENDMDL
MODEL       62
REMARK 921   NORMALIZED FREE ENERGY PREDICTED BY IDOCK:   -4.37 KCAL/MOL
REMARK 922        TOTAL FREE ENERGY PREDICTED BY IDOCK:   -5.85 KCAL/MOL
REMARK 923 INTER-LIGAND FREE ENERGY PREDICTED BY IDOCK:   -5.27 KCAL/MOL
REMARK 924 INTRA-LIGAND FREE ENERGY PREDICTED BY IDOCK:   -0.58 KCAL/MOL
REMARK 927      BINDING AFFINITY PREDICTED BY RF-SCORE:    0.00 PKD
ROOT
HETATM    1  N   UNL     1     -12.448  14.919  69.360  1.00  0.00    -0.575 NA 
HETATM    2  H1  UNL     1     -13.428  14.869  69.082  1.00  0.00     0.000 HD 
HETATM    3  H2  UNL     1     -12.165  15.872  69.592  1.00  0.00     0.000 HD 
HETATM    4  C   UNL     1     -11.591  14.326  68.311  1.00  0.00    -0.324 C  
ENDROOT
BRANCH   4   5
HETATM    5  C   UNL     1     -11.993  12.865  68.001  1.00  0.00    -0.323 C  
BRANCH   5   6
HETATM    6  C   UNL     1     -11.784  12.475  66.553  1.00  0.00    -0.454 A  
HETATM    7  C   UNL     1     -11.265  11.877  63.861  1.00  0.00    -0.497 A  
HETATM    8  C   UNL     1     -12.485  13.129  65.530  1.00  0.00    -0.516 A  
HETATM    9  C   UNL     1     -10.855  11.484  66.209  1.00  0.00    -0.333 A  
HETATM   10  C   UNL     1     -10.589  11.194  64.870  1.00  0.00    -0.356 A  
HETATM   11  C   UNL     1     -12.223  12.833  64.191  1.00  0.00    -0.506 A  
ENDBRANCH   5   6
ENDBRANCH   4   5
BRANCH   4  12
HETATM   12  C   UNL     1     -10.107  14.402  68.733  1.00  0.00    -0.234 C  
BRANCH  12  13
HETATM   13  O   UNL     1      -9.393  15.354  67.920  1.00  0.00    -0.191 OA 
BRANCH  13  14
HETATM   14  C   UNL     1      -9.113  14.938  66.664  1.00  0.00    -0.280 C  
HETATM   15  H1  UNL     1      -8.055  13.574  65.754  1.00  0.00     0.000 HD 
HETATM   16  O   UNL     1      -9.542  15.420  65.629  1.00  0.00    -0.335 OA 
HETATM   17  N   UNL     1      -8.267  13.887  66.701  1.00  0.00    -0.342 N  
HETATM   18  H2  UNL     1      -7.893  13.468  67.553  1.00  0.00     0.000 HD 
ENDBRANCH  13  14
ENDBRANCH  12  13
ENDBRANCH   4  12
TORSDOF 5
ENDMDL
MODEL       63
REMARK 921   NORMALIZED FREE ENERGY PREDICTED BY IDOCK:   -4.37 KCAL/MOL
REMARK 922        TOTAL FREE ENERGY PREDICTED BY IDOCK:   -5.84 KCAL/MOL
REMARK 923 INTER-LIGAND FREE ENERGY PREDICTED BY IDOCK:   -5.51 KCAL/MOL
REMARK 924 INTRA-LIGAND FREE ENERGY PREDICTED BY IDOCK:   -0.34 KCAL/MOL
REMARK 927      BINDING AFFINITY PREDICTED BY RF-SCORE:    0.00 PKD
ROOT
HETATM    1  N   UNL     1      -9.604  12.019  69.029  1.00  0.00    -0.401 NA 
HETATM    2  H1  UNL     1      -9.384  12.760  69.695  1.00  0.00     0.000 HD 
HETATM    3  H2  UNL     1      -9.123  12.151  68.138  1.00  0.00     0.000 HD 
HETATM    4  C   UNL     1     -11.069  11.911  68.856  1.00  0.00    -0.247 C  
ENDROOT
BRANCH   4   5
HETATM    5  C   UNL     1     -11.788  11.661  70.203  1.00  0.00    -0.428 C  
BRANCH   5   6
HETATM    6  C   UNL     1     -12.409  12.907  70.797  1.00  0.00    -0.385 A  
HETATM    7  C   UNL     1     -13.704  15.189  71.791  1.00  0.00    -0.578 A  
HETATM    8  C   UNL     1     -12.201  14.159  70.202  1.00  0.00    -0.415 A  
HETATM    9  C   UNL     1     -13.236  12.823  71.925  1.00  0.00    -0.511 A  
HETATM   10  C   UNL     1     -13.888  13.956  72.413  1.00  0.00    -0.668 A  
HETATM   11  C   UNL     1     -12.849  15.293  70.695  1.00  0.00    -0.462 A  
ENDBRANCH   5   6
ENDBRANCH   4   5
BRANCH   4  12
HETATM   12  C   UNL     1     -11.402  10.789  67.848  1.00  0.00    -0.299 C  
BRANCH  12  13
HETATM   13  O   UNL     1     -10.290   9.882  67.708  1.00  0.00    -0.191 OA 
BRANCH  13  14
HETATM   14  C   UNL     1     -10.505   8.636  68.187  1.00  0.00    -0.187 C  
HETATM   15  H1  UNL     1     -10.982   6.858  67.540  1.00  0.00     0.000 HD 
HETATM   16  O   UNL     1     -10.436   8.288  69.355  1.00  0.00    -0.220 OA 
HETATM   17  N   UNL     1     -10.819   7.797  67.178  1.00  0.00    -0.515 N  
HETATM   18  H2  UNL     1     -10.886   8.065  66.196  1.00  0.00     0.000 HD 
ENDBRANCH  13  14
ENDBRANCH  12  13
ENDBRANCH   4  12
TORSDOF 5
ENDMDL
MODEL       64
REMARK 921   NORMALIZED FREE ENERGY PREDICTED BY IDOCK:   -4.37 KCAL/MOL
REMARK 922        TOTAL FREE ENERGY PREDICTED BY IDOCK:   -5.84 KCAL/MOL
REMARK 923 INTER-LIGAND FREE ENERGY PREDICTED BY IDOCK:   -5.58 KCAL/MOL
REMARK 924 INTRA-LIGAND FREE ENERGY PREDICTED BY IDOCK:   -0.26 KCAL/MOL
REMARK 927      BINDING AFFINITY PREDICTED BY RF-SCORE:    0.00 PKD
ROOT
HETATM    1  N   UNL     1     -10.111  10.197  70.178  1.00  0.00    -0.409 NA 
HETATM    2  H1  UNL     1      -9.368  10.205  69.478  1.00  0.00     0.000 HD 
HETATM    3  H2  UNL     1     -10.172   9.300  70.660  1.00  0.00     0.000 HD 
HETATM    4  C   UNL     1     -11.397  10.580  69.556  1.00  0.00    -0.278 C  
ENDROOT
BRANCH   4   5
HETATM    5  C   UNL     1     -11.312  11.964  68.871  1.00  0.00    -0.335 C  
BRANCH   5   6
HETATM    6  C   UNL     1     -11.310  11.890  67.358  1.00  0.00    -0.389 A  
HETATM    7  C   UNL     1     -11.178  11.880  64.556  1.00  0.00    -0.380 A  
HETATM    8  C   UNL     1     -12.146  12.724  66.603  1.00  0.00    -0.316 A  
HETATM    9  C   UNL     1     -10.443  11.017  66.688  1.00  0.00    -0.307 A  
HETATM   10  C   UNL     1     -10.369  11.019  65.295  1.00  0.00    -0.338 A  
HETATM   11  C   UNL     1     -12.077  12.721  65.208  1.00  0.00    -0.505 A  
ENDBRANCH   5   6
ENDBRANCH   4   5
BRANCH   4  12
HETATM   12  C   UNL     1     -12.521  10.569  70.615  1.00  0.00    -0.366 C  
BRANCH  12  13
HETATM   13  O   UNL     1     -12.163   9.729  71.732  1.00  0.00    -0.382 OA 
BRANCH  13  14
HETATM   14  C   UNL     1     -12.919   8.617  71.877  1.00  0.00    -0.372 C  
HETATM   15  H1  UNL     1     -14.522   8.026  72.820  1.00  0.00     0.000 HD 
HETATM   16  O   UNL     1     -12.723   7.535  71.351  1.00  0.00    -0.342 OA 
HETATM   17  N   UNL     1     -13.952   8.864  72.710  1.00  0.00    -0.859 N  
HETATM   18  H2  UNL     1     -14.136   9.760  73.163  1.00  0.00     0.000 HD 
ENDBRANCH  13  14
ENDBRANCH  12  13
ENDBRANCH   4  12
TORSDOF 5
ENDMDL
MODEL       65
REMARK 921   NORMALIZED FREE ENERGY PREDICTED BY IDOCK:   -4.36 KCAL/MOL
REMARK 922        TOTAL FREE ENERGY PREDICTED BY IDOCK:   -5.84 KCAL/MOL
REMARK 923 INTER-LIGAND FREE ENERGY PREDICTED BY IDOCK:   -5.56 KCAL/MOL
REMARK 924 INTRA-LIGAND FREE ENERGY PREDICTED BY IDOCK:   -0.28 KCAL/MOL
REMARK 927      BINDING AFFINITY PREDICTED BY RF-SCORE:    0.00 PKD
ROOT
HETATM    1  N   UNL     1     -11.881  12.804  70.298  1.00  0.00    -0.537 NA 
HETATM    2  H1  UNL     1     -11.694  12.056  69.630  1.00  0.00     0.000 HD 
HETATM    3  H2  UNL     1     -12.657  12.576  70.921  1.00  0.00     0.000 HD 
HETATM    4  C   UNL     1     -12.100  14.080  69.583  1.00  0.00    -0.355 C  
ENDROOT
BRANCH   4   5
HETATM    5  C   UNL     1     -10.898  14.445  68.680  1.00  0.00    -0.260 C  
BRANCH   5   6
HETATM    6  C   UNL     1     -10.692  13.482  67.530  1.00  0.00    -0.266 A  
HETATM    7  C   UNL     1     -10.371  11.565  65.506  1.00  0.00    -0.322 A  
HETATM    8  C   UNL     1      -9.473  12.807  67.376  1.00  0.00    -0.190 A  
HETATM    9  C   UNL     1     -11.730  13.218  66.626  1.00  0.00    -0.425 A  
HETATM   10  C   UNL     1     -11.574  12.258  65.627  1.00  0.00    -0.433 A  
HETATM   11  C   UNL     1      -9.316  11.851  66.370  1.00  0.00    -0.233 A  
ENDBRANCH   5   6
ENDBRANCH   4   5
BRANCH   4  12
HETATM   12  C   UNL     1     -12.381  15.213  70.594  1.00  0.00    -0.368 C  
BRANCH  12  13
HETATM   13  O   UNL     1     -11.939  14.840  71.915  1.00  0.00    -0.351 OA 
BRANCH  13  14
HETATM   14  C   UNL     1     -12.929  14.548  72.789  1.00  0.00    -0.471 C  
HETATM   15  H1  UNL     1     -13.584  15.122  74.534  1.00  0.00     0.000 HD 
HETATM   16  O   UNL     1     -13.790  13.695  72.648  1.00  0.00    -0.715 OA 
HETATM   17  N   UNL     1     -12.838  15.342  73.876  1.00  0.00    -0.633 N  
HETATM   18  H2  UNL     1     -12.127  16.059  74.017  1.00  0.00     0.000 HD 
ENDBRANCH  13  14
ENDBRANCH  12  13
ENDBRANCH   4  12
TORSDOF 5
ENDMDL
MODEL       66
REMARK 921   NORMALIZED FREE ENERGY PREDICTED BY IDOCK:   -4.35 KCAL/MOL
REMARK 922        TOTAL FREE ENERGY PREDICTED BY IDOCK:   -5.82 KCAL/MOL
REMARK 923 INTER-LIGAND FREE ENERGY PREDICTED BY IDOCK:   -5.69 KCAL/MOL
REMARK 924 INTRA-LIGAND FREE ENERGY PREDICTED BY IDOCK:   -0.13 KCAL/MOL
REMARK 927      BINDING AFFINITY PREDICTED BY RF-SCORE:    0.00 PKD
ROOT
HETATM    1  N   UNL     1      -9.629  13.483  68.648  1.00  0.00    -0.385 NA 
HETATM    2  H1  UNL     1      -9.746  13.389  69.657  1.00  0.00     0.000 HD 
HETATM    3  H2  UNL     1      -8.989  14.240  68.405  1.00  0.00     0.000 HD 
HETATM    4  C   UNL     1     -10.948  13.643  67.998  1.00  0.00    -0.250 C  
ENDROOT
BRANCH   4   5
HETATM    5  C   UNL     1     -11.897  12.467  68.329  1.00  0.00    -0.364 C  
BRANCH   5   6
HETATM    6  C   UNL     1     -11.184  11.139  68.476  1.00  0.00    -0.318 A  
HETATM    7  C   UNL     1     -10.024   8.597  68.729  1.00  0.00    -0.194 A  
HETATM    8  C   UNL     1     -11.030  10.550  69.738  1.00  0.00    -0.350 A  
HETATM    9  C   UNL     1     -10.705  10.459  67.348  1.00  0.00    -0.338 A  
HETATM   10  C   UNL     1     -10.138   9.190  67.473  1.00  0.00    -0.284 A  
HETATM   11  C   UNL     1     -10.456   9.283  69.862  1.00  0.00    -0.247 A  
ENDBRANCH   5   6
ENDBRANCH   4   5
BRANCH   4  12
HETATM   12  C   UNL     1     -10.773  13.785  66.470  1.00  0.00    -0.284 C  
BRANCH  12  13
HETATM   13  O   UNL     1     -11.913  14.446  65.884  1.00  0.00    -0.377 OA 
BRANCH  13  14
HETATM   14  C   UNL     1     -12.488  13.786  64.853  1.00  0.00    -0.386 C  
HETATM   15  H1  UNL     1     -12.843  14.030  62.950  1.00  0.00     0.000 HD 
HETATM   16  O   UNL     1     -13.011  12.685  64.900  1.00  0.00    -0.830 OA 
HETATM   17  N   UNL     1     -12.409  14.526  63.727  1.00  0.00    -1.087 N  
HETATM   18  H2  UNL     1     -11.979  15.449  63.664  1.00  0.00     0.000 HD 
ENDBRANCH  13  14
ENDBRANCH  12  13
ENDBRANCH   4  12
TORSDOF 5
ENDMDL
MODEL       67
REMARK 921   NORMALIZED FREE ENERGY PREDICTED BY IDOCK:   -4.35 KCAL/MOL
REMARK 922        TOTAL FREE ENERGY PREDICTED BY IDOCK:   -5.82 KCAL/MOL
REMARK 923 INTER-LIGAND FREE ENERGY PREDICTED BY IDOCK:   -5.74 KCAL/MOL
REMARK 924 INTRA-LIGAND FREE ENERGY PREDICTED BY IDOCK:   -0.08 KCAL/MOL
REMARK 927      BINDING AFFINITY PREDICTED BY RF-SCORE:    0.00 PKD
ROOT
HETATM    1  N   UNL     1     -12.527  14.268  66.425  1.00  0.00    -0.506 NA 
HETATM    2  H1  UNL     1     -12.691  14.935  67.179  1.00  0.00     0.000 HD 
HETATM    3  H2  UNL     1     -13.383  14.050  65.914  1.00  0.00     0.000 HD 
HETATM    4  C   UNL     1     -11.874  13.052  66.956  1.00  0.00    -0.377 C  
ENDROOT
BRANCH   4   5
HETATM    5  C   UNL     1     -10.550  13.384  67.686  1.00  0.00    -0.249 C  
BRANCH   5   6
HETATM    6  C   UNL     1     -10.077  14.804  67.461  1.00  0.00    -0.224 A  
HETATM    7  C   UNL     1      -9.052  17.397  67.142  1.00  0.00    -0.242 A  
HETATM    8  C   UNL     1     -10.411  15.819  68.369  1.00  0.00    -0.233 A  
HETATM    9  C   UNL     1      -9.262  15.119  66.365  1.00  0.00    -0.334 A  
HETATM   10  C   UNL     1      -8.744  16.405  66.212  1.00  0.00    -0.369 A  
HETATM   11  C   UNL     1      -9.897  17.108  68.211  1.00  0.00    -0.288 A  
ENDBRANCH   5   6
ENDBRANCH   4   5
BRANCH   4  12
HETATM   12  C   UNL     1     -11.624  12.042  65.814  1.00  0.00    -0.290 C  
BRANCH  12  13
HETATM   13  O   UNL     1     -11.164  12.718  64.626  1.00  0.00    -0.297 OA 
BRANCH  13  14
HETATM   14  C   UNL     1     -12.081  12.826  63.638  1.00  0.00    -0.543 C  
HETATM   15  H1  UNL     1     -13.010  11.696  62.347  1.00  0.00     0.000 HD 
HETATM   16  O   UNL     1     -12.629  13.851  63.268  1.00  0.00    -0.824 OA 
HETATM   17  N   UNL     1     -12.319  11.615  63.092  1.00  0.00    -0.966 N  
HETATM   18  H2  UNL     1     -11.872  10.745  63.382  1.00  0.00     0.000 HD 
ENDBRANCH  13  14
ENDBRANCH  12  13
ENDBRANCH   4  12
TORSDOF 5
ENDMDL
MODEL       68
REMARK 921   NORMALIZED FREE ENERGY PREDICTED BY IDOCK:   -4.35 KCAL/MOL
REMARK 922        TOTAL FREE ENERGY PREDICTED BY IDOCK:   -5.82 KCAL/MOL
REMARK 923 INTER-LIGAND FREE ENERGY PREDICTED BY IDOCK:   -5.86 KCAL/MOL
REMARK 924 INTRA-LIGAND FREE ENERGY PREDICTED BY IDOCK:    0.04 KCAL/MOL
REMARK 927      BINDING AFFINITY PREDICTED BY RF-SCORE:    0.00 PKD
ROOT
HETATM    1  N   UNL     1     -12.328  14.421  63.436  1.00  0.00    -1.088 NA 
HETATM    2  H1  UNL     1     -13.333  14.502  63.283  1.00  0.00     0.000 HD 
HETATM    3  H2  UNL     1     -11.790  14.812  62.661  1.00  0.00     0.000 HD 
HETATM    4  C   UNL     1     -11.967  13.012  63.704  1.00  0.00    -0.539 C  
ENDROOT
BRANCH   4   5
HETATM    5  C   UNL     1     -12.748  12.441  64.912  1.00  0.00    -0.256 C  
BRANCH   5   6
HETATM    6  C   UNL     1     -12.242  12.939  66.248  1.00  0.00    -0.340 A  
HETATM    7  C   UNL     1     -11.139  13.877  68.652  1.00  0.00    -0.290 A  
HETATM    8  C   UNL     1     -11.747  12.040  67.203  1.00  0.00    -0.344 A  
HETATM    9  C   UNL     1     -12.221  14.311  66.537  1.00  0.00    -0.419 A  
HETATM   10  C   UNL     1     -11.663  14.778  67.727  1.00  0.00    -0.368 A  
HETATM   11  C   UNL     1     -11.195  12.508  68.397  1.00  0.00    -0.313 A  
ENDBRANCH   5   6
ENDBRANCH   4   5
BRANCH   4  12
HETATM   12  C   UNL     1     -10.446  12.889  63.936  1.00  0.00    -0.304 C  
BRANCH  12  13
HETATM   13  O   UNL     1      -9.869  11.916  63.041  1.00  0.00    -0.385 OA 
BRANCH  13  14
HETATM   14  C   UNL     1      -9.885  10.642  63.493  1.00  0.00    -0.326 C  
HETATM   15  H1  UNL     1      -9.735   8.822  62.807  1.00  0.00     0.000 HD 
HETATM   16  O   UNL     1     -10.026  10.287  64.652  1.00  0.00    -0.336 OA 
HETATM   17  N   UNL     1      -9.723   9.782  62.466  1.00  0.00    -0.552 N  
HETATM   18  H2  UNL     1      -9.605  10.054  61.490  1.00  0.00     0.000 HD 
ENDBRANCH  13  14
ENDBRANCH  12  13
ENDBRANCH   4  12
TORSDOF 5
ENDMDL
MODEL       69
REMARK 921   NORMALIZED FREE ENERGY PREDICTED BY IDOCK:   -4.33 KCAL/MOL
REMARK 922        TOTAL FREE ENERGY PREDICTED BY IDOCK:   -5.79 KCAL/MOL
REMARK 923 INTER-LIGAND FREE ENERGY PREDICTED BY IDOCK:   -5.48 KCAL/MOL
REMARK 924 INTRA-LIGAND FREE ENERGY PREDICTED BY IDOCK:   -0.31 KCAL/MOL
REMARK 927      BINDING AFFINITY PREDICTED BY RF-SCORE:    0.00 PKD
ROOT
HETATM    1  N   UNL     1     -10.300  18.688  68.649  1.00  0.00    -0.425 NA 
HETATM    2  H1  UNL     1     -10.787  17.956  69.167  1.00  0.00     0.000 HD 
HETATM    3  H2  UNL     1     -10.687  19.613  68.838  1.00  0.00     0.000 HD 
HETATM    4  C   UNL     1     -10.299  18.371  67.205  1.00  0.00    -0.394 C  
ENDROOT
BRANCH   4   5
HETATM    5  C   UNL     1      -9.665  16.989  66.921  1.00  0.00    -0.266 C  
BRANCH   5   6
HETATM    6  C   UNL     1     -10.654  15.964  66.409  1.00  0.00    -0.298 A  
HETATM    7  C   UNL     1     -12.349  13.949  65.440  1.00  0.00    -0.494 A  
HETATM    8  C   UNL     1     -10.946  15.876  65.041  1.00  0.00    -0.426 A  
HETATM    9  C   UNL     1     -11.262  15.059  67.289  1.00  0.00    -0.339 A  
HETATM   10  C   UNL     1     -12.096  14.050  66.807  1.00  0.00    -0.480 A  
HETATM   11  C   UNL     1     -11.787  14.871  64.559  1.00  0.00    -0.404 A  
ENDBRANCH   5   6
ENDBRANCH   4   5
BRANCH   4  12
HETATM   12  C   UNL     1      -9.561  19.478  66.420  1.00  0.00    -0.390 C  
BRANCH  12  13
HETATM   13  O   UNL     1      -8.339  18.970  65.847  1.00  0.00    -0.463 OA 
BRANCH  13  14
HETATM   14  C   UNL     1      -7.371  19.894  65.651  1.00  0.00    -0.296 C  
HETATM   15  H1  UNL     1      -6.789  21.609  66.376  1.00  0.00     0.000 HD 
HETATM   16  O   UNL     1      -6.483  19.845  64.816  1.00  0.00    -0.276 OA 
HETATM   17  N   UNL     1      -7.518  20.912  66.523  1.00  0.00    -0.527 N  
HETATM   18  H2  UNL     1      -8.253  20.976  67.228  1.00  0.00     0.000 HD 
ENDBRANCH  13  14
ENDBRANCH  12  13
ENDBRANCH   4  12
TORSDOF 5
ENDMDL
MODEL       70
REMARK 921   NORMALIZED FREE ENERGY PREDICTED BY IDOCK:   -4.32 KCAL/MOL
REMARK 922        TOTAL FREE ENERGY PREDICTED BY IDOCK:   -5.78 KCAL/MOL
REMARK 923 INTER-LIGAND FREE ENERGY PREDICTED BY IDOCK:   -5.44 KCAL/MOL
REMARK 924 INTRA-LIGAND FREE ENERGY PREDICTED BY IDOCK:   -0.34 KCAL/MOL
REMARK 927      BINDING AFFINITY PREDICTED BY RF-SCORE:    0.00 PKD
ROOT
HETATM    1  N   UNL     1     -10.185  13.914  64.224  1.00  0.00    -0.703 NA 
HETATM    2  H1  UNL     1     -10.697  13.038  64.122  1.00  0.00     0.000 HD 
HETATM    3  H2  UNL     1      -9.243  13.854  63.837  1.00  0.00     0.000 HD 
HETATM    4  C   UNL     1     -10.175  14.334  65.643  1.00  0.00    -0.347 C  
ENDROOT
BRANCH   4   5
HETATM    5  C   UNL     1     -11.608  14.472  66.210  1.00  0.00    -0.364 C  
BRANCH   5   6
HETATM    6  C   UNL     1     -11.800  13.777  67.541  1.00  0.00    -0.422 A  
HETATM    7  C   UNL     1     -11.977  12.491  70.029  1.00  0.00    -0.372 A  
HETATM    8  C   UNL     1     -11.794  12.377  67.621  1.00  0.00    -0.363 A  
HETATM    9  C   UNL     1     -11.946  14.521  68.719  1.00  0.00    -0.315 A  
HETATM   10  C   UNL     1     -12.023  13.882  69.957  1.00  0.00    -0.404 A  
HETATM   11  C   UNL     1     -11.879  11.739  68.860  1.00  0.00    -0.381 A  
ENDBRANCH   5   6
ENDBRANCH   4   5
BRANCH   4  12
HETATM   12  C   UNL     1      -9.401  15.661  65.797  1.00  0.00    -0.268 C  
BRANCH  12  13
HETATM   13  O   UNL     1     -10.285  16.789  65.644  1.00  0.00    -0.523 OA 
BRANCH  13  14
HETATM   14  C   UNL     1     -10.138  17.762  66.573  1.00  0.00    -0.358 C  
HETATM   15  H1  UNL     1      -8.935  19.238  66.997  1.00  0.00     0.000 HD 
HETATM   16  O   UNL     1     -10.864  17.962  67.532  1.00  0.00    -0.364 OA 
HETATM   17  N   UNL     1      -9.046  18.505  66.297  1.00  0.00    -0.256 N  
HETATM   18  H2  UNL     1      -8.423  18.355  65.503  1.00  0.00     0.000 HD 
ENDBRANCH  13  14
ENDBRANCH  12  13
ENDBRANCH   4  12
TORSDOF 5
ENDMDL
MODEL       71
REMARK 921   NORMALIZED FREE ENERGY PREDICTED BY IDOCK:   -4.30 KCAL/MOL
REMARK 922        TOTAL FREE ENERGY PREDICTED BY IDOCK:   -5.75 KCAL/MOL
REMARK 923 INTER-LIGAND FREE ENERGY PREDICTED BY IDOCK:   -5.48 KCAL/MOL
REMARK 924 INTRA-LIGAND FREE ENERGY PREDICTED BY IDOCK:   -0.27 KCAL/MOL
REMARK 927      BINDING AFFINITY PREDICTED BY RF-SCORE:    0.00 PKD
ROOT
HETATM    1  N   UNL     1      -8.869  14.305  66.269  1.00  0.00    -0.460 NA 
HETATM    2  H1  UNL     1      -8.057  14.571  66.826  1.00  0.00     0.000 HD 
HETATM    3  H2  UNL     1      -8.907  14.811  65.383  1.00  0.00     0.000 HD 
HETATM    4  C   UNL     1     -10.106  14.480  67.060  1.00  0.00    -0.254 C  
ENDROOT
BRANCH   4   5
HETATM    5  C   UNL     1     -10.063  13.670  68.377  1.00  0.00    -0.241 C  
BRANCH   5   6
HETATM    6  C   UNL     1     -10.974  14.219  69.454  1.00  0.00    -0.242 A  
HETATM    7  C   UNL     1     -12.544  15.179  71.573  1.00  0.00    -0.425 A  
HETATM    8  C   UNL     1     -11.970  13.414  70.024  1.00  0.00    -0.407 A  
HETATM    9  C   UNL     1     -10.810  15.528  69.928  1.00  0.00    -0.311 A  
HETATM   10  C   UNL     1     -11.583  16.001  70.988  1.00  0.00    -0.472 A  
HETATM   11  C   UNL     1     -12.748  13.891  71.081  1.00  0.00    -0.441 A  
ENDBRANCH   5   6
ENDBRANCH   4   5
BRANCH   4  12
HETATM   12  C   UNL     1     -11.335  14.078  66.216  1.00  0.00    -0.333 C  
BRANCH  12  13
HETATM   13  O   UNL     1     -10.961  13.851  64.843  1.00  0.00    -0.345 OA 
BRANCH  13  14
HETATM   14  C   UNL     1     -11.886  13.205  64.096  1.00  0.00    -0.429 C  
HETATM   15  H1  UNL     1     -12.450  11.385  63.681  1.00  0.00     0.000 HD 
HETATM   16  O   UNL     1     -12.728  13.723  63.382  1.00  0.00    -0.795 OA 
HETATM   17  N   UNL     1     -11.753  11.871  64.244  1.00  0.00    -0.328 N  
HETATM   18  H2  UNL     1     -11.056  11.415  64.833  1.00  0.00     0.000 HD 
ENDBRANCH  13  14
ENDBRANCH  12  13
ENDBRANCH   4  12
TORSDOF 5
ENDMDL
MODEL       72
REMARK 921   NORMALIZED FREE ENERGY PREDICTED BY IDOCK:   -4.28 KCAL/MOL
REMARK 922        TOTAL FREE ENERGY PREDICTED BY IDOCK:   -5.73 KCAL/MOL
REMARK 923 INTER-LIGAND FREE ENERGY PREDICTED BY IDOCK:   -5.42 KCAL/MOL
REMARK 924 INTRA-LIGAND FREE ENERGY PREDICTED BY IDOCK:   -0.31 KCAL/MOL
REMARK 927      BINDING AFFINITY PREDICTED BY RF-SCORE:    0.00 PKD
ROOT
HETATM    1  N   UNL     1     -12.088  14.927  67.632  1.00  0.00    -0.499 NA 
HETATM    2  H1  UNL     1     -11.327  15.304  68.197  1.00  0.00     0.000 HD 
HETATM    3  H2  UNL     1     -12.679  14.286  68.163  1.00  0.00     0.000 HD 
HETATM    4  C   UNL     1     -11.547  14.297  66.409  1.00  0.00    -0.372 C  
ENDROOT
BRANCH   4   5
HETATM    5  C   UNL     1     -10.695  15.288  65.582  1.00  0.00    -0.376 C  
BRANCH   5   6
HETATM    6  C   UNL     1      -9.386  15.659  66.245  1.00  0.00    -0.358 A  
HETATM    7  C   UNL     1      -6.876  16.310  67.319  1.00  0.00    -0.230 A  
HETATM    8  C   UNL     1      -8.609  14.682  66.885  1.00  0.00    -0.233 A  
HETATM    9  C   UNL     1      -8.908  16.976  66.195  1.00  0.00    -0.251 A  
HETATM   10  C   UNL     1      -7.656  17.297  66.719  1.00  0.00    -0.270 A  
HETATM   11  C   UNL     1      -7.359  15.007  67.415  1.00  0.00    -0.231 A  
ENDBRANCH   5   6
ENDBRANCH   4   5
BRANCH   4  12
HETATM   12  C   UNL     1     -12.699  13.727  65.552  1.00  0.00    -0.488 C  
BRANCH  12  13
HETATM   13  O   UNL     1     -12.482  12.330  65.268  1.00  0.00    -0.585 OA 
BRANCH  13  14
HETATM   14  C   UNL     1     -11.893  12.073  64.077  1.00  0.00    -0.408 C  
HETATM   15  H1  UNL     1     -12.357  11.967  62.185  1.00  0.00     0.000 HD 
HETATM   16  O   UNL     1     -10.719  11.797  63.895  1.00  0.00    -0.324 OA 
HETATM   17  N   UNL     1     -12.800  12.160  63.083  1.00  0.00    -0.796 N  
HETATM   18  H2  UNL     1     -13.787  12.387  63.210  1.00  0.00     0.000 HD 
ENDBRANCH  13  14
ENDBRANCH  12  13
ENDBRANCH   4  12
TORSDOF 5
ENDMDL
MODEL       73
REMARK 921   NORMALIZED FREE ENERGY PREDICTED BY IDOCK:   -4.27 KCAL/MOL
REMARK 922        TOTAL FREE ENERGY PREDICTED BY IDOCK:   -5.72 KCAL/MOL
REMARK 923 INTER-LIGAND FREE ENERGY PREDICTED BY IDOCK:   -5.26 KCAL/MOL
REMARK 924 INTRA-LIGAND FREE ENERGY PREDICTED BY IDOCK:   -0.45 KCAL/MOL
REMARK 927      BINDING AFFINITY PREDICTED BY RF-SCORE:    0.00 PKD
ROOT
HETATM    1  N   UNL     1     -10.599  16.372  68.070  1.00  0.00    -0.303 NA 
HETATM    2  H1  UNL     1      -9.823  16.866  67.630  1.00  0.00     0.000 HD 
HETATM    3  H2  UNL     1     -10.471  16.278  69.078  1.00  0.00     0.000 HD 
HETATM    4  C   UNL     1     -10.804  15.062  67.413  1.00  0.00    -0.305 C  
ENDROOT
BRANCH   4   5
HETATM    5  C   UNL     1     -11.049  15.215  65.894  1.00  0.00    -0.319 C  
BRANCH   5   6
HETATM    6  C   UNL     1     -10.986  13.906  65.137  1.00  0.00    -0.352 A  
HETATM    7  C   UNL     1     -10.971  11.405  63.864  1.00  0.00    -0.442 A  
HETATM    8  C   UNL     1      -9.967  12.979  65.399  1.00  0.00    -0.201 A  
HETATM    9  C   UNL     1     -11.968  13.580  64.191  1.00  0.00    -0.498 A  
HETATM   10  C   UNL     1     -11.967  12.333  63.567  1.00  0.00    -0.625 A  
HETATM   11  C   UNL     1      -9.963  11.734  64.768  1.00  0.00    -0.275 A  
ENDBRANCH   5   6
ENDBRANCH   4   5
BRANCH   4  12
HETATM   12  C   UNL     1     -11.979  14.313  68.079  1.00  0.00    -0.318 C  
BRANCH  12  13
HETATM   13  O   UNL     1     -11.659  13.969  69.442  1.00  0.00    -0.261 OA 
BRANCH  13  14
HETATM   14  C   UNL     1     -12.605  14.295  70.352  1.00  0.00    -0.343 C  
HETATM   15  H1  UNL     1     -13.771  15.791  70.808  1.00  0.00     0.000 HD 
HETATM   16  O   UNL     1     -13.009  13.589  71.261  1.00  0.00    -0.338 OA 
HETATM   17  N   UNL     1     -13.059  15.545  70.122  1.00  0.00    -0.682 N  
HETATM   18  H2  UNL     1     -12.735  16.155  69.372  1.00  0.00     0.000 HD 
ENDBRANCH  13  14
ENDBRANCH  12  13
ENDBRANCH   4  12
TORSDOF 5
ENDMDL
MODEL       74
REMARK 921   NORMALIZED FREE ENERGY PREDICTED BY IDOCK:   -4.27 KCAL/MOL
REMARK 922        TOTAL FREE ENERGY PREDICTED BY IDOCK:   -5.71 KCAL/MOL
REMARK 923 INTER-LIGAND FREE ENERGY PREDICTED BY IDOCK:   -5.25 KCAL/MOL
REMARK 924 INTRA-LIGAND FREE ENERGY PREDICTED BY IDOCK:   -0.47 KCAL/MOL
REMARK 927      BINDING AFFINITY PREDICTED BY RF-SCORE:    0.00 PKD
ROOT
HETATM    1  N   UNL     1     -12.140  13.293  69.599  1.00  0.00    -0.297 NA 
HETATM    2  H1  UNL     1     -12.069  14.078  68.952  1.00  0.00     0.000 HD 
HETATM    3  H2  UNL     1     -11.912  13.564  70.556  1.00  0.00     0.000 HD 
HETATM    4  C   UNL     1     -11.304  12.168  69.128  1.00  0.00    -0.276 C  
ENDROOT
BRANCH   4   5
HETATM    5  C   UNL     1     -11.689  11.728  67.696  1.00  0.00    -0.320 C  
BRANCH   5   6
HETATM    6  C   UNL     1     -11.462  12.801  66.652  1.00  0.00    -0.404 A  
HETATM    7  C   UNL     1     -11.098  14.912  64.840  1.00  0.00    -0.424 A  
HETATM    8  C   UNL     1     -12.495  13.181  65.784  1.00  0.00    -0.441 A  
HETATM    9  C   UNL     1     -10.229  13.462  66.565  1.00  0.00    -0.282 A  
HETATM   10  C   UNL     1     -10.051  14.519  65.672  1.00  0.00    -0.384 A  
HETATM   11  C   UNL     1     -12.314  14.234  64.886  1.00  0.00    -0.435 A  
ENDBRANCH   5   6
ENDBRANCH   4   5
BRANCH   4  12
HETATM   12  C   UNL     1     -11.413  10.979  70.108  1.00  0.00    -0.296 C  
BRANCH  12  13
HETATM   13  O   UNL     1     -12.793  10.687  70.405  1.00  0.00    -0.322 OA 
BRANCH  13  14
HETATM   14  C   UNL     1     -13.088  10.599  71.722  1.00  0.00    -0.466 C  
HETATM   15  H1  UNL     1     -13.702  11.735  73.185  1.00  0.00     0.000 HD 
HETATM   16  O   UNL     1     -13.018   9.596  72.414  1.00  0.00    -0.377 OA 
HETATM   17  N   UNL     1     -13.480  11.802  72.192  1.00  0.00    -0.523 N  
HETATM   18  H2  UNL     1     -13.544  12.654  71.635  1.00  0.00     0.000 HD 
ENDBRANCH  13  14
ENDBRANCH  12  13
ENDBRANCH   4  12
TORSDOF 5
ENDMDL
MODEL       75
REMARK 921   NORMALIZED FREE ENERGY PREDICTED BY IDOCK:   -4.19 KCAL/MOL
REMARK 922        TOTAL FREE ENERGY PREDICTED BY IDOCK:   -5.62 KCAL/MOL
REMARK 923 INTER-LIGAND FREE ENERGY PREDICTED BY IDOCK:   -5.37 KCAL/MOL
REMARK 924 INTRA-LIGAND FREE ENERGY PREDICTED BY IDOCK:   -0.24 KCAL/MOL
REMARK 927      BINDING AFFINITY PREDICTED BY RF-SCORE:    0.00 PKD
ROOT
HETATM    1  N   UNL     1     -11.045   9.434  67.973  1.00  0.00    -0.513 NA 
HETATM    2  H1  UNL     1     -11.153   9.342  66.963  1.00  0.00     0.000 HD 
HETATM    3  H2  UNL     1     -11.544   8.702  68.479  1.00  0.00     0.000 HD 
HETATM    4  C   UNL     1     -11.458  10.787  68.406  1.00  0.00    -0.288 C  
ENDROOT
BRANCH   4   5
HETATM    5  C   UNL     1     -10.661  11.891  67.671  1.00  0.00    -0.253 C  
BRANCH   5   6
HETATM    6  C   UNL     1     -11.058  12.058  66.220  1.00  0.00    -0.363 A  
HETATM    7  C   UNL     1     -11.886  12.212  63.543  1.00  0.00    -0.597 A  
HETATM    8  C   UNL     1     -10.271  11.509  65.198  1.00  0.00    -0.322 A  
HETATM    9  C   UNL     1     -12.241  12.727  65.876  1.00  0.00    -0.422 A  
HETATM   10  C   UNL     1     -12.658  12.794  64.547  1.00  0.00    -0.463 A  
HETATM   11  C   UNL     1     -10.685  11.583  63.867  1.00  0.00    -0.458 A  
ENDBRANCH   5   6
ENDBRANCH   4   5
BRANCH   4  12
HETATM   12  C   UNL     1     -11.294  10.927  69.935  1.00  0.00    -0.305 C  
BRANCH  12  13
HETATM   13  O   UNL     1     -11.296   9.632  70.570  1.00  0.00    -0.260 OA 
BRANCH  13  14
HETATM   14  C   UNL     1     -12.291   9.435  71.463  1.00  0.00    -0.370 C  
HETATM   15  H1  UNL     1     -12.657   8.392  73.071  1.00  0.00     0.000 HD 
HETATM   16  O   UNL     1     -13.389   9.968  71.453  1.00  0.00    -0.377 OA 
HETATM   17  N   UNL     1     -11.906   8.541  72.398  1.00  0.00    -0.384 N  
HETATM   18  H2  UNL     1     -10.996   8.080  72.426  1.00  0.00     0.000 HD 
ENDBRANCH  13  14
ENDBRANCH  12  13
ENDBRANCH   4  12
TORSDOF 5
ENDMDL
MODEL       76
REMARK 921   NORMALIZED FREE ENERGY PREDICTED BY IDOCK:   -4.18 KCAL/MOL
REMARK 922        TOTAL FREE ENERGY PREDICTED BY IDOCK:   -5.60 KCAL/MOL
REMARK 923 INTER-LIGAND FREE ENERGY PREDICTED BY IDOCK:   -5.33 KCAL/MOL
REMARK 924 INTRA-LIGAND FREE ENERGY PREDICTED BY IDOCK:   -0.27 KCAL/MOL
REMARK 927      BINDING AFFINITY PREDICTED BY RF-SCORE:    0.00 PKD
ROOT
HETATM    1  N   UNL     1     -12.152  10.952  68.641  1.00  0.00    -0.796 NA 
HETATM    2  H1  UNL     1     -12.132  10.326  67.836  1.00  0.00     0.000 HD 
HETATM    3  H2  UNL     1     -13.045  10.914  69.134  1.00  0.00     0.000 HD 
HETATM    4  C   UNL     1     -11.809  12.328  68.222  1.00  0.00    -0.310 C  
ENDROOT
BRANCH   4   5
HETATM    5  C   UNL     1     -10.431  12.387  67.521  1.00  0.00    -0.229 C  
BRANCH   5   6
HETATM    6  C   UNL     1     -10.475  11.970  66.067  1.00  0.00    -0.284 A  
HETATM    7  C   UNL     1     -10.456  11.342  63.332  1.00  0.00    -0.452 A  
HETATM    8  C   UNL     1     -11.492  12.437  65.222  1.00  0.00    -0.389 A  
HETATM    9  C   UNL     1      -9.477  11.145  65.531  1.00  0.00    -0.251 A  
HETATM   10  C   UNL     1      -9.462  10.841  64.169  1.00  0.00    -0.309 A  
HETATM   11  C   UNL     1     -11.479  12.127  63.861  1.00  0.00    -0.519 A  
ENDBRANCH   5   6
ENDBRANCH   4   5
BRANCH   4  12
HETATM   12  C   UNL     1     -11.837  13.276  69.441  1.00  0.00    -0.329 C  
BRANCH  12  13
HETATM   13  O   UNL     1     -10.875  14.339  69.285  1.00  0.00    -0.249 OA 
BRANCH  13  14
HETATM   14  C   UNL     1     -11.044  15.390  70.118  1.00  0.00    -0.307 C  
HETATM   15  H1  UNL     1     -11.354  15.748  72.011  1.00  0.00     0.000 HD 
HETATM   16  O   UNL     1     -11.040  16.569  69.806  1.00  0.00    -0.337 OA 
HETATM   17  N   UNL     1     -11.227  14.955  71.383  1.00  0.00    -0.566 N  
HETATM   18  H2  UNL     1     -11.237  13.976  71.668  1.00  0.00     0.000 HD 
ENDBRANCH  13  14
ENDBRANCH  12  13
ENDBRANCH   4  12
TORSDOF 5
ENDMDL
MODEL       77
REMARK 921   NORMALIZED FREE ENERGY PREDICTED BY IDOCK:   -4.18 KCAL/MOL
REMARK 922        TOTAL FREE ENERGY PREDICTED BY IDOCK:   -5.60 KCAL/MOL
REMARK 923 INTER-LIGAND FREE ENERGY PREDICTED BY IDOCK:   -5.30 KCAL/MOL
REMARK 924 INTRA-LIGAND FREE ENERGY PREDICTED BY IDOCK:   -0.29 KCAL/MOL
REMARK 927      BINDING AFFINITY PREDICTED BY RF-SCORE:    0.00 PKD
ROOT
HETATM    1  N   UNL     1     -12.223  11.045  68.362  1.00  0.00    -0.780 NA 
HETATM    2  H1  UNL     1     -12.788  10.642  69.109  1.00  0.00     0.000 HD 
HETATM    3  H2  UNL     1     -12.778  11.249  67.530  1.00  0.00     0.000 HD 
HETATM    4  C   UNL     1     -11.076  10.161  68.059  1.00  0.00    -0.240 C  
ENDROOT
BRANCH   4   5
HETATM    5  C   UNL     1     -10.209   9.897  69.313  1.00  0.00    -0.222 C  
BRANCH   5   6
HETATM    6  C   UNL     1     -10.794   8.856  70.243  1.00  0.00    -0.265 A  
HETATM    7  C   UNL     1     -12.041   6.961  71.895  1.00  0.00    -0.370 A  
HETATM    8  C   UNL     1     -11.273   9.220  71.509  1.00  0.00    -0.457 A  
HETATM    9  C   UNL     1     -10.906   7.519  69.838  1.00  0.00    -0.250 A  
HETATM   10  C   UNL     1     -11.535   6.579  70.654  1.00  0.00    -0.433 A  
HETATM   11  C   UNL     1     -11.896   8.278  72.329  1.00  0.00    -0.451 A  
ENDBRANCH   5   6
ENDBRANCH   4   5
BRANCH   4  12
HETATM   12  C   UNL     1     -10.221  10.772  66.927  1.00  0.00    -0.227 C  
BRANCH  12  13
HETATM   13  O   UNL     1     -10.448  12.192  66.825  1.00  0.00    -0.215 OA 
BRANCH  13  14
HETATM   14  C   UNL     1     -11.109  12.587  65.713  1.00  0.00    -0.308 C  
HETATM   15  H1  UNL     1     -10.736  13.364  63.963  1.00  0.00     0.000 HD 
HETATM   16  O   UNL     1     -12.314  12.534  65.530  1.00  0.00    -0.600 OA 
HETATM   17  N   UNL     1     -10.238  13.066  64.801  1.00  0.00    -0.484 N  
HETATM   18  H2  UNL     1      -9.228  13.123  64.931  1.00  0.00     0.000 HD 
ENDBRANCH  13  14
ENDBRANCH  12  13
ENDBRANCH   4  12
TORSDOF 5
ENDMDL
MODEL       78
REMARK 921   NORMALIZED FREE ENERGY PREDICTED BY IDOCK:   -4.17 KCAL/MOL
REMARK 922        TOTAL FREE ENERGY PREDICTED BY IDOCK:   -5.59 KCAL/MOL
REMARK 923 INTER-LIGAND FREE ENERGY PREDICTED BY IDOCK:   -5.51 KCAL/MOL
REMARK 924 INTRA-LIGAND FREE ENERGY PREDICTED BY IDOCK:   -0.08 KCAL/MOL
REMARK 927      BINDING AFFINITY PREDICTED BY RF-SCORE:    0.00 PKD
ROOT
HETATM    1  N   UNL     1     -12.431  13.914  62.960  1.00  0.00    -1.009 NA 
HETATM    2  H1  UNL     1     -13.437  14.071  62.899  1.00  0.00     0.000 HD 
HETATM    3  H2  UNL     1     -11.989  13.907  62.040  1.00  0.00     0.000 HD 
HETATM    4  C   UNL     1     -12.156  12.673  63.716  1.00  0.00    -0.522 C  
ENDROOT
BRANCH   4   5
HETATM    5  C   UNL     1     -12.786  12.711  65.128  1.00  0.00    -0.329 C  
BRANCH   5   6
HETATM    6  C   UNL     1     -11.882  13.324  66.176  1.00  0.00    -0.437 A  
HETATM    7  C   UNL     1     -10.354  14.501  68.215  1.00  0.00    -0.236 A  
HETATM    8  C   UNL     1     -11.539  14.683  66.116  1.00  0.00    -0.332 A  
HETATM    9  C   UNL     1     -11.406  12.555  67.247  1.00  0.00    -0.373 A  
HETATM   10  C   UNL     1     -10.656  13.142  68.266  1.00  0.00    -0.260 A  
HETATM   11  C   UNL     1     -10.782  15.268  67.133  1.00  0.00    -0.316 A  
ENDBRANCH   5   6
ENDBRANCH   4   5
BRANCH   4  12
HETATM   12  C   UNL     1     -10.633  12.435  63.808  1.00  0.00    -0.452 C  
BRANCH  12  13
HETATM   13  O   UNL     1     -10.329  11.029  63.706  1.00  0.00    -0.342 OA 
BRANCH  13  14
HETATM   14  C   UNL     1      -9.485  10.556  64.651  1.00  0.00    -0.263 C  
HETATM   15  H1  UNL     1      -8.218  11.222  65.976  1.00  0.00     0.000 HD 
HETATM   16  O   UNL     1      -9.296   9.383  64.931  1.00  0.00    -0.242 OA 
HETATM   17  N   UNL     1      -8.854  11.579  65.264  1.00  0.00    -0.399 N  
HETATM   18  H2  UNL     1      -8.993  12.566  65.046  1.00  0.00     0.000 HD 
ENDBRANCH  13  14
ENDBRANCH  12  13
ENDBRANCH   4  12
TORSDOF 5
ENDMDL
MODEL       79
REMARK 921   NORMALIZED FREE ENERGY PREDICTED BY IDOCK:   -4.15 KCAL/MOL
REMARK 922        TOTAL FREE ENERGY PREDICTED BY IDOCK:   -5.56 KCAL/MOL
REMARK 923 INTER-LIGAND FREE ENERGY PREDICTED BY IDOCK:   -5.30 KCAL/MOL
REMARK 924 INTRA-LIGAND FREE ENERGY PREDICTED BY IDOCK:   -0.26 KCAL/MOL
REMARK 927      BINDING AFFINITY PREDICTED BY RF-SCORE:    0.00 PKD
ROOT
HETATM    1  N   UNL     1     -11.105   5.789  66.327  1.00  0.00    -0.755 NA 
HETATM    2  H1  UNL     1     -11.352   6.112  65.391  1.00  0.00     0.000 HD 
HETATM    3  H2  UNL     1     -11.816   5.170  66.718  1.00  0.00     0.000 HD 
HETATM    4  C   UNL     1     -10.833   6.945  67.208  1.00  0.00    -0.356 C  
ENDROOT
BRANCH   4   5
HETATM    5  C   UNL     1      -9.719   7.853  66.634  1.00  0.00    -0.305 C  
BRANCH   5   6
HETATM    6  C   UNL     1     -10.141   9.297  66.470  1.00  0.00    -0.343 A  
HETATM    7  C   UNL     1     -11.083  11.915  66.104  1.00  0.00    -0.374 A  
HETATM    8  C   UNL     1      -9.922   9.970  65.260  1.00  0.00    -0.368 A  
HETATM    9  C   UNL     1     -10.795   9.971  67.509  1.00  0.00    -0.326 A  
HETATM   10  C   UNL     1     -11.273  11.269  67.324  1.00  0.00    -0.364 A  
HETATM   11  C   UNL     1     -10.394  11.271  65.078  1.00  0.00    -0.359 A  
ENDBRANCH   5   6
ENDBRANCH   4   5
BRANCH   4  12
HETATM   12  C   UNL     1     -10.457   6.456  68.623  1.00  0.00    -0.223 C  
BRANCH  12  13
HETATM   13  O   UNL     1     -11.641   6.221  69.413  1.00  0.00    -0.403 OA 
BRANCH  13  14
HETATM   14  C   UNL     1     -11.598   6.717  70.670  1.00  0.00    -0.370 C  
HETATM   15  H1  UNL     1     -12.141   8.312  71.655  1.00  0.00     0.000 HD 
HETATM   16  O   UNL     1     -11.115   6.171  71.648  1.00  0.00    -0.256 OA 
HETATM   17  N   UNL     1     -12.174   7.937  70.707  1.00  0.00    -0.502 N  
HETATM   18  H2  UNL     1     -12.582   8.415  69.904  1.00  0.00     0.000 HD 
ENDBRANCH  13  14
ENDBRANCH  12  13
ENDBRANCH   4  12
TORSDOF 5
ENDMDL
MODEL       80
REMARK 921   NORMALIZED FREE ENERGY PREDICTED BY IDOCK:   -4.15 KCAL/MOL
REMARK 922        TOTAL FREE ENERGY PREDICTED BY IDOCK:   -5.56 KCAL/MOL
REMARK 923 INTER-LIGAND FREE ENERGY PREDICTED BY IDOCK:   -5.44 KCAL/MOL
REMARK 924 INTRA-LIGAND FREE ENERGY PREDICTED BY IDOCK:   -0.12 KCAL/MOL
REMARK 927      BINDING AFFINITY PREDICTED BY RF-SCORE:    0.00 PKD
ROOT
HETATM    1  N   UNL     1     -12.476  14.790  68.346  1.00  0.00    -0.480 NA 
HETATM    2  H1  UNL     1     -12.864  13.865  68.160  1.00  0.00     0.000 HD 
HETATM    3  H2  UNL     1     -12.000  15.175  67.530  1.00  0.00     0.000 HD 
HETATM    4  C   UNL     1     -11.593  14.741  69.532  1.00  0.00    -0.304 C  
ENDROOT
BRANCH   4   5
HETATM    5  C   UNL     1     -12.336  14.203  70.777  1.00  0.00    -0.439 C  
BRANCH   5   6
HETATM    6  C   UNL     1     -12.453  12.694  70.806  1.00  0.00    -0.357 A  
HETATM    7  C   UNL     1     -12.521   9.893  70.962  1.00  0.00    -0.441 A  
HETATM    8  C   UNL     1     -11.818  11.911  69.832  1.00  0.00    -0.418 A  
HETATM    9  C   UNL     1     -13.164  12.053  71.830  1.00  0.00    -0.469 A  
HETATM   10  C   UNL     1     -13.188  10.661  71.914  1.00  0.00    -0.528 A  
HETATM   11  C   UNL     1     -11.849  10.518  69.913  1.00  0.00    -0.358 A  
ENDBRANCH   5   6
ENDBRANCH   4   5
BRANCH   4  12
HETATM   12  C   UNL     1     -11.007  16.141  69.813  1.00  0.00    -0.349 C  
BRANCH  12  13
HETATM   13  O   UNL     1      -9.866  16.397  68.968  1.00  0.00    -0.244 OA 
BRANCH  13  14
HETATM   14  C   UNL     1      -9.977  17.483  68.170  1.00  0.00    -0.321 C  
HETATM   15  H1  UNL     1     -10.426  19.377  68.296  1.00  0.00     0.000 HD 
HETATM   16  O   UNL     1      -9.786  17.518  66.966  1.00  0.00    -0.274 OA 
HETATM   17  N   UNL     1     -10.342  18.559  68.898  1.00  0.00    -0.456 N  
HETATM   18  H2  UNL     1     -10.510  18.554  69.904  1.00  0.00     0.000 HD 
ENDBRANCH  13  14
ENDBRANCH  12  13
ENDBRANCH   4  12
TORSDOF 5
ENDMDL
MODEL       81
REMARK 921   NORMALIZED FREE ENERGY PREDICTED BY IDOCK:   -4.14 KCAL/MOL
REMARK 922        TOTAL FREE ENERGY PREDICTED BY IDOCK:   -5.55 KCAL/MOL
REMARK 923 INTER-LIGAND FREE ENERGY PREDICTED BY IDOCK:   -5.30 KCAL/MOL
REMARK 924 INTRA-LIGAND FREE ENERGY PREDICTED BY IDOCK:   -0.26 KCAL/MOL
REMARK 927      BINDING AFFINITY PREDICTED BY RF-SCORE:    0.00 PKD
ROOT
HETATM    1  N   UNL     1      -8.539  11.838  66.045  1.00  0.00    -0.389 NA 
HETATM    2  H1  UNL     1      -7.595  12.159  66.261  1.00  0.00     0.000 HD 
HETATM    3  H2  UNL     1      -8.555  11.210  65.240  1.00  0.00     0.000 HD 
HETATM    4  C   UNL     1      -9.439  12.997  65.861  1.00  0.00    -0.032 C  
ENDROOT
BRANCH   4   5
HETATM    5  C   UNL     1      -9.449  13.918  67.104  1.00  0.00    -0.246 C  
BRANCH   5   6
HETATM    6  C   UNL     1      -9.265  15.383  66.772  1.00  0.00    -0.273 A  
HETATM    7  C   UNL     1      -8.942  18.136  66.333  1.00  0.00    -0.256 A  
HETATM    8  C   UNL     1     -10.372  16.194  66.485  1.00  0.00    -0.311 A  
HETATM    9  C   UNL     1      -7.989  15.963  66.787  1.00  0.00    -0.287 A  
HETATM   10  C   UNL     1      -7.829  17.333  66.579  1.00  0.00    -0.322 A  
HETATM   11  C   UNL     1     -10.211  17.564  66.270  1.00  0.00    -0.356 A  
ENDBRANCH   5   6
ENDBRANCH   4   5
BRANCH   4  12
HETATM   12  C   UNL     1     -10.868  12.512  65.535  1.00  0.00    -0.278 C  
BRANCH  12  13
HETATM   13  O   UNL     1     -11.014  12.266  64.121  1.00  0.00    -0.308 OA 
BRANCH  13  14
HETATM   14  C   UNL     1     -12.182  12.688  63.585  1.00  0.00    -0.536 C  
HETATM   15  H1  UNL     1     -13.088  14.355  63.129  1.00  0.00     0.000 HD 
HETATM   16  O   UNL     1     -13.098  11.982  63.198  1.00  0.00    -0.624 OA 
HETATM   17  N   UNL     1     -12.208  14.036  63.533  1.00  0.00    -1.079 N  
HETATM   18  H2  UNL     1     -11.457  14.648  63.852  1.00  0.00     0.000 HD 
ENDBRANCH  13  14
ENDBRANCH  12  13
ENDBRANCH   4  12
TORSDOF 5
ENDMDL
MODEL       82
REMARK 921   NORMALIZED FREE ENERGY PREDICTED BY IDOCK:   -4.13 KCAL/MOL
REMARK 922        TOTAL FREE ENERGY PREDICTED BY IDOCK:   -5.54 KCAL/MOL
REMARK 923 INTER-LIGAND FREE ENERGY PREDICTED BY IDOCK:   -5.35 KCAL/MOL
REMARK 924 INTRA-LIGAND FREE ENERGY PREDICTED BY IDOCK:   -0.19 KCAL/MOL
REMARK 927      BINDING AFFINITY PREDICTED BY RF-SCORE:    0.00 PKD
ROOT
HETATM    1  N   UNL     1     -13.276   7.062  70.916  1.00  0.00    -0.479 NA 
HETATM    2  H1  UNL     1     -13.999   7.469  71.510  1.00  0.00     0.000 HD 
HETATM    3  H2  UNL     1     -13.616   6.247  70.404  1.00  0.00     0.000 HD 
HETATM    4  C   UNL     1     -12.075   6.751  71.720  1.00  0.00    -0.350 C  
ENDROOT
BRANCH   4   5
HETATM    5  C   UNL     1     -11.536   8.002  72.453  1.00  0.00    -0.449 C  
BRANCH   5   6
HETATM    6  C   UNL     1     -11.628   9.270  71.631  1.00  0.00    -0.463 A  
HETATM    7  C   UNL     1     -11.914  11.534  69.998  1.00  0.00    -0.435 A  
HETATM    8  C   UNL     1     -10.756   9.487  70.555  1.00  0.00    -0.359 A  
HETATM    9  C   UNL     1     -12.613  10.228  71.906  1.00  0.00    -0.414 A  
HETATM   10  C   UNL     1     -12.763  11.348  71.088  1.00  0.00    -0.479 A  
HETATM   11  C   UNL     1     -10.902  10.612  69.741  1.00  0.00    -0.317 A  
ENDBRANCH   5   6
ENDBRANCH   4   5
BRANCH   4  12
HETATM   12  C   UNL     1     -10.980   6.136  70.821  1.00  0.00    -0.302 C  
BRANCH  12  13
HETATM   13  O   UNL     1     -11.459   5.975  69.471  1.00  0.00    -0.384 OA 
BRANCH  13  14
HETATM   14  C   UNL     1     -10.583   6.335  68.506  1.00  0.00    -0.262 C  
HETATM   15  H1  UNL     1     -10.475   7.538  66.974  1.00  0.00     0.000 HD 
HETATM   16  O   UNL     1      -9.453   5.900  68.356  1.00  0.00    -0.118 OA 
HETATM   17  N   UNL     1     -11.135   7.266  67.701  1.00  0.00    -0.543 N  
HETATM   18  H2  UNL     1     -12.078   7.643  67.805  1.00  0.00     0.000 HD 
ENDBRANCH  13  14
ENDBRANCH  12  13
ENDBRANCH   4  12
TORSDOF 5
ENDMDL
MODEL       83
REMARK 921   NORMALIZED FREE ENERGY PREDICTED BY IDOCK:   -4.11 KCAL/MOL
REMARK 922        TOTAL FREE ENERGY PREDICTED BY IDOCK:   -5.51 KCAL/MOL
REMARK 923 INTER-LIGAND FREE ENERGY PREDICTED BY IDOCK:   -5.58 KCAL/MOL
REMARK 924 INTRA-LIGAND FREE ENERGY PREDICTED BY IDOCK:    0.07 KCAL/MOL
REMARK 927      BINDING AFFINITY PREDICTED BY RF-SCORE:    0.00 PKD
ROOT
HETATM    1  N   UNL     1     -12.201  14.189  67.564  1.00  0.00    -0.578 NA 
HETATM    2  H1  UNL     1     -11.981  13.193  67.524  1.00  0.00     0.000 HD 
HETATM    3  H2  UNL     1     -12.466  14.559  66.650  1.00  0.00     0.000 HD 
HETATM    4  C   UNL     1     -11.070  14.935  68.157  1.00  0.00    -0.283 C  
ENDROOT
BRANCH   4   5
HETATM    5  C   UNL     1     -10.707  14.402  69.563  1.00  0.00    -0.133 C  
BRANCH   5   6
HETATM    6  C   UNL     1     -11.907  14.221  70.469  1.00  0.00    -0.364 A  
HETATM    7  C   UNL     1     -14.017  13.890  72.288  1.00  0.00    -0.663 A  
HETATM    8  C   UNL     1     -12.324  12.938  70.849  1.00  0.00    -0.365 A  
HETATM    9  C   UNL     1     -12.594  15.333  70.974  1.00  0.00    -0.469 A  
HETATM   10  C   UNL     1     -13.636  15.169  71.887  1.00  0.00    -0.545 A  
HETATM   11  C   UNL     1     -13.372  12.774  71.758  1.00  0.00    -0.436 A  
ENDBRANCH   5   6
ENDBRANCH   4   5
BRANCH   4  12
HETATM   12  C   UNL     1     -11.403  16.442  68.217  1.00  0.00    -0.241 C  
BRANCH  12  13
HETATM   13  O   UNL     1     -10.234  17.235  67.931  1.00  0.00    -0.300 OA 
BRANCH  13  14
HETATM   14  C   UNL     1     -10.469  18.368  67.231  1.00  0.00    -0.405 C  
HETATM   15  H1  UNL     1     -10.466  19.000  65.385  1.00  0.00     0.000 HD 
HETATM   16  O   UNL     1     -10.794  19.450  67.693  1.00  0.00    -0.455 OA 
HETATM   17  N   UNL     1     -10.289  18.145  65.912  1.00  0.00    -0.345 N  
HETATM   18  H2  UNL     1     -10.015  17.252  65.503  1.00  0.00     0.000 HD 
ENDBRANCH  13  14
ENDBRANCH  12  13
ENDBRANCH   4  12
TORSDOF 5
ENDMDL
MODEL       84
REMARK 921   NORMALIZED FREE ENERGY PREDICTED BY IDOCK:   -4.09 KCAL/MOL
REMARK 922        TOTAL FREE ENERGY PREDICTED BY IDOCK:   -5.48 KCAL/MOL
REMARK 923 INTER-LIGAND FREE ENERGY PREDICTED BY IDOCK:   -5.35 KCAL/MOL
REMARK 924 INTRA-LIGAND FREE ENERGY PREDICTED BY IDOCK:   -0.13 KCAL/MOL
REMARK 927      BINDING AFFINITY PREDICTED BY RF-SCORE:    0.00 PKD
ROOT
HETATM    1  N   UNL     1     -10.511  18.441  65.632  1.00  0.00    -0.619 NA 
HETATM    2  H1  UNL     1     -10.597  19.440  65.819  1.00  0.00     0.000 HD 
HETATM    3  H2  UNL     1     -11.269  18.096  65.041  1.00  0.00     0.000 HD 
HETATM    4  C   UNL     1     -10.417  17.692  66.904  1.00  0.00    -0.290 C  
ENDROOT
BRANCH   4   5
HETATM    5  C   UNL     1      -9.236  18.184  67.773  1.00  0.00    -0.265 C  
BRANCH   5   6
HETATM    6  C   UNL     1      -8.094  18.767  66.966  1.00  0.00    -0.266 A  
HETATM    7  C   UNL     1      -6.092  19.857  65.331  1.00  0.00    -0.243 A  
HETATM    8  C   UNL     1      -7.247  17.931  66.224  1.00  0.00    -0.324 A  
HETATM    9  C   UNL     1      -7.891  20.152  66.915  1.00  0.00    -0.352 A  
HETATM   10  C   UNL     1      -6.903  20.695  66.094  1.00  0.00    -0.236 A  
HETATM   11  C   UNL     1      -6.254  18.476  65.408  1.00  0.00    -0.307 A  
ENDBRANCH   5   6
ENDBRANCH   4   5
BRANCH   4  12
HETATM   12  C   UNL     1     -10.287  16.179  66.620  1.00  0.00    -0.296 C  
BRANCH  12  13
HETATM   13  O   UNL     1     -10.206  15.931  65.202  1.00  0.00    -0.472 OA 
BRANCH  13  14
HETATM   14  C   UNL     1     -11.086  15.019  64.730  1.00  0.00    -0.376 C  
HETATM   15  H1  UNL     1     -12.599  14.914  63.503  1.00  0.00     0.000 HD 
HETATM   16  O   UNL     1     -11.133  13.837  65.029  1.00  0.00    -0.318 OA 
HETATM   17  N   UNL     1     -11.936  15.601  63.859  1.00  0.00    -0.987 N  
HETATM   18  H2  UNL     1     -11.918  16.586  63.595  1.00  0.00     0.000 HD 
ENDBRANCH  13  14
ENDBRANCH  12  13
ENDBRANCH   4  12
TORSDOF 5
ENDMDL
MODEL       85
REMARK 921   NORMALIZED FREE ENERGY PREDICTED BY IDOCK:   -4.06 KCAL/MOL
REMARK 922        TOTAL FREE ENERGY PREDICTED BY IDOCK:   -5.45 KCAL/MOL
REMARK 923 INTER-LIGAND FREE ENERGY PREDICTED BY IDOCK:   -5.19 KCAL/MOL
REMARK 924 INTRA-LIGAND FREE ENERGY PREDICTED BY IDOCK:   -0.26 KCAL/MOL
REMARK 927      BINDING AFFINITY PREDICTED BY RF-SCORE:    0.00 PKD
ROOT
HETATM    1  N   UNL     1      -8.453  11.892  65.917  1.00  0.00    -0.372 NA 
HETATM    2  H1  UNL     1      -7.726  12.481  66.322  1.00  0.00     0.000 HD 
HETATM    3  H2  UNL     1      -8.292  11.711  64.926  1.00  0.00     0.000 HD 
HETATM    4  C   UNL     1      -9.784  12.489  66.162  1.00  0.00    -0.254 C  
ENDROOT
BRANCH   4   5
HETATM    5  C   UNL     1     -10.043  12.712  67.671  1.00  0.00    -0.218 C  
BRANCH   5   6
HETATM    6  C   UNL     1      -9.954  14.164  68.091  1.00  0.00    -0.232 A  
HETATM    7  C   UNL     1      -9.755  16.896  68.696  1.00  0.00    -0.267 A  
HETATM    8  C   UNL     1      -8.729  14.718  68.486  1.00  0.00    -0.174 A  
HETATM    9  C   UNL     1     -11.087  14.988  68.051  1.00  0.00    -0.304 A  
HETATM   10  C   UNL     1     -10.986  16.349  68.341  1.00  0.00    -0.353 A  
HETATM   11  C   UNL     1      -8.630  16.078  68.783  1.00  0.00    -0.223 A  
ENDBRANCH   5   6
ENDBRANCH   4   5
BRANCH   4  12
HETATM   12  C   UNL     1     -10.886  11.597  65.550  1.00  0.00    -0.279 C  
BRANCH  12  13
HETATM   13  O   UNL     1     -11.180  12.003  64.198  1.00  0.00    -0.325 OA 
BRANCH  13  14
HETATM   14  C   UNL     1     -12.419  12.513  64.011  1.00  0.00    -0.435 C  
HETATM   15  H1  UNL     1     -13.272  14.108  63.281  1.00  0.00     0.000 HD 
HETATM   16  O   UNL     1     -13.473  11.983  64.319  1.00  0.00    -0.654 OA 
HETATM   17  N   UNL     1     -12.338  13.724  63.422  1.00  0.00    -1.100 N  
HETATM   18  H2  UNL     1     -11.469  14.189  63.158  1.00  0.00     0.000 HD 
ENDBRANCH  13  14
ENDBRANCH  12  13
ENDBRANCH   4  12
TORSDOF 5
ENDMDL
MODEL       86
REMARK 921   NORMALIZED FREE ENERGY PREDICTED BY IDOCK:   -4.04 KCAL/MOL
REMARK 922        TOTAL FREE ENERGY PREDICTED BY IDOCK:   -5.42 KCAL/MOL
REMARK 923 INTER-LIGAND FREE ENERGY PREDICTED BY IDOCK:   -5.42 KCAL/MOL
REMARK 924 INTRA-LIGAND FREE ENERGY PREDICTED BY IDOCK:   -0.00 KCAL/MOL
REMARK 927      BINDING AFFINITY PREDICTED BY RF-SCORE:    0.00 PKD
ROOT
HETATM    1  N   UNL     1      -7.946  18.434  65.823  1.00  0.00    -0.493 NA 
HETATM    2  H1  UNL     1      -7.118  19.017  65.943  1.00  0.00     0.000 HD 
HETATM    3  H2  UNL     1      -8.122  18.215  64.842  1.00  0.00     0.000 HD 
HETATM    4  C   UNL     1      -9.114  19.074  66.466  1.00  0.00    -0.334 C  
ENDROOT
BRANCH   4   5
HETATM    5  C   UNL     1      -8.859  19.356  67.966  1.00  0.00    -0.369 C  
BRANCH   5   6
HETATM    6  C   UNL     1      -7.658  18.623  68.523  1.00  0.00    -0.336 A  
HETATM    7  C   UNL     1      -5.505  17.280  69.721  1.00  0.00    -0.208 A  
HETATM    8  C   UNL     1      -6.528  19.332  68.956  1.00  0.00    -0.324 A  
HETATM    9  C   UNL     1      -7.672  17.228  68.655  1.00  0.00    -0.265 A  
HETATM   10  C   UNL     1      -6.606  16.561  69.260  1.00  0.00    -0.207 A  
HETATM   11  C   UNL     1      -5.459  18.663  69.555  1.00  0.00    -0.216 A  
ENDBRANCH   5   6
ENDBRANCH   4   5
BRANCH   4  12
HETATM   12  C   UNL     1     -10.368  18.190  66.287  1.00  0.00    -0.397 C  
BRANCH  12  13
HETATM   13  O   UNL     1     -10.006  16.883  65.797  1.00  0.00    -0.510 OA 
BRANCH  13  14
HETATM   14  C   UNL     1     -10.872  16.344  64.909  1.00  0.00    -0.250 C  
HETATM   15  H1  UNL     1     -11.609  14.605  64.424  1.00  0.00     0.000 HD 
HETATM   16  O   UNL     1     -11.499  16.947  64.053  1.00  0.00    -1.130 OA 
HETATM   17  N   UNL     1     -10.956  15.011  65.093  1.00  0.00    -0.380 N  
HETATM   18  H2  UNL     1     -10.441  14.485  65.800  1.00  0.00     0.000 HD 
ENDBRANCH  13  14
ENDBRANCH  12  13
ENDBRANCH   4  12
TORSDOF 5
ENDMDL
MODEL       87
REMARK 921   NORMALIZED FREE ENERGY PREDICTED BY IDOCK:   -4.03 KCAL/MOL
REMARK 922        TOTAL FREE ENERGY PREDICTED BY IDOCK:   -5.41 KCAL/MOL
REMARK 923 INTER-LIGAND FREE ENERGY PREDICTED BY IDOCK:   -4.93 KCAL/MOL
REMARK 924 INTRA-LIGAND FREE ENERGY PREDICTED BY IDOCK:   -0.48 KCAL/MOL
REMARK 927      BINDING AFFINITY PREDICTED BY RF-SCORE:    0.00 PKD
ROOT
HETATM    1  N   UNL     1     -10.134  17.607  67.489  1.00  0.00    -0.323 NA 
HETATM    2  H1  UNL     1     -11.104  17.855  67.681  1.00  0.00     0.000 HD 
HETATM    3  H2  UNL     1      -9.585  18.413  67.189  1.00  0.00     0.000 HD 
HETATM    4  C   UNL     1     -10.077  16.502  66.508  1.00  0.00    -0.299 C  
ENDROOT
BRANCH   4   5
HETATM    5  C   UNL     1     -10.869  15.264  66.992  1.00  0.00    -0.321 C  
BRANCH   5   6
HETATM    6  C   UNL     1     -11.093  14.229  65.911  1.00  0.00    -0.310 A  
HETATM    7  C   UNL     1     -11.660  12.263  63.991  1.00  0.00    -0.495 A  
HETATM    8  C   UNL     1     -10.591  12.928  66.054  1.00  0.00    -0.287 A  
HETATM    9  C   UNL     1     -11.841  14.543  64.768  1.00  0.00    -0.446 A  
HETATM   10  C   UNL     1     -12.132  13.563  63.819  1.00  0.00    -0.482 A  
HETATM   11  C   UNL     1     -10.878  11.950  65.101  1.00  0.00    -0.350 A  
ENDBRANCH   5   6
ENDBRANCH   4   5
BRANCH   4  12
HETATM   12  C   UNL     1      -8.608  16.126  66.218  1.00  0.00    -0.338 C  
BRANCH  12  13
HETATM   13  O   UNL     1      -7.876  17.266  65.725  1.00  0.00    -0.495 OA 
BRANCH  13  14
HETATM   14  C   UNL     1      -6.729  17.540  66.388  1.00  0.00    -0.262 C  
HETATM   15  H1  UNL     1      -6.080  18.702  67.814  1.00  0.00     0.000 HD 
HETATM   16  O   UNL     1      -5.642  17.019  66.198  1.00  0.00    -0.321 OA 
HETATM   17  N   UNL     1      -6.945  18.496  67.315  1.00  0.00    -0.202 N  
HETATM   18  H2  UNL     1      -7.843  18.947  67.490  1.00  0.00     0.000 HD 
ENDBRANCH  13  14
ENDBRANCH  12  13
ENDBRANCH   4  12
TORSDOF 5
ENDMDL
MODEL       88
REMARK 921   NORMALIZED FREE ENERGY PREDICTED BY IDOCK:   -4.01 KCAL/MOL
REMARK 922        TOTAL FREE ENERGY PREDICTED BY IDOCK:   -5.38 KCAL/MOL
REMARK 923 INTER-LIGAND FREE ENERGY PREDICTED BY IDOCK:   -5.16 KCAL/MOL
REMARK 924 INTRA-LIGAND FREE ENERGY PREDICTED BY IDOCK:   -0.22 KCAL/MOL
REMARK 927      BINDING AFFINITY PREDICTED BY RF-SCORE:    0.00 PKD
ROOT
HETATM    1  N   UNL     1     -10.731  10.666  70.279  1.00  0.00    -0.451 NA 
HETATM    2  H1  UNL     1     -10.140  11.192  69.636  1.00  0.00     0.000 HD 
HETATM    3  H2  UNL     1     -10.642   9.659  70.145  1.00  0.00     0.000 HD 
HETATM    4  C   UNL     1     -12.134  11.118  70.163  1.00  0.00    -0.362 C  
ENDROOT
BRANCH   4   5
HETATM    5  C   UNL     1     -12.270  12.638  70.418  1.00  0.00    -0.368 C  
BRANCH   5   6
HETATM    6  C   UNL     1     -11.846  13.489  69.240  1.00  0.00    -0.392 A  
HETATM    7  C   UNL     1     -11.234  15.108  67.032  1.00  0.00    -0.308 A  
HETATM    8  C   UNL     1     -11.788  12.942  67.950  1.00  0.00    -0.388 A  
HETATM    9  C   UNL     1     -11.545  14.847  69.413  1.00  0.00    -0.337 A  
HETATM   10  C   UNL     1     -11.251  15.654  68.314  1.00  0.00    -0.353 A  
HETATM   11  C   UNL     1     -11.488  13.750  66.852  1.00  0.00    -0.368 A  
ENDBRANCH   5   6
ENDBRANCH   4   5
BRANCH   4  12
HETATM   12  C   UNL     1     -13.030  10.323  71.137  1.00  0.00    -0.409 C  
BRANCH  12  13
HETATM   13  O   UNL     1     -12.350   9.142  71.608  1.00  0.00    -0.317 OA 
BRANCH  13  14
HETATM   14  C   UNL     1     -12.956   7.972  71.302  1.00  0.00    -0.179 C  
HETATM   15  H1  UNL     1     -12.732   6.458  70.092  1.00  0.00     0.000 HD 
HETATM   16  O   UNL     1     -13.970   7.527  71.813  1.00  0.00    -0.376 OA 
HETATM   17  N   UNL     1     -12.275   7.340  70.323  1.00  0.00    -0.548 N  
HETATM   18  H2  UNL     1     -11.428   7.693  69.879  1.00  0.00     0.000 HD 
ENDBRANCH  13  14
ENDBRANCH  12  13
ENDBRANCH   4  12
TORSDOF 5
ENDMDL
MODEL       89
REMARK 921   NORMALIZED FREE ENERGY PREDICTED BY IDOCK:   -3.99 KCAL/MOL
REMARK 922        TOTAL FREE ENERGY PREDICTED BY IDOCK:   -5.36 KCAL/MOL
REMARK 923 INTER-LIGAND FREE ENERGY PREDICTED BY IDOCK:   -5.20 KCAL/MOL
REMARK 924 INTRA-LIGAND FREE ENERGY PREDICTED BY IDOCK:   -0.16 KCAL/MOL
REMARK 927      BINDING AFFINITY PREDICTED BY RF-SCORE:    0.00 PKD
ROOT
HETATM    1  N   UNL     1     -13.257  12.939  72.048  1.00  0.00    -0.460 NA 
HETATM    2  H1  UNL     1     -13.206  11.922  71.986  1.00  0.00     0.000 HD 
HETATM    3  H2  UNL     1     -14.149  13.254  72.432  1.00  0.00     0.000 HD 
HETATM    4  C   UNL     1     -12.978  13.542  70.727  1.00  0.00    -0.098 C  
ENDROOT
BRANCH   4   5
HETATM    5  C   UNL     1     -11.603  13.101  70.174  1.00  0.00    -0.147 C  
BRANCH   5   6
HETATM    6  C   UNL     1     -11.275  13.699  68.823  1.00  0.00    -0.314 A  
HETATM    7  C   UNL     1     -10.775  14.946  66.359  1.00  0.00    -0.316 A  
HETATM    8  C   UNL     1     -12.068  13.409  67.704  1.00  0.00    -0.311 A  
HETATM    9  C   UNL     1     -10.198  14.584  68.677  1.00  0.00    -0.243 A  
HETATM   10  C   UNL     1      -9.956  15.212  67.455  1.00  0.00    -0.225 A  
HETATM   11  C   UNL     1     -11.821  14.034  66.480  1.00  0.00    -0.439 A  
ENDBRANCH   5   6
ENDBRANCH   4   5
BRANCH   4  12
HETATM   12  C   UNL     1     -13.056  15.082  70.821  1.00  0.00    -0.369 C  
BRANCH  12  13
HETATM   13  O   UNL     1     -13.637  15.488  72.076  1.00  0.00    -0.445 OA 
BRANCH  13  14
HETATM   14  C   UNL     1     -12.781  16.082  72.938  1.00  0.00    -0.467 C  
HETATM   15  H1  UNL     1     -12.635  16.491  74.840  1.00  0.00     0.000 HD 
HETATM   16  O   UNL     1     -11.708  16.591  72.657  1.00  0.00    -0.500 OA 
HETATM   17  N   UNL     1     -13.281  16.043  74.191  1.00  0.00    -0.868 N  
HETATM   18  H2  UNL     1     -14.175  15.626  74.450  1.00  0.00     0.000 HD 
ENDBRANCH  13  14
ENDBRANCH  12  13
ENDBRANCH   4  12
TORSDOF 5
ENDMDL
MODEL       90
REMARK 921   NORMALIZED FREE ENERGY PREDICTED BY IDOCK:   -3.99 KCAL/MOL
REMARK 922        TOTAL FREE ENERGY PREDICTED BY IDOCK:   -5.35 KCAL/MOL
REMARK 923 INTER-LIGAND FREE ENERGY PREDICTED BY IDOCK:   -5.08 KCAL/MOL
REMARK 924 INTRA-LIGAND FREE ENERGY PREDICTED BY IDOCK:   -0.27 KCAL/MOL
REMARK 927      BINDING AFFINITY PREDICTED BY RF-SCORE:    0.00 PKD
ROOT
HETATM    1  N   UNL     1     -10.085  14.311  69.152  1.00  0.00    -0.415 NA 
HETATM    2  H1  UNL     1      -9.857  13.773  69.988  1.00  0.00     0.000 HD 
HETATM    3  H2  UNL     1     -10.217  15.302  69.358  1.00  0.00     0.000 HD 
HETATM    4  C   UNL     1     -11.261  13.724  68.475  1.00  0.00    -0.275 C  
ENDROOT
BRANCH   4   5
HETATM    5  C   UNL     1     -11.034  12.236  68.119  1.00  0.00    -0.269 C  
BRANCH   5   6
HETATM    6  C   UNL     1     -11.441  11.282  69.221  1.00  0.00    -0.369 A  
HETATM    7  C   UNL     1     -12.053   9.570  71.358  1.00  0.00    -0.459 A  
HETATM    8  C   UNL     1     -10.952   9.968  69.244  1.00  0.00    -0.264 A  
HETATM    9  C   UNL     1     -12.280  11.708  70.260  1.00  0.00    -0.401 A  
HETATM   10  C   UNL     1     -12.575  10.861  71.328  1.00  0.00    -0.526 A  
HETATM   11  C   UNL     1     -11.254   9.118  70.309  1.00  0.00    -0.249 A  
ENDBRANCH   5   6
ENDBRANCH   4   5
BRANCH   4  12
HETATM   12  C   UNL     1     -11.605  14.538  67.208  1.00  0.00    -0.385 C  
BRANCH  12  13
HETATM   13  O   UNL     1     -10.787  15.723  67.125  1.00  0.00    -0.321 OA 
BRANCH  13  14
HETATM   14  C   UNL     1     -10.233  15.951  65.912  1.00  0.00    -0.352 C  
HETATM   15  H1  UNL     1      -8.493  16.357  65.129  1.00  0.00     0.000 HD 
HETATM   16  O   UNL     1     -10.815  15.956  64.840  1.00  0.00    -0.474 OA 
HETATM   17  N   UNL     1      -8.910  16.184  66.043  1.00  0.00    -0.325 N  
HETATM   18  H2  UNL     1      -8.402  16.188  66.928  1.00  0.00     0.000 HD 
ENDBRANCH  13  14
ENDBRANCH  12  13
ENDBRANCH   4  12
TORSDOF 5
ENDMDL
MODEL       91
REMARK 921   NORMALIZED FREE ENERGY PREDICTED BY IDOCK:   -3.98 KCAL/MOL
REMARK 922        TOTAL FREE ENERGY PREDICTED BY IDOCK:   -5.34 KCAL/MOL
REMARK 923 INTER-LIGAND FREE ENERGY PREDICTED BY IDOCK:   -5.01 KCAL/MOL
REMARK 924 INTRA-LIGAND FREE ENERGY PREDICTED BY IDOCK:   -0.32 KCAL/MOL
REMARK 927      BINDING AFFINITY PREDICTED BY RF-SCORE:    0.00 PKD
ROOT
HETATM    1  N   UNL     1      -9.307   9.810  67.876  1.00  0.00    -0.128 NA 
HETATM    2  H1  UNL     1      -9.477   9.479  68.826  1.00  0.00     0.000 HD 
HETATM    3  H2  UNL     1      -8.315   9.791  67.637  1.00  0.00     0.000 HD 
HETATM    4  C   UNL     1      -9.895  11.155  67.694  1.00  0.00    -0.174 C  
ENDROOT
BRANCH   4   5
HETATM    5  C   UNL     1     -11.410  11.165  68.010  1.00  0.00    -0.380 C  
BRANCH   5   6
HETATM    6  C   UNL     1     -11.781  12.080  69.158  1.00  0.00    -0.389 A  
HETATM    7  C   UNL     1     -12.640  13.777  71.221  1.00  0.00    -0.444 A  
HETATM    8  C   UNL     1     -11.700  13.472  69.015  1.00  0.00    -0.370 A  
HETATM    9  C   UNL     1     -12.252  11.551  70.367  1.00  0.00    -0.442 A  
HETATM   10  C   UNL     1     -12.689  12.394  71.389  1.00  0.00    -0.346 A  
HETATM   11  C   UNL     1     -12.131  14.315  70.040  1.00  0.00    -0.400 A  
ENDBRANCH   5   6
ENDBRANCH   4   5
BRANCH   4  12
HETATM   12  C   UNL     1      -9.638  11.656  66.256  1.00  0.00    -0.221 C  
BRANCH  12  13
HETATM   13  O   UNL     1     -10.881  11.845  65.551  1.00  0.00    -0.280 OA 
BRANCH  13  14
HETATM   14  C   UNL     1     -10.815  12.679  64.488  1.00  0.00    -0.336 C  
HETATM   15  H1  UNL     1      -9.891  14.305  63.933  1.00  0.00     0.000 HD 
HETATM   16  O   UNL     1     -11.440  12.573  63.446  1.00  0.00    -0.472 OA 
HETATM   17  N   UNL     1      -9.941  13.677  64.734  1.00  0.00    -0.632 N  
HETATM   18  H2  UNL     1      -9.409  13.787  65.598  1.00  0.00     0.000 HD 
ENDBRANCH  13  14
ENDBRANCH  12  13
ENDBRANCH   4  12
TORSDOF 5
ENDMDL
MODEL       92
REMARK 921   NORMALIZED FREE ENERGY PREDICTED BY IDOCK:   -3.97 KCAL/MOL
REMARK 922        TOTAL FREE ENERGY PREDICTED BY IDOCK:   -5.33 KCAL/MOL
REMARK 923 INTER-LIGAND FREE ENERGY PREDICTED BY IDOCK:   -5.14 KCAL/MOL
REMARK 924 INTRA-LIGAND FREE ENERGY PREDICTED BY IDOCK:   -0.19 KCAL/MOL
REMARK 927      BINDING AFFINITY PREDICTED BY RF-SCORE:    0.00 PKD
ROOT
HETATM    1  N   UNL     1     -10.054  14.185  69.103  1.00  0.00    -0.426 NA 
HETATM    2  H1  UNL     1      -9.307  14.855  69.284  1.00  0.00     0.000 HD 
HETATM    3  H2  UNL     1      -9.714  13.222  69.110  1.00  0.00     0.000 HD 
HETATM    4  C   UNL     1     -10.743  14.521  67.839  1.00  0.00    -0.245 C  
ENDROOT
BRANCH   4   5
HETATM    5  C   UNL     1     -11.300  15.964  67.856  1.00  0.00    -0.252 C  
BRANCH   5   6
HETATM    6  C   UNL     1     -10.233  17.026  67.698  1.00  0.00    -0.317 A  
HETATM    7  C   UNL     1      -8.313  19.019  67.237  1.00  0.00    -0.296 A  
HETATM    8  C   UNL     1      -8.961  16.691  67.211  1.00  0.00    -0.211 A  
HETATM    9  C   UNL     1     -10.510  18.366  67.997  1.00  0.00    -0.390 A  
HETATM   10  C   UNL     1      -9.560  19.359  67.758  1.00  0.00    -0.422 A  
HETATM   11  C   UNL     1      -8.008  17.684  66.978  1.00  0.00    -0.242 A  
ENDBRANCH   5   6
ENDBRANCH   4   5
BRANCH   4  12
HETATM   12  C   UNL     1     -11.875  13.506  67.566  1.00  0.00    -0.368 C  
BRANCH  12  13
HETATM   13  O   UNL     1     -11.612  12.758  66.362  1.00  0.00    -0.336 OA 
BRANCH  13  14
HETATM   14  C   UNL     1     -12.305  13.165  65.274  1.00  0.00    -0.481 C  
HETATM   15  H1  UNL     1     -12.318  12.902  63.340  1.00  0.00     0.000 HD 
HETATM   16  O   UNL     1     -13.253  13.933  65.264  1.00  0.00    -0.774 OA 
HETATM   17  N   UNL     1     -11.796  12.596  64.161  1.00  0.00    -0.377 N  
HETATM   18  H2  UNL     1     -11.004  11.954  64.143  1.00  0.00     0.000 HD 
ENDBRANCH  13  14
ENDBRANCH  12  13
ENDBRANCH   4  12
TORSDOF 5
ENDMDL
MODEL       93
REMARK 921   NORMALIZED FREE ENERGY PREDICTED BY IDOCK:   -3.96 KCAL/MOL
REMARK 922        TOTAL FREE ENERGY PREDICTED BY IDOCK:   -5.32 KCAL/MOL
REMARK 923 INTER-LIGAND FREE ENERGY PREDICTED BY IDOCK:   -4.87 KCAL/MOL
REMARK 924 INTRA-LIGAND FREE ENERGY PREDICTED BY IDOCK:   -0.46 KCAL/MOL
REMARK 927      BINDING AFFINITY PREDICTED BY RF-SCORE:    0.00 PKD
ROOT
HETATM    1  N   UNL     1      -9.747  10.913  69.430  1.00  0.00    -0.425 NA 
HETATM    2  H1  UNL     1     -10.429  10.186  69.647  1.00  0.00     0.000 HD 
HETATM    3  H2  UNL     1      -9.542  11.499  70.240  1.00  0.00     0.000 HD 
HETATM    4  C   UNL     1     -10.206  11.710  68.272  1.00  0.00    -0.199 C  
ENDROOT
BRANCH   4   5
HETATM    5  C   UNL     1     -10.466  10.822  67.032  1.00  0.00    -0.297 C  
BRANCH   5   6
HETATM    6  C   UNL     1     -10.960  11.595  65.828  1.00  0.00    -0.329 A  
HETATM    7  C   UNL     1     -11.981  12.888  63.556  1.00  0.00    -0.629 A  
HETATM    8  C   UNL     1     -10.321  11.465  64.587  1.00  0.00    -0.362 A  
HETATM    9  C   UNL     1     -12.088  12.421  65.923  1.00  0.00    -0.352 A  
HETATM   10  C   UNL     1     -12.602  13.055  64.792  1.00  0.00    -0.460 A  
HETATM   11  C   UNL     1     -10.832  12.106  63.456  1.00  0.00    -0.518 A  
ENDBRANCH   5   6
ENDBRANCH   4   5
BRANCH   4  12
HETATM   12  C   UNL     1      -9.173  12.810  67.943  1.00  0.00    -0.205 C  
BRANCH  12  13
HETATM   13  O   UNL     1      -9.791  14.113  67.960  1.00  0.00    -0.212 OA 
BRANCH  13  14
HETATM   14  C   UNL     1      -9.174  15.049  67.204  1.00  0.00    -0.216 C  
HETATM   15  H1  UNL     1      -8.943  15.523  65.326  1.00  0.00     0.000 HD 
HETATM   16  O   UNL     1      -8.495  15.977  67.613  1.00  0.00    -0.155 OA 
HETATM   17  N   UNL     1      -9.409  14.818  65.896  1.00  0.00    -0.508 N  
HETATM   18  H2  UNL     1      -9.970  14.049  65.530  1.00  0.00     0.000 HD 
ENDBRANCH  13  14
ENDBRANCH  12  13
ENDBRANCH   4  12
TORSDOF 5
ENDMDL
MODEL       94
REMARK 921   NORMALIZED FREE ENERGY PREDICTED BY IDOCK:   -3.96 KCAL/MOL
REMARK 922        TOTAL FREE ENERGY PREDICTED BY IDOCK:   -5.31 KCAL/MOL
REMARK 923 INTER-LIGAND FREE ENERGY PREDICTED BY IDOCK:   -5.09 KCAL/MOL
REMARK 924 INTRA-LIGAND FREE ENERGY PREDICTED BY IDOCK:   -0.22 KCAL/MOL
REMARK 927      BINDING AFFINITY PREDICTED BY RF-SCORE:    0.00 PKD
ROOT
HETATM    1  N   UNL     1      -9.057  15.814  68.000  1.00  0.00    -0.186 NA 
HETATM    2  H1  UNL     1      -9.080  14.796  68.063  1.00  0.00     0.000 HD 
HETATM    3  H2  UNL     1      -8.136  16.191  68.228  1.00  0.00     0.000 HD 
HETATM    4  C   UNL     1     -10.120  16.399  68.846  1.00  0.00    -0.255 C  
ENDROOT
BRANCH   4   5
HETATM    5  C   UNL     1     -11.519  15.862  68.461  1.00  0.00    -0.377 C  
BRANCH   5   6
HETATM    6  C   UNL     1     -11.600  14.351  68.435  1.00  0.00    -0.351 A  
HETATM    7  C   UNL     1     -11.929  11.565  68.376  1.00  0.00    -0.268 A  
HETATM    8  C   UNL     1     -11.732  13.624  69.627  1.00  0.00    -0.383 A  
HETATM    9  C   UNL     1     -11.586  13.656  67.218  1.00  0.00    -0.387 A  
HETATM   10  C   UNL     1     -11.760  12.273  67.187  1.00  0.00    -0.396 A  
HETATM   11  C   UNL     1     -11.899  12.238  69.596  1.00  0.00    -0.393 A  
ENDBRANCH   5   6
ENDBRANCH   4   5
BRANCH   4  12
HETATM   12  C   UNL     1     -10.086  17.940  68.749  1.00  0.00    -0.384 C  
BRANCH  12  13
HETATM   13  O   UNL     1     -10.893  18.401  67.647  1.00  0.00    -0.406 OA 
BRANCH  13  14
HETATM   14  C   UNL     1     -10.371  19.435  66.949  1.00  0.00    -0.437 C  
HETATM   15  H1  UNL     1      -9.066  20.867  67.172  1.00  0.00     0.000 HD 
HETATM   16  O   UNL     1     -10.663  19.760  65.809  1.00  0.00    -0.512 OA 
HETATM   17  N   UNL     1      -9.459  20.088  67.698  1.00  0.00    -0.360 N  
HETATM   18  H2  UNL     1      -9.200  19.837  68.653  1.00  0.00     0.000 HD 
ENDBRANCH  13  14
ENDBRANCH  12  13
ENDBRANCH   4  12
TORSDOF 5
ENDMDL
MODEL       95
REMARK 921   NORMALIZED FREE ENERGY PREDICTED BY IDOCK:   -3.95 KCAL/MOL
REMARK 922        TOTAL FREE ENERGY PREDICTED BY IDOCK:   -5.30 KCAL/MOL
REMARK 923 INTER-LIGAND FREE ENERGY PREDICTED BY IDOCK:   -5.16 KCAL/MOL
REMARK 924 INTRA-LIGAND FREE ENERGY PREDICTED BY IDOCK:   -0.14 KCAL/MOL
REMARK 927      BINDING AFFINITY PREDICTED BY RF-SCORE:    0.00 PKD
ROOT
HETATM    1  N   UNL     1     -13.532  14.134  65.619  1.00  0.00    -0.600 NA 
HETATM    2  H1  UNL     1     -14.214  13.375  65.594  1.00  0.00     0.000 HD 
HETATM    3  H2  UNL     1     -13.871  14.969  65.141  1.00  0.00     0.000 HD 
HETATM    4  C   UNL     1     -12.237  13.670  65.076  1.00  0.00    -0.421 C  
ENDROOT
BRANCH   4   5
HETATM    5  C   UNL     1     -11.705  12.434  65.839  1.00  0.00    -0.476 C  
BRANCH   5   6
HETATM    6  C   UNL     1     -10.735  11.598  65.031  1.00  0.00    -0.351 A  
HETATM    7  C   UNL     1      -9.075   9.937  63.494  1.00  0.00    -0.289 A  
HETATM    8  C   UNL     1     -10.050  10.529  65.626  1.00  0.00    -0.333 A  
HETATM    9  C   UNL     1     -10.538  11.852  63.667  1.00  0.00    -0.500 A  
HETATM   10  C   UNL     1      -9.721  11.020  62.901  1.00  0.00    -0.353 A  
HETATM   11  C   UNL     1      -9.227   9.701  64.859  1.00  0.00    -0.306 A  
ENDBRANCH   5   6
ENDBRANCH   4   5
BRANCH   4  12
HETATM   12  C   UNL     1     -11.205  14.818  65.115  1.00  0.00    -0.382 C  
BRANCH  12  13
HETATM   13  O   UNL     1     -11.073  15.341  66.452  1.00  0.00    -0.329 OA 
BRANCH  13  14
HETATM   14  C   UNL     1      -9.805  15.409  66.917  1.00  0.00    -0.244 C  
HETATM   15  H1  UNL     1      -7.999  15.747  66.260  1.00  0.00     0.000 HD 
HETATM   16  O   UNL     1      -9.447  15.238  68.071  1.00  0.00    -0.196 OA 
HETATM   17  N   UNL     1      -8.955  15.696  65.909  1.00  0.00    -0.377 N  
HETATM   18  H2  UNL     1      -9.230  15.841  64.937  1.00  0.00     0.000 HD 
ENDBRANCH  13  14
ENDBRANCH  12  13
ENDBRANCH   4  12
TORSDOF 5
ENDMDL
MODEL       96
REMARK 921   NORMALIZED FREE ENERGY PREDICTED BY IDOCK:   -3.94 KCAL/MOL
REMARK 922        TOTAL FREE ENERGY PREDICTED BY IDOCK:   -5.29 KCAL/MOL
REMARK 923 INTER-LIGAND FREE ENERGY PREDICTED BY IDOCK:   -4.99 KCAL/MOL
REMARK 924 INTRA-LIGAND FREE ENERGY PREDICTED BY IDOCK:   -0.30 KCAL/MOL
REMARK 927      BINDING AFFINITY PREDICTED BY RF-SCORE:    0.00 PKD
ROOT
HETATM    1  N   UNL     1      -9.738   9.851  70.651  1.00  0.00    -0.334 NA 
HETATM    2  H1  UNL     1      -9.122  10.409  70.061  1.00  0.00     0.000 HD 
HETATM    3  H2  UNL     1      -9.452   8.872  70.684  1.00  0.00     0.000 HD 
HETATM    4  C   UNL     1     -11.141  10.003  70.206  1.00  0.00    -0.318 C  
ENDROOT
BRANCH   4   5
HETATM    5  C   UNL     1     -11.584  11.485  70.207  1.00  0.00    -0.305 C  
BRANCH   5   6
HETATM    6  C   UNL     1     -11.684  12.086  68.821  1.00  0.00    -0.377 A  
HETATM    7  C   UNL     1     -11.690  13.226  66.257  1.00  0.00    -0.412 A  
HETATM    8  C   UNL     1     -11.889  13.463  68.655  1.00  0.00    -0.397 A  
HETATM    9  C   UNL     1     -11.532  11.283  67.683  1.00  0.00    -0.341 A  
HETATM   10  C   UNL     1     -11.524  11.851  66.409  1.00  0.00    -0.371 A  
HETATM   11  C   UNL     1     -11.888  14.030  67.379  1.00  0.00    -0.445 A  
ENDBRANCH   5   6
ENDBRANCH   4   5
BRANCH   4  12
HETATM   12  C   UNL     1     -12.075   9.157  71.100  1.00  0.00    -0.299 C  
BRANCH  12  13
HETATM   13  O   UNL     1     -11.993   7.762  70.747  1.00  0.00    -0.256 OA 
BRANCH  13  14
HETATM   14  C   UNL     1     -11.570   6.945  71.739  1.00  0.00    -0.286 C  
HETATM   15  H1  UNL     1     -11.328   6.964  73.675  1.00  0.00     0.000 HD 
HETATM   16  O   UNL     1     -11.170   5.799  71.612  1.00  0.00    -0.259 OA 
HETATM   17  N   UNL     1     -11.647   7.580  72.927  1.00  0.00    -0.590 N  
HETATM   18  H2  UNL     1     -11.975   8.537  73.058  1.00  0.00     0.000 HD 
ENDBRANCH  13  14
ENDBRANCH  12  13
ENDBRANCH   4  12
TORSDOF 5
ENDMDL
MODEL       97
REMARK 921   NORMALIZED FREE ENERGY PREDICTED BY IDOCK:   -3.93 KCAL/MOL
REMARK 922        TOTAL FREE ENERGY PREDICTED BY IDOCK:   -5.28 KCAL/MOL
REMARK 923 INTER-LIGAND FREE ENERGY PREDICTED BY IDOCK:   -5.11 KCAL/MOL
REMARK 924 INTRA-LIGAND FREE ENERGY PREDICTED BY IDOCK:   -0.17 KCAL/MOL
REMARK 927      BINDING AFFINITY PREDICTED BY RF-SCORE:    0.00 PKD
ROOT
HETATM    1  N   UNL     1      -9.284  14.918  69.151  1.00  0.00    -0.326 NA 
HETATM    2  H1  UNL     1      -9.643  14.044  69.535  1.00  0.00     0.000 HD 
HETATM    3  H2  UNL     1      -8.457  15.245  69.652  1.00  0.00     0.000 HD 
HETATM    4  C   UNL     1     -10.355  15.938  69.124  1.00  0.00    -0.237 C  
ENDROOT
BRANCH   4   5
HETATM    5  C   UNL     1     -11.585  15.455  68.319  1.00  0.00    -0.361 C  
BRANCH   5   6
HETATM    6  C   UNL     1     -11.235  14.514  67.186  1.00  0.00    -0.341 A  
HETATM    7  C   UNL     1     -10.752  12.798  65.020  1.00  0.00    -0.321 A  
HETATM    8  C   UNL     1     -11.497  13.141  67.293  1.00  0.00    -0.375 A  
HETATM    9  C   UNL     1     -10.682  15.006  65.996  1.00  0.00    -0.329 A  
HETATM   10  C   UNL     1     -10.452  14.155  64.915  1.00  0.00    -0.461 A  
HETATM   11  C   UNL     1     -11.260  12.289  66.213  1.00  0.00    -0.367 A  
ENDBRANCH   5   6
ENDBRANCH   4   5
BRANCH   4  12
HETATM   12  C   UNL     1      -9.812  17.261  68.542  1.00  0.00    -0.307 C  
BRANCH  12  13
HETATM   13  O   UNL     1     -10.863  18.002  67.889  1.00  0.00    -0.367 OA 
BRANCH  13  14
HETATM   14  C   UNL     1     -10.458  19.113  67.234  1.00  0.00    -0.456 C  
HETATM   15  H1  UNL     1     -10.152  19.731  65.409  1.00  0.00     0.000 HD 
HETATM   16  O   UNL     1     -10.131  20.174  67.741  1.00  0.00    -0.404 OA 
HETATM   17  N   UNL     1     -10.458  18.893  65.903  1.00  0.00    -0.458 N  
HETATM   18  H2  UNL     1     -10.724  18.016  65.456  1.00  0.00     0.000 HD 
ENDBRANCH  13  14
ENDBRANCH  12  13
ENDBRANCH   4  12
TORSDOF 5
ENDMDL
MODEL       98
REMARK 921   NORMALIZED FREE ENERGY PREDICTED BY IDOCK:   -3.93 KCAL/MOL
REMARK 922        TOTAL FREE ENERGY PREDICTED BY IDOCK:   -5.28 KCAL/MOL
REMARK 923 INTER-LIGAND FREE ENERGY PREDICTED BY IDOCK:   -5.07 KCAL/MOL
REMARK 924 INTRA-LIGAND FREE ENERGY PREDICTED BY IDOCK:   -0.21 KCAL/MOL
REMARK 927      BINDING AFFINITY PREDICTED BY RF-SCORE:    0.00 PKD
ROOT
HETATM    1  N   UNL     1      -9.169  13.001  66.493  1.00  0.00    -0.379 NA 
HETATM    2  H1  UNL     1      -8.938  12.068  66.832  1.00  0.00     0.000 HD 
HETATM    3  H2  UNL     1      -8.340  13.589  66.395  1.00  0.00     0.000 HD 
HETATM    4  C   UNL     1     -10.188  13.621  67.367  1.00  0.00    -0.241 C  
ENDROOT
BRANCH   4   5
HETATM    5  C   UNL     1     -11.462  12.749  67.469  1.00  0.00    -0.390 C  
BRANCH   5   6
HETATM    6  C   UNL     1     -11.856  12.420  68.893  1.00  0.00    -0.350 A  
HETATM    7  C   UNL     1     -12.759  11.833  71.484  1.00  0.00    -0.400 A  
HETATM    8  C   UNL     1     -11.986  13.437  69.850  1.00  0.00    -0.408 A  
HETATM    9  C   UNL     1     -12.138  11.099  69.268  1.00  0.00    -0.377 A  
HETATM   10  C   UNL     1     -12.598  10.809  70.553  1.00  0.00    -0.421 A  
HETATM   11  C   UNL     1     -12.439  13.144  71.138  1.00  0.00    -0.378 A  
ENDBRANCH   5   6
ENDBRANCH   4   5
BRANCH   4  12
HETATM   12  C   UNL     1     -10.539  15.034  66.853  1.00  0.00    -0.297 C  
BRANCH  12  13
HETATM   13  O   UNL     1      -9.707  16.029  67.484  1.00  0.00    -0.225 OA 
BRANCH  13  14
HETATM   14  C   UNL     1      -9.790  17.268  66.948  1.00  0.00    -0.287 C  
HETATM   15  H1  UNL     1     -10.522  19.024  67.379  1.00  0.00     0.000 HD 
HETATM   16  O   UNL     1      -9.340  17.622  65.871  1.00  0.00    -0.520 OA 
HETATM   17  N   UNL     1     -10.459  18.090  67.782  1.00  0.00    -0.398 N  
HETATM   18  H2  UNL     1     -10.846  17.817  68.686  1.00  0.00     0.000 HD 
ENDBRANCH  13  14
ENDBRANCH  12  13
ENDBRANCH   4  12
TORSDOF 5
ENDMDL
MODEL       99
REMARK 921   NORMALIZED FREE ENERGY PREDICTED BY IDOCK:   -3.91 KCAL/MOL
REMARK 922        TOTAL FREE ENERGY PREDICTED BY IDOCK:   -5.25 KCAL/MOL
REMARK 923 INTER-LIGAND FREE ENERGY PREDICTED BY IDOCK:   -5.15 KCAL/MOL
REMARK 924 INTRA-LIGAND FREE ENERGY PREDICTED BY IDOCK:   -0.10 KCAL/MOL
REMARK 927      BINDING AFFINITY PREDICTED BY RF-SCORE:    0.00 PKD
ROOT
HETATM    1  N   UNL     1      -9.405  10.582  69.737  1.00  0.00    -0.412 NA 
HETATM    2  H1  UNL     1      -9.244  11.589  69.769  1.00  0.00     0.000 HD 
HETATM    3  H2  UNL     1      -8.538  10.053  69.839  1.00  0.00     0.000 HD 
HETATM    4  C   UNL     1     -10.132  10.223  68.501  1.00  0.00    -0.165 C  
ENDROOT
BRANCH   4   5
HETATM    5  C   UNL     1     -11.469  10.991  68.378  1.00  0.00    -0.378 C  
BRANCH   5   6
HETATM    6  C   UNL     1     -11.983  11.522  69.699  1.00  0.00    -0.407 A  
HETATM    7  C   UNL     1     -13.100  12.523  72.071  1.00  0.00    -0.472 A  
HETATM    8  C   UNL     1     -11.975  12.899  69.965  1.00  0.00    -0.380 A  
HETATM    9  C   UNL     1     -12.514  10.652  70.660  1.00  0.00    -0.462 A  
HETATM   10  C   UNL     1     -13.079  11.150  71.835  1.00  0.00    -0.513 A  
HETATM   11  C   UNL     1     -12.535  13.396  71.144  1.00  0.00    -0.414 A  
ENDBRANCH   5   6
ENDBRANCH   4   5
BRANCH   4  12
HETATM   12  C   UNL     1     -10.376   8.698  68.453  1.00  0.00    -0.201 C  
BRANCH  12  13
HETATM   13  O   UNL     1     -10.100   8.097  69.734  1.00  0.00    -0.189 OA 
BRANCH  13  14
HETATM   14  C   UNL     1     -11.144   7.448  70.299  1.00  0.00    -0.258 C  
HETATM   15  H1  UNL     1     -12.513   6.143  69.821  1.00  0.00     0.000 HD 
HETATM   16  O   UNL     1     -11.530   7.563  71.450  1.00  0.00    -0.254 OA 
HETATM   17  N   UNL     1     -11.726   6.632  69.396  1.00  0.00    -0.648 N  
HETATM   18  H2  UNL     1     -11.423   6.521  68.428  1.00  0.00     0.000 HD 
ENDBRANCH  13  14
ENDBRANCH  12  13
ENDBRANCH   4  12
TORSDOF 5
ENDMDL
MODEL      100
REMARK 921   NORMALIZED FREE ENERGY PREDICTED BY IDOCK:   -3.90 KCAL/MOL
REMARK 922        TOTAL FREE ENERGY PREDICTED BY IDOCK:   -5.24 KCAL/MOL
REMARK 923 INTER-LIGAND FREE ENERGY PREDICTED BY IDOCK:   -5.13 KCAL/MOL
REMARK 924 INTRA-LIGAND FREE ENERGY PREDICTED BY IDOCK:   -0.11 KCAL/MOL
REMARK 927      BINDING AFFINITY PREDICTED BY RF-SCORE:    0.00 PKD
ROOT
HETATM    1  N   UNL     1      -9.068  14.017  66.497  1.00  0.00    -0.437 NA 
HETATM    2  H1  UNL     1      -8.240  13.965  67.091  1.00  0.00     0.000 HD 
HETATM    3  H2  UNL     1      -8.954  14.692  65.740  1.00  0.00     0.000 HD 
HETATM    4  C   UNL     1     -10.264  14.303  67.318  1.00  0.00    -0.252 C  
ENDROOT
BRANCH   4   5
HETATM    5  C   UNL     1     -10.460  13.248  68.433  1.00  0.00    -0.261 C  
BRANCH   5   6
HETATM    6  C   UNL     1     -10.158  11.834  67.985  1.00  0.00    -0.198 A  
HETATM    7  C   UNL     1      -9.546   9.280  66.995  1.00  0.00    -0.223 A  
HETATM    8  C   UNL     1     -11.139  11.064  67.344  1.00  0.00    -0.370 A  
HETATM    9  C   UNL     1      -8.881  11.286  68.165  1.00  0.00    -0.159 A  
HETATM   10  C   UNL     1      -8.573  10.021  67.664  1.00  0.00    -0.118 A  
HETATM   11  C   UNL     1     -10.833   9.795  66.849  1.00  0.00    -0.120 A  
ENDBRANCH   5   6
ENDBRANCH   4   5
BRANCH   4  12
HETATM   12  C   UNL     1     -11.518  14.381  66.420  1.00  0.00    -0.360 C  
BRANCH  12  13
HETATM   13  O   UNL     1     -11.243  13.839  65.112  1.00  0.00    -0.301 OA 
BRANCH  13  14
HETATM   14  C   UNL     1     -12.334  13.442  64.417  1.00  0.00    -0.341 C  
HETATM   15  H1  UNL     1     -13.224  13.806  62.719  1.00  0.00     0.000 HD 
HETATM   16  O   UNL     1     -13.156  12.613  64.771  1.00  0.00    -0.852 OA 
HETATM   17  N   UNL     1     -12.402  14.104  63.243  1.00  0.00    -1.133 N  
HETATM   18  H2  UNL     1     -11.729  14.802  62.926  1.00  0.00     0.000 HD 
ENDBRANCH  13  14
ENDBRANCH  12  13
ENDBRANCH   4  12
TORSDOF 5
ENDMDL
MODEL      101
REMARK 921   NORMALIZED FREE ENERGY PREDICTED BY IDOCK:   -3.90 KCAL/MOL
REMARK 922        TOTAL FREE ENERGY PREDICTED BY IDOCK:   -5.24 KCAL/MOL
REMARK 923 INTER-LIGAND FREE ENERGY PREDICTED BY IDOCK:   -4.98 KCAL/MOL
REMARK 924 INTRA-LIGAND FREE ENERGY PREDICTED BY IDOCK:   -0.26 KCAL/MOL
REMARK 927      BINDING AFFINITY PREDICTED BY RF-SCORE:    0.00 PKD
ROOT
HETATM    1  N   UNL     1     -10.773   8.166  67.112  1.00  0.00    -0.463 NA 
HETATM    2  H1  UNL     1     -11.354   8.972  67.346  1.00  0.00     0.000 HD 
HETATM    3  H2  UNL     1     -11.124   7.665  66.296  1.00  0.00     0.000 HD 
HETATM    4  C   UNL     1     -10.637   7.281  68.289  1.00  0.00    -0.172 C  
ENDROOT
BRANCH   4   5
HETATM    5  C   UNL     1     -10.056   8.035  69.509  1.00  0.00    -0.196 C  
BRANCH   5   6
HETATM    6  C   UNL     1     -11.080   8.873  70.245  1.00  0.00    -0.251 A  
HETATM    7  C   UNL     1     -12.849  10.465  71.731  1.00  0.00    -0.561 A  
HETATM    8  C   UNL     1     -11.883   8.304  71.242  1.00  0.00    -0.319 A  
HETATM    9  C   UNL     1     -11.211  10.241  69.970  1.00  0.00    -0.376 A  
HETATM   10  C   UNL     1     -12.083  11.035  70.716  1.00  0.00    -0.467 A  
HETATM   11  C   UNL     1     -12.761   9.097  71.984  1.00  0.00    -0.473 A  
ENDBRANCH   5   6
ENDBRANCH   4   5
BRANCH   4  12
HETATM   12  C   UNL     1      -9.757   6.062  67.937  1.00  0.00    -0.119 C  
BRANCH  12  13
HETATM   13  O   UNL     1      -9.691   5.876  66.508  1.00  0.00    -0.153 OA 
BRANCH  13  14
HETATM   14  C   UNL     1     -10.120   4.671  66.068  1.00  0.00    -0.264 C  
HETATM   15  H1  UNL     1     -11.614   3.898  65.080  1.00  0.00     0.000 HD 
HETATM   16  O   UNL     1      -9.556   3.600  66.226  1.00  0.00    -0.185 OA 
HETATM   17  N   UNL     1     -11.291   4.806  65.412  1.00  0.00    -0.977 N  
HETATM   18  H2  UNL     1     -11.782   5.689  65.269  1.00  0.00     0.000 HD 
ENDBRANCH  13  14
ENDBRANCH  12  13
ENDBRANCH   4  12
TORSDOF 5
ENDMDL
MODEL      102
REMARK 921   NORMALIZED FREE ENERGY PREDICTED BY IDOCK:   -3.88 KCAL/MOL
REMARK 922        TOTAL FREE ENERGY PREDICTED BY IDOCK:   -5.21 KCAL/MOL
REMARK 923 INTER-LIGAND FREE ENERGY PREDICTED BY IDOCK:   -4.85 KCAL/MOL
REMARK 924 INTRA-LIGAND FREE ENERGY PREDICTED BY IDOCK:   -0.36 KCAL/MOL
REMARK 927      BINDING AFFINITY PREDICTED BY RF-SCORE:    0.00 PKD
ROOT
HETATM    1  N   UNL     1     -10.665  14.511  69.644  1.00  0.00    -0.422 NA 
HETATM    2  H1  UNL     1     -11.536  14.521  70.174  1.00  0.00     0.000 HD 
HETATM    3  H2  UNL     1     -10.047  15.279  69.908  1.00  0.00     0.000 HD 
HETATM    4  C   UNL     1     -10.953  14.505  68.194  1.00  0.00    -0.251 C  
ENDROOT
BRANCH   4   5
HETATM    5  C   UNL     1     -11.848  13.309  67.792  1.00  0.00    -0.394 C  
BRANCH   5   6
HETATM    6  C   UNL     1     -11.804  12.992  66.312  1.00  0.00    -0.466 A  
HETATM    7  C   UNL     1     -11.568  12.498  63.560  1.00  0.00    -0.584 A  
HETATM    8  C   UNL     1     -12.397  13.855  65.381  1.00  0.00    -0.494 A  
HETATM    9  C   UNL     1     -11.133  11.853  65.847  1.00  0.00    -0.365 A  
HETATM   10  C   UNL     1     -11.006  11.613  64.479  1.00  0.00    -0.376 A  
HETATM   11  C   UNL     1     -12.276  13.610  64.011  1.00  0.00    -0.443 A  
ENDBRANCH   5   6
ENDBRANCH   4   5
BRANCH   4  12
HETATM   12  C   UNL     1      -9.634  14.489  67.391  1.00  0.00    -0.212 C  
BRANCH  12  13
HETATM   13  O   UNL     1      -8.552  13.978  68.196  1.00  0.00    -0.165 OA 
BRANCH  13  14
HETATM   14  C   UNL     1      -8.195  12.701  67.931  1.00  0.00    -0.170 C  
HETATM   15  H1  UNL     1      -8.481  10.904  68.634  1.00  0.00     0.000 HD 
HETATM   16  O   UNL     1      -7.476  12.325  67.020  1.00  0.00    -0.140 OA 
HETATM   17  N   UNL     1      -8.751  11.867  68.834  1.00  0.00    -0.369 N  
HETATM   18  H2  UNL     1      -9.353  12.157  69.605  1.00  0.00     0.000 HD 
ENDBRANCH  13  14
ENDBRANCH  12  13
ENDBRANCH   4  12
TORSDOF 5
ENDMDL
MODEL      103
REMARK 921   NORMALIZED FREE ENERGY PREDICTED BY IDOCK:   -3.87 KCAL/MOL
REMARK 922        TOTAL FREE ENERGY PREDICTED BY IDOCK:   -5.20 KCAL/MOL
REMARK 923 INTER-LIGAND FREE ENERGY PREDICTED BY IDOCK:   -4.79 KCAL/MOL
REMARK 924 INTRA-LIGAND FREE ENERGY PREDICTED BY IDOCK:   -0.42 KCAL/MOL
REMARK 927      BINDING AFFINITY PREDICTED BY RF-SCORE:    0.00 PKD
ROOT
HETATM    1  N   UNL     1      -8.189   9.039  71.390  1.00  0.00    -0.322 NA 
HETATM    2  H1  UNL     1      -8.400   8.859  72.372  1.00  0.00     0.000 HD 
HETATM    3  H2  UNL     1      -7.596   9.861  71.271  1.00  0.00     0.000 HD 
HETATM    4  C   UNL     1      -9.442   9.142  70.612  1.00  0.00    -0.261 C  
ENDROOT
BRANCH   4   5
HETATM    5  C   UNL     1     -10.312   7.871  70.756  1.00  0.00    -0.211 C  
BRANCH   5   6
HETATM    6  C   UNL     1     -11.740   8.160  71.167  1.00  0.00    -0.309 A  
HETATM    7  C   UNL     1     -14.340   8.653  72.099  1.00  0.00    -0.518 A  
HETATM    8  C   UNL     1     -12.702   7.140  71.166  1.00  0.00    -0.363 A  
HETATM    9  C   UNL     1     -12.113   9.441  71.596  1.00  0.00    -0.462 A  
HETATM   10  C   UNL     1     -13.403   9.684  72.069  1.00  0.00    -0.547 A  
HETATM   11  C   UNL     1     -13.995   7.386  71.633  1.00  0.00    -0.523 A  
ENDBRANCH   5   6
ENDBRANCH   4   5
BRANCH   4  12
HETATM   12  C   UNL     1      -9.122   9.414  69.126  1.00  0.00    -0.148 C  
BRANCH  12  13
HETATM   13  O   UNL     1      -9.643  10.694  68.717  1.00  0.00    -0.171 OA 
BRANCH  13  14
HETATM   14  C   UNL     1     -10.787  10.642  67.997  1.00  0.00    -0.261 C  
HETATM   15  H1  UNL     1     -11.368  10.604  66.135  1.00  0.00     0.000 HD 
HETATM   16  O   UNL     1     -11.922  10.603  68.443  1.00  0.00    -0.448 OA 
HETATM   17  N   UNL     1     -10.506  10.643  66.677  1.00  0.00    -0.244 N  
HETATM   18  H2  UNL     1      -9.567  10.678  66.280  1.00  0.00     0.000 HD 
ENDBRANCH  13  14
ENDBRANCH  12  13
ENDBRANCH   4  12
TORSDOF 5
ENDMDL
MODEL      104
REMARK 921   NORMALIZED FREE ENERGY PREDICTED BY IDOCK:   -3.86 KCAL/MOL
REMARK 922        TOTAL FREE ENERGY PREDICTED BY IDOCK:   -5.19 KCAL/MOL
REMARK 923 INTER-LIGAND FREE ENERGY PREDICTED BY IDOCK:   -4.84 KCAL/MOL
REMARK 924 INTRA-LIGAND FREE ENERGY PREDICTED BY IDOCK:   -0.35 KCAL/MOL
REMARK 927      BINDING AFFINITY PREDICTED BY RF-SCORE:    0.00 PKD
ROOT
HETATM    1  N   UNL     1      -9.169  13.277  66.568  1.00  0.00    -0.401 NA 
HETATM    2  H1  UNL     1      -8.860  14.247  66.616  1.00  0.00     0.000 HD 
HETATM    3  H2  UNL     1      -8.481  12.679  66.109  1.00  0.00     0.000 HD 
HETATM    4  C   UNL     1     -10.494  13.198  65.915  1.00  0.00    -0.280 C  
ENDROOT
BRANCH   4   5
HETATM    5  C   UNL     1     -11.545  14.067  66.646  1.00  0.00    -0.400 C  
BRANCH   5   6
HETATM    6  C   UNL     1     -11.080  15.483  66.910  1.00  0.00    -0.221 A  
HETATM    7  C   UNL     1     -10.050  18.043  67.416  1.00  0.00    -0.354 A  
HETATM    8  C   UNL     1     -11.029  15.984  68.218  1.00  0.00    -0.335 A  
HETATM    9  C   UNL     1     -10.653  16.302  65.855  1.00  0.00    -0.307 A  
HETATM   10  C   UNL     1     -10.131  17.570  66.108  1.00  0.00    -0.317 A  
HETATM   11  C   UNL     1     -10.513  17.257  68.469  1.00  0.00    -0.375 A  
ENDBRANCH   5   6
ENDBRANCH   4   5
BRANCH   4  12
HETATM   12  C   UNL     1     -10.963  11.728  65.842  1.00  0.00    -0.304 C  
BRANCH  12  13
HETATM   13  O   UNL     1     -11.764  11.390  66.992  1.00  0.00    -0.535 OA 
BRANCH  13  14
HETATM   14  C   UNL     1     -11.084  10.829  68.018  1.00  0.00    -0.299 C  
HETATM   15  H1  UNL     1     -10.637   9.062  68.713  1.00  0.00     0.000 HD 
HETATM   16  O   UNL     1     -10.491  11.424  68.903  1.00  0.00    -0.200 OA 
HETATM   17  N   UNL     1     -11.149   9.484  67.939  1.00  0.00    -0.515 N  
HETATM   18  H2  UNL     1     -11.641   8.965  67.211  1.00  0.00     0.000 HD 
ENDBRANCH  13  14
ENDBRANCH  12  13
ENDBRANCH   4  12
TORSDOF 5
ENDMDL
MODEL      105
REMARK 921   NORMALIZED FREE ENERGY PREDICTED BY IDOCK:   -3.86 KCAL/MOL
REMARK 922        TOTAL FREE ENERGY PREDICTED BY IDOCK:   -5.19 KCAL/MOL
REMARK 923 INTER-LIGAND FREE ENERGY PREDICTED BY IDOCK:   -4.68 KCAL/MOL
REMARK 924 INTRA-LIGAND FREE ENERGY PREDICTED BY IDOCK:   -0.50 KCAL/MOL
REMARK 927      BINDING AFFINITY PREDICTED BY RF-SCORE:    0.00 PKD
ROOT
HETATM    1  N   UNL     1      -7.013  12.596  66.932  1.00  0.00    -0.377 NA 
HETATM    2  H1  UNL     1      -6.967  13.283  66.179  1.00  0.00     0.000 HD 
HETATM    3  H2  UNL     1      -6.201  11.978  66.937  1.00  0.00     0.000 HD 
HETATM    4  C   UNL     1      -8.283  11.841  66.853  1.00  0.00    -0.166 C  
ENDROOT
BRANCH   4   5
HETATM    5  C   UNL     1      -9.511  12.780  66.898  1.00  0.00    -0.235 C  
BRANCH   5   6
HETATM    6  C   UNL     1     -10.502  12.532  65.780  1.00  0.00    -0.296 A  
HETATM    7  C   UNL     1     -12.304  12.240  63.649  1.00  0.00    -0.664 A  
HETATM    8  C   UNL     1     -11.855  12.864  65.941  1.00  0.00    -0.476 A  
HETATM    9  C   UNL     1     -10.076  12.007  64.553  1.00  0.00    -0.293 A  
HETATM   10  C   UNL     1     -10.970  11.871  63.490  1.00  0.00    -0.505 A  
HETATM   11  C   UNL     1     -12.750  12.722  64.878  1.00  0.00    -0.479 A  
ENDBRANCH   5   6
ENDBRANCH   4   5
BRANCH   4  12
HETATM   12  C   UNL     1      -8.354  10.802  67.993  1.00  0.00    -0.120 C  
BRANCH  12  13
HETATM   13  O   UNL     1      -8.531   9.473  67.462  1.00  0.00    -0.124 OA 
BRANCH  13  14
HETATM   14  C   UNL     1      -9.796   9.167  67.097  1.00  0.00    -0.195 C  
HETATM   15  H1  UNL     1     -10.741   8.178  65.705  1.00  0.00     0.000 HD 
HETATM   16  O   UNL     1     -10.818   9.512  67.668  1.00  0.00    -0.279 OA 
HETATM   17  N   UNL     1      -9.787   8.409  65.981  1.00  0.00    -0.474 N  
HETATM   18  H2  UNL     1      -8.947   8.110  65.485  1.00  0.00     0.000 HD 
ENDBRANCH  13  14
ENDBRANCH  12  13
ENDBRANCH   4  12
TORSDOF 5
ENDMDL
MODEL      106
REMARK 921   NORMALIZED FREE ENERGY PREDICTED BY IDOCK:   -3.85 KCAL/MOL
REMARK 922        TOTAL FREE ENERGY PREDICTED BY IDOCK:   -5.18 KCAL/MOL
REMARK 923 INTER-LIGAND FREE ENERGY PREDICTED BY IDOCK:   -4.74 KCAL/MOL
REMARK 924 INTRA-LIGAND FREE ENERGY PREDICTED BY IDOCK:   -0.44 KCAL/MOL
REMARK 927      BINDING AFFINITY PREDICTED BY RF-SCORE:    0.00 PKD
ROOT
HETATM    1  N   UNL     1     -10.937  17.130  68.261  1.00  0.00    -0.309 NA 
HETATM    2  H1  UNL     1     -10.815  18.089  68.587  1.00  0.00     0.000 HD 
HETATM    3  H2  UNL     1     -11.374  16.538  68.969  1.00  0.00     0.000 HD 
HETATM    4  C   UNL     1      -9.642  16.581  67.803  1.00  0.00    -0.232 C  
ENDROOT
BRANCH   4   5
HETATM    5  C   UNL     1      -9.010  17.455  66.694  1.00  0.00    -0.274 C  
BRANCH   5   6
HETATM    6  C   UNL     1      -8.073  18.519  67.224  1.00  0.00    -0.245 A  
HETATM    7  C   UNL     1      -6.478  20.567  68.289  1.00  0.00    -0.338 A  
HETATM    8  C   UNL     1      -7.853  19.700  66.501  1.00  0.00    -0.311 A  
HETATM    9  C   UNL     1      -7.443  18.360  68.465  1.00  0.00    -0.309 A  
HETATM   10  C   UNL     1      -6.659  19.382  69.000  1.00  0.00    -0.347 A  
HETATM   11  C   UNL     1      -7.063  20.720  67.034  1.00  0.00    -0.383 A  
ENDBRANCH   5   6
ENDBRANCH   4   5
BRANCH   4  12
HETATM   12  C   UNL     1      -9.827  15.129  67.309  1.00  0.00    -0.228 C  
BRANCH  12  13
HETATM   13  O   UNL     1     -10.973  15.027  66.440  1.00  0.00    -0.329 OA 
BRANCH  13  14
HETATM   14  C   UNL     1     -11.873  14.079  66.790  1.00  0.00    -0.424 C  
HETATM   15  H1  UNL     1     -13.079  13.650  68.262  1.00  0.00     0.000 HD 
HETATM   16  O   UNL     1     -12.183  13.098  66.134  1.00  0.00    -0.419 OA 
HETATM   17  N   UNL     1     -12.401  14.364  67.999  1.00  0.00    -0.589 N  
HETATM   18  H2  UNL     1     -12.156  15.176  68.566  1.00  0.00     0.000 HD 
ENDBRANCH  13  14
ENDBRANCH  12  13
ENDBRANCH   4  12
TORSDOF 5
ENDMDL
MODEL      107
REMARK 921   NORMALIZED FREE ENERGY PREDICTED BY IDOCK:   -3.85 KCAL/MOL
REMARK 922        TOTAL FREE ENERGY PREDICTED BY IDOCK:   -5.18 KCAL/MOL
REMARK 923 INTER-LIGAND FREE ENERGY PREDICTED BY IDOCK:   -5.21 KCAL/MOL
REMARK 924 INTRA-LIGAND FREE ENERGY PREDICTED BY IDOCK:    0.03 KCAL/MOL
REMARK 927      BINDING AFFINITY PREDICTED BY RF-SCORE:    0.00 PKD
ROOT
HETATM    1  N   UNL     1     -12.125   7.153  70.579  1.00  0.00    -0.569 NA 
HETATM    2  H1  UNL     1     -12.883   6.720  70.051  1.00  0.00     0.000 HD 
HETATM    3  H2  UNL     1     -11.408   6.477  70.844  1.00  0.00     0.000 HD 
HETATM    4  C   UNL     1     -12.670   7.872  71.751  1.00  0.00    -0.329 C  
ENDROOT
BRANCH   4   5
HETATM    5  C   UNL     1     -13.719   8.931  71.337  1.00  0.00    -0.323 C  
BRANCH   5   6
HETATM    6  C   UNL     1     -13.127  10.301  71.084  1.00  0.00    -0.481 A  
HETATM    7  C   UNL     1     -12.178  12.881  70.521  1.00  0.00    -0.395 A  
HETATM    8  C   UNL     1     -12.339  10.539  69.949  1.00  0.00    -0.247 A  
HETATM    9  C   UNL     1     -13.390  11.365  71.958  1.00  0.00    -0.388 A  
HETATM   10  C   UNL     1     -12.928  12.649  71.673  1.00  0.00    -0.400 A  
HETATM   11  C   UNL     1     -11.871  11.824  69.668  1.00  0.00    -0.407 A  
ENDBRANCH   5   6
ENDBRANCH   4   5
BRANCH   4  12
HETATM   12  C   UNL     1     -11.523   8.529  72.550  1.00  0.00    -0.298 C  
BRANCH  12  13
HETATM   13  O   UNL     1     -10.535   7.548  72.925  1.00  0.00    -0.254 OA 
BRANCH  13  14
HETATM   14  C   UNL     1      -9.312   8.049  73.213  1.00  0.00    -0.275 C  
HETATM   15  H1  UNL     1      -8.012   8.048  74.668  1.00  0.00     0.000 HD 
HETATM   16  O   UNL     1      -8.626   8.746  72.483  1.00  0.00    -0.403 OA 
HETATM   17  N   UNL     1      -8.934   7.670  74.451  1.00  0.00    -0.439 N  
HETATM   18  H2  UNL     1      -9.490   7.091  75.080  1.00  0.00     0.000 HD 
ENDBRANCH  13  14
ENDBRANCH  12  13
ENDBRANCH   4  12
TORSDOF 5
ENDMDL
MODEL      108
REMARK 921   NORMALIZED FREE ENERGY PREDICTED BY IDOCK:   -3.85 KCAL/MOL
REMARK 922        TOTAL FREE ENERGY PREDICTED BY IDOCK:   -5.17 KCAL/MOL
REMARK 923 INTER-LIGAND FREE ENERGY PREDICTED BY IDOCK:   -4.85 KCAL/MOL
REMARK 924 INTRA-LIGAND FREE ENERGY PREDICTED BY IDOCK:   -0.32 KCAL/MOL
REMARK 927      BINDING AFFINITY PREDICTED BY RF-SCORE:    0.00 PKD
ROOT
HETATM    1  N   UNL     1      -6.727  15.022  67.245  1.00  0.00    -0.286 NA 
HETATM    2  H1  UNL     1      -6.163  15.871  67.208  1.00  0.00     0.000 HD 
HETATM    3  H2  UNL     1      -6.409  14.322  66.573  1.00  0.00     0.000 HD 
HETATM    4  C   UNL     1      -8.157  15.355  67.063  1.00  0.00    -0.230 C  
ENDROOT
BRANCH   4   5
HETATM    5  C   UNL     1      -8.646  16.378  68.115  1.00  0.00    -0.193 C  
BRANCH   5   6
HETATM    6  C   UNL     1      -9.134  17.678  67.512  1.00  0.00    -0.239 A  
HETATM    7  C   UNL     1      -9.975  20.172  66.540  1.00  0.00    -0.586 A  
HETATM    8  C   UNL     1     -10.419  18.159  67.801  1.00  0.00    -0.421 A  
HETATM    9  C   UNL     1      -8.296  18.442  66.690  1.00  0.00    -0.280 A  
HETATM   10  C   UNL     1      -8.709  19.687  66.215  1.00  0.00    -0.401 A  
HETATM   11  C   UNL     1     -10.835  19.402  67.320  1.00  0.00    -0.561 A  
ENDBRANCH   5   6
ENDBRANCH   4   5
BRANCH   4  12
HETATM   12  C   UNL     1      -9.011  14.069  67.119  1.00  0.00    -0.232 C  
BRANCH  12  13
HETATM   13  O   UNL     1     -10.232  14.234  66.370  1.00  0.00    -0.277 OA 
BRANCH  13  14
HETATM   14  C   UNL     1     -11.327  13.671  66.929  1.00  0.00    -0.327 C  
HETATM   15  H1  UNL     1     -13.102  14.183  67.556  1.00  0.00     0.000 HD 
HETATM   16  O   UNL     1     -11.467  12.494  67.221  1.00  0.00    -0.310 OA 
HETATM   17  N   UNL     1     -12.277  14.607  67.134  1.00  0.00    -0.506 N  
HETATM   18  H2  UNL     1     -12.182  15.596  66.901  1.00  0.00     0.000 HD 
ENDBRANCH  13  14
ENDBRANCH  12  13
ENDBRANCH   4  12
TORSDOF 5
ENDMDL
MODEL      109
REMARK 921   NORMALIZED FREE ENERGY PREDICTED BY IDOCK:   -3.84 KCAL/MOL
REMARK 922        TOTAL FREE ENERGY PREDICTED BY IDOCK:   -5.16 KCAL/MOL
REMARK 923 INTER-LIGAND FREE ENERGY PREDICTED BY IDOCK:   -4.81 KCAL/MOL
REMARK 924 INTRA-LIGAND FREE ENERGY PREDICTED BY IDOCK:   -0.36 KCAL/MOL
REMARK 927      BINDING AFFINITY PREDICTED BY RF-SCORE:    0.00 PKD
ROOT
HETATM    1  N   UNL     1     -10.668   8.954  72.105  1.00  0.00    -0.321 NA 
HETATM    2  H1  UNL     1     -10.156   8.174  72.519  1.00  0.00     0.000 HD 
HETATM    3  H2  UNL     1     -10.549   9.816  72.638  1.00  0.00     0.000 HD 
HETATM    4  C   UNL     1     -12.094   8.595  71.942  1.00  0.00    -0.356 C  
ENDROOT
BRANCH   4   5
HETATM    5  C   UNL     1     -12.270   7.316  71.090  1.00  0.00    -0.376 C  
BRANCH   5   6
HETATM    6  C   UNL     1     -11.456   6.141  71.590  1.00  0.00    -0.331 A  
HETATM    7  C   UNL     1     -10.080   3.854  72.455  1.00  0.00    -0.232 A  
HETATM    8  C   UNL     1     -11.637   5.651  72.891  1.00  0.00    -0.252 A  
HETATM    9  C   UNL     1     -10.540   5.498  70.747  1.00  0.00    -0.320 A  
HETATM   10  C   UNL     1      -9.864   4.355  71.173  1.00  0.00    -0.258 A  
HETATM   11  C   UNL     1     -10.955   4.510  73.319  1.00  0.00    -0.369 A  
ENDBRANCH   5   6
ENDBRANCH   4   5
BRANCH   4  12
HETATM   12  C   UNL     1     -12.868   9.775  71.315  1.00  0.00    -0.377 C  
BRANCH  12  13
HETATM   13  O   UNL     1     -11.975  10.860  70.994  1.00  0.00    -0.326 OA 
BRANCH  13  14
HETATM   14  C   UNL     1     -11.604  10.931  69.695  1.00  0.00    -0.322 C  
HETATM   15  H1  UNL     1      -9.984  10.885  68.610  1.00  0.00     0.000 HD 
HETATM   16  O   UNL     1     -12.347  11.069  68.738  1.00  0.00    -0.533 OA 
HETATM   17  N   UNL     1     -10.263  10.831  69.589  1.00  0.00    -0.436 N  
HETATM   18  H2  UNL     1      -9.622  10.718  70.374  1.00  0.00     0.000 HD 
ENDBRANCH  13  14
ENDBRANCH  12  13
ENDBRANCH   4  12
TORSDOF 5
ENDMDL
MODEL      110
REMARK 921   NORMALIZED FREE ENERGY PREDICTED BY IDOCK:   -3.84 KCAL/MOL
REMARK 922        TOTAL FREE ENERGY PREDICTED BY IDOCK:   -5.16 KCAL/MOL
REMARK 923 INTER-LIGAND FREE ENERGY PREDICTED BY IDOCK:   -4.87 KCAL/MOL
REMARK 924 INTRA-LIGAND FREE ENERGY PREDICTED BY IDOCK:   -0.29 KCAL/MOL
REMARK 927      BINDING AFFINITY PREDICTED BY RF-SCORE:    0.00 PKD
ROOT
HETATM    1  N   UNL     1     -10.182  13.837  64.257  1.00  0.00    -0.737 NA 
HETATM    2  H1  UNL     1     -10.636  12.951  64.032  1.00  0.00     0.000 HD 
HETATM    3  H2  UNL     1      -9.252  13.906  63.843  1.00  0.00     0.000 HD 
HETATM    4  C   UNL     1     -10.151  14.033  65.723  1.00  0.00    -0.327 C  
ENDROOT
BRANCH   4   5
HETATM    5  C   UNL     1     -11.569  13.978  66.338  1.00  0.00    -0.381 C  
BRANCH   5   6
HETATM    6  C   UNL     1     -11.673  13.058  67.536  1.00  0.00    -0.421 A  
HETATM    7  C   UNL     1     -11.685  11.372  69.779  1.00  0.00    -0.418 A  
HETATM    8  C   UNL     1     -11.512  11.673  67.387  1.00  0.00    -0.357 A  
HETATM    9  C   UNL     1     -11.888  13.579  68.819  1.00  0.00    -0.390 A  
HETATM   10  C   UNL     1     -11.883  12.743  69.935  1.00  0.00    -0.371 A  
HETATM   11  C   UNL     1     -11.515  10.836  68.505  1.00  0.00    -0.362 A  
ENDBRANCH   5   6
ENDBRANCH   4   5
BRANCH   4  12
HETATM   12  C   UNL     1      -9.464  15.373  66.064  1.00  0.00    -0.346 C  
BRANCH  12  13
HETATM   13  O   UNL     1      -8.651  15.244  67.247  1.00  0.00    -0.165 OA 
BRANCH  13  14
HETATM   14  C   UNL     1      -7.401  15.750  67.141  1.00  0.00    -0.222 C  
HETATM   15  H1  UNL     1      -6.500  17.479  67.089  1.00  0.00     0.000 HD 
HETATM   16  O   UNL     1      -6.369  15.109  67.030  1.00  0.00    -0.214 OA 
HETATM   17  N   UNL     1      -7.442  17.098  67.170  1.00  0.00    -0.158 N  
HETATM   18  H2  UNL     1      -8.292  17.655  67.259  1.00  0.00     0.000 HD 
ENDBRANCH  13  14
ENDBRANCH  12  13
ENDBRANCH   4  12
TORSDOF 5
ENDMDL
MODEL      111
REMARK 921   NORMALIZED FREE ENERGY PREDICTED BY IDOCK:   -3.81 KCAL/MOL
REMARK 922        TOTAL FREE ENERGY PREDICTED BY IDOCK:   -5.13 KCAL/MOL
REMARK 923 INTER-LIGAND FREE ENERGY PREDICTED BY IDOCK:   -4.87 KCAL/MOL
REMARK 924 INTRA-LIGAND FREE ENERGY PREDICTED BY IDOCK:   -0.26 KCAL/MOL
REMARK 927      BINDING AFFINITY PREDICTED BY RF-SCORE:    0.00 PKD
ROOT
HETATM    1  N   UNL     1      -8.611  13.261  68.730  1.00  0.00    -0.369 NA 
HETATM    2  H1  UNL     1      -7.652  13.361  68.396  1.00  0.00     0.000 HD 
HETATM    3  H2  UNL     1      -8.663  12.699  69.581  1.00  0.00     0.000 HD 
HETATM    4  C   UNL     1      -9.469  12.718  67.655  1.00  0.00    -0.190 C  
ENDROOT
BRANCH   4   5
HETATM    5  C   UNL     1      -9.425  13.602  66.386  1.00  0.00    -0.248 C  
BRANCH   5   6
HETATM    6  C   UNL     1     -10.356  13.131  65.289  1.00  0.00    -0.319 A  
HETATM    7  C   UNL     1     -12.195  12.198  63.386  1.00  0.00    -0.635 A  
HETATM    8  C   UNL     1     -10.248  11.833  64.771  1.00  0.00    -0.324 A  
HETATM    9  C   UNL     1     -11.369  13.970  64.804  1.00  0.00    -0.366 A  
HETATM   10  C   UNL     1     -12.289  13.503  63.866  1.00  0.00    -0.397 A  
HETATM   11  C   UNL     1     -11.166  11.369  63.827  1.00  0.00    -0.375 A  
ENDBRANCH   5   6
ENDBRANCH   4   5
BRANCH   4  12
HETATM   12  C   UNL     1     -10.920  12.566  68.160  1.00  0.00    -0.228 C  
BRANCH  12  13
HETATM   13  O   UNL     1     -11.062  11.372  68.956  1.00  0.00    -0.210 OA 
BRANCH  13  14
HETATM   14  C   UNL     1     -11.936  11.470  69.983  1.00  0.00    -0.357 C  
HETATM   15  H1  UNL     1     -12.613  12.807  71.233  1.00  0.00     0.000 HD 
HETATM   16  O   UNL     1     -12.620  10.569  70.440  1.00  0.00    -0.320 OA 
HETATM   17  N   UNL     1     -11.954  12.733  70.458  1.00  0.00    -0.532 N  
HETATM   18  H2  UNL     1     -11.390  13.502  70.096  1.00  0.00     0.000 HD 
ENDBRANCH  13  14
ENDBRANCH  12  13
ENDBRANCH   4  12
TORSDOF 5
ENDMDL
MODEL      112
REMARK 921   NORMALIZED FREE ENERGY PREDICTED BY IDOCK:   -3.81 KCAL/MOL
REMARK 922        TOTAL FREE ENERGY PREDICTED BY IDOCK:   -5.13 KCAL/MOL
REMARK 923 INTER-LIGAND FREE ENERGY PREDICTED BY IDOCK:   -5.18 KCAL/MOL
REMARK 924 INTRA-LIGAND FREE ENERGY PREDICTED BY IDOCK:    0.06 KCAL/MOL
REMARK 927      BINDING AFFINITY PREDICTED BY RF-SCORE:    0.00 PKD
ROOT
HETATM    1  N   UNL     1     -11.918  10.605  67.970  1.00  0.00    -0.737 NA 
HETATM    2  H1  UNL     1     -11.925   9.588  67.897  1.00  0.00     0.000 HD 
HETATM    3  H2  UNL     1     -12.239  11.053  67.111  1.00  0.00     0.000 HD 
HETATM    4  C   UNL     1     -10.576  11.076  68.372  1.00  0.00    -0.193 C  
ENDROOT
BRANCH   4   5
HETATM    5  C   UNL     1     -10.117  10.433  69.702  1.00  0.00    -0.226 C  
BRANCH   5   6
HETATM    6  C   UNL     1     -11.264   9.997  70.589  1.00  0.00    -0.425 A  
HETATM    7  C   UNL     1     -13.492   9.179  72.085  1.00  0.00    -0.530 A  
HETATM    8  C   UNL     1     -12.137  10.944  71.142  1.00  0.00    -0.386 A  
HETATM    9  C   UNL     1     -11.496   8.637  70.838  1.00  0.00    -0.315 A  
HETATM   10  C   UNL     1     -12.610   8.230  71.573  1.00  0.00    -0.333 A  
HETATM   11  C   UNL     1     -13.247  10.536  71.883  1.00  0.00    -0.526 A  
ENDBRANCH   5   6
ENDBRANCH   4   5
BRANCH   4  12
HETATM   12  C   UNL     1     -10.566  12.617  68.485  1.00  0.00    -0.243 C  
BRANCH  12  13
HETATM   13  O   UNL     1     -10.723  13.224  67.186  1.00  0.00    -0.257 OA 
BRANCH  13  14
HETATM   14  C   UNL     1      -9.687  13.997  66.787  1.00  0.00    -0.278 C  
HETATM   15  H1  UNL     1      -8.881  14.662  65.140  1.00  0.00     0.000 HD 
HETATM   16  O   UNL     1      -8.875  14.549  67.512  1.00  0.00    -0.171 OA 
HETATM   17  N   UNL     1      -9.662  14.080  65.441  1.00  0.00    -0.561 N  
HETATM   18  H2  UNL     1     -10.327  13.626  64.815  1.00  0.00     0.000 HD 
ENDBRANCH  13  14
ENDBRANCH  12  13
ENDBRANCH   4  12
TORSDOF 5
ENDMDL
MODEL      113
REMARK 921   NORMALIZED FREE ENERGY PREDICTED BY IDOCK:   -3.80 KCAL/MOL
REMARK 922        TOTAL FREE ENERGY PREDICTED BY IDOCK:   -5.10 KCAL/MOL
REMARK 923 INTER-LIGAND FREE ENERGY PREDICTED BY IDOCK:   -4.87 KCAL/MOL
REMARK 924 INTRA-LIGAND FREE ENERGY PREDICTED BY IDOCK:   -0.24 KCAL/MOL
REMARK 927      BINDING AFFINITY PREDICTED BY RF-SCORE:    0.00 PKD
ROOT
HETATM    1  N   UNL     1      -9.315  14.732  69.332  1.00  0.00    -0.415 NA 
HETATM    2  H1  UNL     1      -8.457  15.270  69.212  1.00  0.00     0.000 HD 
HETATM    3  H2  UNL     1      -9.191  13.752  69.079  1.00  0.00     0.000 HD 
HETATM    4  C   UNL     1     -10.419  15.364  68.577  1.00  0.00    -0.234 C  
ENDROOT
BRANCH   4   5
HETATM    5  C   UNL     1     -10.635  16.836  69.002  1.00  0.00    -0.343 C  
BRANCH   5   6
HETATM    6  C   UNL     1      -9.923  17.833  68.112  1.00  0.00    -0.342 A  
HETATM    7  C   UNL     1      -8.734  19.654  66.340  1.00  0.00    -0.404 A  
HETATM    8  C   UNL     1      -8.960  17.402  67.189  1.00  0.00    -0.248 A  
HETATM    9  C   UNL     1     -10.245  19.195  68.167  1.00  0.00    -0.489 A  
HETATM   10  C   UNL     1      -9.662  20.099  67.279  1.00  0.00    -0.574 A  
HETATM   11  C   UNL     1      -8.371  18.309  66.306  1.00  0.00    -0.230 A  
ENDBRANCH   5   6
ENDBRANCH   4   5
BRANCH   4  12
HETATM   12  C   UNL     1     -11.719  14.551  68.759  1.00  0.00    -0.327 C  
BRANCH  12  13
HETATM   13  O   UNL     1     -11.457  13.319  69.460  1.00  0.00    -0.268 OA 
BRANCH  13  14
HETATM   14  C   UNL     1     -12.302  13.051  70.482  1.00  0.00    -0.287 C  
HETATM   15  H1  UNL     1     -13.516  13.988  71.688  1.00  0.00     0.000 HD 
HETATM   16  O   UNL     1     -12.530  11.953  70.964  1.00  0.00    -0.369 OA 
HETATM   17  N   UNL     1     -12.879  14.190  70.918  1.00  0.00    -0.339 N  
HETATM   18  H2  UNL     1     -12.703  15.118  70.533  1.00  0.00     0.000 HD 
ENDBRANCH  13  14
ENDBRANCH  12  13
ENDBRANCH   4  12
TORSDOF 5
ENDMDL
MODEL      114
REMARK 921   NORMALIZED FREE ENERGY PREDICTED BY IDOCK:   -3.79 KCAL/MOL
REMARK 922        TOTAL FREE ENERGY PREDICTED BY IDOCK:   -5.10 KCAL/MOL
REMARK 923 INTER-LIGAND FREE ENERGY PREDICTED BY IDOCK:   -4.81 KCAL/MOL
REMARK 924 INTRA-LIGAND FREE ENERGY PREDICTED BY IDOCK:   -0.29 KCAL/MOL
REMARK 927      BINDING AFFINITY PREDICTED BY RF-SCORE:    0.00 PKD
ROOT
HETATM    1  N   UNL     1     -11.547   6.683  67.538  1.00  0.00    -0.614 NA 
HETATM    2  H1  UNL     1     -12.292   7.093  68.103  1.00  0.00     0.000 HD 
HETATM    3  H2  UNL     1     -11.899   5.964  66.905  1.00  0.00     0.000 HD 
HETATM    4  C   UNL     1     -10.471   6.171  68.413  1.00  0.00    -0.231 C  
ENDROOT
BRANCH   4   5
HETATM    5  C   UNL     1      -9.907   7.278  69.335  1.00  0.00    -0.163 C  
BRANCH   5   6
HETATM    6  C   UNL     1     -10.906   7.784  70.353  1.00  0.00    -0.248 A  
HETATM    7  C   UNL     1     -12.875   8.752  72.103  1.00  0.00    -0.456 A  
HETATM    8  C   UNL     1     -10.947   9.143  70.697  1.00  0.00    -0.319 A  
HETATM    9  C   UNL     1     -11.835   6.911  70.936  1.00  0.00    -0.424 A  
HETATM   10  C   UNL     1     -12.820   7.394  71.798  1.00  0.00    -0.365 A  
HETATM   11  C   UNL     1     -11.930   9.624  71.565  1.00  0.00    -0.485 A  
ENDBRANCH   5   6
ENDBRANCH   4   5
BRANCH   4  12
HETATM   12  C   UNL     1      -9.343   5.551  67.559  1.00  0.00    -0.111 C  
BRANCH  12  13
HETATM   13  O   UNL     1      -9.653   5.652  66.154  1.00  0.00    -0.158 OA 
BRANCH  13  14
HETATM   14  C   UNL     1      -9.859   4.471  65.528  1.00  0.00    -0.208 C  
HETATM   15  H1  UNL     1     -11.254   3.550  64.522  1.00  0.00     0.000 HD 
HETATM   16  O   UNL     1      -9.066   3.548  65.443  1.00  0.00    -0.133 OA 
HETATM   17  N   UNL     1     -11.098   4.440  64.994  1.00  0.00    -0.898 N  
HETATM   18  H2  UNL     1     -11.779   5.197  65.054  1.00  0.00     0.000 HD 
ENDBRANCH  13  14
ENDBRANCH  12  13
ENDBRANCH   4  12
TORSDOF 5
ENDMDL
MODEL      115
REMARK 921   NORMALIZED FREE ENERGY PREDICTED BY IDOCK:   -3.79 KCAL/MOL
REMARK 922        TOTAL FREE ENERGY PREDICTED BY IDOCK:   -5.09 KCAL/MOL
REMARK 923 INTER-LIGAND FREE ENERGY PREDICTED BY IDOCK:   -4.83 KCAL/MOL
REMARK 924 INTRA-LIGAND FREE ENERGY PREDICTED BY IDOCK:   -0.27 KCAL/MOL
REMARK 927      BINDING AFFINITY PREDICTED BY RF-SCORE:    0.00 PKD
ROOT
HETATM    1  N   UNL     1      -9.416   8.507  65.672  1.00  0.00    -0.445 NA 
HETATM    2  H1  UNL     1      -9.371   9.017  64.790  1.00  0.00     0.000 HD 
HETATM    3  H2  UNL     1      -9.639   7.521  65.533  1.00  0.00     0.000 HD 
HETATM    4  C   UNL     1     -10.368   9.166  66.592  1.00  0.00    -0.218 C  
ENDROOT
BRANCH   4   5
HETATM    5  C   UNL     1      -9.994  10.647  66.839  1.00  0.00    -0.245 C  
BRANCH   5   6
HETATM    6  C   UNL     1     -10.864  11.625  66.078  1.00  0.00    -0.339 A  
HETATM    7  C   UNL     1     -12.331  13.544  64.651  1.00  0.00    -0.419 A  
HETATM    8  C   UNL     1     -11.546  12.647  66.753  1.00  0.00    -0.438 A  
HETATM    9  C   UNL     1     -10.968  11.550  64.683  1.00  0.00    -0.353 A  
HETATM   10  C   UNL     1     -11.689  12.510  63.972  1.00  0.00    -0.499 A  
HETATM   11  C   UNL     1     -12.272  13.603  66.042  1.00  0.00    -0.492 A  
ENDBRANCH   5   6
ENDBRANCH   4   5
BRANCH   4  12
HETATM   12  C   UNL     1     -10.435   8.394  67.928  1.00  0.00    -0.193 C  
BRANCH  12  13
HETATM   13  O   UNL     1     -10.648   9.299  69.031  1.00  0.00    -0.218 OA 
BRANCH  13  14
HETATM   14  C   UNL     1     -10.887   8.703  70.221  1.00  0.00    -0.235 C  
HETATM   15  H1  UNL     1     -11.938   7.236  70.961  1.00  0.00     0.000 HD 
HETATM   16  O   UNL     1     -10.405   9.018  71.297  1.00  0.00    -0.257 OA 
HETATM   17  N   UNL     1     -11.758   7.685  70.064  1.00  0.00    -0.472 N  
HETATM   18  H2  UNL     1     -12.175   7.405  69.176  1.00  0.00     0.000 HD 
ENDBRANCH  13  14
ENDBRANCH  12  13
ENDBRANCH   4  12
TORSDOF 5
ENDMDL
MODEL      116
REMARK 921   NORMALIZED FREE ENERGY PREDICTED BY IDOCK:   -3.79 KCAL/MOL
REMARK 922        TOTAL FREE ENERGY PREDICTED BY IDOCK:   -5.09 KCAL/MOL
REMARK 923 INTER-LIGAND FREE ENERGY PREDICTED BY IDOCK:   -5.00 KCAL/MOL
REMARK 924 INTRA-LIGAND FREE ENERGY PREDICTED BY IDOCK:   -0.09 KCAL/MOL
REMARK 927      BINDING AFFINITY PREDICTED BY RF-SCORE:    0.00 PKD
ROOT
HETATM    1  N   UNL     1     -11.831  13.292  69.860  1.00  0.00    -0.401 NA 
HETATM    2  H1  UNL     1     -12.058  12.316  70.051  1.00  0.00     0.000 HD 
HETATM    3  H2  UNL     1     -12.442  13.933  70.368  1.00  0.00     0.000 HD 
HETATM    4  C   UNL     1     -11.855  13.543  68.403  1.00  0.00    -0.373 C  
ENDROOT
BRANCH   4   5
HETATM    5  C   UNL     1     -10.890  12.602  67.644  1.00  0.00    -0.248 C  
BRANCH   5   6
HETATM    6  C   UNL     1     -11.190  12.494  66.164  1.00  0.00    -0.362 A  
HETATM    7  C   UNL     1     -11.824  12.135  63.454  1.00  0.00    -0.553 A  
HETATM    8  C   UNL     1     -10.278  11.880  65.294  1.00  0.00    -0.309 A  
HETATM    9  C   UNL     1     -12.403  12.968  65.646  1.00  0.00    -0.504 A  
HETATM   10  C   UNL     1     -12.723  12.780  64.301  1.00  0.00    -0.338 A  
HETATM   11  C   UNL     1     -10.596  11.699  63.947  1.00  0.00    -0.446 A  
ENDBRANCH   5   6
ENDBRANCH   4   5
BRANCH   4  12
HETATM   12  C   UNL     1     -11.511  15.020  68.113  1.00  0.00    -0.339 C  
BRANCH  12  13
HETATM   13  O   UNL     1     -11.237  15.730  69.338  1.00  0.00    -0.277 OA 
BRANCH  13  14
HETATM   14  C   UNL     1     -10.145  16.528  69.304  1.00  0.00    -0.270 C  
HETATM   15  H1  UNL     1      -9.672  18.380  68.914  1.00  0.00     0.000 HD 
HETATM   16  O   UNL     1      -8.999  16.196  69.558  1.00  0.00    -0.188 OA 
HETATM   17  N   UNL     1     -10.495  17.779  68.939  1.00  0.00    -0.392 N  
HETATM   18  H2  UNL     1     -11.445  18.079  68.720  1.00  0.00     0.000 HD 
ENDBRANCH  13  14
ENDBRANCH  12  13
ENDBRANCH   4  12
TORSDOF 5
ENDMDL
MODEL      117
REMARK 921   NORMALIZED FREE ENERGY PREDICTED BY IDOCK:   -3.76 KCAL/MOL
REMARK 922        TOTAL FREE ENERGY PREDICTED BY IDOCK:   -5.06 KCAL/MOL
REMARK 923 INTER-LIGAND FREE ENERGY PREDICTED BY IDOCK:   -5.06 KCAL/MOL
REMARK 924 INTRA-LIGAND FREE ENERGY PREDICTED BY IDOCK:    0.00 KCAL/MOL
REMARK 927      BINDING AFFINITY PREDICTED BY RF-SCORE:    0.00 PKD
ROOT
HETATM    1  N   UNL     1     -11.775  10.894  67.514  1.00  0.00    -0.559 NA 
HETATM    2  H1  UNL     1     -12.086  10.011  67.920  1.00  0.00     0.000 HD 
HETATM    3  H2  UNL     1     -12.545  11.554  67.398  1.00  0.00     0.000 HD 
HETATM    4  C   UNL     1     -11.064  10.644  66.242  1.00  0.00     0.154 C  
ENDROOT
BRANCH   4   5
HETATM    5  C   UNL     1      -9.867   9.683  66.433  1.00  0.00    -0.309 C  
BRANCH   5   6
HETATM    6  C   UNL     1     -10.140   8.567  67.420  1.00  0.00    -0.298 A  
HETATM    7  C   UNL     1     -10.814   6.566  69.267  1.00  0.00    -0.361 A  
HETATM    8  C   UNL     1      -9.899   8.751  68.788  1.00  0.00    -0.180 A  
HETATM    9  C   UNL     1     -10.678   7.348  66.986  1.00  0.00    -0.389 A  
HETATM   10  C   UNL     1     -11.023   6.357  67.905  1.00  0.00    -0.416 A  
HETATM   11  C   UNL     1     -10.238   7.756  69.707  1.00  0.00    -0.211 A  
ENDBRANCH   5   6
ENDBRANCH   4   5
BRANCH   4  12
HETATM   12  C   UNL     1     -10.593  11.980  65.627  1.00  0.00    -0.265 C  
BRANCH  12  13
HETATM   13  O   UNL     1     -10.801  11.988  64.200  1.00  0.00    -0.297 OA 
BRANCH  13  14
HETATM   14  C   UNL     1     -11.972  12.531  63.796  1.00  0.00    -0.517 C  
HETATM   15  H1  UNL     1     -12.777  14.287  63.522  1.00  0.00     0.000 HD 
HETATM   16  O   UNL     1     -12.971  11.922  63.450  1.00  0.00    -0.730 OA 
HETATM   17  N   UNL     1     -11.894  13.877  63.827  1.00  0.00    -0.688 N  
HETATM   18  H2  UNL     1     -11.072  14.408  64.114  1.00  0.00     0.000 HD 
ENDBRANCH  13  14
ENDBRANCH  12  13
ENDBRANCH   4  12
TORSDOF 5
ENDMDL
MODEL      118
REMARK 921   NORMALIZED FREE ENERGY PREDICTED BY IDOCK:   -3.76 KCAL/MOL
REMARK 922        TOTAL FREE ENERGY PREDICTED BY IDOCK:   -5.05 KCAL/MOL
REMARK 923 INTER-LIGAND FREE ENERGY PREDICTED BY IDOCK:   -4.90 KCAL/MOL
REMARK 924 INTRA-LIGAND FREE ENERGY PREDICTED BY IDOCK:   -0.16 KCAL/MOL
REMARK 927      BINDING AFFINITY PREDICTED BY RF-SCORE:    0.00 PKD
ROOT
HETATM    1  N   UNL     1      -9.484  12.449  66.618  1.00  0.00    -0.227 NA 
HETATM    2  H1  UNL     1      -9.422  13.004  65.764  1.00  0.00     0.000 HD 
HETATM    3  H2  UNL     1      -8.748  11.743  66.670  1.00  0.00     0.000 HD 
HETATM    4  C   UNL     1     -10.832  11.853  66.738  1.00  0.00    -0.266 C  
ENDROOT
BRANCH   4   5
HETATM    5  C   UNL     1     -11.940  12.932  66.710  1.00  0.00    -0.418 C  
BRANCH   5   6
HETATM    6  C   UNL     1     -11.466  14.297  67.161  1.00  0.00    -0.377 A  
HETATM    7  C   UNL     1     -10.753  16.889  67.963  1.00  0.00    -0.364 A  
HETATM    8  C   UNL     1     -10.932  15.207  66.238  1.00  0.00    -0.335 A  
HETATM    9  C   UNL     1     -11.591  14.689  68.501  1.00  0.00    -0.346 A  
HETATM   10  C   UNL     1     -11.247  15.981  68.898  1.00  0.00    -0.353 A  
HETATM   11  C   UNL     1     -10.581  16.498  66.637  1.00  0.00    -0.216 A  
ENDBRANCH   5   6
ENDBRANCH   4   5
BRANCH   4  12
HETATM   12  C   UNL     1     -10.926  11.013  68.031  1.00  0.00    -0.258 C  
BRANCH  12  13
HETATM   13  O   UNL     1     -12.260  11.064  68.577  1.00  0.00    -0.582 OA 
BRANCH  13  14
HETATM   14  C   UNL     1     -12.324  11.089  69.928  1.00  0.00    -0.288 C  
HETATM   15  H1  UNL     1     -13.076  10.048  71.397  1.00  0.00     0.000 HD 
HETATM   16  O   UNL     1     -11.833  11.933  70.660  1.00  0.00    -0.280 OA 
HETATM   17  N   UNL     1     -13.027  10.029  70.379  1.00  0.00    -0.585 N  
HETATM   18  H2  UNL     1     -13.449   9.314  69.787  1.00  0.00     0.000 HD 
ENDBRANCH  13  14
ENDBRANCH  12  13
ENDBRANCH   4  12
TORSDOF 5
ENDMDL
MODEL      119
REMARK 921   NORMALIZED FREE ENERGY PREDICTED BY IDOCK:   -3.74 KCAL/MOL
REMARK 922        TOTAL FREE ENERGY PREDICTED BY IDOCK:   -5.03 KCAL/MOL
REMARK 923 INTER-LIGAND FREE ENERGY PREDICTED BY IDOCK:   -4.87 KCAL/MOL
REMARK 924 INTRA-LIGAND FREE ENERGY PREDICTED BY IDOCK:   -0.16 KCAL/MOL
REMARK 927      BINDING AFFINITY PREDICTED BY RF-SCORE:    0.00 PKD
ROOT
HETATM    1  N   UNL     1     -12.274  10.751  68.389  1.00  0.00    -0.809 NA 
HETATM    2  H1  UNL     1     -12.602   9.873  68.792  1.00  0.00     0.000 HD 
HETATM    3  H2  UNL     1     -13.011  11.234  67.873  1.00  0.00     0.000 HD 
HETATM    4  C   UNL     1     -11.079  10.508  67.552  1.00  0.00    -0.290 C  
ENDROOT
BRANCH   4   5
HETATM    5  C   UNL     1      -9.948   9.822  68.352  1.00  0.00    -0.176 C  
BRANCH   5   6
HETATM    6  C   UNL     1     -10.387   8.552  69.050  1.00  0.00    -0.229 A  
HETATM    7  C   UNL     1     -11.369   6.235  70.291  1.00  0.00    -0.457 A  
HETATM    8  C   UNL     1     -10.781   8.577  70.395  1.00  0.00    -0.246 A  
HETATM    9  C   UNL     1     -10.446   7.338  68.351  1.00  0.00    -0.228 A  
HETATM   10  C   UNL     1     -10.944   6.189  68.965  1.00  0.00    -0.436 A  
HETATM   11  C   UNL     1     -11.273   7.425  71.011  1.00  0.00    -0.285 A  
ENDBRANCH   5   6
ENDBRANCH   4   5
BRANCH   4  12
HETATM   12  C   UNL     1     -10.582  11.837  66.941  1.00  0.00    -0.235 C  
BRANCH  12  13
HETATM   13  O   UNL     1     -10.638  12.899  67.915  1.00  0.00    -0.214 OA 
BRANCH  13  14
HETATM   14  C   UNL     1     -11.545  13.868  67.654  1.00  0.00    -0.348 C  
HETATM   15  H1  UNL     1     -12.983  14.834  68.551  1.00  0.00     0.000 HD 
HETATM   16  O   UNL     1     -11.689  14.458  66.596  1.00  0.00    -0.371 OA 
HETATM   17  N   UNL     1     -12.299  14.104  68.747  1.00  0.00    -0.547 N  
HETATM   18  H2  UNL     1     -12.199  13.623  69.641  1.00  0.00     0.000 HD 
ENDBRANCH  13  14
ENDBRANCH  12  13
ENDBRANCH   4  12
TORSDOF 5
ENDMDL
MODEL      120
REMARK 921   NORMALIZED FREE ENERGY PREDICTED BY IDOCK:   -3.72 KCAL/MOL
REMARK 922        TOTAL FREE ENERGY PREDICTED BY IDOCK:   -5.00 KCAL/MOL
REMARK 923 INTER-LIGAND FREE ENERGY PREDICTED BY IDOCK:   -4.88 KCAL/MOL
REMARK 924 INTRA-LIGAND FREE ENERGY PREDICTED BY IDOCK:   -0.12 KCAL/MOL
REMARK 927      BINDING AFFINITY PREDICTED BY RF-SCORE:    0.00 PKD
ROOT
HETATM    1  N   UNL     1      -9.598  11.798  69.049  1.00  0.00    -0.409 NA 
HETATM    2  H1  UNL     1      -9.493  12.640  68.481  1.00  0.00     0.000 HD 
HETATM    3  H2  UNL     1      -8.717  11.291  69.147  1.00  0.00     0.000 HD 
HETATM    4  C   UNL     1     -10.670  10.943  68.495  1.00  0.00    -0.204 C  
ENDROOT
BRANCH   4   5
HETATM    5  C   UNL     1     -12.015  11.702  68.397  1.00  0.00    -0.266 C  
BRANCH   5   6
HETATM    6  C   UNL     1     -12.002  13.047  69.092  1.00  0.00    -0.320 A  
HETATM    7  C   UNL     1     -12.152  15.557  70.338  1.00  0.00    -0.426 A  
HETATM    8  C   UNL     1     -11.703  14.216  68.377  1.00  0.00    -0.380 A  
HETATM    9  C   UNL     1     -12.329  13.151  70.451  1.00  0.00    -0.351 A  
HETATM   10  C   UNL     1     -12.414  14.399  71.067  1.00  0.00    -0.425 A  
HETATM   11  C   UNL     1     -11.782  15.464  68.997  1.00  0.00    -0.380 A  
ENDBRANCH   5   6
ENDBRANCH   4   5
BRANCH   4  12
HETATM   12  C   UNL     1     -10.829   9.670  69.354  1.00  0.00    -0.217 C  
BRANCH  12  13
HETATM   13  O   UNL     1     -11.268  10.004  70.687  1.00  0.00    -0.304 OA 
BRANCH  13  14
HETATM   14  C   UNL     1     -12.200   9.173  71.207  1.00  0.00    -0.327 C  
HETATM   15  H1  UNL     1     -14.138   8.942  71.223  1.00  0.00     0.000 HD 
HETATM   16  O   UNL     1     -11.991   8.203  71.917  1.00  0.00    -0.286 OA 
HETATM   17  N   UNL     1     -13.435   9.568  70.831  1.00  0.00    -0.592 N  
HETATM   18  H2  UNL     1     -13.635  10.376  70.241  1.00  0.00     0.000 HD 
ENDBRANCH  13  14
ENDBRANCH  12  13
ENDBRANCH   4  12
TORSDOF 5
ENDMDL
MODEL      121
REMARK 921   NORMALIZED FREE ENERGY PREDICTED BY IDOCK:   -3.72 KCAL/MOL
REMARK 922        TOTAL FREE ENERGY PREDICTED BY IDOCK:   -5.00 KCAL/MOL
REMARK 923 INTER-LIGAND FREE ENERGY PREDICTED BY IDOCK:   -4.69 KCAL/MOL
REMARK 924 INTRA-LIGAND FREE ENERGY PREDICTED BY IDOCK:   -0.31 KCAL/MOL
REMARK 927      BINDING AFFINITY PREDICTED BY RF-SCORE:    0.00 PKD
ROOT
HETATM    1  N   UNL     1      -9.609   8.872  71.998  1.00  0.00    -0.317 NA 
HETATM    2  H1  UNL     1      -8.972   9.419  71.419  1.00  0.00     0.000 HD 
HETATM    3  H2  UNL     1      -9.230   7.949  72.216  1.00  0.00     0.000 HD 
HETATM    4  C   UNL     1     -10.936   8.786  71.352  1.00  0.00    -0.289 C  
ENDROOT
BRANCH   4   5
HETATM    5  C   UNL     1     -11.528  10.188  71.070  1.00  0.00    -0.436 C  
BRANCH   5   6
HETATM    6  C   UNL     1     -11.419  10.609  69.620  1.00  0.00    -0.361 A  
HETATM    7  C   UNL     1     -11.056  11.460  66.971  1.00  0.00    -0.364 A  
HETATM    8  C   UNL     1     -11.875  11.869  69.208  1.00  0.00    -0.379 A  
HETATM    9  C   UNL     1     -10.824   9.763  68.674  1.00  0.00    -0.223 A  
HETATM   10  C   UNL     1     -10.634  10.190  67.360  1.00  0.00    -0.329 A  
HETATM   11  C   UNL     1     -11.690  12.293  67.891  1.00  0.00    -0.410 A  
ENDBRANCH   5   6
ENDBRANCH   4   5
BRANCH   4  12
HETATM   12  C   UNL     1     -11.900   7.957  72.229  1.00  0.00    -0.352 C  
BRANCH  12  13
HETATM   13  O   UNL     1     -11.978   6.597  71.757  1.00  0.00    -0.318 OA 
BRANCH  13  14
HETATM   14  C   UNL     1     -10.986   5.785  72.187  1.00  0.00    -0.257 C  
HETATM   15  H1  UNL     1     -10.557   4.646  73.713  1.00  0.00     0.000 HD 
HETATM   16  O   UNL     1      -9.943   5.544  71.603  1.00  0.00    -0.171 OA 
HETATM   17  N   UNL     1     -11.305   5.258  73.388  1.00  0.00    -0.486 N  
HETATM   18  H2  UNL     1     -12.169   5.446  73.897  1.00  0.00     0.000 HD 
ENDBRANCH  13  14
ENDBRANCH  12  13
ENDBRANCH   4  12
TORSDOF 5
ENDMDL
MODEL      122
REMARK 921   NORMALIZED FREE ENERGY PREDICTED BY IDOCK:   -3.70 KCAL/MOL
REMARK 922        TOTAL FREE ENERGY PREDICTED BY IDOCK:   -4.98 KCAL/MOL
REMARK 923 INTER-LIGAND FREE ENERGY PREDICTED BY IDOCK:   -4.65 KCAL/MOL
REMARK 924 INTRA-LIGAND FREE ENERGY PREDICTED BY IDOCK:   -0.33 KCAL/MOL
REMARK 927      BINDING AFFINITY PREDICTED BY RF-SCORE:    0.00 PKD
ROOT
HETATM    1  N   UNL     1      -9.418  10.581  69.737  1.00  0.00    -0.416 NA 
HETATM    2  H1  UNL     1      -9.306  11.595  69.719  1.00  0.00     0.000 HD 
HETATM    3  H2  UNL     1      -8.519  10.098  69.773  1.00  0.00     0.000 HD 
HETATM    4  C   UNL     1     -10.238  10.140  68.588  1.00  0.00    -0.176 C  
ENDROOT
BRANCH   4   5
HETATM    5  C   UNL     1     -11.618  10.838  68.568  1.00  0.00    -0.325 C  
BRANCH   5   6
HETATM    6  C   UNL     1     -11.632  12.126  67.773  1.00  0.00    -0.410 A  
HETATM    7  C   UNL     1     -11.839  14.503  66.296  1.00  0.00    -0.354 A  
HETATM    8  C   UNL     1     -11.591  12.100  66.372  1.00  0.00    -0.429 A  
HETATM    9  C   UNL     1     -11.730  13.364  68.423  1.00  0.00    -0.390 A  
HETATM   10  C   UNL     1     -11.843  14.545  67.689  1.00  0.00    -0.395 A  
HETATM   11  C   UNL     1     -11.698  13.282  65.638  1.00  0.00    -0.389 A  
ENDBRANCH   5   6
ENDBRANCH   4   5
BRANCH   4  12
HETATM   12  C   UNL     1     -10.407   8.605  68.616  1.00  0.00    -0.193 C  
BRANCH  12  13
HETATM   13  O   UNL     1     -10.229   8.096  69.953  1.00  0.00    -0.196 OA 
BRANCH  13  14
HETATM   14  C   UNL     1     -11.235   7.313  70.406  1.00  0.00    -0.276 C  
HETATM   15  H1  UNL     1     -12.743   7.402  71.641  1.00  0.00     0.000 HD 
HETATM   16  O   UNL     1     -11.457   6.159  70.079  1.00  0.00    -0.406 OA 
HETATM   17  N   UNL     1     -11.985   7.992  71.299  1.00  0.00    -0.295 N  
HETATM   18  H2  UNL     1     -11.817   8.955  71.591  1.00  0.00     0.000 HD 
ENDBRANCH  13  14
ENDBRANCH  12  13
ENDBRANCH   4  12
TORSDOF 5
ENDMDL
MODEL      123
REMARK 921   NORMALIZED FREE ENERGY PREDICTED BY IDOCK:   -3.70 KCAL/MOL
REMARK 922        TOTAL FREE ENERGY PREDICTED BY IDOCK:   -4.98 KCAL/MOL
REMARK 923 INTER-LIGAND FREE ENERGY PREDICTED BY IDOCK:   -5.02 KCAL/MOL
REMARK 924 INTRA-LIGAND FREE ENERGY PREDICTED BY IDOCK:    0.04 KCAL/MOL
REMARK 927      BINDING AFFINITY PREDICTED BY RF-SCORE:    0.00 PKD
ROOT
HETATM    1  N   UNL     1     -12.269  10.747  68.500  1.00  0.00    -0.822 NA 
HETATM    2  H1  UNL     1     -12.988  10.883  69.211  1.00  0.00     0.000 HD 
HETATM    3  H2  UNL     1     -11.817   9.835  68.583  1.00  0.00     0.000 HD 
HETATM    4  C   UNL     1     -11.292  11.856  68.549  1.00  0.00    -0.276 C  
ENDROOT
BRANCH   4   5
HETATM    5  C   UNL     1     -11.978  13.232  68.372  1.00  0.00    -0.336 C  
BRANCH   5   6
HETATM    6  C   UNL     1     -11.676  13.891  67.043  1.00  0.00    -0.426 A  
HETATM    7  C   UNL     1     -11.244  15.235  64.618  1.00  0.00    -0.366 A  
HETATM    8  C   UNL     1     -12.377  13.518  65.888  1.00  0.00    -0.507 A  
HETATM    9  C   UNL     1     -10.721  14.913  66.954  1.00  0.00    -0.308 A  
HETATM   10  C   UNL     1     -10.514  15.588  65.751  1.00  0.00    -0.378 A  
HETATM   11  C   UNL     1     -12.164  14.191  64.683  1.00  0.00    -0.465 A  
ENDBRANCH   5   6
ENDBRANCH   4   5
BRANCH   4  12
HETATM   12  C   UNL     1     -10.204  11.651  67.472  1.00  0.00    -0.195 C  
BRANCH  12  13
HETATM   13  O   UNL     1      -9.748  10.283  67.461  1.00  0.00    -0.164 OA 
BRANCH  13  14
HETATM   14  C   UNL     1      -9.812   9.669  66.258  1.00  0.00    -0.256 C  
HETATM   15  H1  UNL     1     -10.229  10.087  64.399  1.00  0.00     0.000 HD 
HETATM   16  O   UNL     1      -9.580   8.492  66.033  1.00  0.00    -0.227 OA 
HETATM   17  N   UNL     1     -10.181  10.551  65.306  1.00  0.00    -0.299 N  
HETATM   18  H2  UNL     1     -10.382  11.537  65.469  1.00  0.00     0.000 HD 
ENDBRANCH  13  14
ENDBRANCH  12  13
ENDBRANCH   4  12
TORSDOF 5
ENDMDL
MODEL      124
REMARK 921   NORMALIZED FREE ENERGY PREDICTED BY IDOCK:   -3.69 KCAL/MOL
REMARK 922        TOTAL FREE ENERGY PREDICTED BY IDOCK:   -4.97 KCAL/MOL
REMARK 923 INTER-LIGAND FREE ENERGY PREDICTED BY IDOCK:   -4.67 KCAL/MOL
REMARK 924 INTRA-LIGAND FREE ENERGY PREDICTED BY IDOCK:   -0.31 KCAL/MOL
REMARK 927      BINDING AFFINITY PREDICTED BY RF-SCORE:    0.00 PKD
ROOT
HETATM    1  N   UNL     1      -9.589   9.356  69.128  1.00  0.00    -0.159 NA 
HETATM    2  H1  UNL     1      -9.703   8.937  70.051  1.00  0.00     0.000 HD 
HETATM    3  H2  UNL     1      -8.610   9.392  68.843  1.00  0.00     0.000 HD 
HETATM    4  C   UNL     1     -10.225  10.691  69.096  1.00  0.00    -0.220 C  
ENDROOT
BRANCH   4   5
HETATM    5  C   UNL     1     -11.722  10.622  69.480  1.00  0.00    -0.356 C  
BRANCH   5   6
HETATM    6  C   UNL     1     -12.202  11.828  70.259  1.00  0.00    -0.381 A  
HETATM    7  C   UNL     1     -12.941  14.051  71.804  1.00  0.00    -0.435 A  
HETATM    8  C   UNL     1     -12.994  11.667  71.405  1.00  0.00    -0.426 A  
HETATM    9  C   UNL     1     -11.828  13.122  69.873  1.00  0.00    -0.378 A  
HETATM   10  C   UNL     1     -12.186  14.226  70.646  1.00  0.00    -0.427 A  
HETATM   11  C   UNL     1     -13.358  12.774  72.175  1.00  0.00    -0.593 A  
ENDBRANCH   5   6
ENDBRANCH   4   5
BRANCH   4  12
HETATM   12  C   UNL     1     -10.054  11.326  67.698  1.00  0.00    -0.179 C  
BRANCH  12  13
HETATM   13  O   UNL     1     -10.853  10.631  66.720  1.00  0.00    -0.238 OA 
BRANCH  13  14
HETATM   14  C   UNL     1     -10.182  10.224  65.618  1.00  0.00    -0.231 C  
HETATM   15  H1  UNL     1      -9.056   8.744  65.029  1.00  0.00     0.000 HD 
HETATM   16  O   UNL     1     -10.124  10.810  64.549  1.00  0.00    -0.303 OA 
HETATM   17  N   UNL     1      -9.562   9.051  65.859  1.00  0.00    -0.338 N  
HETATM   18  H2  UNL     1      -9.594   8.544  66.744  1.00  0.00     0.000 HD 
ENDBRANCH  13  14
ENDBRANCH  12  13
ENDBRANCH   4  12
TORSDOF 5
ENDMDL
MODEL      125
REMARK 921   NORMALIZED FREE ENERGY PREDICTED BY IDOCK:   -3.68 KCAL/MOL
REMARK 922        TOTAL FREE ENERGY PREDICTED BY IDOCK:   -4.96 KCAL/MOL
REMARK 923 INTER-LIGAND FREE ENERGY PREDICTED BY IDOCK:   -4.45 KCAL/MOL
REMARK 924 INTRA-LIGAND FREE ENERGY PREDICTED BY IDOCK:   -0.51 KCAL/MOL
REMARK 927      BINDING AFFINITY PREDICTED BY RF-SCORE:    0.00 PKD
ROOT
HETATM    1  N   UNL     1     -10.397  14.504  69.652  1.00  0.00    -0.435 NA 
HETATM    2  H1  UNL     1     -11.341  14.883  69.721  1.00  0.00     0.000 HD 
HETATM    3  H2  UNL     1     -10.031  14.219  70.561  1.00  0.00     0.000 HD 
HETATM    4  C   UNL     1      -9.509  15.474  68.976  1.00  0.00    -0.242 C  
ENDROOT
BRANCH   4   5
HETATM    5  C   UNL     1     -10.043  15.862  67.577  1.00  0.00    -0.247 C  
BRANCH   5   6
HETATM    6  C   UNL     1     -10.207  17.354  67.386  1.00  0.00    -0.326 A  
HETATM    7  C   UNL     1     -10.332  20.132  67.005  1.00  0.00    -0.502 A  
HETATM    8  C   UNL     1     -10.106  18.228  68.477  1.00  0.00    -0.419 A  
HETATM    9  C   UNL     1     -10.421  17.890  66.108  1.00  0.00    -0.321 A  
HETATM   10  C   UNL     1     -10.472  19.271  65.917  1.00  0.00    -0.534 A  
HETATM   11  C   UNL     1     -10.164  19.610  68.286  1.00  0.00    -0.567 A  
ENDBRANCH   5   6
ENDBRANCH   4   5
BRANCH   4  12
HETATM   12  C   UNL     1      -8.079  14.898  68.870  1.00  0.00    -0.165 C  
BRANCH  12  13
HETATM   13  O   UNL     1      -8.037  13.804  67.932  1.00  0.00    -0.138 OA 
BRANCH  13  14
HETATM   14  C   UNL     1      -7.647  12.619  68.452  1.00  0.00    -0.132 C  
HETATM   15  H1  UNL     1      -8.425  11.040  69.294  1.00  0.00     0.000 HD 
HETATM   16  O   UNL     1      -6.503  12.201  68.524  1.00  0.00    -0.053 OA 
HETATM   17  N   UNL     1      -8.719  11.933  68.901  1.00  0.00    -0.369 N  
HETATM   18  H2  UNL     1      -9.684  12.262  68.854  1.00  0.00     0.000 HD 
ENDBRANCH  13  14
ENDBRANCH  12  13
ENDBRANCH   4  12
TORSDOF 5
ENDMDL
MODEL      126
REMARK 921   NORMALIZED FREE ENERGY PREDICTED BY IDOCK:   -3.67 KCAL/MOL
REMARK 922        TOTAL FREE ENERGY PREDICTED BY IDOCK:   -4.94 KCAL/MOL
REMARK 923 INTER-LIGAND FREE ENERGY PREDICTED BY IDOCK:   -4.57 KCAL/MOL
REMARK 924 INTRA-LIGAND FREE ENERGY PREDICTED BY IDOCK:   -0.37 KCAL/MOL
REMARK 927      BINDING AFFINITY PREDICTED BY RF-SCORE:    0.00 PKD
ROOT
HETATM    1  N   UNL     1     -12.651   8.446  72.925  1.00  0.00    -0.651 NA 
HETATM    2  H1  UNL     1     -13.246   8.875  72.216  1.00  0.00     0.000 HD 
HETATM    3  H2  UNL     1     -12.405   9.103  73.667  1.00  0.00     0.000 HD 
HETATM    4  C   UNL     1     -11.453   7.854  72.290  1.00  0.00    -0.348 C  
ENDROOT
BRANCH   4   5
HETATM    5  C   UNL     1     -11.833   6.822  71.202  1.00  0.00    -0.410 C  
BRANCH   5   6
HETATM    6  C   UNL     1     -11.214   7.114  69.851  1.00  0.00    -0.241 A  
HETATM    7  C   UNL     1     -10.232   7.694  67.288  1.00  0.00    -0.342 A  
HETATM    8  C   UNL     1     -11.101   6.103  68.886  1.00  0.00    -0.417 A  
HETATM    9  C   UNL     1     -10.782   8.407  69.529  1.00  0.00    -0.181 A  
HETATM   10  C   UNL     1     -10.304   8.699  68.251  1.00  0.00    -0.252 A  
HETATM   11  C   UNL     1     -10.616   6.394  67.610  1.00  0.00    -0.340 A  
ENDBRANCH   5   6
ENDBRANCH   4   5
BRANCH   4  12
HETATM   12  C   UNL     1     -10.552   7.204  73.363  1.00  0.00    -0.382 C  
BRANCH  12  13
HETATM   13  O   UNL     1      -9.207   7.041  72.869  1.00  0.00    -0.136 OA 
BRANCH  13  14
HETATM   14  C   UNL     1      -8.355   8.042  73.189  1.00  0.00    -0.195 C  
HETATM   15  H1  UNL     1      -7.449   8.776  74.752  1.00  0.00     0.000 HD 
HETATM   16  O   UNL     1      -7.880   8.860  72.419  1.00  0.00    -0.368 OA 
HETATM   17  N   UNL     1      -8.091   8.021  74.511  1.00  0.00    -0.308 N  
HETATM   18  H2  UNL     1      -8.477   7.349  75.174  1.00  0.00     0.000 HD 
ENDBRANCH  13  14
ENDBRANCH  12  13
ENDBRANCH   4  12
TORSDOF 5
ENDMDL
MODEL      127
REMARK 921   NORMALIZED FREE ENERGY PREDICTED BY IDOCK:   -3.66 KCAL/MOL
REMARK 922        TOTAL FREE ENERGY PREDICTED BY IDOCK:   -4.92 KCAL/MOL
REMARK 923 INTER-LIGAND FREE ENERGY PREDICTED BY IDOCK:   -4.47 KCAL/MOL
REMARK 924 INTRA-LIGAND FREE ENERGY PREDICTED BY IDOCK:   -0.45 KCAL/MOL
REMARK 927      BINDING AFFINITY PREDICTED BY RF-SCORE:    0.00 PKD
ROOT
HETATM    1  N   UNL     1      -8.269  11.608  68.934  1.00  0.00    -0.349 NA 
HETATM    2  H1  UNL     1      -7.896  12.373  69.496  1.00  0.00     0.000 HD 
HETATM    3  H2  UNL     1      -7.548  10.931  68.682  1.00  0.00     0.000 HD 
HETATM    4  C   UNL     1      -8.965  12.145  67.744  1.00  0.00    -0.179 C  
ENDROOT
BRANCH   4   5
HETATM    5  C   UNL     1     -10.090  13.132  68.136  1.00  0.00    -0.237 C  
BRANCH   5   6
HETATM    6  C   UNL     1     -10.842  13.692  66.947  1.00  0.00    -0.286 A  
HETATM    7  C   UNL     1     -12.174  14.592  64.647  1.00  0.00    -0.474 A  
HETATM    8  C   UNL     1     -10.220  14.590  66.069  1.00  0.00    -0.329 A  
HETATM    9  C   UNL     1     -12.159  13.291  66.682  1.00  0.00    -0.421 A  
HETATM   10  C   UNL     1     -12.817  13.729  65.533  1.00  0.00    -0.464 A  
HETATM   11  C   UNL     1     -10.882  15.034  64.923  1.00  0.00    -0.430 A  
ENDBRANCH   5   6
ENDBRANCH   4   5
BRANCH   4  12
HETATM   12  C   UNL     1      -9.531  10.987  66.894  1.00  0.00    -0.177 C  
BRANCH  12  13
HETATM   13  O   UNL     1      -8.854  10.907  65.623  1.00  0.00    -0.185 OA 
BRANCH  13  14
HETATM   14  C   UNL     1      -9.650  10.623  64.567  1.00  0.00    -0.286 C  
HETATM   15  H1  UNL     1     -10.036   9.143  63.356  1.00  0.00     0.000 HD 
HETATM   16  O   UNL     1     -10.452  11.378  64.042  1.00  0.00    -0.315 OA 
HETATM   17  N   UNL     1      -9.436   9.357  64.152  1.00  0.00    -0.339 N  
HETATM   18  H2  UNL     1      -8.770   8.709  64.573  1.00  0.00     0.000 HD 
ENDBRANCH  13  14
ENDBRANCH  12  13
ENDBRANCH   4  12
TORSDOF 5
ENDMDL
MODEL      128
REMARK 921   NORMALIZED FREE ENERGY PREDICTED BY IDOCK:   -3.64 KCAL/MOL
REMARK 922        TOTAL FREE ENERGY PREDICTED BY IDOCK:   -4.91 KCAL/MOL
REMARK 923 INTER-LIGAND FREE ENERGY PREDICTED BY IDOCK:   -4.58 KCAL/MOL
REMARK 924 INTRA-LIGAND FREE ENERGY PREDICTED BY IDOCK:   -0.33 KCAL/MOL
REMARK 927      BINDING AFFINITY PREDICTED BY RF-SCORE:    0.00 PKD
ROOT
HETATM    1  N   UNL     1     -11.294   6.861  67.935  1.00  0.00    -0.544 NA 
HETATM    2  H1  UNL     1     -11.718   5.941  68.058  1.00  0.00     0.000 HD 
HETATM    3  H2  UNL     1     -10.777   6.931  67.058  1.00  0.00     0.000 HD 
HETATM    4  C   UNL     1     -10.448   7.190  69.103  1.00  0.00    -0.211 C  
ENDROOT
BRANCH   4   5
HETATM    5  C   UNL     1     -11.249   7.132  70.425  1.00  0.00    -0.320 C  
BRANCH   5   6
HETATM    6  C   UNL     1     -10.890   5.949  71.299  1.00  0.00    -0.333 A  
HETATM    7  C   UNL     1     -10.367   3.669  72.848  1.00  0.00    -0.244 A  
HETATM    8  C   UNL     1     -11.426   5.826  72.588  1.00  0.00    -0.337 A  
HETATM    9  C   UNL     1     -10.050   4.936  70.817  1.00  0.00    -0.303 A  
HETATM   10  C   UNL     1      -9.799   3.797  71.582  1.00  0.00    -0.240 A  
HETATM   11  C   UNL     1     -11.168   4.689  73.357  1.00  0.00    -0.423 A  
ENDBRANCH   5   6
ENDBRANCH   4   5
BRANCH   4  12
HETATM   12  C   UNL     1      -9.807   8.582  68.918  1.00  0.00    -0.176 C  
BRANCH  12  13
HETATM   13  O   UNL     1     -10.593   9.392  68.020  1.00  0.00    -0.230 OA 
BRANCH  13  14
HETATM   14  C   UNL     1     -11.120  10.509  68.570  1.00  0.00    -0.275 C  
HETATM   15  H1  UNL     1     -10.568  12.028  69.662  1.00  0.00     0.000 HD 
HETATM   16  O   UNL     1     -12.280  10.878  68.488  1.00  0.00    -0.535 OA 
HETATM   17  N   UNL     1     -10.170  11.186  69.248  1.00  0.00    -0.407 N  
HETATM   18  H2  UNL     1      -9.195  10.897  69.333  1.00  0.00     0.000 HD 
ENDBRANCH  13  14
ENDBRANCH  12  13
ENDBRANCH   4  12
TORSDOF 5
ENDMDL
MODEL      129
REMARK 921   NORMALIZED FREE ENERGY PREDICTED BY IDOCK:   -3.63 KCAL/MOL
REMARK 922        TOTAL FREE ENERGY PREDICTED BY IDOCK:   -4.89 KCAL/MOL
REMARK 923 INTER-LIGAND FREE ENERGY PREDICTED BY IDOCK:   -4.63 KCAL/MOL
REMARK 924 INTRA-LIGAND FREE ENERGY PREDICTED BY IDOCK:   -0.26 KCAL/MOL
REMARK 927      BINDING AFFINITY PREDICTED BY RF-SCORE:    0.00 PKD
ROOT
HETATM    1  N   UNL     1     -10.495  19.813  67.226  1.00  0.00    -0.445 NA 
HETATM    2  H1  UNL     1     -11.266  19.188  66.989  1.00  0.00     0.000 HD 
HETATM    3  H2  UNL     1     -10.593  20.726  66.780  1.00  0.00     0.000 HD 
HETATM    4  C   UNL     1      -9.203  19.172  66.898  1.00  0.00    -0.310 C  
ENDROOT
BRANCH   4   5
HETATM    5  C   UNL     1      -9.040  17.812  67.617  1.00  0.00    -0.246 C  
BRANCH   5   6
HETATM    6  C   UNL     1     -10.011  16.755  67.136  1.00  0.00    -0.274 A  
HETATM    7  C   UNL     1     -11.681  14.671  66.274  1.00  0.00    -0.325 A  
HETATM    8  C   UNL     1     -10.057  16.392  65.782  1.00  0.00    -0.352 A  
HETATM    9  C   UNL     1     -10.849  16.091  68.042  1.00  0.00    -0.335 A  
HETATM   10  C   UNL     1     -11.672  15.048  67.616  1.00  0.00    -0.281 A  
HETATM   11  C   UNL     1     -10.886  15.353  65.355  1.00  0.00    -0.403 A  
ENDBRANCH   5   6
ENDBRANCH   4   5
BRANCH   4  12
HETATM   12  C   UNL     1      -8.037  20.118  67.258  1.00  0.00    -0.330 C  
BRANCH  12  13
HETATM   13  O   UNL     1      -7.381  19.685  68.467  1.00  0.00    -0.316 OA 
BRANCH  13  14
HETATM   14  C   UNL     1      -6.327  20.441  68.849  1.00  0.00    -0.297 C  
HETATM   15  H1  UNL     1      -5.370  20.938  70.474  1.00  0.00     0.000 HD 
HETATM   16  O   UNL     1      -5.612  21.107  68.119  1.00  0.00    -0.303 OA 
HETATM   17  N   UNL     1      -6.164  20.368  70.186  1.00  0.00    -0.415 N  
HETATM   18  H2  UNL     1      -6.750  19.821  70.817  1.00  0.00     0.000 HD 
ENDBRANCH  13  14
ENDBRANCH  12  13
ENDBRANCH   4  12
TORSDOF 5
ENDMDL
MODEL      130
REMARK 921   NORMALIZED FREE ENERGY PREDICTED BY IDOCK:   -3.62 KCAL/MOL
REMARK 922        TOTAL FREE ENERGY PREDICTED BY IDOCK:   -4.88 KCAL/MOL
REMARK 923 INTER-LIGAND FREE ENERGY PREDICTED BY IDOCK:   -4.75 KCAL/MOL
REMARK 924 INTRA-LIGAND FREE ENERGY PREDICTED BY IDOCK:   -0.13 KCAL/MOL
REMARK 927      BINDING AFFINITY PREDICTED BY RF-SCORE:    0.00 PKD
ROOT
HETATM    1  N   UNL     1      -9.951   7.996  72.245  1.00  0.00    -0.216 NA 
HETATM    2  H1  UNL     1      -9.311   7.225  72.436  1.00  0.00     0.000 HD 
HETATM    3  H2  UNL     1      -9.607   8.880  72.622  1.00  0.00     0.000 HD 
HETATM    4  C   UNL     1     -11.303   7.669  72.746  1.00  0.00    -0.367 C  
ENDROOT
BRANCH   4   5
HETATM    5  C   UNL     1     -11.839   6.354  72.132  1.00  0.00    -0.361 C  
BRANCH   5   6
HETATM    6  C   UNL     1     -11.158   5.971  70.835  1.00  0.00    -0.352 A  
HETATM    7  C   UNL     1     -10.033   5.148  68.400  1.00  0.00    -0.214 A  
HETATM    8  C   UNL     1     -10.249   4.905  70.795  1.00  0.00    -0.276 A  
HETATM    9  C   UNL     1     -11.457   6.649  69.645  1.00  0.00    -0.358 A  
HETATM   10  C   UNL     1     -10.906   6.233  68.433  1.00  0.00    -0.394 A  
HETATM   11  C   UNL     1      -9.693   4.493  69.582  1.00  0.00    -0.288 A  
ENDBRANCH   5   6
ENDBRANCH   4   5
BRANCH   4  12
HETATM   12  C   UNL     1     -12.272   8.836  72.456  1.00  0.00    -0.277 C  
BRANCH  12  13
HETATM   13  O   UNL     1     -11.708   9.740  71.485  1.00  0.00    -0.379 OA 
BRANCH  13  14
HETATM   14  C   UNL     1     -12.415  10.874  71.280  1.00  0.00    -0.388 C  
HETATM   15  H1  UNL     1     -14.007  11.773  71.962  1.00  0.00     0.000 HD 
HETATM   16  O   UNL     1     -12.162  11.748  70.467  1.00  0.00    -0.358 OA 
HETATM   17  N   UNL     1     -13.474  10.918  72.116  1.00  0.00    -0.527 N  
HETATM   18  H2  UNL     1     -13.707  10.200  72.802  1.00  0.00     0.000 HD 
ENDBRANCH  13  14
ENDBRANCH  12  13
ENDBRANCH   4  12
TORSDOF 5
ENDMDL
MODEL      131
REMARK 921   NORMALIZED FREE ENERGY PREDICTED BY IDOCK:   -3.62 KCAL/MOL
REMARK 922        TOTAL FREE ENERGY PREDICTED BY IDOCK:   -4.87 KCAL/MOL
REMARK 923 INTER-LIGAND FREE ENERGY PREDICTED BY IDOCK:   -4.58 KCAL/MOL
REMARK 924 INTRA-LIGAND FREE ENERGY PREDICTED BY IDOCK:   -0.29 KCAL/MOL
REMARK 927      BINDING AFFINITY PREDICTED BY RF-SCORE:    0.00 PKD
ROOT
HETATM    1  N   UNL     1     -10.203  19.697  69.344  1.00  0.00    -0.607 NA 
HETATM    2  H1  UNL     1      -9.491  20.207  69.867  1.00  0.00     0.000 HD 
HETATM    3  H2  UNL     1     -10.686  19.011  69.926  1.00  0.00     0.000 HD 
HETATM    4  C   UNL     1      -9.604  19.079  68.141  1.00  0.00    -0.341 C  
ENDROOT
BRANCH   4   5
HETATM    5  C   UNL     1      -8.917  20.131  67.239  1.00  0.00    -0.458 C  
BRANCH   5   6
HETATM    6  C   UNL     1      -7.709  19.596  66.499  1.00  0.00    -0.303 A  
HETATM    7  C   UNL     1      -5.585  18.518  65.016  1.00  0.00    -0.232 A  
HETATM    8  C   UNL     1      -7.136  18.369  66.863  1.00  0.00    -0.219 A  
HETATM    9  C   UNL     1      -7.171  20.297  65.411  1.00  0.00    -0.208 A  
HETATM   10  C   UNL     1      -6.122  19.756  64.667  1.00  0.00    -0.316 A  
HETATM   11  C   UNL     1      -6.082  17.832  66.122  1.00  0.00    -0.261 A  
ENDBRANCH   5   6
ENDBRANCH   4   5
BRANCH   4  12
HETATM   12  C   UNL     1     -10.681  18.306  67.350  1.00  0.00    -0.350 C  
BRANCH  12  13
HETATM   13  O   UNL     1     -10.831  16.967  67.864  1.00  0.00    -0.354 OA 
BRANCH  13  14
HETATM   14  C   UNL     1     -10.598  15.981  66.967  1.00  0.00    -0.302 C  
HETATM   15  H1  UNL     1     -10.253  15.761  65.060  1.00  0.00     0.000 HD 
HETATM   16  O   UNL     1     -10.546  14.785  67.204  1.00  0.00    -0.276 OA 
HETATM   17  N   UNL     1     -10.428  16.504  65.736  1.00  0.00    -0.355 N  
HETATM   18  H2  UNL     1     -10.470  17.499  65.512  1.00  0.00     0.000 HD 
ENDBRANCH  13  14
ENDBRANCH  12  13
ENDBRANCH   4  12
TORSDOF 5
ENDMDL
MODEL      132
REMARK 921   NORMALIZED FREE ENERGY PREDICTED BY IDOCK:   -3.59 KCAL/MOL
REMARK 922        TOTAL FREE ENERGY PREDICTED BY IDOCK:   -4.84 KCAL/MOL
REMARK 923 INTER-LIGAND FREE ENERGY PREDICTED BY IDOCK:   -4.83 KCAL/MOL
REMARK 924 INTRA-LIGAND FREE ENERGY PREDICTED BY IDOCK:   -0.01 KCAL/MOL
REMARK 927      BINDING AFFINITY PREDICTED BY RF-SCORE:    0.00 PKD
ROOT
HETATM    1  N   UNL     1     -10.824  12.828  68.250  1.00  0.00    -0.238 NA 
HETATM    2  H1  UNL     1      -9.872  12.802  68.614  1.00  0.00     0.000 HD 
HETATM    3  H2  UNL     1     -11.307  11.938  68.378  1.00  0.00     0.000 HD 
HETATM    4  C   UNL     1     -10.815  13.256  66.835  1.00  0.00    -0.276 C  
ENDROOT
BRANCH   4   5
HETATM    5  C   UNL     1     -10.127  14.630  66.655  1.00  0.00    -0.277 C  
BRANCH   5   6
HETATM    6  C   UNL     1      -8.779  14.723  67.337  1.00  0.00    -0.210 A  
HETATM    7  C   UNL     1      -6.360  14.846  68.755  1.00  0.00    -0.082 A  
HETATM    8  C   UNL     1      -8.368  15.919  67.943  1.00  0.00    -0.158 A  
HETATM    9  C   UNL     1      -7.938  13.605  67.411  1.00  0.00    -0.177 A  
HETATM   10  C   UNL     1      -6.740  13.662  68.124  1.00  0.00    -0.122 A  
HETATM   11  C   UNL     1      -7.166  15.978  68.651  1.00  0.00    -0.146 A  
ENDBRANCH   5   6
ENDBRANCH   4   5
BRANCH   4  12
HETATM   12  C   UNL     1     -12.258  13.297  66.285  1.00  0.00    -0.377 C  
BRANCH  12  13
HETATM   13  O   UNL     1     -12.451  12.279  65.282  1.00  0.00    -0.585 OA 
BRANCH  13  14
HETATM   14  C   UNL     1     -12.393  12.716  64.004  1.00  0.00    -0.443 C  
HETATM   15  H1  UNL     1     -12.049  12.023  62.213  1.00  0.00     0.000 HD 
HETATM   16  O   UNL     1     -12.577  13.860  63.621  1.00  0.00    -0.790 OA 
HETATM   17  N   UNL     1     -12.093  11.693  63.177  1.00  0.00    -0.950 N  
HETATM   18  H2  UNL     1     -11.932  10.730  63.472  1.00  0.00     0.000 HD 
ENDBRANCH  13  14
ENDBRANCH  12  13
ENDBRANCH   4  12
TORSDOF 5
ENDMDL
MODEL      133
REMARK 921   NORMALIZED FREE ENERGY PREDICTED BY IDOCK:   -3.56 KCAL/MOL
REMARK 922        TOTAL FREE ENERGY PREDICTED BY IDOCK:   -4.80 KCAL/MOL
REMARK 923 INTER-LIGAND FREE ENERGY PREDICTED BY IDOCK:   -5.60 KCAL/MOL
REMARK 924 INTRA-LIGAND FREE ENERGY PREDICTED BY IDOCK:    0.80 KCAL/MOL
REMARK 927      BINDING AFFINITY PREDICTED BY RF-SCORE:    0.00 PKD
ROOT
HETATM    1  N   UNL     1      -7.951  14.965  66.739  1.00  0.00    -0.331 NA 
HETATM    2  H1  UNL     1      -7.449  15.617  67.342  1.00  0.00     0.000 HD 
HETATM    3  H2  UNL     1      -7.536  14.907  65.809  1.00  0.00     0.000 HD 
HETATM    4  C   UNL     1      -9.384  15.324  66.685  1.00  0.00    -0.260 C  
ENDROOT
BRANCH   4   5
HETATM    5  C   UNL     1     -10.020  15.360  68.095  1.00  0.00    -0.221 C  
BRANCH   5   6
HETATM    6  C   UNL     1     -10.559  14.020  68.549  1.00  0.00    -0.260 A  
HETATM    7  C   UNL     1     -11.435  11.538  69.522  1.00  0.00    -0.378 A  
HETATM    8  C   UNL     1     -10.018  12.827  68.048  1.00  0.00    -0.225 A  
HETATM    9  C   UNL     1     -11.579  13.949  69.507  1.00  0.00    -0.358 A  
HETATM   10  C   UNL     1     -12.007  12.716  69.999  1.00  0.00    -0.377 A  
HETATM   11  C   UNL     1     -10.452  11.593  68.536  1.00  0.00    -0.236 A  
ENDBRANCH   5   6
ENDBRANCH   4   5
BRANCH   4  12
HETATM   12  C   UNL     1     -10.144  14.336  65.773  1.00  0.00    -0.335 C  
BRANCH  12  13
HETATM   13  O   UNL     1     -11.065  15.038  64.914  1.00  0.00    -0.387 OA 
BRANCH  13  14
HETATM   14  C   UNL     1     -12.186  14.352  64.595  1.00  0.00    -0.464 C  
HETATM   15  H1  UNL     1     -12.960  13.395  63.082  1.00  0.00     0.000 HD 
HETATM   16  O   UNL     1     -13.142  14.146  65.326  1.00  0.00    -0.763 OA 
HETATM   17  N   UNL     1     -12.114  13.912  63.322  1.00  0.00    -1.003 N  
HETATM   18  H2  UNL     1     -11.329  14.073  62.692  1.00  0.00     0.000 HD 
ENDBRANCH  13  14
ENDBRANCH  12  13
ENDBRANCH   4  12
TORSDOF 5
ENDMDL
MODEL      134
REMARK 921   NORMALIZED FREE ENERGY PREDICTED BY IDOCK:   -3.56 KCAL/MOL
REMARK 922        TOTAL FREE ENERGY PREDICTED BY IDOCK:   -4.80 KCAL/MOL
REMARK 923 INTER-LIGAND FREE ENERGY PREDICTED BY IDOCK:   -4.77 KCAL/MOL
REMARK 924 INTRA-LIGAND FREE ENERGY PREDICTED BY IDOCK:   -0.02 KCAL/MOL
REMARK 927      BINDING AFFINITY PREDICTED BY RF-SCORE:    0.00 PKD
ROOT
HETATM    1  N   UNL     1     -13.275   7.231  70.712  1.00  0.00    -0.556 NA 
HETATM    2  H1  UNL     1     -14.009   7.742  71.203  1.00  0.00     0.000 HD 
HETATM    3  H2  UNL     1     -13.643   6.421  70.211  1.00  0.00     0.000 HD 
HETATM    4  C   UNL     1     -12.199   6.857  71.655  1.00  0.00    -0.361 C  
ENDROOT
BRANCH   4   5
HETATM    5  C   UNL     1     -11.611   8.094  72.374  1.00  0.00    -0.463 C  
BRANCH   5   6
HETATM    6  C   UNL     1     -11.665   9.358  71.542  1.00  0.00    -0.465 A  
HETATM    7  C   UNL     1     -11.871  11.612  69.884  1.00  0.00    -0.434 A  
HETATM    8  C   UNL     1     -10.730   9.579  70.520  1.00  0.00    -0.359 A  
HETATM    9  C   UNL     1     -12.674  10.307  71.751  1.00  0.00    -0.535 A  
HETATM   10  C   UNL     1     -12.783  11.423  70.920  1.00  0.00    -0.397 A  
HETATM   11  C   UNL     1     -10.836  10.699  69.694  1.00  0.00    -0.318 A  
ENDBRANCH   5   6
ENDBRANCH   4   5
BRANCH   4  12
HETATM   12  C   UNL     1     -11.088   6.084  70.911  1.00  0.00    -0.284 C  
BRANCH  12  13
HETATM   13  O   UNL     1     -10.360   5.234  71.821  1.00  0.00    -0.203 OA 
BRANCH  13  14
HETATM   14  C   UNL     1      -9.452   4.419  71.239  1.00  0.00    -0.157 C  
HETATM   15  H1  UNL     1      -7.771   4.532  70.255  1.00  0.00     0.000 HD 
HETATM   16  O   UNL     1      -9.498   3.200  71.192  1.00  0.00    -0.130 OA 
HETATM   17  N   UNL     1      -8.455   5.147  70.694  1.00  0.00    -0.113 N  
HETATM   18  H2  UNL     1      -8.396   6.165  70.717  1.00  0.00     0.000 HD 
ENDBRANCH  13  14
ENDBRANCH  12  13
ENDBRANCH   4  12
TORSDOF 5
ENDMDL
MODEL      135
REMARK 921   NORMALIZED FREE ENERGY PREDICTED BY IDOCK:   -3.56 KCAL/MOL
REMARK 922        TOTAL FREE ENERGY PREDICTED BY IDOCK:   -4.80 KCAL/MOL
REMARK 923 INTER-LIGAND FREE ENERGY PREDICTED BY IDOCK:   -4.47 KCAL/MOL
REMARK 924 INTRA-LIGAND FREE ENERGY PREDICTED BY IDOCK:   -0.32 KCAL/MOL
REMARK 927      BINDING AFFINITY PREDICTED BY RF-SCORE:    0.00 PKD
ROOT
HETATM    1  N   UNL     1     -10.281  19.256  69.413  1.00  0.00    -0.487 NA 
HETATM    2  H1  UNL     1     -10.983  18.904  70.064  1.00  0.00     0.000 HD 
HETATM    3  H2  UNL     1     -10.566  20.136  68.982  1.00  0.00     0.000 HD 
HETATM    4  C   UNL     1      -9.960  18.223  68.405  1.00  0.00    -0.382 C  
ENDROOT
BRANCH   4   5
HETATM    5  C   UNL     1      -9.479  16.909  69.064  1.00  0.00    -0.199 C  
BRANCH   5   6
HETATM    6  C   UNL     1     -10.009  15.664  68.386  1.00  0.00    -0.210 A  
HETATM    7  C   UNL     1     -11.055  13.302  67.290  1.00  0.00    -0.301 A  
HETATM    8  C   UNL     1      -9.220  14.508  68.299  1.00  0.00    -0.201 A  
HETATM    9  C   UNL     1     -11.312  15.632  67.871  1.00  0.00    -0.302 A  
HETATM   10  C   UNL     1     -11.836  14.455  67.336  1.00  0.00    -0.430 A  
HETATM   11  C   UNL     1      -9.743  13.333  67.757  1.00  0.00    -0.217 A  
ENDBRANCH   5   6
ENDBRANCH   4   5
BRANCH   4  12
HETATM   12  C   UNL     1      -8.896  18.756  67.420  1.00  0.00    -0.270 C  
BRANCH  12  13
HETATM   13  O   UNL     1      -9.166  18.298  66.080  1.00  0.00    -0.508 OA 
BRANCH  13  14
HETATM   14  C   UNL     1     -10.295  18.791  65.523  1.00  0.00     0.167 C  
HETATM   15  H1  UNL     1     -11.232  20.491  65.325  1.00  0.00     0.000 HD 
HETATM   16  O   UNL     1     -11.135  18.156  64.906  1.00  0.00    -0.673 OA 
HETATM   17  N   UNL     1     -10.380  20.119  65.745  1.00  0.00    -0.460 N  
HETATM   18  H2  UNL     1      -9.693  20.671  66.259  1.00  0.00     0.000 HD 
ENDBRANCH  13  14
ENDBRANCH  12  13
ENDBRANCH   4  12
TORSDOF 5
ENDMDL
MODEL      136
REMARK 921   NORMALIZED FREE ENERGY PREDICTED BY IDOCK:   -3.55 KCAL/MOL
REMARK 922        TOTAL FREE ENERGY PREDICTED BY IDOCK:   -4.78 KCAL/MOL
REMARK 923 INTER-LIGAND FREE ENERGY PREDICTED BY IDOCK:   -4.46 KCAL/MOL
REMARK 924 INTRA-LIGAND FREE ENERGY PREDICTED BY IDOCK:   -0.32 KCAL/MOL
REMARK 927      BINDING AFFINITY PREDICTED BY RF-SCORE:    0.00 PKD
ROOT
HETATM    1  N   UNL     1      -9.646  13.505  66.011  1.00  0.00    -0.462 NA 
HETATM    2  H1  UNL     1      -9.111  12.638  65.954  1.00  0.00     0.000 HD 
HETATM    3  H2  UNL     1      -9.045  14.315  66.166  1.00  0.00     0.000 HD 
HETATM    4  C   UNL     1     -10.695  13.387  67.047  1.00  0.00    -0.268 C  
ENDROOT
BRANCH   4   5
HETATM    5  C   UNL     1     -11.633  12.187  66.778  1.00  0.00    -0.412 C  
BRANCH   5   6
HETATM    6  C   UNL     1     -11.119  10.880  67.344  1.00  0.00    -0.373 A  
HETATM    7  C   UNL     1     -10.331   8.388  68.366  1.00  0.00    -0.239 A  
HETATM    8  C   UNL     1     -11.206  10.614  68.717  1.00  0.00    -0.337 A  
HETATM    9  C   UNL     1     -10.586   9.897  66.498  1.00  0.00    -0.156 A  
HETATM   10  C   UNL     1     -10.205   8.655  67.004  1.00  0.00    -0.360 A  
HETATM   11  C   UNL     1     -10.817   9.373  69.224  1.00  0.00    -0.190 A  
ENDBRANCH   5   6
ENDBRANCH   4   5
BRANCH   4  12
HETATM   12  C   UNL     1     -11.504  14.699  67.133  1.00  0.00    -0.368 C  
BRANCH  12  13
HETATM   13  O   UNL     1     -10.799  15.684  67.914  1.00  0.00    -0.288 OA 
BRANCH  13  14
HETATM   14  C   UNL     1     -10.425  16.793  67.235  1.00  0.00    -0.310 C  
HETATM   15  H1  UNL     1      -9.415  17.285  65.641  1.00  0.00     0.000 HD 
HETATM   16  O   UNL     1     -10.689  17.947  67.532  1.00  0.00    -0.389 OA 
HETATM   17  N   UNL     1      -9.697  16.450  66.153  1.00  0.00    -0.309 N  
HETATM   18  H2  UNL     1      -9.462  15.494  65.886  1.00  0.00     0.000 HD 
ENDBRANCH  13  14
ENDBRANCH  12  13
ENDBRANCH   4  12
TORSDOF 5
ENDMDL
MODEL      137
REMARK 921   NORMALIZED FREE ENERGY PREDICTED BY IDOCK:   -3.54 KCAL/MOL
REMARK 922        TOTAL FREE ENERGY PREDICTED BY IDOCK:   -4.77 KCAL/MOL
REMARK 923 INTER-LIGAND FREE ENERGY PREDICTED BY IDOCK:   -4.49 KCAL/MOL
REMARK 924 INTRA-LIGAND FREE ENERGY PREDICTED BY IDOCK:   -0.29 KCAL/MOL
REMARK 927      BINDING AFFINITY PREDICTED BY RF-SCORE:    0.00 PKD
ROOT
HETATM    1  N   UNL     1     -12.240  10.630  68.869  1.00  0.00    -0.793 NA 
HETATM    2  H1  UNL     1     -12.102   9.620  68.842  1.00  0.00     0.000 HD 
HETATM    3  H2  UNL     1     -13.230  10.881  68.877  1.00  0.00     0.000 HD 
HETATM    4  C   UNL     1     -11.515  11.272  67.751  1.00  0.00    -0.275 C  
ENDROOT
BRANCH   4   5
HETATM    5  C   UNL     1     -10.007  10.929  67.774  1.00  0.00    -0.198 C  
BRANCH   5   6
HETATM    6  C   UNL     1      -9.434  10.634  66.404  1.00  0.00    -0.204 A  
HETATM    7  C   UNL     1      -8.326  10.262  63.853  1.00  0.00    -0.165 A  
HETATM    8  C   UNL     1     -10.232  10.750  65.257  1.00  0.00    -0.351 A  
HETATM    9  C   UNL     1      -8.085  10.281  66.256  1.00  0.00    -0.129 A  
HETATM   10  C   UNL     1      -7.532  10.107  64.988  1.00  0.00    -0.140 A  
HETATM   11  C   UNL     1      -9.678  10.568  63.988  1.00  0.00    -0.383 A  
ENDBRANCH   5   6
ENDBRANCH   4   5
BRANCH   4  12
HETATM   12  C   UNL     1     -11.724  12.801  67.792  1.00  0.00    -0.359 C  
BRANCH  12  13
HETATM   13  O   UNL     1     -12.100  13.301  66.493  1.00  0.00    -0.395 OA 
BRANCH  13  14
HETATM   14  C   UNL     1     -11.501  14.457  66.129  1.00  0.00    -0.357 C  
HETATM   15  H1  UNL     1     -10.895  15.371  64.515  1.00  0.00     0.000 HD 
HETATM   16  O   UNL     1     -11.137  15.350  66.877  1.00  0.00    -0.316 OA 
HETATM   17  N   UNL     1     -11.347  14.499  64.789  1.00  0.00    -0.420 N  
HETATM   18  H2  UNL     1     -11.640  13.765  64.144  1.00  0.00     0.000 HD 
ENDBRANCH  13  14
ENDBRANCH  12  13
ENDBRANCH   4  12
TORSDOF 5
ENDMDL
MODEL      138
REMARK 921   NORMALIZED FREE ENERGY PREDICTED BY IDOCK:   -3.54 KCAL/MOL
REMARK 922        TOTAL FREE ENERGY PREDICTED BY IDOCK:   -4.77 KCAL/MOL
REMARK 923 INTER-LIGAND FREE ENERGY PREDICTED BY IDOCK:   -4.34 KCAL/MOL
REMARK 924 INTRA-LIGAND FREE ENERGY PREDICTED BY IDOCK:   -0.44 KCAL/MOL
REMARK 927      BINDING AFFINITY PREDICTED BY RF-SCORE:    0.00 PKD
ROOT
HETATM    1  N   UNL     1      -8.808   9.796  69.731  1.00  0.00    -0.210 NA 
HETATM    2  H1  UNL     1      -8.342  10.541  69.214  1.00  0.00     0.000 HD 
HETATM    3  H2  UNL     1      -8.225   8.962  69.810  1.00  0.00     0.000 HD 
HETATM    4  C   UNL     1     -10.121   9.498  69.118  1.00  0.00    -0.195 C  
ENDROOT
BRANCH   4   5
HETATM    5  C   UNL     1     -11.019  10.755  69.048  1.00  0.00    -0.289 C  
BRANCH   5   6
HETATM    6  C   UNL     1     -11.174  11.310  67.648  1.00  0.00    -0.357 A  
HETATM    7  C   UNL     1     -11.317  12.444  65.086  1.00  0.00    -0.367 A  
HETATM    8  C   UNL     1     -11.965  12.444  67.414  1.00  0.00    -0.246 A  
HETATM    9  C   UNL     1     -10.495  10.725  66.570  1.00  0.00    -0.299 A  
HETATM   10  C   UNL     1     -10.557  11.295  65.299  1.00  0.00    -0.323 A  
HETATM   11  C   UNL     1     -12.032  13.009  66.139  1.00  0.00    -0.488 A  
ENDBRANCH   5   6
ENDBRANCH   4   5
BRANCH   4  12
HETATM   12  C   UNL     1     -10.827   8.370  69.901  1.00  0.00    -0.207 C  
BRANCH  12  13
HETATM   13  O   UNL     1     -11.516   8.900  71.052  1.00  0.00    -0.272 OA 
BRANCH  13  14
HETATM   14  C   UNL     1     -11.030   8.494  72.247  1.00  0.00    -0.355 C  
HETATM   15  H1  UNL     1     -11.540   7.353  73.745  1.00  0.00     0.000 HD 
HETATM   16  O   UNL     1      -9.963   8.817  72.742  1.00  0.00    -0.122 OA 
HETATM   17  N   UNL     1     -11.906   7.659  72.844  1.00  0.00    -0.607 N  
HETATM   18  H2  UNL     1     -12.804   7.376  72.451  1.00  0.00     0.000 HD 
ENDBRANCH  13  14
ENDBRANCH  12  13
ENDBRANCH   4  12
TORSDOF 5
ENDMDL
MODEL      139
REMARK 921   NORMALIZED FREE ENERGY PREDICTED BY IDOCK:   -3.53 KCAL/MOL
REMARK 922        TOTAL FREE ENERGY PREDICTED BY IDOCK:   -4.76 KCAL/MOL
REMARK 923 INTER-LIGAND FREE ENERGY PREDICTED BY IDOCK:   -4.54 KCAL/MOL
REMARK 924 INTRA-LIGAND FREE ENERGY PREDICTED BY IDOCK:   -0.22 KCAL/MOL
REMARK 927      BINDING AFFINITY PREDICTED BY RF-SCORE:    0.00 PKD
ROOT
HETATM    1  N   UNL     1      -8.941  15.818  66.967  1.00  0.00    -0.211 NA 
HETATM    2  H1  UNL     1      -9.160  15.025  67.570  1.00  0.00     0.000 HD 
HETATM    3  H2  UNL     1      -7.955  15.839  66.705  1.00  0.00     0.000 HD 
HETATM    4  C   UNL     1      -9.370  17.079  67.610  1.00  0.00    -0.241 C  
ENDROOT
BRANCH   4   5
HETATM    5  C   UNL     1     -10.878  17.061  67.958  1.00  0.00    -0.330 C  
BRANCH   5   6
HETATM    6  C   UNL     1     -11.250  16.001  68.973  1.00  0.00    -0.347 A  
HETATM    7  C   UNL     1     -12.105  14.113  70.865  1.00  0.00    -0.416 A  
HETATM    8  C   UNL     1     -11.053  16.226  70.343  1.00  0.00    -0.322 A  
HETATM    9  C   UNL     1     -11.837  14.796  68.564  1.00  0.00    -0.340 A  
HETATM   10  C   UNL     1     -12.272  13.862  69.504  1.00  0.00    -0.356 A  
HETATM   11  C   UNL     1     -11.482  15.287  71.283  1.00  0.00    -0.431 A  
ENDBRANCH   5   6
ENDBRANCH   4   5
BRANCH   4  12
HETATM   12  C   UNL     1      -9.040  18.279  66.696  1.00  0.00    -0.288 C  
BRANCH  12  13
HETATM   13  O   UNL     1      -8.065  17.909  65.699  1.00  0.00    -0.514 OA 
BRANCH  13  14
HETATM   14  C   UNL     1      -7.016  18.755  65.585  1.00  0.00    -0.225 C  
HETATM   15  H1  UNL     1      -5.191  18.953  66.246  1.00  0.00     0.000 HD 
HETATM   16  O   UNL     1      -6.977  19.774  64.915  1.00  0.00    -0.358 OA 
HETATM   17  N   UNL     1      -5.982  18.315  66.332  1.00  0.00    -0.156 N  
HETATM   18  H2  UNL     1      -5.991  17.469  66.901  1.00  0.00     0.000 HD 
ENDBRANCH  13  14
ENDBRANCH  12  13
ENDBRANCH   4  12
TORSDOF 5
ENDMDL
MODEL      140
REMARK 921   NORMALIZED FREE ENERGY PREDICTED BY IDOCK:   -3.52 KCAL/MOL
REMARK 922        TOTAL FREE ENERGY PREDICTED BY IDOCK:   -4.74 KCAL/MOL
REMARK 923 INTER-LIGAND FREE ENERGY PREDICTED BY IDOCK:   -4.46 KCAL/MOL
REMARK 924 INTRA-LIGAND FREE ENERGY PREDICTED BY IDOCK:   -0.28 KCAL/MOL
REMARK 927      BINDING AFFINITY PREDICTED BY RF-SCORE:    0.00 PKD
ROOT
HETATM    1  N   UNL     1     -11.019  19.042  67.138  1.00  0.00    -0.369 NA 
HETATM    2  H1  UNL     1     -11.850  18.461  67.248  1.00  0.00     0.000 HD 
HETATM    3  H2  UNL     1     -11.248  19.979  66.804  1.00  0.00     0.000 HD 
HETATM    4  C   UNL     1     -10.040  18.366  66.259  1.00  0.00    -0.392 C  
ENDROOT
BRANCH   4   5
HETATM    5  C   UNL     1      -9.657  16.967  66.798  1.00  0.00    -0.274 C  
BRANCH   5   6
HETATM    6  C   UNL     1     -10.161  15.830  65.936  1.00  0.00    -0.381 A  
HETATM    7  C   UNL     1     -11.223  13.691  64.462  1.00  0.00    -0.395 A  
HETATM    8  C   UNL     1      -9.673  14.528  66.117  1.00  0.00    -0.340 A  
HETATM    9  C   UNL     1     -11.153  16.051  64.971  1.00  0.00    -0.345 A  
HETATM   10  C   UNL     1     -11.689  14.986  64.246  1.00  0.00    -0.245 A  
HETATM   11  C   UNL     1     -10.205  13.464  65.386  1.00  0.00    -0.311 A  
ENDBRANCH   5   6
ENDBRANCH   4   5
BRANCH   4  12
HETATM   12  C   UNL     1      -8.781  19.246  66.093  1.00  0.00    -0.247 C  
BRANCH  12  13
HETATM   13  O   UNL     1      -8.585  20.081  67.252  1.00  0.00    -0.312 OA 
BRANCH  13  14
HETATM   14  C   UNL     1      -7.314  20.134  67.710  1.00  0.00    -0.298 C  
HETATM   15  H1  UNL     1      -5.521  20.554  67.067  1.00  0.00     0.000 HD 
HETATM   16  O   UNL     1      -6.943  19.879  68.844  1.00  0.00    -0.330 OA 
HETATM   17  N   UNL     1      -6.479  20.514  66.721  1.00  0.00    -0.221 N  
HETATM   18  H2  UNL     1      -6.765  20.730  65.766  1.00  0.00     0.000 HD 
ENDBRANCH  13  14
ENDBRANCH  12  13
ENDBRANCH   4  12
TORSDOF 5
ENDMDL
MODEL      141
REMARK 921   NORMALIZED FREE ENERGY PREDICTED BY IDOCK:   -3.49 KCAL/MOL
REMARK 922        TOTAL FREE ENERGY PREDICTED BY IDOCK:   -4.71 KCAL/MOL
REMARK 923 INTER-LIGAND FREE ENERGY PREDICTED BY IDOCK:   -4.87 KCAL/MOL
REMARK 924 INTRA-LIGAND FREE ENERGY PREDICTED BY IDOCK:    0.16 KCAL/MOL
REMARK 927      BINDING AFFINITY PREDICTED BY RF-SCORE:    0.00 PKD
ROOT
HETATM    1  N   UNL     1     -10.351  18.958  69.196  1.00  0.00    -0.452 NA 
HETATM    2  H1  UNL     1      -9.652  19.649  68.924  1.00  0.00     0.000 HD 
HETATM    3  H2  UNL     1     -10.503  18.943  70.205  1.00  0.00     0.000 HD 
HETATM    4  C   UNL     1      -9.979  17.626  68.672  1.00  0.00    -0.367 C  
ENDROOT
BRANCH   4   5
HETATM    5  C   UNL     1      -9.801  17.643  67.136  1.00  0.00    -0.306 C  
BRANCH   5   6
HETATM    6  C   UNL     1     -10.051  16.300  66.483  1.00  0.00    -0.301 A  
HETATM    7  C   UNL     1     -10.375  13.846  65.163  1.00  0.00    -0.403 A  
HETATM    8  C   UNL     1     -10.919  16.190  65.388  1.00  0.00    -0.235 A  
HETATM    9  C   UNL     1      -9.386  15.153  66.937  1.00  0.00    -0.251 A  
HETATM   10  C   UNL     1      -9.538  13.935  66.274  1.00  0.00    -0.274 A  
HETATM   11  C   UNL     1     -11.077  14.969  64.730  1.00  0.00    -0.388 A  
ENDBRANCH   5   6
ENDBRANCH   4   5
BRANCH   4  12
HETATM   12  C   UNL     1     -11.039  16.580  69.083  1.00  0.00    -0.270 C  
BRANCH  12  13
HETATM   13  O   UNL     1     -10.602  15.838  70.240  1.00  0.00    -0.314 OA 
BRANCH  13  14
HETATM   14  C   UNL     1     -11.579  15.524  71.121  1.00  0.00    -0.397 C  
HETATM   15  H1  UNL     1     -12.754  14.031  71.564  1.00  0.00     0.000 HD 
HETATM   16  O   UNL     1     -12.025  16.249  71.995  1.00  0.00    -0.500 OA 
HETATM   17  N   UNL     1     -12.017  14.267  70.900  1.00  0.00    -0.409 N  
HETATM   18  H2  UNL     1     -11.662  13.644  70.175  1.00  0.00     0.000 HD 
ENDBRANCH  13  14
ENDBRANCH  12  13
ENDBRANCH   4  12
TORSDOF 5
ENDMDL
MODEL      142
REMARK 921   NORMALIZED FREE ENERGY PREDICTED BY IDOCK:   -3.49 KCAL/MOL
REMARK 922        TOTAL FREE ENERGY PREDICTED BY IDOCK:   -4.71 KCAL/MOL
REMARK 923 INTER-LIGAND FREE ENERGY PREDICTED BY IDOCK:   -4.13 KCAL/MOL
REMARK 924 INTRA-LIGAND FREE ENERGY PREDICTED BY IDOCK:   -0.58 KCAL/MOL
REMARK 927      BINDING AFFINITY PREDICTED BY RF-SCORE:    0.00 PKD
ROOT
HETATM    1  N   UNL     1     -10.773  11.077  69.688  1.00  0.00    -0.428 NA 
HETATM    2  H1  UNL     1     -11.730  10.743  69.798  1.00  0.00     0.000 HD 
HETATM    3  H2  UNL     1     -10.455  11.604  70.502  1.00  0.00     0.000 HD 
HETATM    4  C   UNL     1     -10.648  11.858  68.438  1.00  0.00    -0.218 C  
ENDROOT
BRANCH   4   5
HETATM    5  C   UNL     1     -11.083  11.035  67.202  1.00  0.00    -0.333 C  
BRANCH   5   6
HETATM    6  C   UNL     1     -11.429  11.888  66.001  1.00  0.00    -0.344 A  
HETATM    7  C   UNL     1     -11.929  13.573  63.813  1.00  0.00    -0.475 A  
HETATM    8  C   UNL     1     -12.284  12.992  66.133  1.00  0.00    -0.428 A  
HETATM    9  C   UNL     1     -10.868  11.614  64.746  1.00  0.00    -0.367 A  
HETATM   10  C   UNL     1     -11.108  12.458  63.661  1.00  0.00    -0.535 A  
HETATM   11  C   UNL     1     -12.529  13.832  65.044  1.00  0.00    -0.449 A  
ENDBRANCH   5   6
ENDBRANCH   4   5
BRANCH   4  12
HETATM   12  C   UNL     1      -9.198  12.362  68.271  1.00  0.00    -0.189 C  
BRANCH  12  13
HETATM   13  O   UNL     1      -8.347  11.312  67.768  1.00  0.00    -0.119 OA 
BRANCH  13  14
HETATM   14  C   UNL     1      -7.282  11.016  68.548  1.00  0.00    -0.085 C  
HETATM   15  H1  UNL     1      -6.804   9.821  70.015  1.00  0.00     0.000 HD 
HETATM   16  O   UNL     1      -6.179  11.534  68.493  1.00  0.00    -0.049 OA 
HETATM   17  N   UNL     1      -7.606  10.044  69.426  1.00  0.00    -0.108 N  
HETATM   18  H2  UNL     1      -8.521   9.598  69.493  1.00  0.00     0.000 HD 
ENDBRANCH  13  14
ENDBRANCH  12  13
ENDBRANCH   4  12
TORSDOF 5
ENDMDL
MODEL      143
REMARK 921   NORMALIZED FREE ENERGY PREDICTED BY IDOCK:   -3.49 KCAL/MOL
REMARK 922        TOTAL FREE ENERGY PREDICTED BY IDOCK:   -4.71 KCAL/MOL
REMARK 923 INTER-LIGAND FREE ENERGY PREDICTED BY IDOCK:   -4.43 KCAL/MOL
REMARK 924 INTRA-LIGAND FREE ENERGY PREDICTED BY IDOCK:   -0.28 KCAL/MOL
REMARK 927      BINDING AFFINITY PREDICTED BY RF-SCORE:    0.00 PKD
ROOT
HETATM    1  N   UNL     1     -10.043  11.913  69.130  1.00  0.00    -0.410 NA 
HETATM    2  H1  UNL     1      -9.324  11.345  68.682  1.00  0.00     0.000 HD 
HETATM    3  H2  UNL     1     -10.575  11.382  69.820  1.00  0.00     0.000 HD 
HETATM    4  C   UNL     1     -10.918  12.525  68.107  1.00  0.00    -0.228 C  
ENDROOT
BRANCH   4   5
HETATM    5  C   UNL     1     -10.110  13.371  67.094  1.00  0.00    -0.240 C  
BRANCH   5   6
HETATM    6  C   UNL     1      -9.918  14.809  67.526  1.00  0.00    -0.219 A  
HETATM    7  C   UNL     1      -9.433  17.490  68.199  1.00  0.00    -0.291 A  
HETATM    8  C   UNL     1      -8.986  15.136  68.521  1.00  0.00    -0.186 A  
HETATM    9  C   UNL     1     -10.638  15.842  66.909  1.00  0.00    -0.317 A  
HETATM   10  C   UNL     1     -10.389  17.175  67.236  1.00  0.00    -0.320 A  
HETATM   11  C   UNL     1      -8.743  16.470  68.852  1.00  0.00    -0.247 A  
ENDBRANCH   5   6
ENDBRANCH   4   5
BRANCH   4  12
HETATM   12  C   UNL     1     -12.006  13.386  68.786  1.00  0.00    -0.324 C  
BRANCH  12  13
HETATM   13  O   UNL     1     -11.817  13.414  70.215  1.00  0.00    -0.308 OA 
BRANCH  13  14
HETATM   14  C   UNL     1     -11.945  14.634  70.785  1.00  0.00    -0.317 C  
HETATM   15  H1  UNL     1     -12.932  16.296  70.526  1.00  0.00     0.000 HD 
HETATM   16  O   UNL     1     -11.355  15.035  71.774  1.00  0.00    -0.369 OA 
HETATM   17  N   UNL     1     -12.835  15.377  70.096  1.00  0.00    -0.654 N  
HETATM   18  H2  UNL     1     -13.339  15.064  69.266  1.00  0.00     0.000 HD 
ENDBRANCH  13  14
ENDBRANCH  12  13
ENDBRANCH   4  12
TORSDOF 5
ENDMDL
MODEL      144
REMARK 921   NORMALIZED FREE ENERGY PREDICTED BY IDOCK:   -3.46 KCAL/MOL
REMARK 922        TOTAL FREE ENERGY PREDICTED BY IDOCK:   -4.68 KCAL/MOL
REMARK 923 INTER-LIGAND FREE ENERGY PREDICTED BY IDOCK:   -4.42 KCAL/MOL
REMARK 924 INTRA-LIGAND FREE ENERGY PREDICTED BY IDOCK:   -0.26 KCAL/MOL
REMARK 927      BINDING AFFINITY PREDICTED BY RF-SCORE:    0.00 PKD
ROOT
HETATM    1  N   UNL     1      -8.197   6.479  70.108  1.00  0.00    -0.127 NA 
HETATM    2  H1  UNL     1      -7.585   7.192  69.713  1.00  0.00     0.000 HD 
HETATM    3  H2  UNL     1      -8.235   5.641  69.526  1.00  0.00     0.000 HD 
HETATM    4  C   UNL     1      -9.542   7.043  70.354  1.00  0.00    -0.169 C  
ENDROOT
BRANCH   4   5
HETATM    5  C   UNL     1      -9.483   8.281  71.279  1.00  0.00    -0.219 C  
BRANCH   5   6
HETATM    6  C   UNL     1     -10.607   9.267  71.041  1.00  0.00    -0.386 A  
HETATM    7  C   UNL     1     -12.605  11.210  70.709  1.00  0.00    -0.445 A  
HETATM    8  C   UNL     1     -11.731   9.284  71.879  1.00  0.00    -0.420 A  
HETATM    9  C   UNL     1     -10.524  10.207  70.004  1.00  0.00    -0.325 A  
HETATM   10  C   UNL     1     -11.511  11.179  69.846  1.00  0.00    -0.386 A  
HETATM   11  C   UNL     1     -12.722  10.253  71.716  1.00  0.00    -0.535 A  
ENDBRANCH   5   6
ENDBRANCH   4   5
BRANCH   4  12
HETATM   12  C   UNL     1     -10.469   5.962  70.953  1.00  0.00    -0.244 C  
BRANCH  12  13
HETATM   13  O   UNL     1      -9.956   5.492  72.216  1.00  0.00    -0.169 OA 
BRANCH  13  14
HETATM   14  C   UNL     1     -10.741   5.754  73.286  1.00  0.00    -0.267 C  
HETATM   15  H1  UNL     1     -12.263   4.983  74.233  1.00  0.00     0.000 HD 
HETATM   16  O   UNL     1     -10.651   6.715  74.032  1.00  0.00    -0.323 OA 
HETATM   17  N   UNL     1     -11.671   4.786  73.427  1.00  0.00    -0.401 N  
HETATM   18  H2  UNL     1     -11.767   3.975  72.815  1.00  0.00     0.000 HD 
ENDBRANCH  13  14
ENDBRANCH  12  13
ENDBRANCH   4  12
TORSDOF 5
ENDMDL
MODEL      145
REMARK 921   NORMALIZED FREE ENERGY PREDICTED BY IDOCK:   -3.46 KCAL/MOL
REMARK 922        TOTAL FREE ENERGY PREDICTED BY IDOCK:   -4.68 KCAL/MOL
REMARK 923 INTER-LIGAND FREE ENERGY PREDICTED BY IDOCK:   -4.34 KCAL/MOL
REMARK 924 INTRA-LIGAND FREE ENERGY PREDICTED BY IDOCK:   -0.34 KCAL/MOL
REMARK 927      BINDING AFFINITY PREDICTED BY RF-SCORE:    0.00 PKD
ROOT
HETATM    1  N   UNL     1     -11.378  10.524  67.472  1.00  0.00    -0.485 NA 
HETATM    2  H1  UNL     1     -11.945   9.699  67.667  1.00  0.00     0.000 HD 
HETATM    3  H2  UNL     1     -10.693  10.353  66.735  1.00  0.00     0.000 HD 
HETATM    4  C   UNL     1     -10.742  11.007  68.717  1.00  0.00    -0.203 C  
ENDROOT
BRANCH   4   5
HETATM    5  C   UNL     1     -11.789  11.313  69.814  1.00  0.00    -0.437 C  
BRANCH   5   6
HETATM    6  C   UNL     1     -12.074  10.136  70.722  1.00  0.00    -0.438 A  
HETATM    7  C   UNL     1     -12.558   8.059  72.545  1.00  0.00    -0.143 A  
HETATM    8  C   UNL     1     -11.055   9.234  71.061  1.00  0.00    -0.396 A  
HETATM    9  C   UNL     1     -13.350   9.952  71.271  1.00  0.00    -0.419 A  
HETATM   10  C   UNL     1     -13.588   8.926  72.186  1.00  0.00    -0.502 A  
HETATM   11  C   UNL     1     -11.296   8.204  71.972  1.00  0.00    -0.378 A  
ENDBRANCH   5   6
ENDBRANCH   4   5
BRANCH   4  12
HETATM   12  C   UNL     1      -9.884  12.257  68.423  1.00  0.00    -0.199 C  
BRANCH  12  13
HETATM   13  O   UNL     1      -8.481  11.963  68.584  1.00  0.00    -0.132 OA 
BRANCH  13  14
HETATM   14  C   UNL     1      -7.853  11.542  67.463  1.00  0.00    -0.133 C  
HETATM   15  H1  UNL     1      -7.755  11.979  65.564  1.00  0.00     0.000 HD 
HETATM   16  O   UNL     1      -7.060  10.619  67.381  1.00  0.00    -0.086 OA 
HETATM   17  N   UNL     1      -8.228  12.296  66.409  1.00  0.00    -0.389 N  
HETATM   18  H2  UNL     1      -8.891  13.071  66.452  1.00  0.00     0.000 HD 
ENDBRANCH  13  14
ENDBRANCH  12  13
ENDBRANCH   4  12
TORSDOF 5
ENDMDL
MODEL      146
REMARK 921   NORMALIZED FREE ENERGY PREDICTED BY IDOCK:   -3.42 KCAL/MOL
REMARK 922        TOTAL FREE ENERGY PREDICTED BY IDOCK:   -4.62 KCAL/MOL
REMARK 923 INTER-LIGAND FREE ENERGY PREDICTED BY IDOCK:   -4.35 KCAL/MOL
REMARK 924 INTRA-LIGAND FREE ENERGY PREDICTED BY IDOCK:   -0.27 KCAL/MOL
REMARK 927      BINDING AFFINITY PREDICTED BY RF-SCORE:    0.00 PKD
ROOT
HETATM    1  N   UNL     1     -12.554  10.535  69.272  1.00  0.00    -0.659 NA 
HETATM    2  H1  UNL     1     -13.291  11.214  69.462  1.00  0.00     0.000 HD 
HETATM    3  H2  UNL     1     -12.413   9.895  70.054  1.00  0.00     0.000 HD 
HETATM    4  C   UNL     1     -11.306  11.233  68.895  1.00  0.00    -0.275 C  
ENDROOT
BRANCH   4   5
HETATM    5  C   UNL     1     -11.514  12.164  67.677  1.00  0.00    -0.399 C  
BRANCH   5   6
HETATM    6  C   UNL     1     -11.188  13.614  67.962  1.00  0.00    -0.295 A  
HETATM    7  C   UNL     1     -10.484  16.247  68.631  1.00  0.00    -0.282 A  
HETATM    8  C   UNL     1     -11.994  14.370  68.826  1.00  0.00    -0.331 A  
HETATM    9  C   UNL     1     -10.052  14.213  67.402  1.00  0.00    -0.240 A  
HETATM   10  C   UNL     1      -9.696  15.518  67.743  1.00  0.00    -0.211 A  
HETATM   11  C   UNL     1     -11.640  15.678  69.161  1.00  0.00    -0.393 A  
ENDBRANCH   5   6
ENDBRANCH   4   5
BRANCH   4  12
HETATM   12  C   UNL     1     -10.190  10.205  68.607  1.00  0.00    -0.176 C  
BRANCH  12  13
HETATM   13  O   UNL     1     -10.652   9.194  67.689  1.00  0.00    -0.258 OA 
BRANCH  13  14
HETATM   14  C   UNL     1     -10.123   7.964  67.879  1.00  0.00    -0.191 C  
HETATM   15  H1  UNL     1     -10.708   6.134  68.220  1.00  0.00     0.000 HD 
HETATM   16  O   UNL     1      -8.936   7.678  67.882  1.00  0.00    -0.129 OA 
HETATM   17  N   UNL     1     -11.106   7.061  68.076  1.00  0.00    -0.514 N  
HETATM   18  H2  UNL     1     -12.103   7.276  68.081  1.00  0.00     0.000 HD 
ENDBRANCH  13  14
ENDBRANCH  12  13
ENDBRANCH   4  12
TORSDOF 5
ENDMDL
MODEL      147
REMARK 921   NORMALIZED FREE ENERGY PREDICTED BY IDOCK:   -3.42 KCAL/MOL
REMARK 922        TOTAL FREE ENERGY PREDICTED BY IDOCK:   -4.62 KCAL/MOL
REMARK 923 INTER-LIGAND FREE ENERGY PREDICTED BY IDOCK:   -4.35 KCAL/MOL
REMARK 924 INTRA-LIGAND FREE ENERGY PREDICTED BY IDOCK:   -0.26 KCAL/MOL
REMARK 927      BINDING AFFINITY PREDICTED BY RF-SCORE:    0.00 PKD
ROOT
HETATM    1  N   UNL     1     -10.584  12.001  69.378  1.00  0.00    -0.439 NA 
HETATM    2  H1  UNL     1     -10.985  12.788  68.868  1.00  0.00     0.000 HD 
HETATM    3  H2  UNL     1      -9.918  12.306  70.089  1.00  0.00     0.000 HD 
HETATM    4  C   UNL     1      -9.984  11.036  68.432  1.00  0.00    -0.186 C  
ENDROOT
BRANCH   4   5
HETATM    5  C   UNL     1     -11.013  10.540  67.389  1.00  0.00    -0.352 C  
BRANCH   5   6
HETATM    6  C   UNL     1     -10.722  11.014  65.981  1.00  0.00    -0.242 A  
HETATM    7  C   UNL     1     -10.309  11.776  63.313  1.00  0.00    -0.446 A  
HETATM    8  C   UNL     1      -9.749  10.375  65.201  1.00  0.00    -0.353 A  
HETATM    9  C   UNL     1     -11.451  12.072  65.421  1.00  0.00    -0.361 A  
HETATM   10  C   UNL     1     -11.253  12.444  64.091  1.00  0.00    -0.434 A  
HETATM   11  C   UNL     1      -9.547  10.753  63.872  1.00  0.00    -0.339 A  
ENDBRANCH   5   6
ENDBRANCH   4   5
BRANCH   4  12
HETATM   12  C   UNL     1      -9.378   9.844  69.205  1.00  0.00    -0.206 C  
BRANCH  12  13
HETATM   13  O   UNL     1     -10.302   9.356  70.199  1.00  0.00    -0.201 OA 
BRANCH  13  14
HETATM   14  C   UNL     1     -10.346   8.011  70.328  1.00  0.00    -0.212 C  
HETATM   15  H1  UNL     1     -11.652   6.588  70.600  1.00  0.00     0.000 HD 
HETATM   16  O   UNL     1      -9.392   7.250  70.299  1.00  0.00    -0.158 OA 
HETATM   17  N   UNL     1     -11.619   7.602  70.502  1.00  0.00    -0.424 N  
HETATM   18  H2  UNL     1     -12.432   8.218  70.533  1.00  0.00     0.000 HD 
ENDBRANCH  13  14
ENDBRANCH  12  13
ENDBRANCH   4  12
TORSDOF 5
ENDMDL
MODEL      148
REMARK 921   NORMALIZED FREE ENERGY PREDICTED BY IDOCK:   -3.40 KCAL/MOL
REMARK 922        TOTAL FREE ENERGY PREDICTED BY IDOCK:   -4.59 KCAL/MOL
REMARK 923 INTER-LIGAND FREE ENERGY PREDICTED BY IDOCK:   -4.29 KCAL/MOL
REMARK 924 INTRA-LIGAND FREE ENERGY PREDICTED BY IDOCK:   -0.30 KCAL/MOL
REMARK 927      BINDING AFFINITY PREDICTED BY RF-SCORE:    0.00 PKD
ROOT
HETATM    1  N   UNL     1      -9.026   7.780  73.713  1.00  0.00    -0.265 NA 
HETATM    2  H1  UNL     1      -9.315   8.758  73.745  1.00  0.00     0.000 HD 
HETATM    3  H2  UNL     1      -8.010   7.681  73.718  1.00  0.00     0.000 HD 
HETATM    4  C   UNL     1      -9.644   7.106  72.551  1.00  0.00    -0.146 C  
ENDROOT
BRANCH   4   5
HETATM    5  C   UNL     1     -11.186   7.216  72.578  1.00  0.00    -0.327 C  
BRANCH   5   6
HETATM    6  C   UNL     1     -11.710   8.505  71.980  1.00  0.00    -0.431 A  
HETATM    7  C   UNL     1     -12.599  10.982  71.006  1.00  0.00    -0.512 A  
HETATM    8  C   UNL     1     -12.947   9.027  72.384  1.00  0.00    -0.471 A  
HETATM    9  C   UNL     1     -10.949   9.218  71.045  1.00  0.00    -0.390 A  
HETATM   10  C   UNL     1     -11.385  10.455  70.569  1.00  0.00    -0.424 A  
HETATM   11  C   UNL     1     -13.387  10.261  71.901  1.00  0.00    -0.487 A  
ENDBRANCH   5   6
ENDBRANCH   4   5
BRANCH   4  12
HETATM   12  C   UNL     1      -9.207   5.625  72.504  1.00  0.00    -0.142 C  
BRANCH  12  13
HETATM   13  O   UNL     1     -10.301   4.783  72.089  1.00  0.00    -0.193 OA 
BRANCH  13  14
HETATM   14  C   UNL     1     -10.282   3.529  72.595  1.00  0.00    -0.166 C  
HETATM   15  H1  UNL     1     -11.135   2.485  74.005  1.00  0.00     0.000 HD 
HETATM   16  O   UNL     1      -9.591   2.602  72.205  1.00  0.00    -0.104 OA 
HETATM   17  N   UNL     1     -11.150   3.430  73.623  1.00  0.00    -0.234 N  
HETATM   18  H2  UNL     1     -11.735   4.191  73.969  1.00  0.00     0.000 HD 
ENDBRANCH  13  14
ENDBRANCH  12  13
ENDBRANCH   4  12
TORSDOF 5
ENDMDL
MODEL      149
REMARK 921   NORMALIZED FREE ENERGY PREDICTED BY IDOCK:   -3.40 KCAL/MOL
REMARK 922        TOTAL FREE ENERGY PREDICTED BY IDOCK:   -4.59 KCAL/MOL
REMARK 923 INTER-LIGAND FREE ENERGY PREDICTED BY IDOCK:   -4.32 KCAL/MOL
REMARK 924 INTRA-LIGAND FREE ENERGY PREDICTED BY IDOCK:   -0.27 KCAL/MOL
REMARK 927      BINDING AFFINITY PREDICTED BY RF-SCORE:    0.00 PKD
ROOT
HETATM    1  N   UNL     1      -8.165  10.140  64.778  1.00  0.00    -0.156 NA 
HETATM    2  H1  UNL     1      -7.836   9.179  64.872  1.00  0.00     0.000 HD 
HETATM    3  H2  UNL     1      -7.393  10.804  64.710  1.00  0.00     0.000 HD 
HETATM    4  C   UNL     1      -9.084  10.472  65.889  1.00  0.00    -0.168 C  
ENDROOT
BRANCH   4   5
HETATM    5  C   UNL     1     -10.279   9.493  65.956  1.00  0.00    -0.242 C  
BRANCH   5   6
HETATM    6  C   UNL     1     -10.304   8.656  67.217  1.00  0.00    -0.366 A  
HETATM    7  C   UNL     1     -10.184   7.048  69.514  1.00  0.00    -0.208 A  
HETATM    8  C   UNL     1     -10.767   7.333  67.185  1.00  0.00    -0.413 A  
HETATM    9  C   UNL     1      -9.826   9.176  68.427  1.00  0.00    -0.181 A  
HETATM   10  C   UNL     1      -9.756   8.373  69.566  1.00  0.00    -0.177 A  
HETATM   11  C   UNL     1     -10.703   6.533  68.328  1.00  0.00    -0.341 A  
ENDBRANCH   5   6
ENDBRANCH   4   5
BRANCH   4  12
HETATM   12  C   UNL     1      -9.583  11.927  65.746  1.00  0.00    -0.224 C  
BRANCH  12  13
HETATM   13  O   UNL     1     -10.842  11.969  65.044  1.00  0.00    -0.286 OA 
BRANCH  13  14
HETATM   14  C   UNL     1     -11.069  13.105  64.345  1.00  0.00    -0.381 C  
HETATM   15  H1  UNL     1     -11.617  13.662  62.558  1.00  0.00     0.000 HD 
HETATM   16  O   UNL     1     -10.957  14.245  64.763  1.00  0.00    -0.378 OA 
HETATM   17  N   UNL     1     -11.446  12.806  63.085  1.00  0.00    -0.795 N  
HETATM   18  H2  UNL     1     -11.544  11.862  62.712  1.00  0.00     0.000 HD 
ENDBRANCH  13  14
ENDBRANCH  12  13
ENDBRANCH   4  12
TORSDOF 5
ENDMDL
MODEL      150
REMARK 921   NORMALIZED FREE ENERGY PREDICTED BY IDOCK:   -3.37 KCAL/MOL
REMARK 922        TOTAL FREE ENERGY PREDICTED BY IDOCK:   -4.55 KCAL/MOL
REMARK 923 INTER-LIGAND FREE ENERGY PREDICTED BY IDOCK:   -4.82 KCAL/MOL
REMARK 924 INTRA-LIGAND FREE ENERGY PREDICTED BY IDOCK:    0.27 KCAL/MOL
REMARK 927      BINDING AFFINITY PREDICTED BY RF-SCORE:    0.00 PKD
ROOT
HETATM    1  N   UNL     1      -8.679  13.942  66.595  1.00  0.00    -0.445 NA 
HETATM    2  H1  UNL     1      -7.954  13.732  67.280  1.00  0.00     0.000 HD 
HETATM    3  H2  UNL     1      -8.343  14.570  65.863  1.00  0.00     0.000 HD 
HETATM    4  C   UNL     1      -9.880  14.476  67.273  1.00  0.00    -0.236 C  
ENDROOT
BRANCH   4   5
HETATM    5  C   UNL     1     -10.414  13.498  68.346  1.00  0.00    -0.252 C  
BRANCH   5   6
HETATM    6  C   UNL     1     -11.209  14.177  69.441  1.00  0.00    -0.298 A  
HETATM    7  C   UNL     1     -12.566  15.367  71.590  1.00  0.00    -0.458 A  
HETATM    8  C   UNL     1     -12.268  13.510  70.071  1.00  0.00    -0.381 A  
HETATM    9  C   UNL     1     -10.872  15.468  69.871  1.00  0.00    -0.311 A  
HETATM   10  C   UNL     1     -11.539  16.055  70.946  1.00  0.00    -0.453 A  
HETATM   11  C   UNL     1     -12.940  14.101  71.143  1.00  0.00    -0.419 A  
ENDBRANCH   5   6
ENDBRANCH   4   5
BRANCH   4  12
HETATM   12  C   UNL     1     -10.978  14.794  66.235  1.00  0.00    -0.330 C  
BRANCH  12  13
HETATM   13  O   UNL     1     -10.845  16.144  65.747  1.00  0.00    -0.290 OA 
BRANCH  13  14
HETATM   14  C   UNL     1      -9.900  16.886  66.369  1.00  0.00    -0.305 C  
HETATM   15  H1  UNL     1      -9.770  18.328  67.677  1.00  0.00     0.000 HD 
HETATM   16  O   UNL     1      -8.693  16.799  66.214  1.00  0.00    -0.284 OA 
HETATM   17  N   UNL     1     -10.481  17.768  67.209  1.00  0.00    -0.363 N  
HETATM   18  H2  UNL     1     -11.487  17.861  67.354  1.00  0.00     0.000 HD 
ENDBRANCH  13  14
ENDBRANCH  12  13
ENDBRANCH   4  12
TORSDOF 5
ENDMDL
MODEL      151
REMARK 921   NORMALIZED FREE ENERGY PREDICTED BY IDOCK:   -3.36 KCAL/MOL
REMARK 922        TOTAL FREE ENERGY PREDICTED BY IDOCK:   -4.54 KCAL/MOL
REMARK 923 INTER-LIGAND FREE ENERGY PREDICTED BY IDOCK:   -4.08 KCAL/MOL
REMARK 924 INTRA-LIGAND FREE ENERGY PREDICTED BY IDOCK:   -0.46 KCAL/MOL
REMARK 927      BINDING AFFINITY PREDICTED BY RF-SCORE:    0.00 PKD
ROOT
HETATM    1  N   UNL     1     -11.129  15.423  66.452  1.00  0.00    -0.281 NA 
HETATM    2  H1  UNL     1     -11.871  15.191  65.791  1.00  0.00     0.000 HD 
HETATM    3  H2  UNL     1     -10.323  15.844  65.989  1.00  0.00     0.000 HD 
HETATM    4  C   UNL     1     -10.755  14.226  67.236  1.00  0.00    -0.277 C  
ENDROOT
BRANCH   4   5
HETATM    5  C   UNL     1     -11.973  13.622  67.975  1.00  0.00    -0.385 C  
BRANCH   5   6
HETATM    6  C   UNL     1     -11.660  12.328  68.696  1.00  0.00    -0.372 A  
HETATM    7  C   UNL     1     -11.244   9.870  69.983  1.00  0.00    -0.327 A  
HETATM    8  C   UNL     1     -12.004  12.164  70.046  1.00  0.00    -0.391 A  
HETATM    9  C   UNL     1     -11.061  11.260  68.016  1.00  0.00    -0.325 A  
HETATM   10  C   UNL     1     -10.864  10.034  68.653  1.00  0.00    -0.265 A  
HETATM   11  C   UNL     1     -11.800  10.939  70.684  1.00  0.00    -0.453 A  
ENDBRANCH   5   6
ENDBRANCH   4   5
BRANCH   4  12
HETATM   12  C   UNL     1      -9.633  14.578  68.237  1.00  0.00    -0.212 C  
BRANCH  12  13
HETATM   13  O   UNL     1      -8.340  14.241  67.694  1.00  0.00    -0.155 OA 
BRANCH  13  14
HETATM   14  C   UNL     1      -7.641  15.284  67.192  1.00  0.00    -0.189 C  
HETATM   15  H1  UNL     1      -5.839  16.030  67.255  1.00  0.00     0.000 HD 
HETATM   16  O   UNL     1      -8.070  16.153  66.451  1.00  0.00    -0.293 OA 
HETATM   17  N   UNL     1      -6.366  15.243  67.633  1.00  0.00    -0.157 N  
HETATM   18  H2  UNL     1      -5.986  14.530  68.254  1.00  0.00     0.000 HD 
ENDBRANCH  13  14
ENDBRANCH  12  13
ENDBRANCH   4  12
TORSDOF 5
ENDMDL
MODEL      152
REMARK 921   NORMALIZED FREE ENERGY PREDICTED BY IDOCK:   -3.36 KCAL/MOL
REMARK 922        TOTAL FREE ENERGY PREDICTED BY IDOCK:   -4.54 KCAL/MOL
REMARK 923 INTER-LIGAND FREE ENERGY PREDICTED BY IDOCK:   -4.29 KCAL/MOL
REMARK 924 INTRA-LIGAND FREE ENERGY PREDICTED BY IDOCK:   -0.25 KCAL/MOL
REMARK 927      BINDING AFFINITY PREDICTED BY RF-SCORE:    0.00 PKD
ROOT
HETATM    1  N   UNL     1     -10.760  11.793  69.696  1.00  0.00    -0.440 NA 
HETATM    2  H1  UNL     1     -10.443  12.542  69.080  1.00  0.00     0.000 HD 
HETATM    3  H2  UNL     1     -10.326  11.847  70.618  1.00  0.00     0.000 HD 
HETATM    4  C   UNL     1     -10.536  10.479  69.054  1.00  0.00    -0.222 C  
ENDROOT
BRANCH   4   5
HETATM    5  C   UNL     1     -11.239  10.386  67.679  1.00  0.00    -0.287 C  
BRANCH   5   6
HETATM    6  C   UNL     1     -10.349   9.841  66.582  1.00  0.00    -0.276 A  
HETATM    7  C   UNL     1      -8.573   8.949  64.602  1.00  0.00    -0.169 A  
HETATM    8  C   UNL     1     -10.359  10.419  65.305  1.00  0.00    -0.267 A  
HETATM    9  C   UNL     1      -9.472   8.779  66.837  1.00  0.00    -0.231 A  
HETATM   10  C   UNL     1      -8.581   8.342  65.856  1.00  0.00    -0.179 A  
HETATM   11  C   UNL     1      -9.472   9.976  64.321  1.00  0.00    -0.336 A  
ENDBRANCH   5   6
ENDBRANCH   4   5
BRANCH   4  12
HETATM   12  C   UNL     1     -11.017   9.346  69.987  1.00  0.00    -0.239 C  
BRANCH  12  13
HETATM   13  O   UNL     1     -11.394   9.870  71.276  1.00  0.00    -0.368 OA 
BRANCH  13  14
HETATM   14  C   UNL     1     -12.538   9.362  71.788  1.00  0.00    -0.387 C  
HETATM   15  H1  UNL     1     -14.385   9.033  71.252  1.00  0.00     0.000 HD 
HETATM   16  O   UNL     1     -12.692   8.915  72.912  1.00  0.00    -0.301 OA 
HETATM   17  N   UNL     1     -13.523   9.416  70.867  1.00  0.00    -0.587 N  
HETATM   18  H2  UNL     1     -13.420   9.786  69.922  1.00  0.00     0.000 HD 
ENDBRANCH  13  14
ENDBRANCH  12  13
ENDBRANCH   4  12
TORSDOF 5
ENDMDL
MODEL      153
REMARK 921   NORMALIZED FREE ENERGY PREDICTED BY IDOCK:   -3.35 KCAL/MOL
REMARK 922        TOTAL FREE ENERGY PREDICTED BY IDOCK:   -4.53 KCAL/MOL
REMARK 923 INTER-LIGAND FREE ENERGY PREDICTED BY IDOCK:   -5.07 KCAL/MOL
REMARK 924 INTRA-LIGAND FREE ENERGY PREDICTED BY IDOCK:    0.54 KCAL/MOL
REMARK 927      BINDING AFFINITY PREDICTED BY RF-SCORE:    0.00 PKD
ROOT
HETATM    1  N   UNL     1     -13.571  10.019  70.335  1.00  0.00    -0.374 NA 
HETATM    2  H1  UNL     1     -14.313  10.707  70.207  1.00  0.00     0.000 HD 
HETATM    3  H2  UNL     1     -13.934   9.117  70.646  1.00  0.00     0.000 HD 
HETATM    4  C   UNL     1     -12.540  10.549  71.253  1.00  0.00    -0.426 C  
ENDROOT
BRANCH   4   5
HETATM    5  C   UNL     1     -11.958  11.890  70.749  1.00  0.00    -0.189 C  
BRANCH   5   6
HETATM    6  C   UNL     1     -11.638  11.892  69.269  1.00  0.00    -0.376 A  
HETATM    7  C   UNL     1     -11.211  11.825  66.497  1.00  0.00    -0.380 A  
HETATM    8  C   UNL     1     -11.052  10.770  68.666  1.00  0.00    -0.312 A  
HETATM    9  C   UNL     1     -11.962  12.997  68.471  1.00  0.00    -0.296 A  
HETATM   10  C   UNL     1     -11.759  12.960  67.091  1.00  0.00    -0.437 A  
HETATM   11  C   UNL     1     -10.844  10.737  67.285  1.00  0.00    -0.344 A  
ENDBRANCH   5   6
ENDBRANCH   4   5
BRANCH   4  12
HETATM   12  C   UNL     1     -11.416   9.508  71.445  1.00  0.00    -0.392 C  
BRANCH  12  13
HETATM   13  O   UNL     1     -11.796   8.235  70.885  1.00  0.00    -0.284 OA 
BRANCH  13  14
HETATM   14  C   UNL     1     -12.571   7.467  71.683  1.00  0.00    -0.358 C  
HETATM   15  H1  UNL     1     -12.431   6.419  73.323  1.00  0.00     0.000 HD 
HETATM   16  O   UNL     1     -13.753   7.212  71.517  1.00  0.00    -0.377 OA 
HETATM   17  N   UNL     1     -11.847   6.999  72.721  1.00  0.00    -0.521 N  
HETATM   18  H2  UNL     1     -10.859   7.196  72.880  1.00  0.00     0.000 HD 
ENDBRANCH  13  14
ENDBRANCH  12  13
ENDBRANCH   4  12
TORSDOF 5
ENDMDL
MODEL      154
REMARK 921   NORMALIZED FREE ENERGY PREDICTED BY IDOCK:   -3.34 KCAL/MOL
REMARK 922        TOTAL FREE ENERGY PREDICTED BY IDOCK:   -4.52 KCAL/MOL
REMARK 923 INTER-LIGAND FREE ENERGY PREDICTED BY IDOCK:   -4.25 KCAL/MOL
REMARK 924 INTRA-LIGAND FREE ENERGY PREDICTED BY IDOCK:   -0.27 KCAL/MOL
REMARK 927      BINDING AFFINITY PREDICTED BY RF-SCORE:    0.00 PKD
ROOT
HETATM    1  N   UNL     1     -12.158  10.731  68.272  1.00  0.00    -0.807 NA 
HETATM    2  H1  UNL     1     -12.267  10.202  69.137  1.00  0.00     0.000 HD 
HETATM    3  H2  UNL     1     -12.965  10.626  67.655  1.00  0.00     0.000 HD 
HETATM    4  C   UNL     1     -10.895  10.354  67.601  1.00  0.00    -0.306 C  
ENDROOT
BRANCH   4   5
HETATM    5  C   UNL     1      -9.671  10.564  68.524  1.00  0.00    -0.170 C  
BRANCH   5   6
HETATM    6  C   UNL     1      -9.268   9.319  69.286  1.00  0.00    -0.152 A  
HETATM    7  C   UNL     1      -8.348   7.067  70.683  1.00  0.00    -0.127 A  
HETATM    8  C   UNL     1      -8.959   8.135  68.602  1.00  0.00    -0.137 A  
HETATM    9  C   UNL     1      -9.156   9.343  70.682  1.00  0.00    -0.292 A  
HETATM   10  C   UNL     1      -8.688   8.227  71.376  1.00  0.00    -0.197 A  
HETATM   11  C   UNL     1      -8.497   7.016  69.298  1.00  0.00    -0.133 A  
ENDBRANCH   5   6
ENDBRANCH   4   5
BRANCH   4  12
HETATM   12  C   UNL     1     -10.730  11.155  66.291  1.00  0.00    -0.240 C  
BRANCH  12  13
HETATM   13  O   UNL     1     -11.003  12.554  66.510  1.00  0.00    -0.251 OA 
BRANCH  13  14
HETATM   14  C   UNL     1     -11.805  13.132  65.587  1.00  0.00    -0.387 C  
HETATM   15  H1  UNL     1     -11.875  14.735  64.478  1.00  0.00     0.000 HD 
HETATM   16  O   UNL     1     -12.864  12.690  65.171  1.00  0.00    -0.721 OA 
HETATM   17  N   UNL     1     -11.270  14.299  65.174  1.00  0.00    -0.328 N  
HETATM   18  H2  UNL     1     -10.390  14.690  65.509  1.00  0.00     0.000 HD 
ENDBRANCH  13  14
ENDBRANCH  12  13
ENDBRANCH   4  12
TORSDOF 5
ENDMDL
MODEL      155
REMARK 921   NORMALIZED FREE ENERGY PREDICTED BY IDOCK:   -3.31 KCAL/MOL
REMARK 922        TOTAL FREE ENERGY PREDICTED BY IDOCK:   -4.47 KCAL/MOL
REMARK 923 INTER-LIGAND FREE ENERGY PREDICTED BY IDOCK:   -4.17 KCAL/MOL
REMARK 924 INTRA-LIGAND FREE ENERGY PREDICTED BY IDOCK:   -0.30 KCAL/MOL
REMARK 927      BINDING AFFINITY PREDICTED BY RF-SCORE:    0.00 PKD
ROOT
HETATM    1  N   UNL     1      -8.870   8.363  65.096  1.00  0.00    -0.394 NA 
HETATM    2  H1  UNL     1      -8.440   7.553  65.544  1.00  0.00     0.000 HD 
HETATM    3  H2  UNL     1      -8.198   8.896  64.544  1.00  0.00     0.000 HD 
HETATM    4  C   UNL     1      -9.545   9.203  66.109  1.00  0.00    -0.266 C  
ENDROOT
BRANCH   4   5
HETATM    5  C   UNL     1     -10.599   8.400  66.909  1.00  0.00    -0.285 C  
BRANCH   5   6
HETATM    6  C   UNL     1     -10.504   8.603  68.406  1.00  0.00    -0.220 A  
HETATM    7  C   UNL     1     -10.161   9.047  71.156  1.00  0.00    -0.363 A  
HETATM    8  C   UNL     1      -9.976   7.598  69.229  1.00  0.00    -0.180 A  
HETATM    9  C   UNL     1     -10.902   9.814  68.988  1.00  0.00    -0.223 A  
HETATM   10  C   UNL     1     -10.722  10.039  70.353  1.00  0.00    -0.369 A  
HETATM   11  C   UNL     1      -9.803   7.822  70.597  1.00  0.00    -0.182 A  
ENDBRANCH   5   6
ENDBRANCH   4   5
BRANCH   4  12
HETATM   12  C   UNL     1     -10.197  10.428  65.432  1.00  0.00    -0.259 C  
BRANCH  12  13
HETATM   13  O   UNL     1     -10.018  11.612  66.236  1.00  0.00    -0.207 OA 
BRANCH  13  14
HETATM   14  C   UNL     1     -11.039  12.497  66.186  1.00  0.00    -0.298 C  
HETATM   15  H1  UNL     1     -11.348  14.416  66.351  1.00  0.00     0.000 HD 
HETATM   16  O   UNL     1     -12.215  12.235  65.993  1.00  0.00    -0.646 OA 
HETATM   17  N   UNL     1     -10.578  13.749  66.388  1.00  0.00    -0.281 N  
HETATM   18  H2  UNL     1      -9.602  13.992  66.553  1.00  0.00     0.000 HD 
ENDBRANCH  13  14
ENDBRANCH  12  13
ENDBRANCH   4  12
TORSDOF 5
ENDMDL
MODEL      156
REMARK 921   NORMALIZED FREE ENERGY PREDICTED BY IDOCK:   -3.31 KCAL/MOL
REMARK 922        TOTAL FREE ENERGY PREDICTED BY IDOCK:   -4.47 KCAL/MOL
REMARK 923 INTER-LIGAND FREE ENERGY PREDICTED BY IDOCK:   -4.11 KCAL/MOL
REMARK 924 INTRA-LIGAND FREE ENERGY PREDICTED BY IDOCK:   -0.36 KCAL/MOL
REMARK 927      BINDING AFFINITY PREDICTED BY RF-SCORE:    0.00 PKD
ROOT
HETATM    1  N   UNL     1     -12.546  14.233  66.651  1.00  0.00    -0.495 NA 
HETATM    2  H1  UNL     1     -13.279  14.120  67.351  1.00  0.00     0.000 HD 
HETATM    3  H2  UNL     1     -12.928  14.453  65.730  1.00  0.00     0.000 HD 
HETATM    4  C   UNL     1     -11.683  13.033  66.621  1.00  0.00    -0.381 C  
ENDROOT
BRANCH   4   5
HETATM    5  C   UNL     1     -11.067  12.735  68.008  1.00  0.00    -0.284 C  
BRANCH   5   6
HETATM    6  C   UNL     1     -10.340  11.408  68.074  1.00  0.00    -0.204 A  
HETATM    7  C   UNL     1      -9.051   8.934  68.366  1.00  0.00    -0.137 A  
HETATM    8  C   UNL     1      -9.009  11.346  68.508  1.00  0.00    -0.158 A  
HETATM    9  C   UNL     1     -10.999  10.217  67.742  1.00  0.00    -0.338 A  
HETATM   10  C   UNL     1     -10.362   8.986  67.897  1.00  0.00    -0.290 A  
HETATM   11  C   UNL     1      -8.369  10.114  68.657  1.00  0.00    -0.116 A  
ENDBRANCH   5   6
ENDBRANCH   4   5
BRANCH   4  12
HETATM   12  C   UNL     1     -10.573  13.205  65.561  1.00  0.00    -0.288 C  
BRANCH  12  13
HETATM   13  O   UNL     1     -10.978  12.634  64.300  1.00  0.00    -0.319 OA 
BRANCH  13  14
HETATM   14  C   UNL     1     -10.337  11.493  63.957  1.00  0.00    -0.355 C  
HETATM   15  H1  UNL     1      -8.988  10.872  62.691  1.00  0.00     0.000 HD 
HETATM   16  O   UNL     1     -10.496  10.394  64.461  1.00  0.00    -0.249 OA 
HETATM   17  N   UNL     1      -9.471  11.732  62.950  1.00  0.00    -0.500 N  
HETATM   18  H2  UNL     1      -9.322  12.641  62.511  1.00  0.00     0.000 HD 
ENDBRANCH  13  14
ENDBRANCH  12  13
ENDBRANCH   4  12
TORSDOF 5
ENDMDL
MODEL      157
REMARK 921   NORMALIZED FREE ENERGY PREDICTED BY IDOCK:   -3.30 KCAL/MOL
REMARK 922        TOTAL FREE ENERGY PREDICTED BY IDOCK:   -4.46 KCAL/MOL
REMARK 923 INTER-LIGAND FREE ENERGY PREDICTED BY IDOCK:   -4.22 KCAL/MOL
REMARK 924 INTRA-LIGAND FREE ENERGY PREDICTED BY IDOCK:   -0.24 KCAL/MOL
REMARK 927      BINDING AFFINITY PREDICTED BY RF-SCORE:    0.00 PKD
ROOT
HETATM    1  N   UNL     1     -12.219  10.836  68.517  1.00  0.00    -0.822 NA 
HETATM    2  H1  UNL     1     -12.710  11.160  69.350  1.00  0.00     0.000 HD 
HETATM    3  H2  UNL     1     -11.700   9.974  68.689  1.00  0.00     0.000 HD 
HETATM    4  C   UNL     1     -11.349  11.911  67.992  1.00  0.00    -0.288 C  
ENDROOT
BRANCH   4   5
HETATM    5  C   UNL     1     -12.150  13.198  67.684  1.00  0.00    -0.281 C  
BRANCH   5   6
HETATM    6  C   UNL     1     -11.471  14.462  68.169  1.00  0.00    -0.337 A  
HETATM    7  C   UNL     1     -10.351  16.898  68.996  1.00  0.00    -0.333 A  
HETATM    8  C   UNL     1     -10.564  15.144  67.346  1.00  0.00    -0.271 A  
HETATM    9  C   UNL     1     -11.771  14.993  69.431  1.00  0.00    -0.351 A  
HETATM   10  C   UNL     1     -11.223  16.209  69.838  1.00  0.00    -0.349 A  
HETATM   11  C   UNL     1     -10.011  16.358  67.757  1.00  0.00    -0.248 A  
ENDBRANCH   5   6
ENDBRANCH   4   5
BRANCH   4  12
HETATM   12  C   UNL     1     -10.605  11.421  66.730  1.00  0.00    -0.255 C  
BRANCH  12  13
HETATM   13  O   UNL     1      -9.413  10.693  67.089  1.00  0.00    -0.154 OA 
BRANCH  13  14
HETATM   14  C   UNL     1      -9.214   9.546  66.401  1.00  0.00    -0.166 C  
HETATM   15  H1  UNL     1      -8.433   7.777  66.659  1.00  0.00     0.000 HD 
HETATM   16  O   UNL     1      -9.541   9.330  65.246  1.00  0.00    -0.242 OA 
HETATM   17  N   UNL     1      -8.583   8.642  67.178  1.00  0.00    -0.120 N  
HETATM   18  H2  UNL     1      -8.298   8.800  68.145  1.00  0.00     0.000 HD 
ENDBRANCH  13  14
ENDBRANCH  12  13
ENDBRANCH   4  12
TORSDOF 5
ENDMDL
MODEL      158
REMARK 921   NORMALIZED FREE ENERGY PREDICTED BY IDOCK:   -3.28 KCAL/MOL
REMARK 922        TOTAL FREE ENERGY PREDICTED BY IDOCK:   -4.44 KCAL/MOL
REMARK 923 INTER-LIGAND FREE ENERGY PREDICTED BY IDOCK:   -4.18 KCAL/MOL
REMARK 924 INTRA-LIGAND FREE ENERGY PREDICTED BY IDOCK:   -0.26 KCAL/MOL
REMARK 927      BINDING AFFINITY PREDICTED BY RF-SCORE:    0.00 PKD
ROOT
HETATM    1  N   UNL     1      -7.571  14.282  67.434  1.00  0.00    -0.245 NA 
HETATM    2  H1  UNL     1      -8.239  13.520  67.324  1.00  0.00     0.000 HD 
HETATM    3  H2  UNL     1      -6.978  14.156  68.256  1.00  0.00     0.000 HD 
HETATM    4  C   UNL     1      -8.281  15.580  67.457  1.00  0.00    -0.163 C  
ENDROOT
BRANCH   4   5
HETATM    5  C   UNL     1      -9.137  15.787  66.186  1.00  0.00    -0.377 C  
BRANCH   5   6
HETATM    6  C   UNL     1     -10.097  14.649  65.912  1.00  0.00    -0.341 A  
HETATM    7  C   UNL     1     -11.752  12.426  65.474  1.00  0.00    -0.459 A  
HETATM    8  C   UNL     1     -10.048  13.954  64.695  1.00  0.00    -0.144 A  
HETATM    9  C   UNL     1     -11.020  14.244  66.885  1.00  0.00    -0.304 A  
HETATM   10  C   UNL     1     -11.835  13.132  66.672  1.00  0.00    -0.449 A  
HETATM   11  C   UNL     1     -10.870  12.846  64.480  1.00  0.00    -0.385 A  
ENDBRANCH   5   6
ENDBRANCH   4   5
BRANCH   4  12
HETATM   12  C   UNL     1      -7.268  16.734  67.623  1.00  0.00    -0.143 C  
BRANCH  12  13
HETATM   13  O   UNL     1      -7.866  17.994  67.256  1.00  0.00    -0.209 OA 
BRANCH  13  14
HETATM   14  C   UNL     1      -8.027  18.870  68.274  1.00  0.00    -0.310 C  
HETATM   15  H1  UNL     1      -6.956  20.049  69.400  1.00  0.00     0.000 HD 
HETATM   16  O   UNL     1      -9.080  19.166  68.814  1.00  0.00    -0.363 OA 
HETATM   17  N   UNL     1      -6.835  19.389  68.633  1.00  0.00    -0.290 N  
HETATM   18  H2  UNL     1      -5.941  19.156  68.198  1.00  0.00     0.000 HD 
ENDBRANCH  13  14
ENDBRANCH  12  13
ENDBRANCH   4  12
TORSDOF 5
ENDMDL
MODEL      159
REMARK 921   NORMALIZED FREE ENERGY PREDICTED BY IDOCK:   -3.27 KCAL/MOL
REMARK 922        TOTAL FREE ENERGY PREDICTED BY IDOCK:   -4.43 KCAL/MOL
REMARK 923 INTER-LIGAND FREE ENERGY PREDICTED BY IDOCK:   -4.42 KCAL/MOL
REMARK 924 INTRA-LIGAND FREE ENERGY PREDICTED BY IDOCK:   -0.01 KCAL/MOL
REMARK 927      BINDING AFFINITY PREDICTED BY RF-SCORE:    0.00 PKD
ROOT
HETATM    1  N   UNL     1     -12.594   6.219  72.500  1.00  0.00    -0.505 NA 
HETATM    2  H1  UNL     1     -12.932   5.343  72.102  1.00  0.00     0.000 HD 
HETATM    3  H2  UNL     1     -13.164   6.527  73.288  1.00  0.00     0.000 HD 
HETATM    4  C   UNL     1     -12.500   7.252  71.446  1.00  0.00    -0.383 C  
ENDROOT
BRANCH   4   5
HETATM    5  C   UNL     1     -11.593   6.799  70.278  1.00  0.00    -0.417 C  
BRANCH   5   6
HETATM    6  C   UNL     1     -10.328   6.101  70.731  1.00  0.00    -0.266 A  
HETATM    7  C   UNL     1      -8.067   4.773  71.729  1.00  0.00    -0.108 A  
HETATM    8  C   UNL     1      -9.323   6.812  71.401  1.00  0.00    -0.157 A  
HETATM    9  C   UNL     1     -10.161   4.725  70.526  1.00  0.00    -0.291 A  
HETATM   10  C   UNL     1      -9.042   4.063  71.031  1.00  0.00    -0.179 A  
HETATM   11  C   UNL     1      -8.200   6.150  71.900  1.00  0.00    -0.114 A  
ENDBRANCH   5   6
ENDBRANCH   4   5
BRANCH   4  12
HETATM   12  C   UNL     1     -11.987   8.578  72.048  1.00  0.00    -0.361 C  
BRANCH  12  13
HETATM   13  O   UNL     1     -11.832   9.579  71.021  1.00  0.00    -0.291 OA 
BRANCH  13  14
HETATM   14  C   UNL     1     -12.461  10.751  71.265  1.00  0.00    -0.399 C  
HETATM   15  H1  UNL     1     -12.358  12.627  70.740  1.00  0.00     0.000 HD 
HETATM   16  O   UNL     1     -13.410  10.921  72.013  1.00  0.00    -0.448 OA 
HETATM   17  N   UNL     1     -11.884  11.744  70.556  1.00  0.00    -0.500 N  
HETATM   18  H2  UNL     1     -11.089  11.627  69.928  1.00  0.00     0.000 HD 
ENDBRANCH  13  14
ENDBRANCH  12  13
ENDBRANCH   4  12
TORSDOF 5
ENDMDL
MODEL      160
REMARK 921   NORMALIZED FREE ENERGY PREDICTED BY IDOCK:   -3.27 KCAL/MOL
REMARK 922        TOTAL FREE ENERGY PREDICTED BY IDOCK:   -4.42 KCAL/MOL
REMARK 923 INTER-LIGAND FREE ENERGY PREDICTED BY IDOCK:   -4.34 KCAL/MOL
REMARK 924 INTRA-LIGAND FREE ENERGY PREDICTED BY IDOCK:   -0.08 KCAL/MOL
REMARK 927      BINDING AFFINITY PREDICTED BY RF-SCORE:    0.00 PKD
ROOT
HETATM    1  N   UNL     1     -10.840   8.599  67.985  1.00  0.00    -0.477 NA 
HETATM    2  H1  UNL     1     -10.905   7.589  68.107  1.00  0.00     0.000 HD 
HETATM    3  H2  UNL     1     -10.801   8.864  67.000  1.00  0.00     0.000 HD 
HETATM    4  C   UNL     1      -9.687   9.128  68.746  1.00  0.00    -0.162 C  
ENDROOT
BRANCH   4   5
HETATM    5  C   UNL     1      -9.777   8.767  70.248  1.00  0.00    -0.198 C  
BRANCH   5   6
HETATM    6  C   UNL     1     -11.198   8.614  70.748  1.00  0.00    -0.298 A  
HETATM    7  C   UNL     1     -13.768   8.354  71.844  1.00  0.00    -0.433 A  
HETATM    8  C   UNL     1     -11.702   7.351  71.090  1.00  0.00    -0.322 A  
HETATM    9  C   UNL     1     -12.019   9.738  70.918  1.00  0.00    -0.413 A  
HETATM   10  C   UNL     1     -13.292   9.610  71.472  1.00  0.00    -0.468 A  
HETATM   11  C   UNL     1     -12.979   7.223  71.638  1.00  0.00    -0.417 A  
ENDBRANCH   5   6
ENDBRANCH   4   5
BRANCH   4  12
HETATM   12  C   UNL     1      -9.588  10.658  68.562  1.00  0.00    -0.175 C  
BRANCH  12  13
HETATM   13  O   UNL     1     -10.380  11.090  67.437  1.00  0.00    -0.191 OA 
BRANCH  13  14
HETATM   14  C   UNL     1      -9.670  11.457  66.346  1.00  0.00    -0.204 C  
HETATM   15  H1  UNL     1      -8.241  12.689  65.851  1.00  0.00     0.000 HD 
HETATM   16  O   UNL     1      -9.797  11.012  65.217  1.00  0.00    -0.228 OA 
HETATM   17  N   UNL     1      -8.776  12.412  66.673  1.00  0.00    -0.356 N  
HETATM   18  H2  UNL     1      -8.653  12.802  67.608  1.00  0.00     0.000 HD 
ENDBRANCH  13  14
ENDBRANCH  12  13
ENDBRANCH   4  12
TORSDOF 5
ENDMDL
MODEL      161
REMARK 921   NORMALIZED FREE ENERGY PREDICTED BY IDOCK:   -3.26 KCAL/MOL
REMARK 922        TOTAL FREE ENERGY PREDICTED BY IDOCK:   -4.42 KCAL/MOL
REMARK 923 INTER-LIGAND FREE ENERGY PREDICTED BY IDOCK:   -4.14 KCAL/MOL
REMARK 924 INTRA-LIGAND FREE ENERGY PREDICTED BY IDOCK:   -0.28 KCAL/MOL
REMARK 927      BINDING AFFINITY PREDICTED BY RF-SCORE:    0.00 PKD
ROOT
HETATM    1  N   UNL     1     -10.364   9.780  67.930  1.00  0.00    -0.198 NA 
HETATM    2  H1  UNL     1     -10.031   8.923  68.372  1.00  0.00     0.000 HD 
HETATM    3  H2  UNL     1      -9.694  10.145  67.252  1.00  0.00     0.000 HD 
HETATM    4  C   UNL     1     -10.710  10.782  68.962  1.00  0.00    -0.228 C  
ENDROOT
BRANCH   4   5
HETATM    5  C   UNL     1     -11.763  10.240  69.957  1.00  0.00    -0.330 C  
BRANCH   5   6
HETATM    6  C   UNL     1     -11.213   9.202  70.912  1.00  0.00    -0.359 A  
HETATM    7  C   UNL     1     -10.249   7.383  72.819  1.00  0.00    -0.287 A  
HETATM    8  C   UNL     1      -9.890   9.284  71.369  1.00  0.00    -0.296 A  
HETATM    9  C   UNL     1     -12.030   8.167  71.387  1.00  0.00    -0.330 A  
HETATM   10  C   UNL     1     -11.554   7.269  72.343  1.00  0.00    -0.307 A  
HETATM   11  C   UNL     1      -9.413   8.381  72.321  1.00  0.00    -0.367 A  
ENDBRANCH   5   6
ENDBRANCH   4   5
BRANCH   4  12
HETATM   12  C   UNL     1     -11.214  12.079  68.293  1.00  0.00    -0.261 C  
BRANCH  12  13
HETATM   13  O   UNL     1     -12.139  12.772  69.155  1.00  0.00    -0.261 OA 
BRANCH  13  14
HETATM   14  C   UNL     1     -11.878  14.087  69.334  1.00  0.00    -0.333 C  
HETATM   15  H1  UNL     1     -10.729  15.239  70.411  1.00  0.00     0.000 HD 
HETATM   16  O   UNL     1     -12.410  15.017  68.748  1.00  0.00    -0.124 OA 
HETATM   17  N   UNL     1     -10.926  14.248  70.276  1.00  0.00    -0.460 N  
HETATM   18  H2  UNL     1     -10.469  13.488  70.780  1.00  0.00     0.000 HD 
ENDBRANCH  13  14
ENDBRANCH  12  13
ENDBRANCH   4  12
TORSDOF 5
ENDMDL
MODEL      162
REMARK 921   NORMALIZED FREE ENERGY PREDICTED BY IDOCK:   -3.26 KCAL/MOL
REMARK 922        TOTAL FREE ENERGY PREDICTED BY IDOCK:   -4.41 KCAL/MOL
REMARK 923 INTER-LIGAND FREE ENERGY PREDICTED BY IDOCK:   -4.11 KCAL/MOL
REMARK 924 INTRA-LIGAND FREE ENERGY PREDICTED BY IDOCK:   -0.31 KCAL/MOL
REMARK 927      BINDING AFFINITY PREDICTED BY RF-SCORE:    0.00 PKD
ROOT
HETATM    1  N   UNL     1      -8.708  14.392  67.244  1.00  0.00    -0.203 NA 
HETATM    2  H1  UNL     1      -8.660  13.421  67.553  1.00  0.00     0.000 HD 
HETATM    3  H2  UNL     1      -7.921  14.942  67.591  1.00  0.00     0.000 HD 
HETATM    4  C   UNL     1     -10.009  14.983  67.626  1.00  0.00    -0.225 C  
ENDROOT
BRANCH   4   5
HETATM    5  C   UNL     1     -11.196  14.172  67.054  1.00  0.00    -0.328 C  
BRANCH   5   6
HETATM    6  C   UNL     1     -11.426  12.855  67.764  1.00  0.00    -0.369 A  
HETATM    7  C   UNL     1     -11.683  10.425  69.143  1.00  0.00    -0.191 A  
HETATM    8  C   UNL     1     -11.120  11.642  67.132  1.00  0.00    -0.354 A  
HETATM    9  C   UNL     1     -11.909  12.829  69.079  1.00  0.00    -0.344 A  
HETATM   10  C   UNL     1     -12.027  11.622  69.768  1.00  0.00    -0.402 A  
HETATM   11  C   UNL     1     -11.245  10.434  67.820  1.00  0.00    -0.309 A  
ENDBRANCH   5   6
ENDBRANCH   4   5
BRANCH   4  12
HETATM   12  C   UNL     1     -10.081  16.453  67.158  1.00  0.00    -0.271 C  
BRANCH  12  13
HETATM   13  O   UNL     1      -8.792  17.090  67.274  1.00  0.00    -0.206 OA 
BRANCH  13  14
HETATM   14  C   UNL     1      -8.656  17.916  68.336  1.00  0.00    -0.293 C  
HETATM   15  H1  UNL     1      -7.300  18.461  69.628  1.00  0.00     0.000 HD 
HETATM   16  O   UNL     1      -9.521  18.637  68.807  1.00  0.00    -0.340 OA 
HETATM   17  N   UNL     1      -7.402  17.838  68.827  1.00  0.00    -0.271 N  
HETATM   18  H2  UNL     1      -6.664  17.242  68.453  1.00  0.00     0.000 HD 
ENDBRANCH  13  14
ENDBRANCH  12  13
ENDBRANCH   4  12
TORSDOF 5
ENDMDL
MODEL      163
REMARK 921   NORMALIZED FREE ENERGY PREDICTED BY IDOCK:   -3.25 KCAL/MOL
REMARK 922        TOTAL FREE ENERGY PREDICTED BY IDOCK:   -4.40 KCAL/MOL
REMARK 923 INTER-LIGAND FREE ENERGY PREDICTED BY IDOCK:   -4.18 KCAL/MOL
REMARK 924 INTRA-LIGAND FREE ENERGY PREDICTED BY IDOCK:   -0.22 KCAL/MOL
REMARK 927      BINDING AFFINITY PREDICTED BY RF-SCORE:    0.00 PKD
ROOT
HETATM    1  N   UNL     1      -8.994  12.034  65.898  1.00  0.00    -0.414 NA 
HETATM    2  H1  UNL     1      -8.005  11.814  66.015  1.00  0.00     0.000 HD 
HETATM    3  H2  UNL     1      -9.277  12.018  64.918  1.00  0.00     0.000 HD 
HETATM    4  C   UNL     1      -9.306  13.328  66.543  1.00  0.00    -0.213 C  
ENDROOT
BRANCH   4   5
HETATM    5  C   UNL     1      -8.922  13.329  68.042  1.00  0.00    -0.191 C  
BRANCH   5   6
HETATM    6  C   UNL     1      -7.789  14.276  68.375  1.00  0.00    -0.140 A  
HETATM    7  C   UNL     1      -5.711  16.106  68.830  1.00  0.00    -0.109 A  
HETATM    8  C   UNL     1      -6.466  13.947  68.048  1.00  0.00    -0.147 A  
HETATM    9  C   UNL     1      -8.048  15.514  68.978  1.00  0.00    -0.220 A  
HETATM   10  C   UNL     1      -7.017  16.428  69.194  1.00  0.00    -0.218 A  
HETATM   11  C   UNL     1      -5.434  14.860  68.271  1.00  0.00    -0.116 A  
ENDBRANCH   5   6
ENDBRANCH   4   5
BRANCH   4  12
HETATM   12  C   UNL     1     -10.803  13.661  66.367  1.00  0.00    -0.290 C  
BRANCH  12  13
HETATM   13  O   UNL     1     -11.263  13.270  65.057  1.00  0.00    -0.294 OA 
BRANCH  13  14
HETATM   14  C   UNL     1     -11.839  14.258  64.334  1.00  0.00    -0.426 C  
HETATM   15  H1  UNL     1     -11.748  16.197  64.136  1.00  0.00     0.000 HD 
HETATM   16  O   UNL     1     -12.709  14.124  63.490  1.00  0.00    -0.794 OA 
HETATM   17  N   UNL     1     -11.314  15.452  64.680  1.00  0.00    -0.607 N  
HETATM   18  H2  UNL     1     -10.589  15.590  65.384  1.00  0.00     0.000 HD 
ENDBRANCH  13  14
ENDBRANCH  12  13
ENDBRANCH   4  12
TORSDOF 5
ENDMDL
MODEL      164
REMARK 921   NORMALIZED FREE ENERGY PREDICTED BY IDOCK:   -3.25 KCAL/MOL
REMARK 922        TOTAL FREE ENERGY PREDICTED BY IDOCK:   -4.40 KCAL/MOL
REMARK 923 INTER-LIGAND FREE ENERGY PREDICTED BY IDOCK:   -3.94 KCAL/MOL
REMARK 924 INTRA-LIGAND FREE ENERGY PREDICTED BY IDOCK:   -0.45 KCAL/MOL
REMARK 927      BINDING AFFINITY PREDICTED BY RF-SCORE:    0.00 PKD
ROOT
HETATM    1  N   UNL     1     -10.433  11.313  68.473  1.00  0.00    -0.189 NA 
HETATM    2  H1  UNL     1      -9.735  11.236  67.733  1.00  0.00     0.000 HD 
HETATM    3  H2  UNL     1     -10.383  12.212  68.954  1.00  0.00     0.000 HD 
HETATM    4  C   UNL     1     -10.308  10.176  69.410  1.00  0.00    -0.232 C  
ENDROOT
BRANCH   4   5
HETATM    5  C   UNL     1     -10.435   8.817  68.682  1.00  0.00    -0.213 C  
BRANCH   5   6
HETATM    6  C   UNL     1     -10.075   7.630  69.551  1.00  0.00    -0.192 A  
HETATM    7  C   UNL     1      -9.337   5.353  71.015  1.00  0.00    -0.188 A  
HETATM    8  C   UNL     1     -10.969   6.561  69.702  1.00  0.00    -0.394 A  
HETATM    9  C   UNL     1      -8.827   7.563  70.184  1.00  0.00    -0.147 A  
HETATM   10  C   UNL     1      -8.456   6.426  70.903  1.00  0.00    -0.131 A  
HETATM   11  C   UNL     1     -10.599   5.426  70.428  1.00  0.00    -0.322 A  
ENDBRANCH   5   6
ENDBRANCH   4   5
BRANCH   4  12
HETATM   12  C   UNL     1     -11.366  10.292  70.529  1.00  0.00    -0.341 C  
BRANCH  12  13
HETATM   13  O   UNL     1     -12.410  11.212  70.151  1.00  0.00    -0.304 OA 
BRANCH  13  14
HETATM   14  C   UNL     1     -12.612  12.234  71.014  1.00  0.00    -0.257 C  
HETATM   15  H1  UNL     1     -12.066  14.089  71.271  1.00  0.00     0.000 HD 
HETATM   16  O   UNL     1     -13.313  12.210  72.013  1.00  0.00    -0.503 OA 
HETATM   17  N   UNL     1     -11.914  13.319  70.621  1.00  0.00    -0.532 N  
HETATM   18  H2  UNL     1     -11.320  13.363  69.792  1.00  0.00     0.000 HD 
ENDBRANCH  13  14
ENDBRANCH  12  13
ENDBRANCH   4  12
TORSDOF 5
ENDMDL
MODEL      165
REMARK 921   NORMALIZED FREE ENERGY PREDICTED BY IDOCK:   -3.23 KCAL/MOL
REMARK 922        TOTAL FREE ENERGY PREDICTED BY IDOCK:   -4.37 KCAL/MOL
REMARK 923 INTER-LIGAND FREE ENERGY PREDICTED BY IDOCK:   -4.36 KCAL/MOL
REMARK 924 INTRA-LIGAND FREE ENERGY PREDICTED BY IDOCK:   -0.01 KCAL/MOL
REMARK 927      BINDING AFFINITY PREDICTED BY RF-SCORE:    0.00 PKD
ROOT
HETATM    1  N   UNL     1      -8.990  14.035  66.325  1.00  0.00    -0.484 NA 
HETATM    2  H1  UNL     1      -8.106  13.928  66.823  1.00  0.00     0.000 HD 
HETATM    3  H2  UNL     1      -8.969  14.818  65.671  1.00  0.00     0.000 HD 
HETATM    4  C   UNL     1     -10.105  14.150  67.290  1.00  0.00    -0.256 C  
ENDROOT
BRANCH   4   5
HETATM    5  C   UNL     1     -10.163  12.935  68.246  1.00  0.00    -0.245 C  
BRANCH   5   6
HETATM    6  C   UNL     1      -9.031  11.950  68.041  1.00  0.00    -0.185 A  
HETATM    7  C   UNL     1      -7.000  10.030  67.800  1.00  0.00    -0.085 A  
HETATM    8  C   UNL     1      -7.818  12.107  68.726  1.00  0.00    -0.017 A  
HETATM    9  C   UNL     1      -9.193  10.844  67.197  1.00  0.00    -0.159 A  
HETATM   10  C   UNL     1      -8.187   9.883  67.085  1.00  0.00    -0.121 A  
HETATM   11  C   UNL     1      -6.809  11.149  68.608  1.00  0.00    -0.070 A  
ENDBRANCH   5   6
ENDBRANCH   4   5
BRANCH   4  12
HETATM   12  C   UNL     1     -11.444  14.310  66.537  1.00  0.00    -0.360 C  
BRANCH  12  13
HETATM   13  O   UNL     1     -11.282  14.004  65.137  1.00  0.00    -0.307 OA 
BRANCH  13  14
HETATM   14  C   UNL     1     -12.422  13.673  64.488  1.00  0.00    -0.287 C  
HETATM   15  H1  UNL     1     -13.493  14.274  62.973  1.00  0.00     0.000 HD 
HETATM   16  O   UNL     1     -13.172  12.752  64.767  1.00  0.00    -0.812 OA 
HETATM   17  N   UNL     1     -12.634  14.522  63.462  1.00  0.00    -0.977 N  
HETATM   18  H2  UNL     1     -12.024  15.300  63.211  1.00  0.00     0.000 HD 
ENDBRANCH  13  14
ENDBRANCH  12  13
ENDBRANCH   4  12
TORSDOF 5
ENDMDL
MODEL      166
REMARK 921   NORMALIZED FREE ENERGY PREDICTED BY IDOCK:   -3.21 KCAL/MOL
REMARK 922        TOTAL FREE ENERGY PREDICTED BY IDOCK:   -4.34 KCAL/MOL
REMARK 923 INTER-LIGAND FREE ENERGY PREDICTED BY IDOCK:   -4.15 KCAL/MOL
REMARK 924 INTRA-LIGAND FREE ENERGY PREDICTED BY IDOCK:   -0.19 KCAL/MOL
REMARK 927      BINDING AFFINITY PREDICTED BY RF-SCORE:    0.00 PKD
ROOT
HETATM    1  N   UNL     1      -7.885  14.388  67.131  1.00  0.00    -0.346 NA 
HETATM    2  H1  UNL     1      -8.310  13.585  66.667  1.00  0.00     0.000 HD 
HETATM    3  H2  UNL     1      -7.323  14.111  67.936  1.00  0.00     0.000 HD 
HETATM    4  C   UNL     1      -8.926  15.374  67.495  1.00  0.00    -0.183 C  
ENDROOT
BRANCH   4   5
HETATM    5  C   UNL     1      -9.741  15.828  66.261  1.00  0.00    -0.328 C  
BRANCH   5   6
HETATM    6  C   UNL     1     -10.793  14.828  65.830  1.00  0.00    -0.334 A  
HETATM    7  C   UNL     1     -12.607  12.869  64.968  1.00  0.00    -0.538 A  
HETATM    8  C   UNL     1     -11.355  14.894  64.548  1.00  0.00    -0.306 A  
HETATM    9  C   UNL     1     -11.189  13.795  66.690  1.00  0.00    -0.327 A  
HETATM   10  C   UNL     1     -12.083  12.815  66.258  1.00  0.00    -0.400 A  
HETATM   11  C   UNL     1     -12.256  13.917  64.118  1.00  0.00    -0.436 A  
ENDBRANCH   5   6
ENDBRANCH   4   5
BRANCH   4  12
HETATM   12  C   UNL     1      -8.282  16.589  68.197  1.00  0.00    -0.181 C  
BRANCH  12  13
HETATM   13  O   UNL     1      -7.690  16.200  69.452  1.00  0.00    -0.236 OA 
BRANCH  13  14
HETATM   14  C   UNL     1      -6.339  16.252  69.488  1.00  0.00    -0.195 C  
HETATM   15  H1  UNL     1      -4.908  17.573  69.607  1.00  0.00     0.000 HD 
HETATM   16  O   UNL     1      -5.576  15.301  69.442  1.00  0.00    -0.096 OA 
HETATM   17  N   UNL     1      -5.926  17.533  69.580  1.00  0.00    -0.243 N  
HETATM   18  H2  UNL     1      -6.543  18.345  69.618  1.00  0.00     0.000 HD 
ENDBRANCH  13  14
ENDBRANCH  12  13
ENDBRANCH   4  12
TORSDOF 5
ENDMDL
MODEL      167
REMARK 921   NORMALIZED FREE ENERGY PREDICTED BY IDOCK:   -3.20 KCAL/MOL
REMARK 922        TOTAL FREE ENERGY PREDICTED BY IDOCK:   -4.33 KCAL/MOL
REMARK 923 INTER-LIGAND FREE ENERGY PREDICTED BY IDOCK:   -4.00 KCAL/MOL
REMARK 924 INTRA-LIGAND FREE ENERGY PREDICTED BY IDOCK:   -0.33 KCAL/MOL
REMARK 927      BINDING AFFINITY PREDICTED BY RF-SCORE:    0.00 PKD
ROOT
HETATM    1  N   UNL     1     -10.378   4.327  66.573  1.00  0.00    -0.328 NA 
HETATM    2  H1  UNL     1     -10.830   3.691  67.229  1.00  0.00     0.000 HD 
HETATM    3  H2  UNL     1      -9.663   3.858  66.015  1.00  0.00     0.000 HD 
HETATM    4  C   UNL     1      -9.835   5.499  67.294  1.00  0.00    -0.150 C  
ENDROOT
BRANCH   4   5
HETATM    5  C   UNL     1     -10.933   6.236  68.098  1.00  0.00    -0.412 C  
BRANCH   5   6
HETATM    6  C   UNL     1     -10.934   5.895  69.573  1.00  0.00    -0.438 A  
HETATM    7  C   UNL     1     -10.805   5.389  72.330  1.00  0.00    -0.286 A  
HETATM    8  C   UNL     1     -10.079   4.904  70.076  1.00  0.00    -0.337 A  
HETATM    9  C   UNL     1     -11.757   6.594  70.466  1.00  0.00    -0.453 A  
HETATM   10  C   UNL     1     -11.686   6.350  71.837  1.00  0.00    -0.378 A  
HETATM   11  C   UNL     1     -10.013   4.656  71.448  1.00  0.00    -0.267 A  
ENDBRANCH   5   6
ENDBRANCH   4   5
BRANCH   4  12
HETATM   12  C   UNL     1      -9.152   6.464  66.301  1.00  0.00    -0.151 C  
BRANCH  12  13
HETATM   13  O   UNL     1      -8.460   7.515  67.004  1.00  0.00    -0.118 OA 
BRANCH  13  14
HETATM   14  C   UNL     1      -8.549   8.739  66.434  1.00  0.00    -0.128 C  
HETATM   15  H1  UNL     1      -9.698   9.721  65.201  1.00  0.00     0.000 HD 
HETATM   16  O   UNL     1      -7.780   9.672  66.599  1.00  0.00    -0.097 OA 
HETATM   17  N   UNL     1      -9.631   8.799  65.631  1.00  0.00    -0.458 N  
HETATM   18  H2  UNL     1     -10.286   8.033  65.475  1.00  0.00     0.000 HD 
ENDBRANCH  13  14
ENDBRANCH  12  13
ENDBRANCH   4  12
TORSDOF 5
ENDMDL
MODEL      168
REMARK 921   NORMALIZED FREE ENERGY PREDICTED BY IDOCK:   -3.20 KCAL/MOL
REMARK 922        TOTAL FREE ENERGY PREDICTED BY IDOCK:   -4.33 KCAL/MOL
REMARK 923 INTER-LIGAND FREE ENERGY PREDICTED BY IDOCK:   -4.06 KCAL/MOL
REMARK 924 INTRA-LIGAND FREE ENERGY PREDICTED BY IDOCK:   -0.27 KCAL/MOL
REMARK 927      BINDING AFFINITY PREDICTED BY RF-SCORE:    0.00 PKD
ROOT
HETATM    1  N   UNL     1      -8.813   7.117  70.167  1.00  0.00    -0.145 NA 
HETATM    2  H1  UNL     1      -8.364   6.324  70.624  1.00  0.00     0.000 HD 
HETATM    3  H2  UNL     1      -8.190   7.922  70.098  1.00  0.00     0.000 HD 
HETATM    4  C   UNL     1     -10.076   7.453  70.860  1.00  0.00    -0.188 C  
ENDROOT
BRANCH   4   5
HETATM    5  C   UNL     1     -11.038   6.243  70.917  1.00  0.00    -0.366 C  
BRANCH   5   6
HETATM    6  C   UNL     1     -10.630   5.194  71.930  1.00  0.00    -0.256 A  
HETATM    7  C   UNL     1     -10.040   3.181  73.794  1.00  0.00    -0.181 A  
HETATM    8  C   UNL     1     -10.825   5.414  73.301  1.00  0.00    -0.345 A  
HETATM    9  C   UNL     1     -10.089   3.971  71.512  1.00  0.00    -0.166 A  
HETATM   10  C   UNL     1      -9.806   2.966  72.437  1.00  0.00    -0.228 A  
HETATM   11  C   UNL     1     -10.535   4.410  74.227  1.00  0.00    -0.313 A  
ENDBRANCH   5   6
ENDBRANCH   4   5
BRANCH   4  12
HETATM   12  C   UNL     1     -10.757   8.654  70.168  1.00  0.00    -0.234 C  
BRANCH  12  13
HETATM   13  O   UNL     1     -11.147   9.648  71.137  1.00  0.00    -0.332 OA 
BRANCH  13  14
HETATM   14  C   UNL     1     -12.468   9.940  71.158  1.00  0.00    -0.368 C  
HETATM   15  H1  UNL     1     -13.876  10.530  69.943  1.00  0.00     0.000 HD 
HETATM   16  O   UNL     1     -13.205   9.888  72.128  1.00  0.00    -0.438 OA 
HETATM   17  N   UNL     1     -12.881  10.310  69.928  1.00  0.00    -0.502 N  
HETATM   18  H2  UNL     1     -12.284  10.363  69.102  1.00  0.00     0.000 HD 
ENDBRANCH  13  14
ENDBRANCH  12  13
ENDBRANCH   4  12
TORSDOF 5
ENDMDL
MODEL      169
REMARK 921   NORMALIZED FREE ENERGY PREDICTED BY IDOCK:   -3.19 KCAL/MOL
REMARK 922        TOTAL FREE ENERGY PREDICTED BY IDOCK:   -4.32 KCAL/MOL
REMARK 923 INTER-LIGAND FREE ENERGY PREDICTED BY IDOCK:   -4.02 KCAL/MOL
REMARK 924 INTRA-LIGAND FREE ENERGY PREDICTED BY IDOCK:   -0.30 KCAL/MOL
REMARK 927      BINDING AFFINITY PREDICTED BY RF-SCORE:    0.00 PKD
ROOT
HETATM    1  N   UNL     1      -8.637   8.944  71.717  1.00  0.00    -0.358 NA 
HETATM    2  H1  UNL     1      -7.725   8.795  71.286  1.00  0.00     0.000 HD 
HETATM    3  H2  UNL     1      -8.913   8.159  72.308  1.00  0.00     0.000 HD 
HETATM    4  C   UNL     1      -9.647   9.238  70.678  1.00  0.00    -0.273 C  
ENDROOT
BRANCH   4   5
HETATM    5  C   UNL     1      -9.247  10.461  69.819  1.00  0.00    -0.004 C  
BRANCH   5   6
HETATM    6  C   UNL     1      -9.443  10.246  68.333  1.00  0.00    -0.149 A  
HETATM    7  C   UNL     1      -9.982   9.811  65.614  1.00  0.00    -0.352 A  
HETATM    8  C   UNL     1      -9.280   8.973  67.770  1.00  0.00    -0.152 A  
HETATM    9  C   UNL     1      -9.833  11.307  67.505  1.00  0.00    -0.195 A  
HETATM   10  C   UNL     1     -10.111  11.089  66.155  1.00  0.00    -0.286 A  
HETATM   11  C   UNL     1      -9.552   8.757  66.417  1.00  0.00    -0.316 A  
ENDBRANCH   5   6
ENDBRANCH   4   5
BRANCH   4  12
HETATM   12  C   UNL     1     -11.029   9.464  71.331  1.00  0.00    -0.373 C  
BRANCH  12  13
HETATM   13  O   UNL     1     -11.983   8.494  70.854  1.00  0.00    -0.271 OA 
BRANCH  13  14
HETATM   14  C   UNL     1     -12.554   7.733  71.816  1.00  0.00    -0.329 C  
HETATM   15  H1  UNL     1     -13.450   7.942  73.536  1.00  0.00     0.000 HD 
HETATM   16  O   UNL     1     -12.647   6.517  71.816  1.00  0.00    -0.335 OA 
HETATM   17  N   UNL     1     -13.020   8.516  72.811  1.00  0.00    -0.621 N  
HETATM   18  H2  UNL     1     -12.952   9.533  72.835  1.00  0.00     0.000 HD 
ENDBRANCH  13  14
ENDBRANCH  12  13
ENDBRANCH   4  12
TORSDOF 5
ENDMDL
MODEL      170
REMARK 921   NORMALIZED FREE ENERGY PREDICTED BY IDOCK:   -3.17 KCAL/MOL
REMARK 922        TOTAL FREE ENERGY PREDICTED BY IDOCK:   -4.30 KCAL/MOL
REMARK 923 INTER-LIGAND FREE ENERGY PREDICTED BY IDOCK:   -4.08 KCAL/MOL
REMARK 924 INTRA-LIGAND FREE ENERGY PREDICTED BY IDOCK:   -0.22 KCAL/MOL
REMARK 927      BINDING AFFINITY PREDICTED BY RF-SCORE:    0.00 PKD
ROOT
HETATM    1  N   UNL     1     -10.105  10.110  70.232  1.00  0.00    -0.413 NA 
HETATM    2  H1  UNL     1      -9.605   9.223  70.176  1.00  0.00     0.000 HD 
HETATM    3  H2  UNL     1     -10.591  10.220  71.123  1.00  0.00     0.000 HD 
HETATM    4  C   UNL     1     -11.022  10.249  69.080  1.00  0.00    -0.238 C  
ENDROOT
BRANCH   4   5
HETATM    5  C   UNL     1     -10.272  10.132  67.732  1.00  0.00    -0.232 C  
BRANCH   5   6
HETATM    6  C   UNL     1      -9.968   8.705  67.332  1.00  0.00    -0.270 A  
HETATM    7  C   UNL     1      -9.527   6.075  66.458  1.00  0.00    -0.177 A  
HETATM    8  C   UNL     1     -10.693   7.640  67.885  1.00  0.00    -0.176 A  
HETATM    9  C   UNL     1      -8.986   8.427  66.371  1.00  0.00    -0.207 A  
HETATM   10  C   UNL     1      -8.774   7.121  65.929  1.00  0.00    -0.146 A  
HETATM   11  C   UNL     1     -10.475   6.332  67.446  1.00  0.00    -0.308 A  
ENDBRANCH   5   6
ENDBRANCH   4   5
BRANCH   4  12
HETATM   12  C   UNL     1     -11.779  11.592  69.164  1.00  0.00    -0.326 C  
BRANCH  12  13
HETATM   13  O   UNL     1     -11.060  12.629  68.467  1.00  0.00    -0.237 OA 
BRANCH  13  14
HETATM   14  C   UNL     1     -11.819  13.417  67.672  1.00  0.00    -0.354 C  
HETATM   15  H1  UNL     1     -12.777  15.114  67.745  1.00  0.00     0.000 HD 
HETATM   16  O   UNL     1     -12.130  13.191  66.514  1.00  0.00    -0.393 OA 
HETATM   17  N   UNL     1     -12.205  14.521  68.345  1.00  0.00    -0.608 N  
HETATM   18  H2  UNL     1     -11.960  14.730  69.312  1.00  0.00     0.000 HD 
ENDBRANCH  13  14
ENDBRANCH  12  13
ENDBRANCH   4  12
TORSDOF 5
ENDMDL
MODEL      171
REMARK 921   NORMALIZED FREE ENERGY PREDICTED BY IDOCK:   -3.17 KCAL/MOL
REMARK 922        TOTAL FREE ENERGY PREDICTED BY IDOCK:   -4.30 KCAL/MOL
REMARK 923 INTER-LIGAND FREE ENERGY PREDICTED BY IDOCK:   -4.05 KCAL/MOL
REMARK 924 INTRA-LIGAND FREE ENERGY PREDICTED BY IDOCK:   -0.25 KCAL/MOL
REMARK 927      BINDING AFFINITY PREDICTED BY RF-SCORE:    0.00 PKD
ROOT
HETATM    1  N   UNL     1      -7.390  12.095  68.215  1.00  0.00    -0.092 NA 
HETATM    2  H1  UNL     1      -7.309  13.069  68.508  1.00  0.00     0.000 HD 
HETATM    3  H2  UNL     1      -6.491  11.706  67.927  1.00  0.00     0.000 HD 
HETATM    4  C   UNL     1      -8.414  11.968  67.155  1.00  0.00    -0.180 C  
ENDROOT
BRANCH   4   5
HETATM    5  C   UNL     1      -9.786  12.513  67.617  1.00  0.00    -0.202 C  
BRANCH   5   6
HETATM    6  C   UNL     1     -10.594  13.138  66.499  1.00  0.00    -0.290 A  
HETATM    7  C   UNL     1     -12.186  14.387  64.555  1.00  0.00    -0.483 A  
HETATM    8  C   UNL     1     -11.773  12.530  66.046  1.00  0.00    -0.472 A  
HETATM    9  C   UNL     1     -10.200  14.356  65.930  1.00  0.00    -0.341 A  
HETATM   10  C   UNL     1     -10.997  14.983  64.971  1.00  0.00    -0.436 A  
HETATM   11  C   UNL     1     -12.566  13.154  65.081  1.00  0.00    -0.525 A  
ENDBRANCH   5   6
ENDBRANCH   4   5
BRANCH   4  12
HETATM   12  C   UNL     1      -8.537  10.494  66.712  1.00  0.00    -0.126 C  
BRANCH  12  13
HETATM   13  O   UNL     1      -8.115  10.335  65.342  1.00  0.00    -0.138 OA 
BRANCH  13  14
HETATM   14  C   UNL     1      -8.554   9.209  64.736  1.00  0.00    -0.184 C  
HETATM   15  H1  UNL     1      -9.645   8.674  63.209  1.00  0.00     0.000 HD 
HETATM   16  O   UNL     1      -8.317   8.063  65.080  1.00  0.00    -0.146 OA 
HETATM   17  N   UNL     1      -9.314   9.523  63.666  1.00  0.00    -0.436 N  
HETATM   18  H2  UNL     1      -9.528  10.473  63.360  1.00  0.00     0.000 HD 
ENDBRANCH  13  14
ENDBRANCH  12  13
ENDBRANCH   4  12
TORSDOF 5
ENDMDL
MODEL      172
REMARK 921   NORMALIZED FREE ENERGY PREDICTED BY IDOCK:   -3.17 KCAL/MOL
REMARK 922        TOTAL FREE ENERGY PREDICTED BY IDOCK:   -4.29 KCAL/MOL
REMARK 923 INTER-LIGAND FREE ENERGY PREDICTED BY IDOCK:   -4.04 KCAL/MOL
REMARK 924 INTRA-LIGAND FREE ENERGY PREDICTED BY IDOCK:   -0.25 KCAL/MOL
REMARK 927      BINDING AFFINITY PREDICTED BY RF-SCORE:    0.00 PKD
ROOT
HETATM    1  N   UNL     1      -8.758   8.592  71.571  1.00  0.00    -0.187 NA 
HETATM    2  H1  UNL     1      -8.064   7.969  71.159  1.00  0.00     0.000 HD 
HETATM    3  H2  UNL     1      -8.807   8.494  72.585  1.00  0.00     0.000 HD 
HETATM    4  C   UNL     1     -10.074   8.380  70.930  1.00  0.00    -0.194 C  
ENDROOT
BRANCH   4   5
HETATM    5  C   UNL     1     -10.004   8.581  69.397  1.00  0.00    -0.194 C  
BRANCH   5   6
HETATM    6  C   UNL     1      -9.970   7.283  68.619  1.00  0.00    -0.169 A  
HETATM    7  C   UNL     1     -10.086   4.870  67.191  1.00  0.00    -0.228 A  
HETATM    8  C   UNL     1      -9.864   6.054  69.286  1.00  0.00    -0.191 A  
HETATM    9  C   UNL     1     -10.085   7.285  67.222  1.00  0.00    -0.291 A  
HETATM   10  C   UNL     1     -10.154   6.086  66.513  1.00  0.00    -0.191 A  
HETATM   11  C   UNL     1      -9.926   4.855  68.575  1.00  0.00    -0.185 A  
ENDBRANCH   5   6
ENDBRANCH   4   5
BRANCH   4  12
HETATM   12  C   UNL     1     -11.125   9.324  71.553  1.00  0.00    -0.373 C  
BRANCH  12  13
HETATM   13  O   UNL     1     -12.289   8.585  71.976  1.00  0.00    -0.320 OA 
BRANCH  13  14
HETATM   14  C   UNL     1     -13.380   9.338  72.241  1.00  0.00    -0.477 C  
HETATM   15  H1  UNL     1     -14.012  11.169  72.005  1.00  0.00     0.000 HD 
HETATM   16  O   UNL     1     -14.402   8.964  72.793  1.00  0.00    -0.600 OA 
HETATM   17  N   UNL     1     -13.189  10.601  71.805  1.00  0.00    -0.440 N  
HETATM   18  H2  UNL     1     -12.344  10.938  71.344  1.00  0.00     0.000 HD 
ENDBRANCH  13  14
ENDBRANCH  12  13
ENDBRANCH   4  12
TORSDOF 5
ENDMDL
MODEL      173
REMARK 921   NORMALIZED FREE ENERGY PREDICTED BY IDOCK:   -3.16 KCAL/MOL
REMARK 922        TOTAL FREE ENERGY PREDICTED BY IDOCK:   -4.29 KCAL/MOL
REMARK 923 INTER-LIGAND FREE ENERGY PREDICTED BY IDOCK:   -4.02 KCAL/MOL
REMARK 924 INTRA-LIGAND FREE ENERGY PREDICTED BY IDOCK:   -0.27 KCAL/MOL
REMARK 927      BINDING AFFINITY PREDICTED BY RF-SCORE:    0.00 PKD
ROOT
HETATM    1  N   UNL     1     -11.263  10.087  67.833  1.00  0.00    -0.497 NA 
HETATM    2  H1  UNL     1     -11.765  10.215  68.712  1.00  0.00     0.000 HD 
HETATM    3  H2  UNL     1     -11.884  10.151  67.025  1.00  0.00     0.000 HD 
HETATM    4  C   UNL     1     -10.515   8.812  67.857  1.00  0.00    -0.216 C  
ENDROOT
BRANCH   4   5
HETATM    5  C   UNL     1      -9.539   8.742  69.056  1.00  0.00    -0.162 C  
BRANCH   5   6
HETATM    6  C   UNL     1     -10.130   8.073  70.278  1.00  0.00    -0.192 A  
HETATM    7  C   UNL     1     -11.382   6.918  72.508  1.00  0.00    -0.291 A  
HETATM    8  C   UNL     1     -10.073   8.700  71.531  1.00  0.00    -0.345 A  
HETATM    9  C   UNL     1     -10.780   6.837  70.170  1.00  0.00    -0.274 A  
HETATM   10  C   UNL     1     -11.412   6.267  71.276  1.00  0.00    -0.352 A  
HETATM   11  C   UNL     1     -10.700   8.126  72.639  1.00  0.00    -0.421 A  
ENDBRANCH   5   6
ENDBRANCH   4   5
BRANCH   4  12
HETATM   12  C   UNL     1      -9.754   8.619  66.527  1.00  0.00    -0.255 C  
BRANCH  12  13
HETATM   13  O   UNL     1     -10.000   9.723  65.633  1.00  0.00    -0.301 OA 
BRANCH  13  14
HETATM   14  C   UNL     1      -8.895  10.254  65.062  1.00  0.00    -0.187 C  
HETATM   15  H1  UNL     1      -8.260  11.962  64.366  1.00  0.00     0.000 HD 
HETATM   16  O   UNL     1      -7.858   9.664  64.807  1.00  0.00    -0.117 OA 
HETATM   17  N   UNL     1      -9.093  11.562  64.797  1.00  0.00    -0.409 N  
HETATM   18  H2  UNL     1      -9.951  12.076  64.998  1.00  0.00     0.000 HD 
ENDBRANCH  13  14
ENDBRANCH  12  13
ENDBRANCH   4  12
TORSDOF 5
ENDMDL
MODEL      174
REMARK 921   NORMALIZED FREE ENERGY PREDICTED BY IDOCK:   -3.16 KCAL/MOL
REMARK 922        TOTAL FREE ENERGY PREDICTED BY IDOCK:   -4.28 KCAL/MOL
REMARK 923 INTER-LIGAND FREE ENERGY PREDICTED BY IDOCK:   -5.03 KCAL/MOL
REMARK 924 INTRA-LIGAND FREE ENERGY PREDICTED BY IDOCK:    0.76 KCAL/MOL
REMARK 927      BINDING AFFINITY PREDICTED BY RF-SCORE:    0.00 PKD
ROOT
HETATM    1  N   UNL     1     -12.424  14.816  67.210  1.00  0.00    -0.352 NA 
HETATM    2  H1  UNL     1     -13.328  14.511  66.848  1.00  0.00     0.000 HD 
HETATM    3  H2  UNL     1     -12.156  15.731  66.845  1.00  0.00     0.000 HD 
HETATM    4  C   UNL     1     -11.396  13.789  66.940  1.00  0.00    -0.328 C  
ENDROOT
BRANCH   4   5
HETATM    5  C   UNL     1     -11.785  12.417  67.540  1.00  0.00    -0.425 C  
BRANCH   5   6
HETATM    6  C   UNL     1     -10.967  11.265  66.996  1.00  0.00    -0.352 A  
HETATM    7  C   UNL     1      -9.606   9.045  65.951  1.00  0.00    -0.317 A  
HETATM    8  C   UNL     1     -10.571  10.214  67.834  1.00  0.00    -0.294 A  
HETATM    9  C   UNL     1     -10.628  11.211  65.637  1.00  0.00    -0.286 A  
HETATM   10  C   UNL     1      -9.961  10.102  65.116  1.00  0.00    -0.379 A  
HETATM   11  C   UNL     1      -9.897   9.108  67.313  1.00  0.00    -0.244 A  
ENDBRANCH   5   6
ENDBRANCH   4   5
BRANCH   4  12
HETATM   12  C   UNL     1     -10.028  14.251  67.488  1.00  0.00    -0.235 C  
BRANCH  12  13
HETATM   13  O   UNL     1      -9.339  15.067  66.519  1.00  0.00    -0.246 OA 
BRANCH  13  14
HETATM   14  C   UNL     1     -10.056  15.372  65.414  1.00  0.00    -0.359 C  
HETATM   15  H1  UNL     1     -10.663  14.533  63.761  1.00  0.00     0.000 HD 
HETATM   16  O   UNL     1     -10.578  16.447  65.164  1.00  0.00    -0.610 OA 
HETATM   17  N   UNL     1     -10.122  14.303  64.594  1.00  0.00    -0.606 N  
HETATM   18  H2  UNL     1      -9.693  13.397  64.780  1.00  0.00     0.000 HD 
ENDBRANCH  13  14
ENDBRANCH  12  13
ENDBRANCH   4  12
TORSDOF 5
ENDMDL
MODEL      175
REMARK 921   NORMALIZED FREE ENERGY PREDICTED BY IDOCK:   -3.15 KCAL/MOL
REMARK 922        TOTAL FREE ENERGY PREDICTED BY IDOCK:   -4.27 KCAL/MOL
REMARK 923 INTER-LIGAND FREE ENERGY PREDICTED BY IDOCK:   -3.93 KCAL/MOL
REMARK 924 INTRA-LIGAND FREE ENERGY PREDICTED BY IDOCK:   -0.34 KCAL/MOL
REMARK 927      BINDING AFFINITY PREDICTED BY RF-SCORE:    0.00 PKD
ROOT
HETATM    1  N   UNL     1     -11.766  12.538  70.094  1.00  0.00    -0.537 NA 
HETATM    2  H1  UNL     1     -11.623  13.473  70.475  1.00  0.00     0.000 HD 
HETATM    3  H2  UNL     1     -11.217  11.835  70.589  1.00  0.00     0.000 HD 
HETATM    4  C   UNL     1     -11.490  12.534  68.641  1.00  0.00    -0.306 C  
ENDROOT
BRANCH   4   5
HETATM    5  C   UNL     1     -12.362  13.567  67.889  1.00  0.00     0.025 C  
BRANCH   5   6
HETATM    6  C   UNL     1     -11.561  14.669  67.230  1.00  0.00    -0.404 A  
HETATM    7  C   UNL     1      -9.924  16.623  66.057  1.00  0.00    -0.346 A  
HETATM    8  C   UNL     1     -11.145  15.786  67.968  1.00  0.00    -0.337 A  
HETATM    9  C   UNL     1     -11.185  14.571  65.884  1.00  0.00    -0.331 A  
HETATM   10  C   UNL     1     -10.363  15.537  65.303  1.00  0.00    -0.416 A  
HETATM   11  C   UNL     1     -10.327  16.756  67.385  1.00  0.00    -0.302 A  
ENDBRANCH   5   6
ENDBRANCH   4   5
BRANCH   4  12
HETATM   12  C   UNL     1     -11.708  11.118  68.064  1.00  0.00    -0.212 C  
BRANCH  12  13
HETATM   13  O   UNL     1     -10.937  10.933  66.860  1.00  0.00    -0.271 OA 
BRANCH  13  14
HETATM   14  C   UNL     1      -9.749  10.309  67.032  1.00  0.00    -0.176 C  
HETATM   15  H1  UNL     1      -9.051   8.579  67.602  1.00  0.00     0.000 HD 
HETATM   16  O   UNL     1      -8.645  10.787  66.831  1.00  0.00    -0.129 OA 
HETATM   17  N   UNL     1      -9.947   9.049  67.472  1.00  0.00    -0.193 N  
HETATM   18  H2  UNL     1     -10.859   8.628  67.650  1.00  0.00     0.000 HD 
ENDBRANCH  13  14
ENDBRANCH  12  13
ENDBRANCH   4  12
TORSDOF 5
ENDMDL
MODEL      176
REMARK 921   NORMALIZED FREE ENERGY PREDICTED BY IDOCK:   -3.15 KCAL/MOL
REMARK 922        TOTAL FREE ENERGY PREDICTED BY IDOCK:   -4.26 KCAL/MOL
REMARK 923 INTER-LIGAND FREE ENERGY PREDICTED BY IDOCK:   -3.94 KCAL/MOL
REMARK 924 INTRA-LIGAND FREE ENERGY PREDICTED BY IDOCK:   -0.33 KCAL/MOL
REMARK 927      BINDING AFFINITY PREDICTED BY RF-SCORE:    0.00 PKD
ROOT
HETATM    1  N   UNL     1      -7.411   8.060  68.227  1.00  0.00    -0.098 NA 
HETATM    2  H1  UNL     1      -6.898   7.724  69.041  1.00  0.00     0.000 HD 
HETATM    3  H2  UNL     1      -6.941   8.846  67.776  1.00  0.00     0.000 HD 
HETATM    4  C   UNL     1      -8.803   8.389  68.604  1.00  0.00    -0.136 C  
ENDROOT
BRANCH   4   5
HETATM    5  C   UNL     1      -9.526   7.178  69.240  1.00  0.00    -0.152 C  
BRANCH   5   6
HETATM    6  C   UNL     1     -10.576   7.569  70.258  1.00  0.00    -0.235 A  
HETATM    7  C   UNL     1     -12.608   8.385  72.013  1.00  0.00    -0.400 A  
HETATM    8  C   UNL     1     -10.437   8.742  71.012  1.00  0.00    -0.293 A  
HETATM    9  C   UNL     1     -11.725   6.786  70.433  1.00  0.00    -0.418 A  
HETATM   10  C   UNL     1     -12.740   7.197  71.297  1.00  0.00    -0.412 A  
HETATM   11  C   UNL     1     -11.450   9.149  71.882  1.00  0.00    -0.423 A  
ENDBRANCH   5   6
ENDBRANCH   4   5
BRANCH   4  12
HETATM   12  C   UNL     1      -9.580   8.898  67.371  1.00  0.00    -0.157 C  
BRANCH  12  13
HETATM   13  O   UNL     1      -9.625  10.339  67.353  1.00  0.00    -0.154 OA 
BRANCH  13  14
HETATM   14  C   UNL     1     -10.862  10.871  67.231  1.00  0.00    -0.287 C  
HETATM   15  H1  UNL     1     -11.945  11.819  65.914  1.00  0.00     0.000 HD 
HETATM   16  O   UNL     1     -11.735  10.877  68.083  1.00  0.00    -0.506 OA 
HETATM   17  N   UNL     1     -11.013  11.417  66.006  1.00  0.00    -0.264 N  
HETATM   18  H2  UNL     1     -10.298  11.427  65.279  1.00  0.00     0.000 HD 
ENDBRANCH  13  14
ENDBRANCH  12  13
ENDBRANCH   4  12
TORSDOF 5
ENDMDL
MODEL      177
REMARK 921   NORMALIZED FREE ENERGY PREDICTED BY IDOCK:   -3.14 KCAL/MOL
REMARK 922        TOTAL FREE ENERGY PREDICTED BY IDOCK:   -4.25 KCAL/MOL
REMARK 923 INTER-LIGAND FREE ENERGY PREDICTED BY IDOCK:   -3.84 KCAL/MOL
REMARK 924 INTRA-LIGAND FREE ENERGY PREDICTED BY IDOCK:   -0.42 KCAL/MOL
REMARK 927      BINDING AFFINITY PREDICTED BY RF-SCORE:    0.00 PKD
ROOT
HETATM    1  N   UNL     1     -11.342   6.409  66.770  1.00  0.00    -0.769 NA 
HETATM    2  H1  UNL     1     -11.829   7.246  66.448  1.00  0.00     0.000 HD 
HETATM    3  H2  UNL     1     -11.884   5.561  66.598  1.00  0.00     0.000 HD 
HETATM    4  C   UNL     1     -10.975   6.552  68.196  1.00  0.00    -0.281 C  
ENDROOT
BRANCH   4   5
HETATM    5  C   UNL     1     -10.111   7.811  68.441  1.00  0.00    -0.215 C  
BRANCH   5   6
HETATM    6  C   UNL     1     -10.800   8.861  69.287  1.00  0.00    -0.113 A  
HETATM    7  C   UNL     1     -11.926  10.820  70.951  1.00  0.00    -0.438 A  
HETATM    8  C   UNL     1     -11.520   8.494  70.433  1.00  0.00    -0.135 A  
HETATM    9  C   UNL     1     -10.696  10.220  68.961  1.00  0.00    -0.257 A  
HETATM   10  C   UNL     1     -11.246  11.195  69.794  1.00  0.00    -0.318 A  
HETATM   11  C   UNL     1     -12.076   9.470  71.262  1.00  0.00    -0.443 A  
ENDBRANCH   5   6
ENDBRANCH   4   5
BRANCH   4  12
HETATM   12  C   UNL     1     -10.238   5.286  68.683  1.00  0.00    -0.153 C  
BRANCH  12  13
HETATM   13  O   UNL     1      -9.441   5.575  69.849  1.00  0.00    -0.147 OA 
BRANCH  13  14
HETATM   14  C   UNL     1      -9.832   4.945  70.980  1.00  0.00    -0.195 C  
HETATM   15  H1  UNL     1      -9.883   3.148  71.736  1.00  0.00     0.000 HD 
HETATM   16  O   UNL     1     -10.338   5.467  71.960  1.00  0.00    -0.199 OA 
HETATM   17  N   UNL     1      -9.587   3.622  70.883  1.00  0.00    -0.172 N  
HETATM   18  H2  UNL     1      -9.168   3.163  70.075  1.00  0.00     0.000 HD 
ENDBRANCH  13  14
ENDBRANCH  12  13
ENDBRANCH   4  12
TORSDOF 5
ENDMDL
MODEL      178
REMARK 921   NORMALIZED FREE ENERGY PREDICTED BY IDOCK:   -3.13 KCAL/MOL
REMARK 922        TOTAL FREE ENERGY PREDICTED BY IDOCK:   -4.24 KCAL/MOL
REMARK 923 INTER-LIGAND FREE ENERGY PREDICTED BY IDOCK:   -4.33 KCAL/MOL
REMARK 924 INTRA-LIGAND FREE ENERGY PREDICTED BY IDOCK:    0.09 KCAL/MOL
REMARK 927      BINDING AFFINITY PREDICTED BY RF-SCORE:    0.00 PKD
ROOT
HETATM    1  N   UNL     1      -9.276  14.111  67.104  1.00  0.00    -0.221 NA 
HETATM    2  H1  UNL     1      -9.668  13.241  66.744  1.00  0.00     0.000 HD 
HETATM    3  H2  UNL     1      -9.060  14.049  68.100  1.00  0.00     0.000 HD 
HETATM    4  C   UNL     1     -10.183  15.240  66.803  1.00  0.00    -0.272 C  
ENDROOT
BRANCH   4   5
HETATM    5  C   UNL     1     -10.465  15.359  65.287  1.00  0.00    -0.440 C  
BRANCH   5   6
HETATM    6  C   UNL     1     -10.949  14.069  64.660  1.00  0.00    -0.401 A  
HETATM    7  C   UNL     1     -11.817  11.597  63.656  1.00  0.00    -0.390 A  
HETATM    8  C   UNL     1     -10.046  13.198  64.034  1.00  0.00     0.105 A  
HETATM    9  C   UNL     1     -12.301  13.705  64.731  1.00  0.00    -0.429 A  
HETATM   10  C   UNL     1     -12.730  12.471  64.242  1.00  0.00    -0.432 A  
HETATM   11  C   UNL     1     -10.478  11.967  63.538  1.00  0.00    -0.505 A  
ENDBRANCH   5   6
ENDBRANCH   4   5
BRANCH   4  12
HETATM   12  C   UNL     1      -9.589  16.557  67.349  1.00  0.00    -0.238 C  
BRANCH  12  13
HETATM   13  O   UNL     1      -9.661  16.592  68.789  1.00  0.00    -0.236 OA 
BRANCH  13  14
HETATM   14  C   UNL     1     -10.780  16.048  69.319  1.00  0.00    -0.275 C  
HETATM   15  H1  UNL     1     -11.300  14.617  70.538  1.00  0.00     0.000 HD 
HETATM   16  O   UNL     1     -11.928  16.402  69.105  1.00  0.00    -0.111 OA 
HETATM   17  N   UNL     1     -10.456  15.028  70.139  1.00  0.00    -0.488 N  
HETATM   18  H2  UNL     1      -9.505  14.712  70.332  1.00  0.00     0.000 HD 
ENDBRANCH  13  14
ENDBRANCH  12  13
ENDBRANCH   4  12
TORSDOF 5
ENDMDL
MODEL      179
REMARK 921   NORMALIZED FREE ENERGY PREDICTED BY IDOCK:   -3.12 KCAL/MOL
REMARK 922        TOTAL FREE ENERGY PREDICTED BY IDOCK:   -4.23 KCAL/MOL
REMARK 923 INTER-LIGAND FREE ENERGY PREDICTED BY IDOCK:   -4.11 KCAL/MOL
REMARK 924 INTRA-LIGAND FREE ENERGY PREDICTED BY IDOCK:   -0.12 KCAL/MOL
REMARK 927      BINDING AFFINITY PREDICTED BY RF-SCORE:    0.00 PKD
ROOT
HETATM    1  N   UNL     1     -10.590  14.756  68.849  1.00  0.00    -0.243 NA 
HETATM    2  H1  UNL     1     -10.602  13.819  69.253  1.00  0.00     0.000 HD 
HETATM    3  H2  UNL     1     -11.378  15.320  69.169  1.00  0.00     0.000 HD 
HETATM    4  C   UNL     1     -10.533  14.672  67.374  1.00  0.00    -0.255 C  
ENDROOT
BRANCH   4   5
HETATM    5  C   UNL     1      -9.308  13.858  66.894  1.00  0.00    -0.265 C  
BRANCH   5   6
HETATM    6  C   UNL     1      -9.562  12.367  66.827  1.00  0.00    -0.224 A  
HETATM    7  C   UNL     1     -10.209   9.640  66.705  1.00  0.00    -0.308 A  
HETATM    8  C   UNL     1      -9.703  11.615  68.002  1.00  0.00    -0.182 A  
HETATM    9  C   UNL     1      -9.701  11.721  65.591  1.00  0.00    -0.256 A  
HETATM   10  C   UNL     1     -10.034  10.368  65.530  1.00  0.00    -0.348 A  
HETATM   11  C   UNL     1     -10.029  10.259  67.940  1.00  0.00    -0.191 A  
ENDBRANCH   5   6
ENDBRANCH   4   5
BRANCH   4  12
HETATM   12  C   UNL     1     -10.514  16.090  66.763  1.00  0.00    -0.308 C  
BRANCH  12  13
HETATM   13  O   UNL     1     -11.026  17.057  67.701  1.00  0.00    -0.290 OA 
BRANCH  13  14
HETATM   14  C   UNL     1     -10.613  18.329  67.495  1.00  0.00    -0.409 C  
HETATM   15  H1  UNL     1     -10.206  19.536  66.017  1.00  0.00     0.000 HD 
HETATM   16  O   UNL     1     -10.352  19.153  68.356  1.00  0.00    -0.390 OA 
HETATM   17  N   UNL     1     -10.518  18.578  66.173  1.00  0.00    -0.439 N  
HETATM   18  H2  UNL     1     -10.728  17.905  65.435  1.00  0.00     0.000 HD 
ENDBRANCH  13  14
ENDBRANCH  12  13
ENDBRANCH   4  12
TORSDOF 5
ENDMDL
MODEL      180
REMARK 921   NORMALIZED FREE ENERGY PREDICTED BY IDOCK:   -3.11 KCAL/MOL
REMARK 922        TOTAL FREE ENERGY PREDICTED BY IDOCK:   -4.22 KCAL/MOL
REMARK 923 INTER-LIGAND FREE ENERGY PREDICTED BY IDOCK:   -4.18 KCAL/MOL
REMARK 924 INTRA-LIGAND FREE ENERGY PREDICTED BY IDOCK:   -0.04 KCAL/MOL
REMARK 927      BINDING AFFINITY PREDICTED BY RF-SCORE:    0.00 PKD
ROOT
HETATM    1  N   UNL     1     -10.022  10.610  65.322  1.00  0.00    -0.274 NA 
HETATM    2  H1  UNL     1     -10.755  10.784  64.634  1.00  0.00     0.000 HD 
HETATM    3  H2  UNL     1      -9.398   9.855  65.033  1.00  0.00     0.000 HD 
HETATM    4  C   UNL     1     -10.621  10.358  66.650  1.00  0.00    -0.178 C  
ENDROOT
BRANCH   4   5
HETATM    5  C   UNL     1     -11.524  11.529  67.104  1.00  0.00    -0.313 C  
BRANCH   5   6
HETATM    6  C   UNL     1     -11.346  12.784  66.276  1.00  0.00    -0.365 A  
HETATM    7  C   UNL     1     -10.916  15.013  64.627  1.00  0.00    -0.320 A  
HETATM    8  C   UNL     1     -10.264  13.644  66.509  1.00  0.00    -0.284 A  
HETATM    9  C   UNL     1     -12.237  13.085  65.236  1.00  0.00    -0.513 A  
HETATM   10  C   UNL     1     -12.017  14.187  64.410  1.00  0.00    -0.478 A  
HETATM   11  C   UNL     1     -10.049  14.751  65.685  1.00  0.00    -0.393 A  
ENDBRANCH   5   6
ENDBRANCH   4   5
BRANCH   4  12
HETATM   12  C   UNL     1      -9.510  10.095  67.691  1.00  0.00    -0.148 C  
BRANCH  12  13
HETATM   13  O   UNL     1      -9.988  10.361  69.025  1.00  0.00    -0.193 OA 
BRANCH  13  14
HETATM   14  C   UNL     1      -9.149   9.986  70.018  1.00  0.00    -0.091 C  
HETATM   15  H1  UNL     1      -7.287  10.213  70.552  1.00  0.00     0.000 HD 
HETATM   16  O   UNL     1      -9.431   9.288  70.978  1.00  0.00    -0.266 OA 
HETATM   17  N   UNL     1      -7.919  10.496  69.804  1.00  0.00    -0.363 N  
HETATM   18  H2  UNL     1      -7.658  11.080  69.009  1.00  0.00     0.000 HD 
ENDBRANCH  13  14
ENDBRANCH  12  13
ENDBRANCH   4  12
TORSDOF 5
ENDMDL
MODEL      181
REMARK 921   NORMALIZED FREE ENERGY PREDICTED BY IDOCK:   -3.11 KCAL/MOL
REMARK 922        TOTAL FREE ENERGY PREDICTED BY IDOCK:   -4.22 KCAL/MOL
REMARK 923 INTER-LIGAND FREE ENERGY PREDICTED BY IDOCK:   -4.16 KCAL/MOL
REMARK 924 INTRA-LIGAND FREE ENERGY PREDICTED BY IDOCK:   -0.06 KCAL/MOL
REMARK 927      BINDING AFFINITY PREDICTED BY RF-SCORE:    0.00 PKD
ROOT
HETATM    1  N   UNL     1      -7.758  15.108  66.820  1.00  0.00    -0.269 NA 
HETATM    2  H1  UNL     1      -7.164  15.933  66.910  1.00  0.00     0.000 HD 
HETATM    3  H2  UNL     1      -7.322  14.384  66.249  1.00  0.00     0.000 HD 
HETATM    4  C   UNL     1      -9.089  15.495  66.304  1.00  0.00    -0.334 C  
ENDROOT
BRANCH   4   5
HETATM    5  C   UNL     1      -9.765  16.557  67.203  1.00  0.00    -0.246 C  
BRANCH   5   6
HETATM    6  C   UNL     1     -10.469  15.969  68.408  1.00  0.00    -0.263 A  
HETATM    7  C   UNL     1     -11.805  15.048  70.697  1.00  0.00    -0.364 A  
HETATM    8  C   UNL     1      -9.761  15.710  69.590  1.00  0.00    -0.276 A  
HETATM    9  C   UNL     1     -11.846  15.713  68.375  1.00  0.00    -0.211 A  
HETATM   10  C   UNL     1     -12.513  15.266  69.516  1.00  0.00    -0.122 A  
HETATM   11  C   UNL     1     -10.427  15.255  70.729  1.00  0.00     0.054 A  
ENDBRANCH   5   6
ENDBRANCH   4   5
BRANCH   4  12
HETATM   12  C   UNL     1      -9.988  14.247  66.169  1.00  0.00    -0.314 C  
BRANCH  12  13
HETATM   13  O   UNL     1     -10.747  14.294  64.944  1.00  0.00    -0.389 OA 
BRANCH  13  14
HETATM   14  C   UNL     1     -11.916  13.616  64.968  1.00  0.00    -0.378 C  
HETATM   15  H1  UNL     1     -12.679  11.949  64.301  1.00  0.00     0.000 HD 
HETATM   16  O   UNL     1     -12.947  13.969  65.518  1.00  0.00    -0.681 OA 
HETATM   17  N   UNL     1     -11.797  12.460  64.282  1.00  0.00    -0.371 N  
HETATM   18  H2  UNL     1     -10.948  12.144  63.813  1.00  0.00     0.000 HD 
ENDBRANCH  13  14
ENDBRANCH  12  13
ENDBRANCH   4  12
TORSDOF 5
ENDMDL
MODEL      182
REMARK 921   NORMALIZED FREE ENERGY PREDICTED BY IDOCK:   -3.06 KCAL/MOL
REMARK 922        TOTAL FREE ENERGY PREDICTED BY IDOCK:   -4.15 KCAL/MOL
REMARK 923 INTER-LIGAND FREE ENERGY PREDICTED BY IDOCK:   -3.96 KCAL/MOL
REMARK 924 INTRA-LIGAND FREE ENERGY PREDICTED BY IDOCK:   -0.19 KCAL/MOL
REMARK 927      BINDING AFFINITY PREDICTED BY RF-SCORE:    0.00 PKD
ROOT
HETATM    1  N   UNL     1      -6.138  16.056  67.165  1.00  0.00    -0.327 NA 
HETATM    2  H1  UNL     1      -6.285  16.692  66.381  1.00  0.00     0.000 HD 
HETATM    3  H2  UNL     1      -6.058  15.085  66.860  1.00  0.00     0.000 HD 
HETATM    4  C   UNL     1      -7.206  16.235  68.171  1.00  0.00    -0.142 C  
ENDROOT
BRANCH   4   5
HETATM    5  C   UNL     1      -7.288  17.699  68.666  1.00  0.00    -0.257 C  
BRANCH   5   6
HETATM    6  C   UNL     1      -8.460  18.466  68.092  1.00  0.00    -0.301 A  
HETATM    7  C   UNL     1     -10.676  19.937  67.197  1.00  0.00    -0.469 A  
HETATM    8  C   UNL     1      -9.712  17.851  67.947  1.00  0.00    -0.288 A  
HETATM    9  C   UNL     1      -8.324  19.814  67.736  1.00  0.00    -0.344 A  
HETATM   10  C   UNL     1      -9.428  20.549  67.301  1.00  0.00    -0.559 A  
HETATM   11  C   UNL     1     -10.814  18.585  67.505  1.00  0.00    -0.337 A  
ENDBRANCH   5   6
ENDBRANCH   4   5
BRANCH   4  12
HETATM   12  C   UNL     1      -6.982  15.274  69.359  1.00  0.00    -0.180 C  
BRANCH  12  13
HETATM   13  O   UNL     1      -5.915  14.347  69.071  1.00  0.00    -0.086 OA 
BRANCH  13  14
HETATM   14  C   UNL     1      -6.293  13.225  68.418  1.00  0.00    -0.086 C  
HETATM   15  H1  UNL     1      -7.225  11.547  68.768  1.00  0.00     0.000 HD 
HETATM   16  O   UNL     1      -6.091  12.969  67.242  1.00  0.00    -0.303 OA 
HETATM   17  N   UNL     1      -6.941  12.393  69.260  1.00  0.00    -0.286 N  
HETATM   18  H2  UNL     1      -7.119  12.583  70.247  1.00  0.00     0.000 HD 
ENDBRANCH  13  14
ENDBRANCH  12  13
ENDBRANCH   4  12
TORSDOF 5
ENDMDL
MODEL      183
REMARK 921   NORMALIZED FREE ENERGY PREDICTED BY IDOCK:   -3.04 KCAL/MOL
REMARK 922        TOTAL FREE ENERGY PREDICTED BY IDOCK:   -4.12 KCAL/MOL
REMARK 923 INTER-LIGAND FREE ENERGY PREDICTED BY IDOCK:   -4.36 KCAL/MOL
REMARK 924 INTRA-LIGAND FREE ENERGY PREDICTED BY IDOCK:    0.23 KCAL/MOL
REMARK 927      BINDING AFFINITY PREDICTED BY RF-SCORE:    0.00 PKD
ROOT
HETATM    1  N   UNL     1     -11.850  11.720  67.077  1.00  0.00    -0.607 NA 
HETATM    2  H1  UNL     1     -12.775  11.366  66.832  1.00  0.00     0.000 HD 
HETATM    3  H2  UNL     1     -11.877  12.325  67.899  1.00  0.00     0.000 HD 
HETATM    4  C   UNL     1     -11.240  12.396  65.911  1.00  0.00    -0.336 C  
ENDROOT
BRANCH   4   5
HETATM    5  C   UNL     1     -11.155  11.457  64.685  1.00  0.00    -0.277 C  
BRANCH   5   6
HETATM    6  C   UNL     1      -9.964  10.523  64.720  1.00  0.00    -0.412 A  
HETATM    7  C   UNL     1      -7.852   8.677  64.683  1.00  0.00    -0.129 A  
HETATM    8  C   UNL     1      -9.853   9.547  65.721  1.00  0.00    -0.363 A  
HETATM    9  C   UNL     1      -8.975  10.590  63.730  1.00  0.00    -0.229 A  
HETATM   10  C   UNL     1      -7.931   9.666  63.705  1.00  0.00    -0.142 A  
HETATM   11  C   UNL     1      -8.804   8.627  65.699  1.00  0.00    -0.227 A  
ENDBRANCH   5   6
ENDBRANCH   4   5
BRANCH   4  12
HETATM   12  C   UNL     1      -9.839  12.931  66.282  1.00  0.00    -0.273 C  
BRANCH  12  13
HETATM   13  O   UNL     1      -9.944  14.138  67.063  1.00  0.00    -0.250 OA 
BRANCH  13  14
HETATM   14  C   UNL     1     -10.926  14.985  66.679  1.00  0.00    -0.325 C  
HETATM   15  H1  UNL     1     -12.685  15.584  67.273  1.00  0.00     0.000 HD 
HETATM   16  O   UNL     1     -10.925  15.691  65.684  1.00  0.00    -0.323 OA 
HETATM   17  N   UNL     1     -11.945  14.946  67.563  1.00  0.00    -0.465 N  
HETATM   18  H2  UNL     1     -11.970  14.363  68.400  1.00  0.00     0.000 HD 
ENDBRANCH  13  14
ENDBRANCH  12  13
ENDBRANCH   4  12
TORSDOF 5
ENDMDL
MODEL      184
REMARK 921   NORMALIZED FREE ENERGY PREDICTED BY IDOCK:   -3.03 KCAL/MOL
REMARK 922        TOTAL FREE ENERGY PREDICTED BY IDOCK:   -4.12 KCAL/MOL
REMARK 923 INTER-LIGAND FREE ENERGY PREDICTED BY IDOCK:   -3.82 KCAL/MOL
REMARK 924 INTRA-LIGAND FREE ENERGY PREDICTED BY IDOCK:   -0.29 KCAL/MOL
REMARK 927      BINDING AFFINITY PREDICTED BY RF-SCORE:    0.00 PKD
ROOT
HETATM    1  N   UNL     1     -11.344   6.519  66.786  1.00  0.00    -0.800 NA 
HETATM    2  H1  UNL     1     -11.998   7.233  66.465  1.00  0.00     0.000 HD 
HETATM    3  H2  UNL     1     -11.768   5.590  66.797  1.00  0.00     0.000 HD 
HETATM    4  C   UNL     1     -10.793   6.892  68.106  1.00  0.00    -0.194 C  
ENDROOT
BRANCH   4   5
HETATM    5  C   UNL     1     -10.108   8.279  68.070  1.00  0.00    -0.243 C  
BRANCH   5   6
HETATM    6  C   UNL     1     -10.841   9.336  68.867  1.00  0.00    -0.128 A  
HETATM    7  C   UNL     1     -12.039  11.366  70.389  1.00  0.00    -0.473 A  
HETATM    8  C   UNL     1     -11.130   9.132  70.224  1.00  0.00    -0.272 A  
HETATM    9  C   UNL     1     -11.205  10.552  68.274  1.00  0.00    -0.354 A  
HETATM   10  C   UNL     1     -11.791  11.565  69.033  1.00  0.00    -0.408 A  
HETATM   11  C   UNL     1     -11.723  10.145  70.981  1.00  0.00    -0.470 A  
ENDBRANCH   5   6
ENDBRANCH   4   5
BRANCH   4  12
HETATM   12  C   UNL     1      -9.803   5.811  68.592  1.00  0.00    -0.138 C  
BRANCH  12  13
HETATM   13  O   UNL     1      -8.533   5.942  67.921  1.00  0.00    -0.108 OA 
BRANCH  13  14
HETATM   14  C   UNL     1      -7.850   4.786  67.759  1.00  0.00    -0.086 C  
HETATM   15  H1  UNL     1      -7.974   3.117  66.757  1.00  0.00     0.000 HD 
HETATM   16  O   UNL     1      -6.807   4.478  68.314  1.00  0.00    -0.049 OA 
HETATM   17  N   UNL     1      -8.489   3.988  66.879  1.00  0.00    -0.100 N  
HETATM   18  H2  UNL     1      -9.362   4.222  66.405  1.00  0.00     0.000 HD 
ENDBRANCH  13  14
ENDBRANCH  12  13
ENDBRANCH   4  12
TORSDOF 5
ENDMDL
MODEL      185
REMARK 921   NORMALIZED FREE ENERGY PREDICTED BY IDOCK:   -3.03 KCAL/MOL
REMARK 922        TOTAL FREE ENERGY PREDICTED BY IDOCK:   -4.12 KCAL/MOL
REMARK 923 INTER-LIGAND FREE ENERGY PREDICTED BY IDOCK:   -3.93 KCAL/MOL
REMARK 924 INTRA-LIGAND FREE ENERGY PREDICTED BY IDOCK:   -0.19 KCAL/MOL
REMARK 927      BINDING AFFINITY PREDICTED BY RF-SCORE:    0.00 PKD
ROOT
HETATM    1  N   UNL     1     -12.303  11.930  70.056  1.00  0.00    -0.180 NA 
HETATM    2  H1  UNL     1     -12.052  11.251  70.775  1.00  0.00     0.000 HD 
HETATM    3  H2  UNL     1     -13.314  12.002  69.934  1.00  0.00     0.000 HD 
HETATM    4  C   UNL     1     -11.613  11.606  68.789  1.00  0.00    -0.313 C  
ENDROOT
BRANCH   4   5
HETATM    5  C   UNL     1     -10.078  11.549  68.971  1.00  0.00    -0.075 C  
BRANCH   5   6
HETATM    6  C   UNL     1      -9.430  10.373  68.273  1.00  0.00    -0.153 A  
HETATM    7  C   UNL     1      -8.207   8.297  66.834  1.00  0.00    -0.103 A  
HETATM    8  C   UNL     1     -10.202   9.478  67.519  1.00  0.00    -0.283 A  
HETATM    9  C   UNL     1      -8.042  10.183  68.334  1.00  0.00    -0.104 A  
HETATM   10  C   UNL     1      -7.433   9.158  67.610  1.00  0.00    -0.084 A  
HETATM   11  C   UNL     1      -9.592   8.448  66.800  1.00  0.00    -0.283 A  
ENDBRANCH   5   6
ENDBRANCH   4   5
BRANCH   4  12
HETATM   12  C   UNL     1     -11.992  12.634  67.701  1.00  0.00    -0.247 C  
BRANCH  12  13
HETATM   13  O   UNL     1     -11.976  12.024  66.394  1.00  0.00    -0.611 OA 
BRANCH  13  14
HETATM   14  C   UNL     1     -12.326  12.844  65.376  1.00  0.00    -0.485 C  
HETATM   15  H1  UNL     1     -11.739  13.303  63.573  1.00  0.00     0.000 HD 
HETATM   16  O   UNL     1     -13.262  13.625  65.366  1.00  0.00    -0.678 OA 
HETATM   17  N   UNL     1     -11.476  12.685  64.340  1.00  0.00    -0.328 N  
HETATM   18  H2  UNL     1     -10.685  12.041  64.327  1.00  0.00     0.000 HD 
ENDBRANCH  13  14
ENDBRANCH  12  13
ENDBRANCH   4  12
TORSDOF 5
ENDMDL
MODEL      186
REMARK 921   NORMALIZED FREE ENERGY PREDICTED BY IDOCK:   -3.01 KCAL/MOL
REMARK 922        TOTAL FREE ENERGY PREDICTED BY IDOCK:   -4.09 KCAL/MOL
REMARK 923 INTER-LIGAND FREE ENERGY PREDICTED BY IDOCK:   -3.61 KCAL/MOL
REMARK 924 INTRA-LIGAND FREE ENERGY PREDICTED BY IDOCK:   -0.47 KCAL/MOL
REMARK 927      BINDING AFFINITY PREDICTED BY RF-SCORE:    0.00 PKD
ROOT
HETATM    1  N   UNL     1     -11.212   7.235  73.176  1.00  0.00    -0.561 NA 
HETATM    2  H1  UNL     1     -12.182   7.351  72.883  1.00  0.00     0.000 HD 
HETATM    3  H2  UNL     1     -10.859   8.060  73.663  1.00  0.00     0.000 HD 
HETATM    4  C   UNL     1     -10.371   6.877  72.014  1.00  0.00    -0.199 C  
ENDROOT
BRANCH   4   5
HETATM    5  C   UNL     1     -10.881   5.597  71.310  1.00  0.00    -0.289 C  
BRANCH   5   6
HETATM    6  C   UNL     1     -10.543   5.543  69.835  1.00  0.00    -0.387 A  
HETATM    7  C   UNL     1      -9.788   5.568  67.133  1.00  0.00    -0.172 A  
HETATM    8  C   UNL     1     -11.171   6.408  68.928  1.00  0.00    -0.385 A  
HETATM    9  C   UNL     1      -9.567   4.658  69.359  1.00  0.00    -0.257 A  
HETATM   10  C   UNL     1      -9.183   4.678  68.018  1.00  0.00    -0.158 A  
HETATM   11  C   UNL     1     -10.792   6.422  67.584  1.00  0.00    -0.425 A  
ENDBRANCH   5   6
ENDBRANCH   4   5
BRANCH   4  12
HETATM   12  C   UNL     1      -8.902   6.701  72.457  1.00  0.00    -0.127 C  
BRANCH  12  13
HETATM   13  O   UNL     1      -8.005   6.907  71.347  1.00  0.00    -0.106 OA 
BRANCH  13  14
HETATM   14  C   UNL     1      -7.928   8.183  70.903  1.00  0.00    -0.096 C  
HETATM   15  H1  UNL     1      -7.966   9.173  69.223  1.00  0.00     0.000 HD 
HETATM   16  O   UNL     1      -7.788   9.181  71.590  1.00  0.00    -0.340 OA 
HETATM   17  N   UNL     1      -8.025   8.212  69.558  1.00  0.00    -0.111 N  
HETATM   18  H2  UNL     1      -8.139   7.392  68.962  1.00  0.00     0.000 HD 
ENDBRANCH  13  14
ENDBRANCH  12  13
ENDBRANCH   4  12
TORSDOF 5
ENDMDL
MODEL      187
REMARK 921   NORMALIZED FREE ENERGY PREDICTED BY IDOCK:   -3.00 KCAL/MOL
REMARK 922        TOTAL FREE ENERGY PREDICTED BY IDOCK:   -4.08 KCAL/MOL
REMARK 923 INTER-LIGAND FREE ENERGY PREDICTED BY IDOCK:   -4.08 KCAL/MOL
REMARK 924 INTRA-LIGAND FREE ENERGY PREDICTED BY IDOCK:    0.00 KCAL/MOL
REMARK 927      BINDING AFFINITY PREDICTED BY RF-SCORE:    0.00 PKD
ROOT
HETATM    1  N   UNL     1      -8.991   6.242  70.301  1.00  0.00    -0.152 NA 
HETATM    2  H1  UNL     1      -8.897   6.074  69.299  1.00  0.00     0.000 HD 
HETATM    3  H2  UNL     1      -8.205   5.859  70.829  1.00  0.00     0.000 HD 
HETATM    4  C   UNL     1     -10.288   5.722  70.783  1.00  0.00    -0.237 C  
ENDROOT
BRANCH   4   5
HETATM    5  C   UNL     1     -11.477   6.344  70.014  1.00  0.00    -0.496 C  
BRANCH   5   6
HETATM    6  C   UNL     1     -12.123   7.506  70.739  1.00  0.00    -0.190 A  
HETATM    7  C   UNL     1     -13.405   9.701  71.927  1.00  0.00    -0.526 A  
HETATM    8  C   UNL     1     -11.510   8.767  70.752  1.00  0.00    -0.309 A  
HETATM    9  C   UNL     1     -13.364   7.351  71.372  1.00  0.00    -0.398 A  
HETATM   10  C   UNL     1     -14.006   8.444  71.953  1.00  0.00    -0.483 A  
HETATM   11  C   UNL     1     -12.151   9.859  71.340  1.00  0.00    -0.501 A  
ENDBRANCH   5   6
ENDBRANCH   4   5
BRANCH   4  12
HETATM   12  C   UNL     1     -10.431   5.976  72.300  1.00  0.00    -0.205 C  
BRANCH  12  13
HETATM   13  O   UNL     1      -9.269   5.501  73.009  1.00  0.00    -0.137 OA 
BRANCH  13  14
HETATM   14  C   UNL     1      -9.432   4.320  73.648  1.00  0.00    -0.109 C  
HETATM   15  H1  UNL     1     -10.772   3.380  74.710  1.00  0.00     0.000 HD 
HETATM   16  O   UNL     1      -8.618   3.413  73.712  1.00  0.00    -0.081 OA 
HETATM   17  N   UNL     1     -10.649   4.270  74.228  1.00  0.00    -0.256 N  
HETATM   18  H2  UNL     1     -11.345   5.015  74.190  1.00  0.00     0.000 HD 
ENDBRANCH  13  14
ENDBRANCH  12  13
ENDBRANCH   4  12
TORSDOF 5
ENDMDL
MODEL      188
REMARK 921   NORMALIZED FREE ENERGY PREDICTED BY IDOCK:   -2.97 KCAL/MOL
REMARK 922        TOTAL FREE ENERGY PREDICTED BY IDOCK:   -4.04 KCAL/MOL
REMARK 923 INTER-LIGAND FREE ENERGY PREDICTED BY IDOCK:   -3.73 KCAL/MOL
REMARK 924 INTRA-LIGAND FREE ENERGY PREDICTED BY IDOCK:   -0.31 KCAL/MOL
REMARK 927      BINDING AFFINITY PREDICTED BY RF-SCORE:    0.00 PKD
ROOT
HETATM    1  N   UNL     1      -8.421   8.178  68.189  1.00  0.00    -0.126 NA 
HETATM    2  H1  UNL     1      -7.850   7.628  68.832  1.00  0.00     0.000 HD 
HETATM    3  H2  UNL     1      -8.107   9.148  68.133  1.00  0.00     0.000 HD 
HETATM    4  C   UNL     1      -9.848   8.078  68.565  1.00  0.00    -0.174 C  
ENDROOT
BRANCH   4   5
HETATM    5  C   UNL     1     -10.330   6.609  68.598  1.00  0.00    -0.208 C  
BRANCH   5   6
HETATM    6  C   UNL     1     -10.795   6.156  69.966  1.00  0.00    -0.408 A  
HETATM    7  C   UNL     1     -11.541   5.436  72.573  1.00  0.00    -0.225 A  
HETATM    8  C   UNL     1     -10.142   5.108  70.629  1.00  0.00    -0.309 A  
HETATM    9  C   UNL     1     -11.858   6.805  70.609  1.00  0.00    -0.442 A  
HETATM   10  C   UNL     1     -12.222   6.455  71.909  1.00  0.00    -0.332 A  
HETATM   11  C   UNL     1     -10.512   4.753  71.928  1.00  0.00    -0.201 A  
ENDBRANCH   5   6
ENDBRANCH   4   5
BRANCH   4  12
HETATM   12  C   UNL     1     -10.711   8.911  67.592  1.00  0.00    -0.151 C  
BRANCH  12  13
HETATM   13  O   UNL     1     -10.262  10.280  67.554  1.00  0.00    -0.187 OA 
BRANCH  13  14
HETATM   14  C   UNL     1     -10.813  11.090  68.486  1.00  0.00    -0.213 C  
HETATM   15  H1  UNL     1     -10.354  12.665  69.542  1.00  0.00     0.000 HD 
HETATM   16  O   UNL     1     -11.932  10.988  68.963  1.00  0.00    -0.337 OA 
HETATM   17  N   UNL     1      -9.939  12.055  68.839  1.00  0.00    -0.414 N  
HETATM   18  H2  UNL     1      -8.998  12.159  68.457  1.00  0.00     0.000 HD 
ENDBRANCH  13  14
ENDBRANCH  12  13
ENDBRANCH   4  12
TORSDOF 5
ENDMDL
MODEL      189
REMARK 921   NORMALIZED FREE ENERGY PREDICTED BY IDOCK:   -2.96 KCAL/MOL
REMARK 922        TOTAL FREE ENERGY PREDICTED BY IDOCK:   -4.02 KCAL/MOL
REMARK 923 INTER-LIGAND FREE ENERGY PREDICTED BY IDOCK:   -3.72 KCAL/MOL
REMARK 924 INTRA-LIGAND FREE ENERGY PREDICTED BY IDOCK:   -0.30 KCAL/MOL
REMARK 927      BINDING AFFINITY PREDICTED BY RF-SCORE:    0.00 PKD
ROOT
HETATM    1  N   UNL     1      -8.108   9.520  67.259  1.00  0.00    -0.109 NA 
HETATM    2  H1  UNL     1      -8.126   8.576  67.645  1.00  0.00     0.000 HD 
HETATM    3  H2  UNL     1      -7.162   9.902  67.225  1.00  0.00     0.000 HD 
HETATM    4  C   UNL     1      -9.032  10.395  68.014  1.00  0.00    -0.129 C  
ENDROOT
BRANCH   4   5
HETATM    5  C   UNL     1     -10.475   9.837  68.018  1.00  0.00    -0.271 C  
BRANCH   5   6
HETATM    6  C   UNL     1     -10.997   9.524  69.404  1.00  0.00    -0.192 A  
HETATM    7  C   UNL     1     -11.827   9.039  72.040  1.00  0.00    -0.426 A  
HETATM    8  C   UNL     1     -10.553   8.386  70.092  1.00  0.00    -0.235 A  
HETATM    9  C   UNL     1     -11.900  10.388  70.038  1.00  0.00    -0.351 A  
HETATM   10  C   UNL     1     -12.304  10.153  71.352  1.00  0.00    -0.515 A  
HETATM   11  C   UNL     1     -10.964   8.148  71.405  1.00  0.00    -0.282 A  
ENDBRANCH   5   6
ENDBRANCH   4   5
BRANCH   4  12
HETATM   12  C   UNL     1      -9.005  11.824  67.428  1.00  0.00    -0.173 C  
BRANCH  12  13
HETATM   13  O   UNL     1      -8.942  12.807  68.482  1.00  0.00    -0.152 OA 
BRANCH  13  14
HETATM   14  C   UNL     1      -9.793  13.849  68.343  1.00  0.00    -0.229 C  
HETATM   15  H1  UNL     1     -10.109  15.617  69.105  1.00  0.00     0.000 HD 
HETATM   16  O   UNL     1     -10.727  13.922  67.562  1.00  0.00    -0.263 OA 
HETATM   17  N   UNL     1      -9.468  14.831  69.210  1.00  0.00    -0.389 N  
HETATM   18  H2  UNL     1      -8.694  14.793  69.873  1.00  0.00     0.000 HD 
ENDBRANCH  13  14
ENDBRANCH  12  13
ENDBRANCH   4  12
TORSDOF 5
ENDMDL
MODEL      190
REMARK 921   NORMALIZED FREE ENERGY PREDICTED BY IDOCK:   -2.96 KCAL/MOL
REMARK 922        TOTAL FREE ENERGY PREDICTED BY IDOCK:   -4.02 KCAL/MOL
REMARK 923 INTER-LIGAND FREE ENERGY PREDICTED BY IDOCK:   -3.96 KCAL/MOL
REMARK 924 INTRA-LIGAND FREE ENERGY PREDICTED BY IDOCK:   -0.05 KCAL/MOL
REMARK 927      BINDING AFFINITY PREDICTED BY RF-SCORE:    0.00 PKD
ROOT
HETATM    1  N   UNL     1     -12.297  14.760  70.114  1.00  0.00    -0.369 NA 
HETATM    2  H1  UNL     1     -13.092  14.210  69.791  1.00  0.00     0.000 HD 
HETATM    3  H2  UNL     1     -12.591  15.608  70.601  1.00  0.00     0.000 HD 
HETATM    4  C   UNL     1     -11.391  15.057  68.983  1.00  0.00    -0.290 C  
ENDROOT
BRANCH   4   5
HETATM    5  C   UNL     1     -10.909  13.766  68.281  1.00  0.00    -0.266 C  
BRANCH   5   6
HETATM    6  C   UNL     1     -11.075  13.798  66.777  1.00  0.00    -0.316 A  
HETATM    7  C   UNL     1     -11.539  13.947  64.014  1.00  0.00    -0.253 A  
HETATM    8  C   UNL     1     -11.771  12.776  66.115  1.00  0.00    -0.458 A  
HETATM    9  C   UNL     1     -10.574  14.870  66.027  1.00  0.00    -0.321 A  
HETATM   10  C   UNL     1     -10.813  14.950  64.655  1.00  0.00    -0.296 A  
HETATM   11  C   UNL     1     -12.004  12.853  64.741  1.00  0.00    -0.445 A  
ENDBRANCH   5   6
ENDBRANCH   4   5
BRANCH   4  12
HETATM   12  C   UNL     1     -10.187  15.890  69.473  1.00  0.00    -0.279 C  
BRANCH  12  13
HETATM   13  O   UNL     1      -8.973  15.113  69.422  1.00  0.00    -0.225 OA 
BRANCH  13  14
HETATM   14  C   UNL     1      -8.127  15.438  68.418  1.00  0.00    -0.140 C  
HETATM   15  H1  UNL     1      -7.732  16.942  67.240  1.00  0.00     0.000 HD 
HETATM   16  O   UNL     1      -7.264  14.722  67.939  1.00  0.00    -0.123 OA 
HETATM   17  N   UNL     1      -8.369  16.697  67.997  1.00  0.00    -0.183 N  
HETATM   18  H2  UNL     1      -9.086  17.313  68.380  1.00  0.00     0.000 HD 
ENDBRANCH  13  14
ENDBRANCH  12  13
ENDBRANCH   4  12
TORSDOF 5
ENDMDL
MODEL      191
REMARK 921   NORMALIZED FREE ENERGY PREDICTED BY IDOCK:   -2.96 KCAL/MOL
REMARK 922        TOTAL FREE ENERGY PREDICTED BY IDOCK:   -4.02 KCAL/MOL
REMARK 923 INTER-LIGAND FREE ENERGY PREDICTED BY IDOCK:   -3.79 KCAL/MOL
REMARK 924 INTRA-LIGAND FREE ENERGY PREDICTED BY IDOCK:   -0.23 KCAL/MOL
REMARK 927      BINDING AFFINITY PREDICTED BY RF-SCORE:    0.00 PKD
ROOT
HETATM    1  N   UNL     1      -6.535  15.570  69.722  1.00  0.00    -0.167 NA 
HETATM    2  H1  UNL     1      -7.051  14.695  69.818  1.00  0.00     0.000 HD 
HETATM    3  H2  UNL     1      -6.276  15.962  70.627  1.00  0.00     0.000 HD 
HETATM    4  C   UNL     1      -7.311  16.528  68.905  1.00  0.00    -0.219 C  
ENDROOT
BRANCH   4   5
HETATM    5  C   UNL     1      -7.657  15.946  67.514  1.00  0.00    -0.186 C  
BRANCH   5   6
HETATM    6  C   UNL     1      -9.131  15.649  67.333  1.00  0.00    -0.203 A  
HETATM    7  C   UNL     1     -11.824  14.922  67.028  1.00  0.00    -0.216 A  
HETATM    8  C   UNL     1      -9.645  15.340  66.067  1.00  0.00    -0.372 A  
HETATM    9  C   UNL     1      -9.996  15.636  68.436  1.00  0.00    -0.210 A  
HETATM   10  C   UNL     1     -11.332  15.265  68.286  1.00  0.00    -0.344 A  
HETATM   11  C   UNL     1     -10.985  14.975  65.916  1.00  0.00    -0.343 A  
ENDBRANCH   5   6
ENDBRANCH   4   5
BRANCH   4  12
HETATM   12  C   UNL     1      -6.531  17.853  68.759  1.00  0.00    -0.230 C  
BRANCH  12  13
HETATM   13  O   UNL     1      -6.715  18.685  69.922  1.00  0.00    -0.061 OA 
BRANCH  13  14
HETATM   14  C   UNL     1      -6.242  19.947  69.803  1.00  0.00    -0.352 C  
HETATM   15  H1  UNL     1      -5.710  21.444  70.934  1.00  0.00     0.000 HD 
HETATM   16  O   UNL     1      -6.002  20.535  68.761  1.00  0.00    -0.296 OA 
HETATM   17  N   UNL     1      -6.066  20.493  71.024  1.00  0.00    -0.589 N  
HETATM   18  H2  UNL     1      -6.262  20.023  71.908  1.00  0.00     0.000 HD 
ENDBRANCH  13  14
ENDBRANCH  12  13
ENDBRANCH   4  12
TORSDOF 5
ENDMDL
MODEL      192
REMARK 921   NORMALIZED FREE ENERGY PREDICTED BY IDOCK:   -2.92 KCAL/MOL
REMARK 922        TOTAL FREE ENERGY PREDICTED BY IDOCK:   -3.98 KCAL/MOL
REMARK 923 INTER-LIGAND FREE ENERGY PREDICTED BY IDOCK:   -3.86 KCAL/MOL
REMARK 924 INTRA-LIGAND FREE ENERGY PREDICTED BY IDOCK:   -0.11 KCAL/MOL
REMARK 927      BINDING AFFINITY PREDICTED BY RF-SCORE:    0.00 PKD
ROOT
HETATM    1  N   UNL     1      -9.571   8.752  72.062  1.00  0.00    -0.307 NA 
HETATM    2  H1  UNL     1      -9.531   8.222  72.932  1.00  0.00     0.000 HD 
HETATM    3  H2  UNL     1      -8.951   9.563  72.079  1.00  0.00     0.000 HD 
HETATM    4  C   UNL     1     -10.969   9.130  71.761  1.00  0.00    -0.359 C  
ENDROOT
BRANCH   4   5
HETATM    5  C   UNL     1     -11.893   7.892  71.685  1.00  0.00    -0.325 C  
BRANCH   5   6
HETATM    6  C   UNL     1     -11.229   6.678  71.071  1.00  0.00    -0.349 A  
HETATM    7  C   UNL     1      -9.843   4.523  69.928  1.00  0.00    -0.298 A  
HETATM    8  C   UNL     1     -11.178   6.522  69.679  1.00  0.00    -0.446 A  
HETATM    9  C   UNL     1     -10.618   5.713  71.882  1.00  0.00    -0.287 A  
HETATM   10  C   UNL     1      -9.920   4.647  71.314  1.00  0.00    -0.268 A  
HETATM   11  C   UNL     1     -10.484   5.452  69.111  1.00  0.00    -0.277 A  
ENDBRANCH   5   6
ENDBRANCH   4   5
BRANCH   4  12
HETATM   12  C   UNL     1     -11.029   9.932  70.442  1.00  0.00    -0.318 C  
BRANCH  12  13
HETATM   13  O   UNL     1      -9.702  10.270  69.989  1.00  0.00    -0.160 OA 
BRANCH  13  14
HETATM   14  C   UNL     1      -9.520  10.200  68.651  1.00  0.00    -0.164 C  
HETATM   15  H1  UNL     1      -8.766  11.262  67.198  1.00  0.00     0.000 HD 
HETATM   16  O   UNL     1      -9.854   9.280  67.922  1.00  0.00    -0.155 OA 
HETATM   17  N   UNL     1      -8.903  11.315  68.207  1.00  0.00    -0.152 N  
HETATM   18  H2  UNL     1      -8.617  12.097  68.795  1.00  0.00     0.000 HD 
ENDBRANCH  13  14
ENDBRANCH  12  13
ENDBRANCH   4  12
TORSDOF 5
ENDMDL
MODEL      193
REMARK 921   NORMALIZED FREE ENERGY PREDICTED BY IDOCK:   -2.91 KCAL/MOL
REMARK 922        TOTAL FREE ENERGY PREDICTED BY IDOCK:   -3.96 KCAL/MOL
REMARK 923 INTER-LIGAND FREE ENERGY PREDICTED BY IDOCK:   -3.71 KCAL/MOL
REMARK 924 INTRA-LIGAND FREE ENERGY PREDICTED BY IDOCK:   -0.25 KCAL/MOL
REMARK 927      BINDING AFFINITY PREDICTED BY RF-SCORE:    0.00 PKD
ROOT
HETATM    1  N   UNL     1     -12.460   8.159  72.834  1.00  0.00    -0.653 NA 
HETATM    2  H1  UNL     1     -12.996   8.617  72.097  1.00  0.00     0.000 HD 
HETATM    3  H2  UNL     1     -12.480   8.686  73.707  1.00  0.00     0.000 HD 
HETATM    4  C   UNL     1     -11.078   7.904  72.372  1.00  0.00    -0.333 C  
ENDROOT
BRANCH   4   5
HETATM    5  C   UNL     1     -11.053   7.060  71.075  1.00  0.00    -0.295 C  
BRANCH   5   6
HETATM    6  C   UNL     1     -10.886   7.888  69.819  1.00  0.00    -0.202 A  
HETATM    7  C   UNL     1     -10.401   9.435  67.529  1.00  0.00    -0.314 A  
HETATM    8  C   UNL     1     -11.007   9.284  69.864  1.00  0.00    -0.231 A  
HETATM    9  C   UNL     1     -10.568   7.276  68.599  1.00  0.00    -0.194 A  
HETATM   10  C   UNL     1     -10.316   8.046  67.463  1.00  0.00    -0.330 A  
HETATM   11  C   UNL     1     -10.761  10.053  68.725  1.00  0.00    -0.250 A  
ENDBRANCH   5   6
ENDBRANCH   4   5
BRANCH   4  12
HETATM   12  C   UNL     1     -10.266   7.209  73.486  1.00  0.00    -0.351 C  
BRANCH  12  13
HETATM   13  O   UNL     1      -9.535   6.083  72.960  1.00  0.00    -0.144 OA 
BRANCH  13  14
HETATM   14  C   UNL     1      -9.351   5.063  73.828  1.00  0.00    -0.128 C  
HETATM   15  H1  UNL     1      -7.898   4.124  74.729  1.00  0.00     0.000 HD 
HETATM   16  O   UNL     1     -10.225   4.374  74.330  1.00  0.00    -0.186 OA 
HETATM   17  N   UNL     1      -8.036   4.894  74.075  1.00  0.00    -0.101 N  
HETATM   18  H2  UNL     1      -7.288   5.454  73.666  1.00  0.00     0.000 HD 
ENDBRANCH  13  14
ENDBRANCH  12  13
ENDBRANCH   4  12
TORSDOF 5
ENDMDL
MODEL      194
REMARK 921   NORMALIZED FREE ENERGY PREDICTED BY IDOCK:   -2.91 KCAL/MOL
REMARK 922        TOTAL FREE ENERGY PREDICTED BY IDOCK:   -3.95 KCAL/MOL
REMARK 923 INTER-LIGAND FREE ENERGY PREDICTED BY IDOCK:   -3.72 KCAL/MOL
REMARK 924 INTRA-LIGAND FREE ENERGY PREDICTED BY IDOCK:   -0.23 KCAL/MOL
REMARK 927      BINDING AFFINITY PREDICTED BY RF-SCORE:    0.00 PKD
ROOT
HETATM    1  N   UNL     1      -7.976  11.787  66.092  1.00  0.00    -0.369 NA 
HETATM    2  H1  UNL     1      -7.290  12.533  65.976  1.00  0.00     0.000 HD 
HETATM    3  H2  UNL     1      -8.176  11.312  65.211  1.00  0.00     0.000 HD 
HETATM    4  C   UNL     1      -9.202  12.318  66.726  1.00  0.00    -0.210 C  
ENDROOT
BRANCH   4   5
HETATM    5  C   UNL     1      -8.899  12.993  68.084  1.00  0.00    -0.194 C  
BRANCH   5   6
HETATM    6  C   UNL     1      -9.310  14.449  68.141  1.00  0.00    -0.203 A  
HETATM    7  C   UNL     1     -10.109  17.124  68.422  1.00  0.00    -0.314 A  
HETATM    8  C   UNL     1     -10.642  14.822  67.911  1.00  0.00    -0.248 A  
HETATM    9  C   UNL     1      -8.376  15.442  68.465  1.00  0.00    -0.151 A  
HETATM   10  C   UNL     1      -8.775  16.770  68.616  1.00  0.00    -0.255 A  
HETATM   11  C   UNL     1     -11.039  16.153  68.055  1.00  0.00    -0.317 A  
ENDBRANCH   5   6
ENDBRANCH   4   5
BRANCH   4  12
HETATM   12  C   UNL     1     -10.240  11.189  66.902  1.00  0.00    -0.222 C  
BRANCH  12  13
HETATM   13  O   UNL     1     -10.141  10.232  65.827  1.00  0.00    -0.254 OA 
BRANCH  13  14
HETATM   14  C   UNL     1     -10.033   8.942  66.218  1.00  0.00    -0.266 C  
HETATM   15  H1  UNL     1      -9.158   7.290  65.658  1.00  0.00     0.000 HD 
HETATM   16  O   UNL     1     -10.564   8.434  67.192  1.00  0.00    -0.311 OA 
HETATM   17  N   UNL     1      -9.239   8.263  65.364  1.00  0.00    -0.408 N  
HETATM   18  H2  UNL     1      -8.786   8.665  64.543  1.00  0.00     0.000 HD 
ENDBRANCH  13  14
ENDBRANCH  12  13
ENDBRANCH   4  12
TORSDOF 5
ENDMDL
MODEL      195
REMARK 921   NORMALIZED FREE ENERGY PREDICTED BY IDOCK:   -2.90 KCAL/MOL
REMARK 922        TOTAL FREE ENERGY PREDICTED BY IDOCK:   -3.95 KCAL/MOL
REMARK 923 INTER-LIGAND FREE ENERGY PREDICTED BY IDOCK:   -4.19 KCAL/MOL
REMARK 924 INTRA-LIGAND FREE ENERGY PREDICTED BY IDOCK:    0.24 KCAL/MOL
REMARK 927      BINDING AFFINITY PREDICTED BY RF-SCORE:    0.00 PKD
ROOT
HETATM    1  N   UNL     1     -10.125  13.078  68.630  1.00  0.00    -0.388 NA 
HETATM    2  H1  UNL     1     -10.040  12.167  69.081  1.00  0.00     0.000 HD 
HETATM    3  H2  UNL     1     -11.009  13.536  68.857  1.00  0.00     0.000 HD 
HETATM    4  C   UNL     1      -9.931  12.942  67.170  1.00  0.00    -0.240 C  
ENDROOT
BRANCH   4   5
HETATM    5  C   UNL     1      -8.567  12.294  66.832  1.00  0.00    -0.182 C  
BRANCH   5   6
HETATM    6  C   UNL     1      -8.657  10.808  66.554  1.00  0.00    -0.150 A  
HETATM    7  C   UNL     1      -8.874   8.096  65.871  1.00  0.00    -0.194 A  
HETATM    8  C   UNL     1      -9.859  10.117  66.758  1.00  0.00    -0.247 A  
HETATM    9  C   UNL     1      -7.552  10.109  66.050  1.00  0.00    -0.118 A  
HETATM   10  C   UNL     1      -7.662   8.763  65.700  1.00  0.00    -0.091 A  
HETATM   11  C   UNL     1      -9.967   8.768  66.414  1.00  0.00    -0.346 A  
ENDBRANCH   5   6
ENDBRANCH   4   5
BRANCH   4  12
HETATM   12  C   UNL     1     -10.059  14.321  66.488  1.00  0.00    -0.278 C  
BRANCH  12  13
HETATM   13  O   UNL     1     -11.443  14.636  66.228  1.00  0.00    -0.355 OA 
BRANCH  13  14
HETATM   14  C   UNL     1     -12.181  13.611  65.744  1.00  0.00    -0.464 C  
HETATM   15  H1  UNL     1     -13.193  13.139  64.144  1.00  0.00     0.000 HD 
HETATM   16  O   UNL     1     -12.423  12.560  66.314  1.00  0.00    -0.475 OA 
HETATM   17  N   UNL     1     -12.636  13.910  64.509  1.00  0.00    -0.663 N  
HETATM   18  H2  UNL     1     -12.449  14.782  64.013  1.00  0.00     0.000 HD 
ENDBRANCH  13  14
ENDBRANCH  12  13
ENDBRANCH   4  12
TORSDOF 5
ENDMDL
MODEL      196
REMARK 921   NORMALIZED FREE ENERGY PREDICTED BY IDOCK:   -2.89 KCAL/MOL
REMARK 922        TOTAL FREE ENERGY PREDICTED BY IDOCK:   -3.93 KCAL/MOL
REMARK 923 INTER-LIGAND FREE ENERGY PREDICTED BY IDOCK:   -3.57 KCAL/MOL
REMARK 924 INTRA-LIGAND FREE ENERGY PREDICTED BY IDOCK:   -0.36 KCAL/MOL
REMARK 927      BINDING AFFINITY PREDICTED BY RF-SCORE:    0.00 PKD
ROOT
HETATM    1  N   UNL     1      -7.024   7.221  69.887  1.00  0.00    -0.056 NA 
HETATM    2  H1  UNL     1      -6.943   7.782  70.736  1.00  0.00     0.000 HD 
HETATM    3  H2  UNL     1      -6.550   7.656  69.095  1.00  0.00     0.000 HD 
HETATM    4  C   UNL     1      -8.447   6.943  69.597  1.00  0.00    -0.133 C  
ENDROOT
BRANCH   4   5
HETATM    5  C   UNL     1      -9.147   6.238  70.782  1.00  0.00    -0.150 C  
BRANCH   5   6
HETATM    6  C   UNL     1     -10.472   6.865  71.161  1.00  0.00    -0.234 A  
HETATM    7  C   UNL     1     -12.938   7.908  71.999  1.00  0.00    -0.270 A  
HETATM    8  C   UNL     1     -11.671   6.372  70.629  1.00  0.00    -0.377 A  
HETATM    9  C   UNL     1     -10.524   7.920  72.082  1.00  0.00    -0.308 A  
HETATM   10  C   UNL     1     -11.750   8.432  72.507  1.00  0.00    -0.429 A  
HETATM   11  C   UNL     1     -12.898   6.889  71.050  1.00  0.00    -0.220 A  
ENDBRANCH   5   6
ENDBRANCH   4   5
BRANCH   4  12
HETATM   12  C   UNL     1      -8.569   6.094  68.313  1.00  0.00    -0.116 C  
BRANCH  12  13
HETATM   13  O   UNL     1      -9.521   6.680  67.401  1.00  0.00    -0.126 OA 
BRANCH  13  14
HETATM   14  C   UNL     1     -10.447   5.824  66.913  1.00  0.00    -0.285 C  
HETATM   15  H1  UNL     1     -12.346   5.788  66.468  1.00  0.00     0.000 HD 
HETATM   16  O   UNL     1     -10.258   4.664  66.583  1.00  0.00    -0.237 OA 
HETATM   17  N   UNL     1     -11.648   6.434  66.836  1.00  0.00    -0.634 N  
HETATM   18  H2  UNL     1     -11.831   7.400  67.107  1.00  0.00     0.000 HD 
ENDBRANCH  13  14
ENDBRANCH  12  13
ENDBRANCH   4  12
TORSDOF 5
ENDMDL
MODEL      197
REMARK 921   NORMALIZED FREE ENERGY PREDICTED BY IDOCK:   -2.88 KCAL/MOL
REMARK 922        TOTAL FREE ENERGY PREDICTED BY IDOCK:   -3.92 KCAL/MOL
REMARK 923 INTER-LIGAND FREE ENERGY PREDICTED BY IDOCK:   -3.55 KCAL/MOL
REMARK 924 INTRA-LIGAND FREE ENERGY PREDICTED BY IDOCK:   -0.38 KCAL/MOL
REMARK 927      BINDING AFFINITY PREDICTED BY RF-SCORE:    0.00 PKD
ROOT
HETATM    1  N   UNL     1      -8.315   8.574  73.658  1.00  0.00    -0.380 NA 
HETATM    2  H1  UNL     1      -7.966   9.362  73.112  1.00  0.00     0.000 HD 
HETATM    3  H2  UNL     1      -7.558   8.038  74.083  1.00  0.00     0.000 HD 
HETATM    4  C   UNL     1      -9.193   7.727  72.823  1.00  0.00    -0.195 C  
ENDROOT
BRANCH   4   5
HETATM    5  C   UNL     1     -10.368   8.535  72.224  1.00  0.00    -0.402 C  
BRANCH   5   6
HETATM    6  C   UNL     1     -10.356   8.587  70.711  1.00  0.00    -0.238 A  
HETATM    7  C   UNL     1     -10.165   8.620  67.911  1.00  0.00    -0.273 A  
HETATM    8  C   UNL     1      -9.916   9.737  70.040  1.00  0.00    -0.299 A  
HETATM    9  C   UNL     1     -10.745   7.472  69.956  1.00  0.00    -0.248 A  
HETATM   10  C   UNL     1     -10.640   7.484  68.565  1.00  0.00    -0.172 A  
HETATM   11  C   UNL     1      -9.818   9.751  68.648  1.00  0.00    -0.168 A  
ENDBRANCH   5   6
ENDBRANCH   4   5
BRANCH   4  12
HETATM   12  C   UNL     1      -9.722   6.534  73.649  1.00  0.00    -0.192 C  
BRANCH  12  13
HETATM   13  O   UNL     1      -9.563   5.299  72.923  1.00  0.00    -0.143 OA 
BRANCH  13  14
HETATM   14  C   UNL     1     -10.659   4.506  72.897  1.00  0.00    -0.207 C  
HETATM   15  H1  UNL     1     -12.602   4.658  72.963  1.00  0.00     0.000 HD 
HETATM   16  O   UNL     1     -10.669   3.289  72.813  1.00  0.00    -0.127 OA 
HETATM   17  N   UNL     1     -11.777   5.256  72.982  1.00  0.00    -0.504 N  
HETATM   18  H2  UNL     1     -11.794   6.273  73.056  1.00  0.00     0.000 HD 
ENDBRANCH  13  14
ENDBRANCH  12  13
ENDBRANCH   4  12
TORSDOF 5
ENDMDL
MODEL      198
REMARK 921   NORMALIZED FREE ENERGY PREDICTED BY IDOCK:   -2.87 KCAL/MOL
REMARK 922        TOTAL FREE ENERGY PREDICTED BY IDOCK:   -3.91 KCAL/MOL
REMARK 923 INTER-LIGAND FREE ENERGY PREDICTED BY IDOCK:   -3.99 KCAL/MOL
REMARK 924 INTRA-LIGAND FREE ENERGY PREDICTED BY IDOCK:    0.07 KCAL/MOL
REMARK 927      BINDING AFFINITY PREDICTED BY RF-SCORE:    0.00 PKD
ROOT
HETATM    1  N   UNL     1     -11.821  10.872  67.875  1.00  0.00    -0.735 NA 
HETATM    2  H1  UNL     1     -12.043   9.925  68.183  1.00  0.00     0.000 HD 
HETATM    3  H2  UNL     1     -12.623  11.498  67.956  1.00  0.00     0.000 HD 
HETATM    4  C   UNL     1     -11.275  10.845  66.501  1.00  0.00     0.067 C  
ENDROOT
BRANCH   4   5
HETATM    5  C   UNL     1     -10.029   9.934  66.397  1.00  0.00    -0.309 C  
BRANCH   5   6
HETATM    6  C   UNL     1      -8.820  10.479  67.128  1.00  0.00    -0.140 A  
HETATM    7  C   UNL     1      -6.682  11.627  68.536  1.00  0.00    -0.069 A  
HETATM    8  C   UNL     1      -7.947  11.374  66.492  1.00  0.00    -0.128 A  
HETATM    9  C   UNL     1      -8.577  10.131  68.463  1.00  0.00    -0.118 A  
HETATM   10  C   UNL     1      -7.520  10.710  69.167  1.00  0.00    -0.123 A  
HETATM   11  C   UNL     1      -6.886  11.947  67.196  1.00  0.00    -0.144 A  
ENDBRANCH   5   6
ENDBRANCH   4   5
BRANCH   4  12
HETATM   12  C   UNL     1     -10.938  12.279  66.036  1.00  0.00    -0.292 C  
BRANCH  12  13
HETATM   13  O   UNL     1     -11.330  12.476  64.663  1.00  0.00    -0.298 OA 
BRANCH  13  14
HETATM   14  C   UNL     1     -12.617  12.853  64.483  1.00  0.00    -0.350 C  
HETATM   15  H1  UNL     1     -13.738  14.438  64.678  1.00  0.00     0.000 HD 
HETATM   16  O   UNL     1     -13.530  12.148  64.087  1.00  0.00    -0.671 OA 
HETATM   17  N   UNL     1     -12.769  14.153  64.813  1.00  0.00    -0.678 N  
HETATM   18  H2  UNL     1     -12.022  14.762  65.148  1.00  0.00     0.000 HD 
ENDBRANCH  13  14
ENDBRANCH  12  13
ENDBRANCH   4  12
TORSDOF 5
ENDMDL
MODEL      199
REMARK 921   NORMALIZED FREE ENERGY PREDICTED BY IDOCK:   -2.84 KCAL/MOL
REMARK 922        TOTAL FREE ENERGY PREDICTED BY IDOCK:   -3.87 KCAL/MOL
REMARK 923 INTER-LIGAND FREE ENERGY PREDICTED BY IDOCK:   -3.79 KCAL/MOL
REMARK 924 INTRA-LIGAND FREE ENERGY PREDICTED BY IDOCK:   -0.07 KCAL/MOL
REMARK 927      BINDING AFFINITY PREDICTED BY RF-SCORE:    0.00 PKD
ROOT
HETATM    1  N   UNL     1     -12.752   8.419  72.011  1.00  0.00    -0.343 NA 
HETATM    2  H1  UNL     1     -13.350   7.663  72.345  1.00  0.00     0.000 HD 
HETATM    3  H2  UNL     1     -13.088   8.811  71.130  1.00  0.00     0.000 HD 
HETATM    4  C   UNL     1     -11.352   7.953  71.912  1.00  0.00    -0.276 C  
ENDROOT
BRANCH   4   5
HETATM    5  C   UNL     1     -10.833   7.407  73.263  1.00  0.00    -0.417 C  
BRANCH   5   6
HETATM    6  C   UNL     1     -10.571   5.916  73.251  1.00  0.00    -0.277 A  
HETATM    7  C   UNL     1     -10.264   3.127  73.215  1.00  0.00    -0.219 A  
HETATM    8  C   UNL     1     -10.557   5.185  74.448  1.00  0.00    -0.228 A  
HETATM    9  C   UNL     1     -10.380   5.235  72.041  1.00  0.00    -0.273 A  
HETATM   10  C   UNL     1     -10.238   3.847  72.022  1.00  0.00    -0.169 A  
HETATM   11  C   UNL     1     -10.407   3.797  74.428  1.00  0.00    -0.258 A  
ENDBRANCH   5   6
ENDBRANCH   4   5
BRANCH   4  12
HETATM   12  C   UNL     1     -10.447   9.098  71.407  1.00  0.00    -0.344 C  
BRANCH  12  13
HETATM   13  O   UNL     1     -10.445   9.149  69.965  1.00  0.00    -0.201 OA 
BRANCH  13  14
HETATM   14  C   UNL     1     -10.121   7.988  69.352  1.00  0.00    -0.197 C  
HETATM   15  H1  UNL     1     -10.997   6.455  68.521  1.00  0.00     0.000 HD 
HETATM   16  O   UNL     1      -8.995   7.567  69.149  1.00  0.00    -0.136 OA 
HETATM   17  N   UNL     1     -11.240   7.331  68.983  1.00  0.00    -0.455 N  
HETATM   18  H2  UNL     1     -12.192   7.661  69.144  1.00  0.00     0.000 HD 
ENDBRANCH  13  14
ENDBRANCH  12  13
ENDBRANCH   4  12
TORSDOF 5
ENDMDL
MODEL      200
REMARK 921   NORMALIZED FREE ENERGY PREDICTED BY IDOCK:   -2.83 KCAL/MOL
REMARK 922        TOTAL FREE ENERGY PREDICTED BY IDOCK:   -3.86 KCAL/MOL
REMARK 923 INTER-LIGAND FREE ENERGY PREDICTED BY IDOCK:   -3.58 KCAL/MOL
REMARK 924 INTRA-LIGAND FREE ENERGY PREDICTED BY IDOCK:   -0.28 KCAL/MOL
REMARK 927      BINDING AFFINITY PREDICTED BY RF-SCORE:    0.00 PKD
ROOT
HETATM    1  N   UNL     1      -7.236   9.769  70.889  1.00  0.00    -0.330 NA 
HETATM    2  H1  UNL     1      -6.594   9.799  70.096  1.00  0.00     0.000 HD 
HETATM    3  H2  UNL     1      -6.759   9.532  71.759  1.00  0.00     0.000 HD 
HETATM    4  C   UNL     1      -8.354   8.845  70.602  1.00  0.00    -0.166 C  
ENDROOT
BRANCH   4   5
HETATM    5  C   UNL     1      -9.106   9.239  69.308  1.00  0.00    -0.151 C  
BRANCH   5   6
HETATM    6  C   UNL     1      -9.197   8.116  68.297  1.00  0.00    -0.134 A  
HETATM    7  C   UNL     1      -9.352   6.160  66.291  1.00  0.00    -0.157 A  
HETATM    8  C   UNL     1     -10.440   7.712  67.790  1.00  0.00    -0.282 A  
HETATM    9  C   UNL     1      -8.037   7.490  67.819  1.00  0.00    -0.119 A  
HETATM   10  C   UNL     1      -8.113   6.526  66.814  1.00  0.00    -0.109 A  
HETATM   11  C   UNL     1     -10.516   6.742  66.789  1.00  0.00    -0.298 A  
ENDBRANCH   5   6
ENDBRANCH   4   5
BRANCH   4  12
HETATM   12  C   UNL     1      -9.326   8.800  71.801  1.00  0.00    -0.280 C  
BRANCH  12  13
HETATM   13  O   UNL     1     -10.574   8.182  71.425  1.00  0.00    -0.212 OA 
BRANCH  13  14
HETATM   14  C   UNL     1     -11.535   8.209  72.376  1.00  0.00    -0.397 C  
HETATM   15  H1  UNL     1     -12.055   7.240  73.987  1.00  0.00     0.000 HD 
HETATM   16  O   UNL     1     -12.465   8.996  72.443  1.00  0.00    -0.361 OA 
HETATM   17  N   UNL     1     -11.331   7.220  73.270  1.00  0.00    -0.583 N  
HETATM   18  H2  UNL     1     -10.563   6.549  73.234  1.00  0.00     0.000 HD 
ENDBRANCH  13  14
ENDBRANCH  12  13
ENDBRANCH   4  12
TORSDOF 5
ENDMDL
MODEL      201
REMARK 921   NORMALIZED FREE ENERGY PREDICTED BY IDOCK:   -2.83 KCAL/MOL
REMARK 922        TOTAL FREE ENERGY PREDICTED BY IDOCK:   -3.85 KCAL/MOL
REMARK 923 INTER-LIGAND FREE ENERGY PREDICTED BY IDOCK:   -3.73 KCAL/MOL
REMARK 924 INTRA-LIGAND FREE ENERGY PREDICTED BY IDOCK:   -0.12 KCAL/MOL
REMARK 927      BINDING AFFINITY PREDICTED BY RF-SCORE:    0.00 PKD
ROOT
HETATM    1  N   UNL     1      -8.028   8.595  68.260  1.00  0.00    -0.109 NA 
HETATM    2  H1  UNL     1      -7.728   8.185  67.376  1.00  0.00     0.000 HD 
HETATM    3  H2  UNL     1      -7.286   8.576  68.961  1.00  0.00     0.000 HD 
HETATM    4  C   UNL     1      -9.259   7.930  68.738  1.00  0.00    -0.143 C  
ENDROOT
BRANCH   4   5
HETATM    5  C   UNL     1     -10.395   8.008  67.691  1.00  0.00    -0.312 C  
BRANCH   5   6
HETATM    6  C   UNL     1     -10.419   9.311  66.921  1.00  0.00    -0.284 A  
HETATM    7  C   UNL     1     -10.623  11.676  65.426  1.00  0.00    -0.331 A  
HETATM    8  C   UNL     1      -9.888   9.382  65.625  1.00  0.00    -0.294 A  
HETATM    9  C   UNL     1     -11.009  10.455  67.473  1.00  0.00    -0.358 A  
HETATM   10  C   UNL     1     -11.120  11.628  66.727  1.00  0.00    -0.366 A  
HETATM   11  C   UNL     1      -9.993  10.559  64.881  1.00  0.00    -0.401 A  
ENDBRANCH   5   6
ENDBRANCH   4   5
BRANCH   4  12
HETATM   12  C   UNL     1      -9.712   8.551  70.077  1.00  0.00    -0.170 C  
BRANCH  12  13
HETATM   13  O   UNL     1      -9.737   7.556  71.120  1.00  0.00    -0.164 OA 
BRANCH  13  14
HETATM   14  C   UNL     1     -10.795   6.713  71.081  1.00  0.00    -0.241 C  
HETATM   15  H1  UNL     1     -11.167   4.798  71.094  1.00  0.00     0.000 HD 
HETATM   16  O   UNL     1     -11.971   7.031  71.015  1.00  0.00    -0.328 OA 
HETATM   17  N   UNL     1     -10.370   5.433  71.123  1.00  0.00    -0.229 N  
HETATM   18  H2  UNL     1      -9.393   5.143  71.176  1.00  0.00     0.000 HD 
ENDBRANCH  13  14
ENDBRANCH  12  13
ENDBRANCH   4  12
TORSDOF 5
ENDMDL
MODEL      202
REMARK 921   NORMALIZED FREE ENERGY PREDICTED BY IDOCK:   -2.81 KCAL/MOL
REMARK 922        TOTAL FREE ENERGY PREDICTED BY IDOCK:   -3.82 KCAL/MOL
REMARK 923 INTER-LIGAND FREE ENERGY PREDICTED BY IDOCK:   -3.57 KCAL/MOL
REMARK 924 INTRA-LIGAND FREE ENERGY PREDICTED BY IDOCK:   -0.26 KCAL/MOL
REMARK 927      BINDING AFFINITY PREDICTED BY RF-SCORE:    0.00 PKD
ROOT
HETATM    1  N   UNL     1      -8.412   8.487  68.414  1.00  0.00    -0.137 NA 
HETATM    2  H1  UNL     1      -8.096   8.690  69.362  1.00  0.00     0.000 HD 
HETATM    3  H2  UNL     1      -7.637   8.453  67.751  1.00  0.00     0.000 HD 
HETATM    4  C   UNL     1      -9.447   9.461  68.005  1.00  0.00    -0.133 C  
ENDROOT
BRANCH   4   5
HETATM    5  C   UNL     1     -10.643   9.472  68.987  1.00  0.00    -0.238 C  
BRANCH   5   6
HETATM    6  C   UNL     1     -11.136  10.863  69.323  1.00  0.00    -0.305 A  
HETATM    7  C   UNL     1     -12.200  13.406  69.850  1.00  0.00    -0.337 A  
HETATM    8  C   UNL     1     -10.848  11.945  68.479  1.00  0.00    -0.257 A  
HETATM    9  C   UNL     1     -11.924  11.085  70.460  1.00  0.00    -0.474 A  
HETATM   10  C   UNL     1     -12.462  12.347  70.717  1.00  0.00    -0.356 A  
HETATM   11  C   UNL     1     -11.380  13.209  68.740  1.00  0.00    -0.333 A  
ENDBRANCH   5   6
ENDBRANCH   4   5
BRANCH   4  12
HETATM   12  C   UNL     1      -9.927   9.154  66.570  1.00  0.00    -0.288 C  
BRANCH  12  13
HETATM   13  O   UNL     1      -9.446  10.151  65.646  1.00  0.00    -0.187 OA 
BRANCH  13  14
HETATM   14  C   UNL     1      -8.101  10.203  65.509  1.00  0.00    -0.147 C  
HETATM   15  H1  UNL     1      -6.650  11.504  65.596  1.00  0.00     0.000 HD 
HETATM   16  O   UNL     1      -7.364   9.266  65.250  1.00  0.00    -0.091 OA 
HETATM   17  N   UNL     1      -7.663  11.465  65.699  1.00  0.00    -0.282 N  
HETATM   18  H2  UNL     1      -8.260  12.264  65.914  1.00  0.00     0.000 HD 
ENDBRANCH  13  14
ENDBRANCH  12  13
ENDBRANCH   4  12
TORSDOF 5
ENDMDL
MODEL      203
REMARK 921   NORMALIZED FREE ENERGY PREDICTED BY IDOCK:   -2.80 KCAL/MOL
REMARK 922        TOTAL FREE ENERGY PREDICTED BY IDOCK:   -3.82 KCAL/MOL
REMARK 923 INTER-LIGAND FREE ENERGY PREDICTED BY IDOCK:   -3.53 KCAL/MOL
REMARK 924 INTRA-LIGAND FREE ENERGY PREDICTED BY IDOCK:   -0.29 KCAL/MOL
REMARK 927      BINDING AFFINITY PREDICTED BY RF-SCORE:    0.00 PKD
ROOT
HETATM    1  N   UNL     1     -12.011  10.858  68.071  1.00  0.00    -0.777 NA 
HETATM    2  H1  UNL     1     -12.208  10.081  68.702  1.00  0.00     0.000 HD 
HETATM    3  H2  UNL     1     -12.829  11.119  67.519  1.00  0.00     0.000 HD 
HETATM    4  C   UNL     1     -10.847  10.538  67.218  1.00  0.00    -0.279 C  
ENDROOT
BRANCH   4   5
HETATM    5  C   UNL     1      -9.596  10.193  68.061  1.00  0.00    -0.160 C  
BRANCH   5   6
HETATM    6  C   UNL     1      -8.705   9.149  67.421  1.00  0.00    -0.118 A  
HETATM    7  C   UNL     1      -7.097   7.104  66.371  1.00  0.00    -0.077 A  
HETATM    8  C   UNL     1      -7.350   9.059  67.770  1.00  0.00    -0.084 A  
HETATM    9  C   UNL     1      -9.229   8.230  66.502  1.00  0.00    -0.236 A  
HETATM   10  C   UNL     1      -8.433   7.207  65.989  1.00  0.00    -0.148 A  
HETATM   11  C   UNL     1      -6.552   8.038  67.250  1.00  0.00    -0.058 A  
ENDBRANCH   5   6
ENDBRANCH   4   5
BRANCH   4  12
HETATM   12  C   UNL     1     -10.549  11.714  66.263  1.00  0.00    -0.258 C  
BRANCH  12  13
HETATM   13  O   UNL     1     -10.477  12.957  66.991  1.00  0.00    -0.237 OA 
BRANCH  13  14
HETATM   14  C   UNL     1     -11.099  14.003  66.400  1.00  0.00    -0.316 C  
HETATM   15  H1  UNL     1     -10.708  15.445  65.146  1.00  0.00     0.000 HD 
HETATM   16  O   UNL     1     -12.262  14.335  66.556  1.00  0.00    -0.441 OA 
HETATM   17  N   UNL     1     -10.239  14.657  65.591  1.00  0.00    -0.337 N  
HETATM   18  H2  UNL     1      -9.263  14.400  65.447  1.00  0.00     0.000 HD 
ENDBRANCH  13  14
ENDBRANCH  12  13
ENDBRANCH   4  12
TORSDOF 5
ENDMDL
MODEL      204
REMARK 921   NORMALIZED FREE ENERGY PREDICTED BY IDOCK:   -2.79 KCAL/MOL
REMARK 922        TOTAL FREE ENERGY PREDICTED BY IDOCK:   -3.81 KCAL/MOL
REMARK 923 INTER-LIGAND FREE ENERGY PREDICTED BY IDOCK:   -3.58 KCAL/MOL
REMARK 924 INTRA-LIGAND FREE ENERGY PREDICTED BY IDOCK:   -0.23 KCAL/MOL
REMARK 927      BINDING AFFINITY PREDICTED BY RF-SCORE:    0.00 PKD
ROOT
HETATM    1  N   UNL     1      -8.376   6.218  69.445  1.00  0.00    -0.120 NA 
HETATM    2  H1  UNL     1      -8.898   7.019  69.800  1.00  0.00     0.000 HD 
HETATM    3  H2  UNL     1      -7.859   6.444  68.595  1.00  0.00     0.000 HD 
HETATM    4  C   UNL     1      -9.284   5.067  69.250  1.00  0.00    -0.109 C  
ENDROOT
BRANCH   4   5
HETATM    5  C   UNL     1     -10.028   4.696  70.555  1.00  0.00    -0.295 C  
BRANCH   5   6
HETATM    6  C   UNL     1     -10.716   5.873  71.213  1.00  0.00    -0.325 A  
HETATM    7  C   UNL     1     -11.875   8.163  72.348  1.00  0.00    -0.448 A  
HETATM    8  C   UNL     1     -10.276   6.352  72.455  1.00  0.00    -0.204 A  
HETATM    9  C   UNL     1     -11.777   6.528  70.573  1.00  0.00    -0.438 A  
HETATM   10  C   UNL     1     -12.345   7.673  71.132  1.00  0.00    -0.293 A  
HETATM   11  C   UNL     1     -10.851   7.494  73.017  1.00  0.00    -0.445 A  
ENDBRANCH   5   6
ENDBRANCH   4   5
BRANCH   4  12
HETATM   12  C   UNL     1      -8.494   3.853  68.713  1.00  0.00    -0.078 C  
BRANCH  12  13
HETATM   13  O   UNL     1      -8.270   3.977  67.294  1.00  0.00    -0.098 OA 
BRANCH  13  14
HETATM   14  C   UNL     1      -9.129   3.281  66.516  1.00  0.00    -0.162 C  
HETATM   15  H1  UNL     1     -10.289   1.716  66.619  1.00  0.00     0.000 HD 
HETATM   16  O   UNL     1      -9.418   3.528  65.356  1.00  0.00    -0.157 OA 
HETATM   17  N   UNL     1      -9.642   2.241  67.205  1.00  0.00    -0.406 N  
HETATM   18  H2  UNL     1      -9.414   2.012  68.173  1.00  0.00     0.000 HD 
ENDBRANCH  13  14
ENDBRANCH  12  13
ENDBRANCH   4  12
TORSDOF 5
ENDMDL
MODEL      205
REMARK 921   NORMALIZED FREE ENERGY PREDICTED BY IDOCK:   -2.78 KCAL/MOL
REMARK 922        TOTAL FREE ENERGY PREDICTED BY IDOCK:   -3.79 KCAL/MOL
REMARK 923 INTER-LIGAND FREE ENERGY PREDICTED BY IDOCK:   -3.43 KCAL/MOL
REMARK 924 INTRA-LIGAND FREE ENERGY PREDICTED BY IDOCK:   -0.36 KCAL/MOL
REMARK 927      BINDING AFFINITY PREDICTED BY RF-SCORE:    0.00 PKD
ROOT
HETATM    1  N   UNL     1     -11.316   7.496  73.233  1.00  0.00    -0.614 NA 
HETATM    2  H1  UNL     1     -12.167   7.844  72.791  1.00  0.00     0.000 HD 
HETATM    3  H2  UNL     1     -10.834   8.225  73.762  1.00  0.00     0.000 HD 
HETATM    4  C   UNL     1     -10.437   6.873  72.220  1.00  0.00    -0.207 C  
ENDROOT
BRANCH   4   5
HETATM    5  C   UNL     1     -11.158   5.736  71.458  1.00  0.00    -0.281 C  
BRANCH   5   6
HETATM    6  C   UNL     1     -10.739   5.621  70.007  1.00  0.00    -0.390 A  
HETATM    7  C   UNL     1     -10.104   5.298  67.294  1.00  0.00    -0.234 A  
HETATM    8  C   UNL     1      -9.860   4.609  69.598  1.00  0.00    -0.293 A  
HETATM    9  C   UNL     1     -11.256   6.499  69.044  1.00  0.00    -0.354 A  
HETATM   10  C   UNL     1     -10.949   6.331  67.694  1.00  0.00    -0.438 A  
HETATM   11  C   UNL     1      -9.548   4.447  68.246  1.00  0.00    -0.199 A  
ENDBRANCH   5   6
ENDBRANCH   4   5
BRANCH   4  12
HETATM   12  C   UNL     1      -9.149   6.346  72.889  1.00  0.00    -0.129 C  
BRANCH  12  13
HETATM   13  O   UNL     1      -8.035   6.413  71.976  1.00  0.00    -0.106 OA 
BRANCH  13  14
HETATM   14  C   UNL     1      -7.203   5.347  72.009  1.00  0.00    -0.087 C  
HETATM   15  H1  UNL     1      -5.458   4.805  71.325  1.00  0.00     0.000 HD 
HETATM   16  O   UNL     1      -7.405   4.289  72.582  1.00  0.00    -0.068 OA 
HETATM   17  N   UNL     1      -6.085   5.609  71.300  1.00  0.00    -0.032 N  
HETATM   18  H2  UNL     1      -5.895   6.483  70.811  1.00  0.00     0.000 HD 
ENDBRANCH  13  14
ENDBRANCH  12  13
ENDBRANCH   4  12
TORSDOF 5
ENDMDL
MODEL      206
REMARK 921   NORMALIZED FREE ENERGY PREDICTED BY IDOCK:   -2.78 KCAL/MOL
REMARK 922        TOTAL FREE ENERGY PREDICTED BY IDOCK:   -3.79 KCAL/MOL
REMARK 923 INTER-LIGAND FREE ENERGY PREDICTED BY IDOCK:   -3.56 KCAL/MOL
REMARK 924 INTRA-LIGAND FREE ENERGY PREDICTED BY IDOCK:   -0.23 KCAL/MOL
REMARK 927      BINDING AFFINITY PREDICTED BY RF-SCORE:    0.00 PKD
ROOT
HETATM    1  N   UNL     1     -11.313   9.582  68.450  1.00  0.00    -0.457 NA 
HETATM    2  H1  UNL     1     -10.995   8.932  67.731  1.00  0.00     0.000 HD 
HETATM    3  H2  UNL     1     -12.259   9.367  68.768  1.00  0.00     0.000 HD 
HETATM    4  C   UNL     1     -11.193  10.974  67.966  1.00  0.00    -0.309 C  
ENDROOT
BRANCH   4   5
HETATM    5  C   UNL     1      -9.745  11.308  67.534  1.00  0.00    -0.192 C  
BRANCH   5   6
HETATM    6  C   UNL     1      -9.160  10.308  66.559  1.00  0.00    -0.169 A  
HETATM    7  C   UNL     1      -7.972   8.589  64.686  1.00  0.00    -0.143 A  
HETATM    8  C   UNL     1      -9.737  10.125  65.294  1.00  0.00    -0.365 A  
HETATM    9  C   UNL     1      -8.009   9.581  66.888  1.00  0.00    -0.109 A  
HETATM   10  C   UNL     1      -7.412   8.734  65.954  1.00  0.00    -0.089 A  
HETATM   11  C   UNL     1      -9.143   9.272  64.362  1.00  0.00    -0.111 A  
ENDBRANCH   5   6
ENDBRANCH   4   5
BRANCH   4  12
HETATM   12  C   UNL     1     -11.674  11.957  69.055  1.00  0.00    -0.331 C  
BRANCH  12  13
HETATM   13  O   UNL     1     -12.112  13.198  68.466  1.00  0.00    -0.317 OA 
BRANCH  13  14
HETATM   14  C   UNL     1     -12.029  14.277  69.277  1.00  0.00    -0.335 C  
HETATM   15  H1  UNL     1     -11.423  16.131  69.223  1.00  0.00     0.000 HD 
HETATM   16  O   UNL     1     -12.382  14.334  70.444  1.00  0.00    -0.313 OA 
HETATM   17  N   UNL     1     -11.486  15.318  68.612  1.00  0.00    -0.319 N  
HETATM   18  H2  UNL     1     -11.181  15.294  67.638  1.00  0.00     0.000 HD 
ENDBRANCH  13  14
ENDBRANCH  12  13
ENDBRANCH   4  12
TORSDOF 5
ENDMDL
MODEL      207
REMARK 921   NORMALIZED FREE ENERGY PREDICTED BY IDOCK:   -2.77 KCAL/MOL
REMARK 922        TOTAL FREE ENERGY PREDICTED BY IDOCK:   -3.78 KCAL/MOL
REMARK 923 INTER-LIGAND FREE ENERGY PREDICTED BY IDOCK:   -3.39 KCAL/MOL
REMARK 924 INTRA-LIGAND FREE ENERGY PREDICTED BY IDOCK:   -0.39 KCAL/MOL
REMARK 927      BINDING AFFINITY PREDICTED BY RF-SCORE:    0.00 PKD
ROOT
HETATM    1  N   UNL     1     -12.274   7.098  72.608  1.00  0.00    -0.487 NA 
HETATM    2  H1  UNL     1     -12.815   7.126  73.472  1.00  0.00     0.000 HD 
HETATM    3  H2  UNL     1     -12.862   7.232  71.784  1.00  0.00     0.000 HD 
HETATM    4  C   UNL     1     -11.496   5.843  72.536  1.00  0.00    -0.298 C  
ENDROOT
BRANCH   4   5
HETATM    5  C   UNL     1     -10.570   5.671  73.763  1.00  0.00    -0.303 C  
BRANCH   5   6
HETATM    6  C   UNL     1     -10.076   4.253  73.953  1.00  0.00    -0.201 A  
HETATM    7  C   UNL     1      -9.104   1.627  74.134  1.00  0.00    -0.066 A  
HETATM    8  C   UNL     1     -10.911   3.163  73.669  1.00  0.00    -0.327 A  
HETATM    9  C   UNL     1      -8.763   4.006  74.376  1.00  0.00    -0.095 A  
HETATM   10  C   UNL     1      -8.276   2.701  74.456  1.00  0.00    -0.067 A  
HETATM   11  C   UNL     1     -10.425   1.857  73.756  1.00  0.00    -0.190 A  
ENDBRANCH   5   6
ENDBRANCH   4   5
BRANCH   4  12
HETATM   12  C   UNL     1     -10.677   5.801  71.228  1.00  0.00    -0.258 C  
BRANCH  12  13
HETATM   13  O   UNL     1     -11.495   6.171  70.100  1.00  0.00    -0.391 OA 
BRANCH  13  14
HETATM   14  C   UNL     1     -11.048   7.232  69.391  1.00  0.00    -0.068 C  
HETATM   15  H1  UNL     1     -10.979   9.178  69.518  1.00  0.00     0.000 HD 
HETATM   16  O   UNL     1     -10.483   7.195  68.310  1.00  0.00    -0.188 OA 
HETATM   17  N   UNL     1     -11.316   8.378  70.052  1.00  0.00    -0.452 N  
HETATM   18  H2  UNL     1     -11.788   8.435  70.954  1.00  0.00     0.000 HD 
ENDBRANCH  13  14
ENDBRANCH  12  13
ENDBRANCH   4  12
TORSDOF 5
ENDMDL
MODEL      208
REMARK 921   NORMALIZED FREE ENERGY PREDICTED BY IDOCK:   -2.75 KCAL/MOL
REMARK 922        TOTAL FREE ENERGY PREDICTED BY IDOCK:   -3.76 KCAL/MOL
REMARK 923 INTER-LIGAND FREE ENERGY PREDICTED BY IDOCK:   -3.37 KCAL/MOL
REMARK 924 INTRA-LIGAND FREE ENERGY PREDICTED BY IDOCK:   -0.39 KCAL/MOL
REMARK 927      BINDING AFFINITY PREDICTED BY RF-SCORE:    0.00 PKD
ROOT
HETATM    1  N   UNL     1      -7.872   8.914  71.958  1.00  0.00    -0.354 NA 
HETATM    2  H1  UNL     1      -7.546   9.866  71.790  1.00  0.00     0.000 HD 
HETATM    3  H2  UNL     1      -7.104   8.280  72.179  1.00  0.00     0.000 HD 
HETATM    4  C   UNL     1      -8.668   8.439  70.806  1.00  0.00    -0.150 C  
ENDROOT
BRANCH   4   5
HETATM    5  C   UNL     1      -9.862   9.378  70.508  1.00  0.00    -0.331 C  
BRANCH   5   6
HETATM    6  C   UNL     1      -9.915   9.850  69.071  1.00  0.00    -0.193 A  
HETATM    7  C   UNL     1      -9.842  10.671  66.389  1.00  0.00    -0.259 A  
HETATM    8  C   UNL     1      -9.548  11.161  68.738  1.00  0.00    -0.180 A  
HETATM    9  C   UNL     1     -10.292   8.972  68.046  1.00  0.00    -0.275 A  
HETATM   10  C   UNL     1     -10.246   9.377  66.712  1.00  0.00    -0.320 A  
HETATM   11  C   UNL     1      -9.508  11.567  67.402  1.00  0.00    -0.171 A  
ENDBRANCH   5   6
ENDBRANCH   4   5
BRANCH   4  12
HETATM   12  C   UNL     1      -9.163   6.999  71.061  1.00  0.00    -0.155 C  
BRANCH  12  13
HETATM   13  O   UNL     1      -9.050   6.201  69.865  1.00  0.00    -0.141 OA 
BRANCH  13  14
HETATM   14  C   UNL     1     -10.071   5.339  69.654  1.00  0.00    -0.257 C  
HETATM   15  H1  UNL     1     -12.014   5.354  69.485  1.00  0.00     0.000 HD 
HETATM   16  O   UNL     1      -9.979   4.133  69.496  1.00  0.00    -0.177 OA 
HETATM   17  N   UNL     1     -11.245   6.004  69.643  1.00  0.00    -0.408 N  
HETATM   18  H2  UNL     1     -11.348   7.010  69.776  1.00  0.00     0.000 HD 
ENDBRANCH  13  14
ENDBRANCH  12  13
ENDBRANCH   4  12
TORSDOF 5
ENDMDL
MODEL      209
REMARK 921   NORMALIZED FREE ENERGY PREDICTED BY IDOCK:   -2.75 KCAL/MOL
REMARK 922        TOTAL FREE ENERGY PREDICTED BY IDOCK:   -3.75 KCAL/MOL
REMARK 923 INTER-LIGAND FREE ENERGY PREDICTED BY IDOCK:   -3.50 KCAL/MOL
REMARK 924 INTRA-LIGAND FREE ENERGY PREDICTED BY IDOCK:   -0.26 KCAL/MOL
REMARK 927      BINDING AFFINITY PREDICTED BY RF-SCORE:    0.00 PKD
ROOT
HETATM    1  N   UNL     1      -9.356   7.401  70.534  1.00  0.00    -0.158 NA 
HETATM    2  H1  UNL     1      -9.039   7.210  71.484  1.00  0.00     0.000 HD 
HETATM    3  H2  UNL     1      -9.702   8.356  70.431  1.00  0.00     0.000 HD 
HETATM    4  C   UNL     1     -10.365   6.400  70.124  1.00  0.00    -0.198 C  
ENDROOT
BRANCH   4   5
HETATM    5  C   UNL     1      -9.818   4.957  70.234  1.00  0.00    -0.306 C  
BRANCH   5   6
HETATM    6  C   UNL     1      -9.948   4.365  71.621  1.00  0.00    -0.256 A  
HETATM    7  C   UNL     1     -10.071   3.392  74.250  1.00  0.00    -0.197 A  
HETATM    8  C   UNL     1      -9.093   3.337  72.041  1.00  0.00    -0.155 A  
HETATM    9  C   UNL     1     -10.897   4.865  72.523  1.00  0.00    -0.234 A  
HETATM   10  C   UNL     1     -10.951   4.389  73.834  1.00  0.00    -0.315 A  
HETATM   11  C   UNL     1      -9.152   2.856  73.350  1.00  0.00    -0.093 A  
ENDBRANCH   5   6
ENDBRANCH   4   5
BRANCH   4  12
HETATM   12  C   UNL     1     -10.845   6.689  68.686  1.00  0.00    -0.262 C  
BRANCH  12  13
HETATM   13  O   UNL     1     -10.742   5.508  67.865  1.00  0.00    -0.190 OA 
BRANCH  13  14
HETATM   14  C   UNL     1     -10.436   5.737  66.568  1.00  0.00    -0.220 C  
HETATM   15  H1  UNL     1     -10.741   4.948  64.810  1.00  0.00     0.000 HD 
HETATM   16  O   UNL     1      -9.773   6.665  66.134  1.00  0.00    -0.061 OA 
HETATM   17  N   UNL     1     -10.972   4.776  65.788  1.00  0.00    -0.852 N  
HETATM   18  H2  UNL     1     -11.527   3.990  66.127  1.00  0.00     0.000 HD 
ENDBRANCH  13  14
ENDBRANCH  12  13
ENDBRANCH   4  12
TORSDOF 5
ENDMDL
MODEL      210
REMARK 921   NORMALIZED FREE ENERGY PREDICTED BY IDOCK:   -2.72 KCAL/MOL
REMARK 922        TOTAL FREE ENERGY PREDICTED BY IDOCK:   -3.71 KCAL/MOL
REMARK 923 INTER-LIGAND FREE ENERGY PREDICTED BY IDOCK:   -3.46 KCAL/MOL
REMARK 924 INTRA-LIGAND FREE ENERGY PREDICTED BY IDOCK:   -0.26 KCAL/MOL
REMARK 927      BINDING AFFINITY PREDICTED BY RF-SCORE:    0.00 PKD
ROOT
HETATM    1  N   UNL     1     -11.312   8.294  69.136  1.00  0.00    -0.207 NA 
HETATM    2  H1  UNL     1     -11.056   7.374  69.493  1.00  0.00     0.000 HD 
HETATM    3  H2  UNL     1     -11.058   8.407  68.153  1.00  0.00     0.000 HD 
HETATM    4  C   UNL     1     -10.720   9.350  69.985  1.00  0.00    -0.239 C  
ENDROOT
BRANCH   4   5
HETATM    5  C   UNL     1     -11.149   9.203  71.464  1.00  0.00    -0.436 C  
BRANCH   5   6
HETATM    6  C   UNL     1     -10.352   8.164  72.224  1.00  0.00    -0.361 A  
HETATM    7  C   UNL     1      -8.837   6.366  73.755  1.00  0.00    -0.134 A  
HETATM    8  C   UNL     1      -8.985   7.989  71.970  1.00  0.00    -0.212 A  
HETATM    9  C   UNL     1     -10.958   7.390  73.223  1.00  0.00    -0.367 A  
HETATM   10  C   UNL     1     -10.203   6.504  73.991  1.00  0.00    -0.374 A  
HETATM   11  C   UNL     1      -8.231   7.096  72.734  1.00  0.00    -0.121 A  
ENDBRANCH   5   6
ENDBRANCH   4   5
BRANCH   4  12
HETATM   12  C   UNL     1     -11.107  10.744  69.445  1.00  0.00    -0.268 C  
BRANCH  12  13
HETATM   13  O   UNL     1     -10.597  10.934  68.109  1.00  0.00    -0.177 OA 
BRANCH  13  14
HETATM   14  C   UNL     1      -9.769  11.992  67.959  1.00  0.00    -0.198 C  
HETATM   15  H1  UNL     1      -7.862  12.402  68.007  1.00  0.00     0.000 HD 
HETATM   16  O   UNL     1     -10.099  13.141  67.715  1.00  0.00    -0.217 OA 
HETATM   17  N   UNL     1      -8.487  11.605  68.120  1.00  0.00    -0.150 N  
HETATM   18  H2  UNL     1      -8.186  10.652  68.326  1.00  0.00     0.000 HD 
ENDBRANCH  13  14
ENDBRANCH  12  13
ENDBRANCH   4  12
TORSDOF 5
ENDMDL
MODEL      211
REMARK 921   NORMALIZED FREE ENERGY PREDICTED BY IDOCK:   -2.71 KCAL/MOL
REMARK 922        TOTAL FREE ENERGY PREDICTED BY IDOCK:   -3.70 KCAL/MOL
REMARK 923 INTER-LIGAND FREE ENERGY PREDICTED BY IDOCK:   -3.48 KCAL/MOL
REMARK 924 INTRA-LIGAND FREE ENERGY PREDICTED BY IDOCK:   -0.22 KCAL/MOL
REMARK 927      BINDING AFFINITY PREDICTED BY RF-SCORE:    0.00 PKD
ROOT
HETATM    1  N   UNL     1     -10.197  12.401  66.538  1.00  0.00    -0.224 NA 
HETATM    2  H1  UNL     1      -9.330  12.377  66.002  1.00  0.00     0.000 HD 
HETATM    3  H2  UNL     1     -10.246  13.217  67.149  1.00  0.00     0.000 HD 
HETATM    4  C   UNL     1     -10.365  11.137  67.287  1.00  0.00    -0.208 C  
ENDROOT
BRANCH   4   5
HETATM    5  C   UNL     1     -10.341   9.907  66.349  1.00  0.00    -0.246 C  
BRANCH   5   6
HETATM    6  C   UNL     1      -9.155   9.888  65.409  1.00  0.00    -0.241 A  
HETATM    7  C   UNL     1      -6.948  10.032  63.682  1.00  0.00    -0.128 A  
HETATM    8  C   UNL     1      -9.341  10.003  64.025  1.00  0.00    -0.324 A  
HETATM    9  C   UNL     1      -7.849   9.797  65.911  1.00  0.00    -0.108 A  
HETATM   10  C   UNL     1      -6.752   9.880  65.053  1.00  0.00    -0.121 A  
HETATM   11  C   UNL     1      -8.242  10.078  63.166  1.00  0.00    -0.159 A  
ENDBRANCH   5   6
ENDBRANCH   4   5
BRANCH   4  12
HETATM   12  C   UNL     1     -11.679  11.173  68.100  1.00  0.00    -0.232 C  
BRANCH  12  13
HETATM   13  O   UNL     1     -11.527  11.987  69.280  1.00  0.00    -0.262 OA 
BRANCH  13  14
HETATM   14  C   UNL     1     -12.277  11.605  70.339  1.00  0.00    -0.347 C  
HETATM   15  H1  UNL     1     -13.215  10.027  71.000  1.00  0.00     0.000 HD 
HETATM   16  O   UNL     1     -12.590  12.299  71.292  1.00  0.00    -0.343 OA 
HETATM   17  N   UNL     1     -12.649  10.315  70.202  1.00  0.00    -0.539 N  
HETATM   18  H2  UNL     1     -12.402   9.716  69.414  1.00  0.00     0.000 HD 
ENDBRANCH  13  14
ENDBRANCH  12  13
ENDBRANCH   4  12
TORSDOF 5
ENDMDL
MODEL      212
REMARK 921   NORMALIZED FREE ENERGY PREDICTED BY IDOCK:   -2.70 KCAL/MOL
REMARK 922        TOTAL FREE ENERGY PREDICTED BY IDOCK:   -3.69 KCAL/MOL
REMARK 923 INTER-LIGAND FREE ENERGY PREDICTED BY IDOCK:   -3.68 KCAL/MOL
REMARK 924 INTRA-LIGAND FREE ENERGY PREDICTED BY IDOCK:   -0.01 KCAL/MOL
REMARK 927      BINDING AFFINITY PREDICTED BY RF-SCORE:    0.00 PKD
ROOT
HETATM    1  N   UNL     1      -9.578  12.153  68.609  1.00  0.00    -0.384 NA 
HETATM    2  H1  UNL     1      -9.246  13.101  68.434  1.00  0.00     0.000 HD 
HETATM    3  H2  UNL     1      -9.499  11.894  69.593  1.00  0.00     0.000 HD 
HETATM    4  C   UNL     1      -8.874  11.197  67.727  1.00  0.00    -0.135 C  
ENDROOT
BRANCH   4   5
HETATM    5  C   UNL     1      -9.041  11.565  66.234  1.00  0.00    -0.215 C  
BRANCH   5   6
HETATM    6  C   UNL     1     -10.151  12.562  65.978  1.00  0.00    -0.268 A  
HETATM    7  C   UNL     1     -12.173  14.395  65.327  1.00  0.00    -0.377 A  
HETATM    8  C   UNL     1      -9.877  13.936  65.926  1.00  0.00    -0.287 A  
HETATM    9  C   UNL     1     -11.462  12.125  65.747  1.00  0.00    -0.414 A  
HETATM   10  C   UNL     1     -12.466  13.035  65.413  1.00  0.00    -0.531 A  
HETATM   11  C   UNL     1     -10.883  14.847  65.598  1.00  0.00    -0.347 A  
ENDBRANCH   5   6
ENDBRANCH   4   5
BRANCH   4  12
HETATM   12  C   UNL     1      -9.378   9.762  67.991  1.00  0.00    -0.128 C  
BRANCH  12  13
HETATM   13  O   UNL     1      -8.494   9.067  68.894  1.00  0.00    -0.126 OA 
BRANCH  13  14
HETATM   14  C   UNL     1      -9.022   7.969  69.480  1.00  0.00    -0.148 C  
HETATM   15  H1  UNL     1     -10.378   7.499  70.802  1.00  0.00     0.000 HD 
HETATM   16  O   UNL     1      -8.700   6.811  69.269  1.00  0.00    -0.134 OA 
HETATM   17  N   UNL     1      -9.980   8.327  70.360  1.00  0.00    -0.187 N  
HETATM   18  H2  UNL     1     -10.264   9.288  70.555  1.00  0.00     0.000 HD 
ENDBRANCH  13  14
ENDBRANCH  12  13
ENDBRANCH   4  12
TORSDOF 5
ENDMDL
MODEL      213
REMARK 921   NORMALIZED FREE ENERGY PREDICTED BY IDOCK:   -2.70 KCAL/MOL
REMARK 922        TOTAL FREE ENERGY PREDICTED BY IDOCK:   -3.69 KCAL/MOL
REMARK 923 INTER-LIGAND FREE ENERGY PREDICTED BY IDOCK:   -3.31 KCAL/MOL
REMARK 924 INTRA-LIGAND FREE ENERGY PREDICTED BY IDOCK:   -0.38 KCAL/MOL
REMARK 927      BINDING AFFINITY PREDICTED BY RF-SCORE:    0.00 PKD
ROOT
HETATM    1  N   UNL     1     -11.447   4.584  65.285  1.00  0.00    -1.068 NA 
HETATM    2  H1  UNL     1     -11.035   3.804  64.771  1.00  0.00     0.000 HD 
HETATM    3  H2  UNL     1     -11.868   5.273  64.661  1.00  0.00     0.000 HD 
HETATM    4  C   UNL     1     -10.438   5.191  66.180  1.00  0.00    -0.250 C  
ENDROOT
BRANCH   4   5
HETATM    5  C   UNL     1      -9.840   4.151  67.157  1.00  0.00    -0.182 C  
BRANCH   5   6
HETATM    6  C   UNL     1      -8.327   4.104  67.138  1.00  0.00    -0.100 A  
HETATM    7  C   UNL     1      -5.529   3.920  67.254  1.00  0.00    -0.020 A  
HETATM    8  C   UNL     1      -7.575   5.091  67.791  1.00  0.00    -0.083 A  
HETATM    9  C   UNL     1      -7.654   3.052  66.503  1.00  0.00    -0.076 A  
HETATM   10  C   UNL     1      -6.264   2.954  66.570  1.00  0.00    -0.025 A  
HETATM   11  C   UNL     1      -6.183   4.996  67.852  1.00  0.00    -0.035 A  
ENDBRANCH   5   6
ENDBRANCH   4   5
BRANCH   4  12
HETATM   12  C   UNL     1     -11.060   6.370  66.958  1.00  0.00    -0.329 C  
BRANCH  12  13
HETATM   13  O   UNL     1     -11.087   6.092  68.373  1.00  0.00    -0.330 OA 
BRANCH  13  14
HETATM   14  C   UNL     1     -10.521   7.040  69.153  1.00  0.00    -0.207 C  
HETATM   15  H1  UNL     1     -10.409   8.984  69.282  1.00  0.00     0.000 HD 
HETATM   16  O   UNL     1      -9.820   6.847  70.133  1.00  0.00    -0.177 OA 
HETATM   17  N   UNL     1     -10.837   8.269  68.694  1.00  0.00    -0.428 N  
HETATM   18  H2  UNL     1     -11.418   8.456  67.877  1.00  0.00     0.000 HD 
ENDBRANCH  13  14
ENDBRANCH  12  13
ENDBRANCH   4  12
TORSDOF 5
ENDMDL
MODEL      214
REMARK 921   NORMALIZED FREE ENERGY PREDICTED BY IDOCK:   -2.69 KCAL/MOL
REMARK 922        TOTAL FREE ENERGY PREDICTED BY IDOCK:   -3.68 KCAL/MOL
REMARK 923 INTER-LIGAND FREE ENERGY PREDICTED BY IDOCK:   -3.45 KCAL/MOL
REMARK 924 INTRA-LIGAND FREE ENERGY PREDICTED BY IDOCK:   -0.23 KCAL/MOL
REMARK 927      BINDING AFFINITY PREDICTED BY RF-SCORE:    0.00 PKD
ROOT
HETATM    1  N   UNL     1      -8.446   5.554  69.340  1.00  0.00    -0.104 NA 
HETATM    2  H1  UNL     1      -8.356   5.776  68.349  1.00  0.00     0.000 HD 
HETATM    3  H2  UNL     1      -7.678   4.969  69.673  1.00  0.00     0.000 HD 
HETATM    4  C   UNL     1      -9.765   4.941  69.606  1.00  0.00    -0.196 C  
ENDROOT
BRANCH   4   5
HETATM    5  C   UNL     1     -10.925   5.856  69.146  1.00  0.00    -0.382 C  
BRANCH   5   6
HETATM    6  C   UNL     1     -11.200   7.005  70.092  1.00  0.00    -0.325 A  
HETATM    7  C   UNL     1     -11.604   9.052  71.968  1.00  0.00    -0.413 A  
HETATM    8  C   UNL     1     -12.281   6.951  70.984  1.00  0.00    -0.427 A  
HETATM    9  C   UNL     1     -10.355   8.122  70.122  1.00  0.00    -0.215 A  
HETATM   10  C   UNL     1     -10.549   9.135  71.061  1.00  0.00    -0.362 A  
HETATM   11  C   UNL     1     -12.478   7.968  71.919  1.00  0.00    -0.364 A  
ENDBRANCH   5   6
ENDBRANCH   4   5
BRANCH   4  12
HETATM   12  C   UNL     1      -9.902   4.607  71.107  1.00  0.00    -0.191 C  
BRANCH  12  13
HETATM   13  O   UNL     1      -8.636   4.759  71.782  1.00  0.00    -0.118 OA 
BRANCH  13  14
HETATM   14  C   UNL     1      -8.720   5.144  73.075  1.00  0.00    -0.114 C  
HETATM   15  H1  UNL     1      -9.405   6.629  74.139  1.00  0.00     0.000 HD 
HETATM   16  O   UNL     1      -8.302   4.529  74.042  1.00  0.00    -0.102 OA 
HETATM   17  N   UNL     1      -9.342   6.338  73.164  1.00  0.00    -0.135 N  
HETATM   18  H2  UNL     1      -9.697   6.872  72.371  1.00  0.00     0.000 HD 
ENDBRANCH  13  14
ENDBRANCH  12  13
ENDBRANCH   4  12
TORSDOF 5
ENDMDL
MODEL      215
REMARK 921   NORMALIZED FREE ENERGY PREDICTED BY IDOCK:   -2.64 KCAL/MOL
REMARK 922        TOTAL FREE ENERGY PREDICTED BY IDOCK:   -3.62 KCAL/MOL
REMARK 923 INTER-LIGAND FREE ENERGY PREDICTED BY IDOCK:   -3.26 KCAL/MOL
REMARK 924 INTRA-LIGAND FREE ENERGY PREDICTED BY IDOCK:   -0.36 KCAL/MOL
REMARK 927      BINDING AFFINITY PREDICTED BY RF-SCORE:    0.00 PKD
ROOT
HETATM    1  N   UNL     1     -12.032  11.882  69.292  1.00  0.00    -0.302 NA 
HETATM    2  H1  UNL     1     -12.750  11.164  69.394  1.00  0.00     0.000 HD 
HETATM    3  H2  UNL     1     -12.346  12.656  68.706  1.00  0.00     0.000 HD 
HETATM    4  C   UNL     1     -10.780  11.278  68.788  1.00  0.00    -0.203 C  
ENDROOT
BRANCH   4   5
HETATM    5  C   UNL     1     -10.283  10.138  69.709  1.00  0.00    -0.286 C  
BRANCH   5   6
HETATM    6  C   UNL     1     -10.420   8.762  69.094  1.00  0.00    -0.230 A  
HETATM    7  C   UNL     1     -10.852   6.244  67.933  1.00  0.00    -0.417 A  
HETATM    8  C   UNL     1     -10.722   7.651  69.894  1.00  0.00    -0.253 A  
HETATM    9  C   UNL     1     -10.290   8.582  67.710  1.00  0.00    -0.298 A  
HETATM   10  C   UNL     1     -10.515   7.333  67.132  1.00  0.00    -0.394 A  
HETATM   11  C   UNL     1     -10.940   6.399  69.315  1.00  0.00    -0.418 A  
ENDBRANCH   5   6
ENDBRANCH   4   5
BRANCH   4  12
HETATM   12  C   UNL     1      -9.693  12.364  68.634  1.00  0.00    -0.055 C  
BRANCH  12  13
HETATM   13  O   UNL     1      -8.521  11.825  67.989  1.00  0.00    -0.142 OA 
BRANCH  13  14
HETATM   14  C   UNL     1      -7.343  12.189  68.545  1.00  0.00    -0.105 C  
HETATM   15  H1  UNL     1      -5.709  11.371  69.228  1.00  0.00     0.000 HD 
HETATM   16  O   UNL     1      -6.980  13.328  68.790  1.00  0.00    -0.097 OA 
HETATM   17  N   UNL     1      -6.597  11.097  68.808  1.00  0.00    -0.055 N  
HETATM   18  H2  UNL     1      -6.880  10.136  68.616  1.00  0.00     0.000 HD 
ENDBRANCH  13  14
ENDBRANCH  12  13
ENDBRANCH   4  12
TORSDOF 5
ENDMDL
MODEL      216
REMARK 921   NORMALIZED FREE ENERGY PREDICTED BY IDOCK:   -2.64 KCAL/MOL
REMARK 922        TOTAL FREE ENERGY PREDICTED BY IDOCK:   -3.60 KCAL/MOL
REMARK 923 INTER-LIGAND FREE ENERGY PREDICTED BY IDOCK:   -3.34 KCAL/MOL
REMARK 924 INTRA-LIGAND FREE ENERGY PREDICTED BY IDOCK:   -0.26 KCAL/MOL
REMARK 927      BINDING AFFINITY PREDICTED BY RF-SCORE:    0.00 PKD
ROOT
HETATM    1  N   UNL     1      -9.406  11.550  68.913  1.00  0.00    -0.395 NA 
HETATM    2  H1  UNL     1      -8.691  11.991  69.492  1.00  0.00     0.000 HD 
HETATM    3  H2  UNL     1      -9.484  10.549  69.097  1.00  0.00     0.000 HD 
HETATM    4  C   UNL     1      -9.148  11.832  67.485  1.00  0.00    -0.175 C  
ENDROOT
BRANCH   4   5
HETATM    5  C   UNL     1      -9.083  13.352  67.204  1.00  0.00    -0.235 C  
BRANCH   5   6
HETATM    6  C   UNL     1      -7.959  14.054  67.936  1.00  0.00    -0.158 A  
HETATM    7  C   UNL     1      -5.868  15.473  69.157  1.00  0.00    -0.106 A  
HETATM    8  C   UNL     1      -6.625  13.687  67.714  1.00  0.00    -0.178 A  
HETATM    9  C   UNL     1      -8.232  15.110  68.816  1.00  0.00    -0.169 A  
HETATM   10  C   UNL     1      -7.192  15.822  69.415  1.00  0.00    -0.217 A  
HETATM   11  C   UNL     1      -5.585  14.396  68.319  1.00  0.00    -0.118 A  
ENDBRANCH   5   6
ENDBRANCH   4   5
BRANCH   4  12
HETATM   12  C   UNL     1     -10.231  11.166  66.609  1.00  0.00    -0.232 C  
BRANCH  12  13
HETATM   13  O   UNL     1     -10.298  11.793  65.312  1.00  0.00    -0.252 OA 
BRANCH  13  14
HETATM   14  C   UNL     1     -10.183  10.949  64.262  1.00  0.00    -0.364 C  
HETATM   15  H1  UNL     1      -9.522   9.158  63.864  1.00  0.00     0.000 HD 
HETATM   16  O   UNL     1     -10.533  11.171  63.114  1.00  0.00    -0.320 OA 
HETATM   17  N   UNL     1      -9.609   9.794  64.656  1.00  0.00    -0.422 N  
HETATM   18  H2  UNL     1      -9.306   9.586  65.607  1.00  0.00     0.000 HD 
ENDBRANCH  13  14
ENDBRANCH  12  13
ENDBRANCH   4  12
TORSDOF 5
ENDMDL
MODEL      217
REMARK 921   NORMALIZED FREE ENERGY PREDICTED BY IDOCK:   -2.59 KCAL/MOL
REMARK 922        TOTAL FREE ENERGY PREDICTED BY IDOCK:   -3.54 KCAL/MOL
REMARK 923 INTER-LIGAND FREE ENERGY PREDICTED BY IDOCK:   -3.29 KCAL/MOL
REMARK 924 INTRA-LIGAND FREE ENERGY PREDICTED BY IDOCK:   -0.25 KCAL/MOL
REMARK 927      BINDING AFFINITY PREDICTED BY RF-SCORE:    0.00 PKD
ROOT
HETATM    1  N   UNL     1      -7.314   6.427  69.903  1.00  0.00    -0.080 NA 
HETATM    2  H1  UNL     1      -6.958   5.554  70.292  1.00  0.00     0.000 HD 
HETATM    3  H2  UNL     1      -6.670   7.204  70.054  1.00  0.00     0.000 HD 
HETATM    4  C   UNL     1      -8.662   6.710  70.442  1.00  0.00    -0.151 C  
ENDROOT
BRANCH   4   5
HETATM    5  C   UNL     1      -9.646   5.550  70.164  1.00  0.00    -0.223 C  
BRANCH   5   6
HETATM    6  C   UNL     1     -10.009   4.756  71.401  1.00  0.00    -0.267 A  
HETATM    7  C   UNL     1     -10.832   3.233  73.609  1.00  0.00    -0.322 A  
HETATM    8  C   UNL     1     -10.782   5.335  72.418  1.00  0.00    -0.286 A  
HETATM    9  C   UNL     1      -9.614   3.418  71.532  1.00  0.00    -0.233 A  
HETATM   10  C   UNL     1     -10.032   2.658  72.624  1.00  0.00    -0.219 A  
HETATM   11  C   UNL     1     -11.194   4.575  73.514  1.00  0.00    -0.388 A  
ENDBRANCH   5   6
ENDBRANCH   4   5
BRANCH   4  12
HETATM   12  C   UNL     1      -9.201   8.031  69.852  1.00  0.00    -0.152 C  
BRANCH  12  13
HETATM   13  O   UNL     1      -9.361   7.925  68.423  1.00  0.00    -0.141 OA 
BRANCH  13  14
HETATM   14  C   UNL     1     -10.330   8.707  67.895  1.00  0.00    -0.229 C  
HETATM   15  H1  UNL     1     -11.460   8.802  66.307  1.00  0.00     0.000 HD 
HETATM   16  O   UNL     1     -10.796   9.718  68.395  1.00  0.00    -0.233 OA 
HETATM   17  N   UNL     1     -10.729   8.212  66.705  1.00  0.00    -0.368 N  
HETATM   18  H2  UNL     1     -10.354   7.371  66.266  1.00  0.00     0.000 HD 
ENDBRANCH  13  14
ENDBRANCH  12  13
ENDBRANCH   4  12
TORSDOF 5
ENDMDL
MODEL      218
REMARK 921   NORMALIZED FREE ENERGY PREDICTED BY IDOCK:   -2.58 KCAL/MOL
REMARK 922        TOTAL FREE ENERGY PREDICTED BY IDOCK:   -3.53 KCAL/MOL
REMARK 923 INTER-LIGAND FREE ENERGY PREDICTED BY IDOCK:   -3.51 KCAL/MOL
REMARK 924 INTRA-LIGAND FREE ENERGY PREDICTED BY IDOCK:   -0.02 KCAL/MOL
REMARK 927      BINDING AFFINITY PREDICTED BY RF-SCORE:    0.00 PKD
ROOT
HETATM    1  N   UNL     1     -11.285   9.280  67.585  1.00  0.00    -0.366 NA 
HETATM    2  H1  UNL     1     -11.714   8.368  67.426  1.00  0.00     0.000 HD 
HETATM    3  H2  UNL     1     -11.833  10.038  67.176  1.00  0.00     0.000 HD 
HETATM    4  C   UNL     1      -9.890   9.278  67.094  1.00  0.00    -0.195 C  
ENDROOT
BRANCH   4   5
HETATM    5  C   UNL     1      -9.051   8.160  67.756  1.00  0.00    -0.140 C  
BRANCH   5   6
HETATM    6  C   UNL     1      -9.653   7.634  69.042  1.00  0.00    -0.151 A  
HETATM    7  C   UNL     1     -10.631   6.542  71.435  1.00  0.00    -0.266 A  
HETATM    8  C   UNL     1     -10.567   6.571  69.018  1.00  0.00    -0.286 A  
HETATM    9  C   UNL     1      -9.275   8.173  70.279  1.00  0.00    -0.151 A  
HETATM   10  C   UNL     1      -9.753   7.623  71.469  1.00  0.00    -0.191 A  
HETATM   11  C   UNL     1     -11.050   6.026  70.210  1.00  0.00    -0.415 A  
ENDBRANCH   5   6
ENDBRANCH   4   5
BRANCH   4  12
HETATM   12  C   UNL     1      -9.241  10.658  67.336  1.00  0.00    -0.143 C  
BRANCH  12  13
HETATM   13  O   UNL     1     -10.244  11.692  67.392  1.00  0.00    -0.199 OA 
BRANCH  13  14
HETATM   14  C   UNL     1     -10.396  12.405  66.253  1.00  0.00    -0.244 C  
HETATM   15  H1  UNL     1      -9.304  13.218  64.856  1.00  0.00     0.000 HD 
HETATM   16  O   UNL     1     -11.452  12.766  65.760  1.00  0.00    -0.316 OA 
HETATM   17  N   UNL     1      -9.190  12.680  65.714  1.00  0.00    -0.448 N  
HETATM   18  H2  UNL     1      -8.294  12.392  66.109  1.00  0.00     0.000 HD 
ENDBRANCH  13  14
ENDBRANCH  12  13
ENDBRANCH   4  12
TORSDOF 5
ENDMDL
MODEL      219
REMARK 921   NORMALIZED FREE ENERGY PREDICTED BY IDOCK:   -2.52 KCAL/MOL
REMARK 922        TOTAL FREE ENERGY PREDICTED BY IDOCK:   -3.46 KCAL/MOL
REMARK 923 INTER-LIGAND FREE ENERGY PREDICTED BY IDOCK:   -3.40 KCAL/MOL
REMARK 924 INTRA-LIGAND FREE ENERGY PREDICTED BY IDOCK:   -0.06 KCAL/MOL
REMARK 927      BINDING AFFINITY PREDICTED BY RF-SCORE:    0.00 PKD
ROOT
HETATM    1  N   UNL     1     -10.797  11.360  67.319  1.00  0.00    -0.247 NA 
HETATM    2  H1  UNL     1     -11.465  10.864  67.909  1.00  0.00     0.000 HD 
HETATM    3  H2  UNL     1     -11.141  12.280  67.040  1.00  0.00     0.000 HD 
HETATM    4  C   UNL     1     -10.435  10.527  66.152  1.00  0.00    -0.168 C  
ENDROOT
BRANCH   4   5
HETATM    5  C   UNL     1      -9.865   9.155  66.582  1.00  0.00    -0.307 C  
BRANCH   5   6
HETATM    6  C   UNL     1      -9.473   9.094  68.043  1.00  0.00    -0.157 A  
HETATM    7  C   UNL     1      -8.827   9.143  70.773  1.00  0.00    -0.291 A  
HETATM    8  C   UNL     1      -8.258   9.643  68.478  1.00  0.00    -0.105 A  
HETATM    9  C   UNL     1     -10.336   8.527  68.990  1.00  0.00    -0.229 A  
HETATM   10  C   UNL     1     -10.020   8.561  70.348  1.00  0.00    -0.203 A  
HETATM   11  C   UNL     1      -7.940   9.670  69.837  1.00  0.00    -0.174 A  
ENDBRANCH   5   6
ENDBRANCH   4   5
BRANCH   4  12
HETATM   12  C   UNL     1      -9.423  11.278  65.259  1.00  0.00    -0.221 C  
BRANCH  12  13
HETATM   13  O   UNL     1      -9.923  11.402  63.912  1.00  0.00    -0.259 OA 
BRANCH  13  14
HETATM   14  C   UNL     1      -9.138  10.855  62.957  1.00  0.00    -0.299 C  
HETATM   15  H1  UNL     1      -8.925   9.170  61.996  1.00  0.00     0.000 HD 
HETATM   16  O   UNL     1      -8.212  11.402  62.380  1.00  0.00    -0.193 OA 
HETATM   17  N   UNL     1      -9.517   9.583  62.716  1.00  0.00    -0.547 N  
HETATM   18  H2  UNL     1     -10.285   9.103  63.186  1.00  0.00     0.000 HD 
ENDBRANCH  13  14
ENDBRANCH  12  13
ENDBRANCH   4  12
TORSDOF 5
ENDMDL
MODEL      220
REMARK 921   NORMALIZED FREE ENERGY PREDICTED BY IDOCK:   -2.52 KCAL/MOL
REMARK 922        TOTAL FREE ENERGY PREDICTED BY IDOCK:   -3.45 KCAL/MOL
REMARK 923 INTER-LIGAND FREE ENERGY PREDICTED BY IDOCK:   -3.11 KCAL/MOL
REMARK 924 INTRA-LIGAND FREE ENERGY PREDICTED BY IDOCK:   -0.34 KCAL/MOL
REMARK 927      BINDING AFFINITY PREDICTED BY RF-SCORE:    0.00 PKD
ROOT
HETATM    1  N   UNL     1     -12.299  11.652  69.024  1.00  0.00    -0.279 NA 
HETATM    2  H1  UNL     1     -12.588  10.787  69.481  1.00  0.00     0.000 HD 
HETATM    3  H2  UNL     1     -13.080  12.119  68.560  1.00  0.00     0.000 HD 
HETATM    4  C   UNL     1     -11.181  11.386  68.094  1.00  0.00    -0.278 C  
ENDROOT
BRANCH   4   5
HETATM    5  C   UNL     1      -9.982  10.725  68.813  1.00  0.00    -0.201 C  
BRANCH   5   6
HETATM    6  C   UNL     1      -9.598   9.379  68.237  1.00  0.00    -0.156 A  
HETATM    7  C   UNL     1      -8.817   6.971  67.026  1.00  0.00    -0.124 A  
HETATM    8  C   UNL     1     -10.476   8.692  67.386  1.00  0.00    -0.351 A  
HETATM    9  C   UNL     1      -8.344   8.817  68.510  1.00  0.00    -0.129 A  
HETATM   10  C   UNL     1      -7.951   7.626  67.899  1.00  0.00    -0.118 A  
HETATM   11  C   UNL     1     -10.084   7.496  66.781  1.00  0.00    -0.313 A  
ENDBRANCH   5   6
ENDBRANCH   4   5
BRANCH   4  12
HETATM   12  C   UNL     1     -10.743  12.695  67.402  1.00  0.00    -0.229 C  
BRANCH  12  13
HETATM   13  O   UNL     1      -9.518  12.500  66.667  1.00  0.00    -0.230 OA 
BRANCH  13  14
HETATM   14  C   UNL     1      -8.577  13.451  66.861  1.00  0.00    -0.100 C  
HETATM   15  H1  UNL     1      -6.675  13.594  67.271  1.00  0.00     0.000 HD 
HETATM   16  O   UNL     1      -8.747  14.659  66.815  1.00  0.00    -0.237 OA 
HETATM   17  N   UNL     1      -7.385  12.877  67.124  1.00  0.00    -0.359 N  
HETATM   18  H2  UNL     1      -7.218  11.872  67.170  1.00  0.00     0.000 HD 
ENDBRANCH  13  14
ENDBRANCH  12  13
ENDBRANCH   4  12
TORSDOF 5
ENDMDL
MODEL      221
REMARK 921   NORMALIZED FREE ENERGY PREDICTED BY IDOCK:   -2.51 KCAL/MOL
REMARK 922        TOTAL FREE ENERGY PREDICTED BY IDOCK:   -3.45 KCAL/MOL
REMARK 923 INTER-LIGAND FREE ENERGY PREDICTED BY IDOCK:   -3.41 KCAL/MOL
REMARK 924 INTRA-LIGAND FREE ENERGY PREDICTED BY IDOCK:   -0.04 KCAL/MOL
REMARK 927      BINDING AFFINITY PREDICTED BY RF-SCORE:    0.00 PKD
ROOT
HETATM    1  N   UNL     1      -8.573   7.271  68.647  1.00  0.00    -0.128 NA 
HETATM    2  H1  UNL     1      -9.107   8.045  69.042  1.00  0.00     0.000 HD 
HETATM    3  H2  UNL     1      -7.661   7.571  68.304  1.00  0.00     0.000 HD 
HETATM    4  C   UNL     1      -9.364   6.592  67.598  1.00  0.00    -0.118 C  
ENDROOT
BRANCH   4   5
HETATM    5  C   UNL     1     -10.725   6.093  68.139  1.00  0.00    -0.367 C  
BRANCH   5   6
HETATM    6  C   UNL     1     -10.791   6.036  69.650  1.00  0.00    -0.439 A  
HETATM    7  C   UNL     1     -11.069   5.840  72.435  1.00  0.00    -0.332 A  
HETATM    8  C   UNL     1     -11.438   7.047  70.374  1.00  0.00    -0.355 A  
HETATM    9  C   UNL     1     -10.243   4.951  70.347  1.00  0.00    -0.292 A  
HETATM   10  C   UNL     1     -10.390   4.848  71.730  1.00  0.00    -0.249 A  
HETATM   11  C   UNL     1     -11.579   6.946  71.760  1.00  0.00    -0.322 A  
ENDBRANCH   5   6
ENDBRANCH   4   5
BRANCH   4  12
HETATM   12  C   UNL     1      -8.556   5.419  67.001  1.00  0.00    -0.109 C  
BRANCH  12  13
HETATM   13  O   UNL     1      -8.526   5.500  65.562  1.00  0.00    -0.133 OA 
BRANCH  13  14
HETATM   14  C   UNL     1      -8.787   4.339  64.918  1.00  0.00    -0.138 C  
HETATM   15  H1  UNL     1      -9.671   3.708  63.298  1.00  0.00     0.000 HD 
HETATM   16  O   UNL     1      -8.465   3.221  65.284  1.00  0.00    -0.097 OA 
HETATM   17  N   UNL     1      -9.474   4.583  63.783  1.00  0.00    -0.327 N  
HETATM   18  H2  UNL     1      -9.756   5.507  63.457  1.00  0.00     0.000 HD 
ENDBRANCH  13  14
ENDBRANCH  12  13
ENDBRANCH   4  12
TORSDOF 5
ENDMDL
MODEL      222
REMARK 921   NORMALIZED FREE ENERGY PREDICTED BY IDOCK:   -2.48 KCAL/MOL
REMARK 922        TOTAL FREE ENERGY PREDICTED BY IDOCK:   -3.40 KCAL/MOL
REMARK 923 INTER-LIGAND FREE ENERGY PREDICTED BY IDOCK:   -2.92 KCAL/MOL
REMARK 924 INTRA-LIGAND FREE ENERGY PREDICTED BY IDOCK:   -0.48 KCAL/MOL
REMARK 927      BINDING AFFINITY PREDICTED BY RF-SCORE:    0.00 PKD
ROOT
HETATM    1  N   UNL     1     -11.815   7.804  71.625  1.00  0.00    -0.276 NA 
HETATM    2  H1  UNL     1     -12.116   8.586  71.043  1.00  0.00     0.000 HD 
HETATM    3  H2  UNL     1     -11.385   8.118  72.496  1.00  0.00     0.000 HD 
HETATM    4  C   UNL     1     -10.921   6.913  70.855  1.00  0.00    -0.253 C  
ENDROOT
BRANCH   4   5
HETATM    5  C   UNL     1     -11.598   6.400  69.562  1.00  0.00    -0.303 C  
BRANCH   5   6
HETATM    6  C   UNL     1     -10.744   6.574  68.323  1.00  0.00    -0.341 A  
HETATM    7  C   UNL     1      -9.018   6.864  66.131  1.00  0.00    -0.157 A  
HETATM    8  C   UNL     1     -10.226   7.833  67.987  1.00  0.00    -0.249 A  
HETATM    9  C   UNL     1     -10.424   5.474  67.517  1.00  0.00    -0.269 A  
HETATM   10  C   UNL     1      -9.557   5.616  66.433  1.00  0.00    -0.175 A  
HETATM   11  C   UNL     1      -9.364   7.975  66.898  1.00  0.00    -0.209 A  
ENDBRANCH   5   6
ENDBRANCH   4   5
BRANCH   4  12
HETATM   12  C   UNL     1     -10.467   5.728  71.735  1.00  0.00    -0.228 C  
BRANCH  12  13
HETATM   13  O   UNL     1      -9.293   5.100  71.181  1.00  0.00    -0.141 OA 
BRANCH  13  14
HETATM   14  C   UNL     1      -8.161   5.838  71.253  1.00  0.00    -0.122 C  
HETATM   15  H1  UNL     1      -6.941   6.556  72.595  1.00  0.00     0.000 HD 
HETATM   16  O   UNL     1      -7.542   6.307  70.312  1.00  0.00    -0.091 OA 
HETATM   17  N   UNL     1      -7.793   5.999  72.541  1.00  0.00    -0.104 N  
HETATM   18  H2  UNL     1      -8.296   5.620  73.344  1.00  0.00     0.000 HD 
ENDBRANCH  13  14
ENDBRANCH  12  13
ENDBRANCH   4  12
TORSDOF 5
ENDMDL
MODEL      223
REMARK 921   NORMALIZED FREE ENERGY PREDICTED BY IDOCK:   -2.47 KCAL/MOL
REMARK 922        TOTAL FREE ENERGY PREDICTED BY IDOCK:   -3.39 KCAL/MOL
REMARK 923 INTER-LIGAND FREE ENERGY PREDICTED BY IDOCK:   -3.38 KCAL/MOL
REMARK 924 INTRA-LIGAND FREE ENERGY PREDICTED BY IDOCK:   -0.02 KCAL/MOL
REMARK 927      BINDING AFFINITY PREDICTED BY RF-SCORE:    0.00 PKD
ROOT
HETATM    1  N   UNL     1      -8.496   5.575  69.439  1.00  0.00    -0.104 NA 
HETATM    2  H1  UNL     1      -8.351   5.833  68.463  1.00  0.00     0.000 HD 
HETATM    3  H2  UNL     1      -7.769   4.945  69.781  1.00  0.00     0.000 HD 
HETATM    4  C   UNL     1      -9.850   5.006  69.617  1.00  0.00    -0.220 C  
ENDROOT
BRANCH   4   5
HETATM    5  C   UNL     1     -10.950   5.986  69.144  1.00  0.00    -0.429 C  
BRANCH   5   6
HETATM    6  C   UNL     1     -11.267   7.070  70.152  1.00  0.00    -0.325 A  
HETATM    7  C   UNL     1     -11.956   9.160  71.894  1.00  0.00    -0.443 A  
HETATM    8  C   UNL     1     -10.459   8.211  70.250  1.00  0.00    -0.219 A  
HETATM    9  C   UNL     1     -12.398   6.970  70.975  1.00  0.00    -0.402 A  
HETATM   10  C   UNL     1     -12.746   8.013  71.833  1.00  0.00    -0.354 A  
HETATM   11  C   UNL     1     -10.805   9.252  71.114  1.00  0.00    -0.407 A  
ENDBRANCH   5   6
ENDBRANCH   4   5
BRANCH   4  12
HETATM   12  C   UNL     1     -10.071   4.616  71.095  1.00  0.00    -0.173 C  
BRANCH  12  13
HETATM   13  O   UNL     1      -8.869   4.054  71.660  1.00  0.00    -0.103 OA 
BRANCH  13  14
HETATM   14  C   UNL     1      -8.567   2.806  71.235  1.00  0.00    -0.064 C  
HETATM   15  H1  UNL     1      -9.163   0.966  71.492  1.00  0.00     0.000 HD 
HETATM   16  O   UNL     1      -7.685   2.503  70.448  1.00  0.00    -0.043 OA 
HETATM   17  N   UNL     1      -9.390   1.907  71.812  1.00  0.00    -0.091 N  
HETATM   18  H2  UNL     1     -10.133   2.135  72.474  1.00  0.00     0.000 HD 
ENDBRANCH  13  14
ENDBRANCH  12  13
ENDBRANCH   4  12
TORSDOF 5
ENDMDL
MODEL      224
REMARK 921   NORMALIZED FREE ENERGY PREDICTED BY IDOCK:   -2.42 KCAL/MOL
REMARK 922        TOTAL FREE ENERGY PREDICTED BY IDOCK:   -3.32 KCAL/MOL
REMARK 923 INTER-LIGAND FREE ENERGY PREDICTED BY IDOCK:   -3.01 KCAL/MOL
REMARK 924 INTRA-LIGAND FREE ENERGY PREDICTED BY IDOCK:   -0.32 KCAL/MOL
REMARK 927      BINDING AFFINITY PREDICTED BY RF-SCORE:    0.00 PKD
ROOT
HETATM    1  N   UNL     1      -8.353   6.195  69.179  1.00  0.00    -0.115 NA 
HETATM    2  H1  UNL     1      -8.718   7.048  69.601  1.00  0.00     0.000 HD 
HETATM    3  H2  UNL     1      -7.938   6.368  68.263  1.00  0.00     0.000 HD 
HETATM    4  C   UNL     1      -9.412   5.164  69.120  1.00  0.00    -0.134 C  
ENDROOT
BRANCH   4   5
HETATM    5  C   UNL     1     -10.002   4.869  70.520  1.00  0.00    -0.311 C  
BRANCH   5   6
HETATM    6  C   UNL     1     -10.671   6.068  71.159  1.00  0.00    -0.323 A  
HETATM    7  C   UNL     1     -12.005   8.174  72.444  1.00  0.00    -0.431 A  
HETATM    8  C   UNL     1     -11.852   6.596  70.620  1.00  0.00    -0.443 A  
HETATM    9  C   UNL     1     -10.142   6.642  72.323  1.00  0.00    -0.191 A  
HETATM   10  C   UNL     1     -10.811   7.682  72.968  1.00  0.00    -0.457 A  
HETATM   11  C   UNL     1     -12.517   7.642  71.263  1.00  0.00    -0.324 A  
ENDBRANCH   5   6
ENDBRANCH   4   5
BRANCH   4  12
HETATM   12  C   UNL     1      -8.859   3.872  68.482  1.00  0.00    -0.109 C  
BRANCH  12  13
HETATM   13  O   UNL     1      -7.741   4.165  67.620  1.00  0.00    -0.078 OA 
BRANCH  13  14
HETATM   14  C   UNL     1      -6.576   3.578  67.974  1.00  0.00    -0.038 C  
HETATM   15  H1  UNL     1      -5.615   3.040  69.584  1.00  0.00     0.000 HD 
HETATM   16  O   UNL     1      -5.705   3.183  67.216  1.00  0.00    -0.021 OA 
HETATM   17  N   UNL     1      -6.493   3.483  69.317  1.00  0.00    -0.033 N  
HETATM   18  H2  UNL     1      -7.206   3.807  69.971  1.00  0.00     0.000 HD 
ENDBRANCH  13  14
ENDBRANCH  12  13
ENDBRANCH   4  12
TORSDOF 5
ENDMDL
MODEL      225
REMARK 921   NORMALIZED FREE ENERGY PREDICTED BY IDOCK:   -2.42 KCAL/MOL
REMARK 922        TOTAL FREE ENERGY PREDICTED BY IDOCK:   -3.32 KCAL/MOL
REMARK 923 INTER-LIGAND FREE ENERGY PREDICTED BY IDOCK:   -3.23 KCAL/MOL
REMARK 924 INTRA-LIGAND FREE ENERGY PREDICTED BY IDOCK:   -0.09 KCAL/MOL
REMARK 927      BINDING AFFINITY PREDICTED BY RF-SCORE:    0.00 PKD
ROOT
HETATM    1  N   UNL     1      -6.020  15.154  70.065  1.00  0.00    -0.135 NA 
HETATM    2  H1  UNL     1      -6.597  14.314  70.123  1.00  0.00     0.000 HD 
HETATM    3  H2  UNL     1      -5.649  15.427  70.976  1.00  0.00     0.000 HD 
HETATM    4  C   UNL     1      -6.781  16.249  69.426  1.00  0.00    -0.209 C  
ENDROOT
BRANCH   4   5
HETATM    5  C   UNL     1      -7.297  15.846  68.024  1.00  0.00    -0.140 C  
BRANCH   5   6
HETATM    6  C   UNL     1      -8.426  16.721  67.521  1.00  0.00    -0.203 A  
HETATM    7  C   UNL     1     -10.507  18.435  66.744  1.00  0.00    -0.415 A  
HETATM    8  C   UNL     1      -9.759  16.401  67.814  1.00  0.00    -0.235 A  
HETATM    9  C   UNL     1      -8.155  17.886  66.792  1.00  0.00    -0.262 A  
HETATM   10  C   UNL     1      -9.188  18.744  66.415  1.00  0.00    -0.312 A  
HETATM   11  C   UNL     1     -10.793  17.257  67.430  1.00  0.00    -0.167 A  
ENDBRANCH   5   6
ENDBRANCH   4   5
BRANCH   4  12
HETATM   12  C   UNL     1      -5.909  17.520  69.337  1.00  0.00    -0.226 C  
BRANCH  12  13
HETATM   13  O   UNL     1      -5.982  18.276  70.563  1.00  0.00    -0.114 OA 
BRANCH  13  14
HETATM   14  C   UNL     1      -5.423  19.507  70.510  1.00  0.00    -0.242 C  
HETATM   15  H1  UNL     1      -4.769  20.892  71.718  1.00  0.00     0.000 HD 
HETATM   16  O   UNL     1      -5.158  20.138  69.500  1.00  0.00    -0.183 OA 
HETATM   17  N   UNL     1      -5.190  19.964  71.758  1.00  0.00    -0.386 N  
HETATM   18  H2  UNL     1      -5.404  19.457  72.616  1.00  0.00     0.000 HD 
ENDBRANCH  13  14
ENDBRANCH  12  13
ENDBRANCH   4  12
TORSDOF 5
ENDMDL
MODEL      226
REMARK 921   NORMALIZED FREE ENERGY PREDICTED BY IDOCK:   -2.32 KCAL/MOL
REMARK 922        TOTAL FREE ENERGY PREDICTED BY IDOCK:   -3.19 KCAL/MOL
REMARK 923 INTER-LIGAND FREE ENERGY PREDICTED BY IDOCK:   -3.20 KCAL/MOL
REMARK 924 INTRA-LIGAND FREE ENERGY PREDICTED BY IDOCK:    0.01 KCAL/MOL
REMARK 927      BINDING AFFINITY PREDICTED BY RF-SCORE:    0.00 PKD
ROOT
HETATM    1  N   UNL     1      -8.932   5.963  70.169  1.00  0.00    -0.140 NA 
HETATM    2  H1  UNL     1      -8.850   6.237  69.190  1.00  0.00     0.000 HD 
HETATM    3  H2  UNL     1      -8.156   5.370  70.466  1.00  0.00     0.000 HD 
HETATM    4  C   UNL     1     -10.243   5.322  70.408  1.00  0.00    -0.268 C  
ENDROOT
BRANCH   4   5
HETATM    5  C   UNL     1     -11.415   6.246  70.002  1.00  0.00    -0.460 C  
BRANCH   5   6
HETATM    6  C   UNL     1     -11.018   7.700  69.863  1.00  0.00    -0.208 A  
HETATM    7  C   UNL     1     -10.454  10.432  69.562  1.00  0.00    -0.274 A  
HETATM    8  C   UNL     1     -10.605   8.210  68.624  1.00  0.00    -0.144 A  
HETATM    9  C   UNL     1     -11.097   8.569  70.959  1.00  0.00    -0.306 A  
HETATM   10  C   UNL     1     -10.827   9.930  70.808  1.00  0.00    -0.387 A  
HETATM   11  C   UNL     1     -10.328   9.570  68.475  1.00  0.00    -0.234 A  
ENDBRANCH   5   6
ENDBRANCH   4   5
BRANCH   4  12
HETATM   12  C   UNL     1     -10.367   4.907  71.890  1.00  0.00    -0.190 C  
BRANCH  12  13
HETATM   13  O   UNL     1      -9.592   3.721  72.156  1.00  0.00    -0.131 OA 
BRANCH  13  14
HETATM   14  C   UNL     1     -10.258   2.733  72.795  1.00  0.00    -0.158 C  
HETATM   15  H1  UNL     1     -10.910   2.298  74.582  1.00  0.00     0.000 HD 
HETATM   16  O   UNL     1     -10.674   1.700  72.296  1.00  0.00    -0.148 OA 
HETATM   17  N   UNL     1     -10.408   3.043  74.100  1.00  0.00    -0.149 N  
HETATM   18  H2  UNL     1     -10.067   3.898  74.540  1.00  0.00     0.000 HD 
ENDBRANCH  13  14
ENDBRANCH  12  13
ENDBRANCH   4  12
TORSDOF 5
ENDMDL
MODEL      227
REMARK 921   NORMALIZED FREE ENERGY PREDICTED BY IDOCK:   -2.29 KCAL/MOL
REMARK 922        TOTAL FREE ENERGY PREDICTED BY IDOCK:   -3.16 KCAL/MOL
REMARK 923 INTER-LIGAND FREE ENERGY PREDICTED BY IDOCK:   -3.19 KCAL/MOL
REMARK 924 INTRA-LIGAND FREE ENERGY PREDICTED BY IDOCK:    0.02 KCAL/MOL
REMARK 927      BINDING AFFINITY PREDICTED BY RF-SCORE:    0.00 PKD
ROOT
HETATM    1  N   UNL     1     -11.063  11.451  67.514  1.00  0.00    -0.262 NA 
HETATM    2  H1  UNL     1     -11.779  10.834  67.898  1.00  0.00     0.000 HD 
HETATM    3  H2  UNL     1     -11.361  12.427  67.509  1.00  0.00     0.000 HD 
HETATM    4  C   UNL     1     -10.664  10.987  66.167  1.00  0.00    -0.194 C  
ENDROOT
BRANCH   4   5
HETATM    5  C   UNL     1     -10.164   9.523  66.191  1.00  0.00    -0.272 C  
BRANCH   5   6
HETATM    6  C   UNL     1      -9.685   9.070  67.553  1.00  0.00    -0.206 A  
HETATM    7  C   UNL     1      -8.729   8.081  69.999  1.00  0.00    -0.135 A  
HETATM    8  C   UNL     1     -10.502   8.273  68.367  1.00  0.00    -0.206 A  
HETATM    9  C   UNL     1      -8.401   9.404  68.005  1.00  0.00    -0.119 A  
HETATM   10  C   UNL     1      -7.921   8.904  69.215  1.00  0.00    -0.104 A  
HETATM   11  C   UNL     1     -10.024   7.779  69.582  1.00  0.00    -0.190 A  
ENDBRANCH   5   6
ENDBRANCH   4   5
BRANCH   4  12
HETATM   12  C   UNL     1      -9.579  11.920  65.586  1.00  0.00    -0.204 C  
BRANCH  12  13
HETATM   13  O   UNL     1      -9.171  12.900  66.562  1.00  0.00    -0.235 OA 
BRANCH  13  14
HETATM   14  C   UNL     1      -9.830  14.079  66.499  1.00  0.00    -0.290 C  
HETATM   15  H1  UNL     1     -10.390  15.397  65.174  1.00  0.00     0.000 HD 
HETATM   16  O   UNL     1     -10.307  14.693  67.440  1.00  0.00    -0.240 OA 
HETATM   17  N   UNL     1      -9.893  14.508  65.222  1.00  0.00    -0.530 N  
HETATM   18  H2  UNL     1      -9.500  14.015  64.420  1.00  0.00     0.000 HD 
ENDBRANCH  13  14
ENDBRANCH  12  13
ENDBRANCH   4  12
TORSDOF 5
ENDMDL
MODEL      228
REMARK 921   NORMALIZED FREE ENERGY PREDICTED BY IDOCK:   -2.27 KCAL/MOL
REMARK 922        TOTAL FREE ENERGY PREDICTED BY IDOCK:   -3.13 KCAL/MOL
REMARK 923 INTER-LIGAND FREE ENERGY PREDICTED BY IDOCK:   -2.89 KCAL/MOL
REMARK 924 INTRA-LIGAND FREE ENERGY PREDICTED BY IDOCK:   -0.24 KCAL/MOL
REMARK 927      BINDING AFFINITY PREDICTED BY RF-SCORE:    0.00 PKD
ROOT
HETATM    1  N   UNL     1     -10.941   6.711  70.369  1.00  0.00    -0.267 NA 
HETATM    2  H1  UNL     1     -11.560   6.142  70.946  1.00  0.00     0.000 HD 
HETATM    3  H2  UNL     1     -11.396   7.019  69.509  1.00  0.00     0.000 HD 
HETATM    4  C   UNL     1      -9.684   5.980  70.100  1.00  0.00    -0.167 C  
ENDROOT
BRANCH   4   5
HETATM    5  C   UNL     1      -8.973   5.561  71.408  1.00  0.00    -0.150 C  
BRANCH   5   6
HETATM    6  C   UNL     1      -9.575   4.332  72.055  1.00  0.00    -0.209 A  
HETATM    7  C   UNL     1     -10.820   2.058  73.129  1.00  0.00    -0.263 A  
HETATM    8  C   UNL     1     -10.537   4.458  73.067  1.00  0.00    -0.267 A  
HETATM    9  C   UNL     1      -9.211   3.048  71.625  1.00  0.00    -0.184 A  
HETATM   10  C   UNL     1      -9.838   1.919  72.151  1.00  0.00    -0.201 A  
HETATM   11  C   UNL     1     -11.159   3.326  73.598  1.00  0.00    -0.316 A  
ENDBRANCH   5   6
ENDBRANCH   4   5
BRANCH   4  12
HETATM   12  C   UNL     1      -8.746   6.842  69.226  1.00  0.00    -0.135 C  
BRANCH  12  13
HETATM   13  O   UNL     1      -9.359   7.134  67.954  1.00  0.00    -0.129 OA 
BRANCH  13  14
HETATM   14  C   UNL     1      -8.812   6.494  66.895  1.00  0.00    -0.120 C  
HETATM   15  H1  UNL     1      -9.233   6.073  65.037  1.00  0.00     0.000 HD 
HETATM   16  O   UNL     1      -7.730   5.931  66.870  1.00  0.00    -0.098 OA 
HETATM   17  N   UNL     1      -9.644   6.556  65.835  1.00  0.00    -0.388 N  
HETATM   18  H2  UNL     1     -10.554   7.018  65.833  1.00  0.00     0.000 HD 
ENDBRANCH  13  14
ENDBRANCH  12  13
ENDBRANCH   4  12
TORSDOF 5
ENDMDL
MODEL      229
REMARK 921   NORMALIZED FREE ENERGY PREDICTED BY IDOCK:   -2.25 KCAL/MOL
REMARK 922        TOTAL FREE ENERGY PREDICTED BY IDOCK:   -3.10 KCAL/MOL
REMARK 923 INTER-LIGAND FREE ENERGY PREDICTED BY IDOCK:   -2.85 KCAL/MOL
REMARK 924 INTRA-LIGAND FREE ENERGY PREDICTED BY IDOCK:   -0.25 KCAL/MOL
REMARK 927      BINDING AFFINITY PREDICTED BY RF-SCORE:    0.00 PKD
ROOT
HETATM    1  N   UNL     1     -11.329   8.167  71.715  1.00  0.00    -0.263 NA 
HETATM    2  H1  UNL     1     -11.625   9.133  71.574  1.00  0.00     0.000 HD 
HETATM    3  H2  UNL     1     -11.008   8.000  72.669  1.00  0.00     0.000 HD 
HETATM    4  C   UNL     1     -10.303   7.800  70.714  1.00  0.00    -0.203 C  
ENDROOT
BRANCH   4   5
HETATM    5  C   UNL     1     -10.813   8.007  69.269  1.00  0.00    -0.072 C  
BRANCH   5   6
HETATM    6  C   UNL     1     -10.386   9.325  68.660  1.00  0.00    -0.229 A  
HETATM    7  C   UNL     1      -9.462  11.681  67.447  1.00  0.00    -0.171 A  
HETATM    8  C   UNL     1      -9.435  10.131  69.302  1.00  0.00    -0.231 A  
HETATM    9  C   UNL     1     -10.902   9.742  67.426  1.00  0.00    -0.265 A  
HETATM   10  C   UNL     1     -10.435  10.907  66.818  1.00  0.00    -0.302 A  
HETATM   11  C   UNL     1      -8.974  11.301  68.696  1.00  0.00    -0.148 A  
ENDBRANCH   5   6
ENDBRANCH   4   5
BRANCH   4  12
HETATM   12  C   UNL     1      -9.856   6.337  70.927  1.00  0.00    -0.181 C  
BRANCH  12  13
HETATM   13  O   UNL     1      -9.920   5.981  72.323  1.00  0.00    -0.167 OA 
BRANCH  13  14
HETATM   14  C   UNL     1     -10.360   4.726  72.573  1.00  0.00    -0.201 C  
HETATM   15  H1  UNL     1      -9.881   2.878  72.172  1.00  0.00     0.000 HD 
HETATM   16  O   UNL     1     -11.342   4.422  73.230  1.00  0.00    -0.279 OA 
HETATM   17  N   UNL     1      -9.549   3.824  71.983  1.00  0.00    -0.137 N  
HETATM   18  H2  UNL     1      -8.725   4.054  71.428  1.00  0.00     0.000 HD 
ENDBRANCH  13  14
ENDBRANCH  12  13
ENDBRANCH   4  12
TORSDOF 5
ENDMDL
MODEL      230
REMARK 921   NORMALIZED FREE ENERGY PREDICTED BY IDOCK:   -2.22 KCAL/MOL
REMARK 922        TOTAL FREE ENERGY PREDICTED BY IDOCK:   -3.07 KCAL/MOL
REMARK 923 INTER-LIGAND FREE ENERGY PREDICTED BY IDOCK:   -2.90 KCAL/MOL
REMARK 924 INTRA-LIGAND FREE ENERGY PREDICTED BY IDOCK:   -0.17 KCAL/MOL
REMARK 927      BINDING AFFINITY PREDICTED BY RF-SCORE:    0.00 PKD
ROOT
HETATM    1  N   UNL     1      -7.903   6.104  70.530  1.00  0.00    -0.104 NA 
HETATM    2  H1  UNL     1      -7.659   5.261  71.049  1.00  0.00     0.000 HD 
HETATM    3  H2  UNL     1      -7.166   6.808  70.576  1.00  0.00     0.000 HD 
HETATM    4  C   UNL     1      -9.203   6.631  70.999  1.00  0.00    -0.160 C  
ENDROOT
BRANCH   4   5
HETATM    5  C   UNL     1     -10.326   5.574  70.878  1.00  0.00    -0.310 C  
BRANCH   5   6
HETATM    6  C   UNL     1      -9.859   4.260  70.290  1.00  0.00    -0.263 A  
HETATM    7  C   UNL     1      -9.166   1.771  69.195  1.00  0.00    -0.188 A  
HETATM    8  C   UNL     1      -9.553   3.175  71.124  1.00  0.00    -0.230 A  
HETATM    9  C   UNL     1      -9.765   4.093  68.902  1.00  0.00    -0.176 A  
HETATM   10  C   UNL     1      -9.431   2.853  68.357  1.00  0.00    -0.207 A  
HETATM   11  C   UNL     1      -9.212   1.936  70.578  1.00  0.00    -0.173 A  
ENDBRANCH   5   6
ENDBRANCH   4   5
BRANCH   4  12
HETATM   12  C   UNL     1      -9.572   7.907  70.213  1.00  0.00    -0.171 C  
BRANCH  12  13
HETATM   13  O   UNL     1     -10.681   7.657  69.325  1.00  0.00    -0.221 OA 
BRANCH  13  14
HETATM   14  C   UNL     1     -10.369   7.650  68.009  1.00  0.00    -0.205 C  
HETATM   15  H1  UNL     1      -9.097   8.474  66.780  1.00  0.00     0.000 HD 
HETATM   16  O   UNL     1     -10.926   7.002  67.137  1.00  0.00    -0.357 OA 
HETATM   17  N   UNL     1      -9.332   8.479  67.772  1.00  0.00    -0.137 N  
HETATM   18  H2  UNL     1      -8.852   9.032  68.483  1.00  0.00     0.000 HD 
ENDBRANCH  13  14
ENDBRANCH  12  13
ENDBRANCH   4  12
TORSDOF 5
ENDMDL
MODEL      231
REMARK 921   NORMALIZED FREE ENERGY PREDICTED BY IDOCK:   -2.20 KCAL/MOL
REMARK 922        TOTAL FREE ENERGY PREDICTED BY IDOCK:   -3.05 KCAL/MOL
REMARK 923 INTER-LIGAND FREE ENERGY PREDICTED BY IDOCK:   -2.84 KCAL/MOL
REMARK 924 INTRA-LIGAND FREE ENERGY PREDICTED BY IDOCK:   -0.21 KCAL/MOL
REMARK 927      BINDING AFFINITY PREDICTED BY RF-SCORE:    0.00 PKD
ROOT
HETATM    1  N   UNL     1      -7.222   9.055  70.669  1.00  0.00    -0.081 NA 
HETATM    2  H1  UNL     1      -6.530   9.011  69.921  1.00  0.00     0.000 HD 
HETATM    3  H2  UNL     1      -6.788   9.031  71.593  1.00  0.00     0.000 HD 
HETATM    4  C   UNL     1      -8.223   7.980  70.499  1.00  0.00    -0.118 C  
ENDROOT
BRANCH   4   5
HETATM    5  C   UNL     1      -8.913   8.053  69.116  1.00  0.00    -0.145 C  
BRANCH   5   6
HETATM    6  C   UNL     1      -9.060   9.464  68.588  1.00  0.00    -0.132 A  
HETATM    7  C   UNL     1      -9.437  12.013  67.478  1.00  0.00    -0.178 A  
HETATM    8  C   UNL     1      -8.160   9.967  67.639  1.00  0.00    -0.110 A  
HETATM    9  C   UNL     1     -10.123  10.275  69.009  1.00  0.00    -0.225 A  
HETATM   10  C   UNL     1     -10.316  11.538  68.449  1.00  0.00    -0.214 A  
HETATM   11  C   UNL     1      -8.350  11.235  67.084  1.00  0.00    -0.151 A  
ENDBRANCH   5   6
ENDBRANCH   4   5
BRANCH   4  12
HETATM   12  C   UNL     1      -9.270   8.047  71.631  1.00  0.00    -0.150 C  
BRANCH  12  13
HETATM   13  O   UNL     1     -10.485   7.372  71.244  1.00  0.00    -0.208 OA 
BRANCH  13  14
HETATM   14  C   UNL     1     -11.625   7.948  71.689  1.00  0.00    -0.272 C  
HETATM   15  H1  UNL     1     -12.675   8.089  73.326  1.00  0.00     0.000 HD 
HETATM   16  O   UNL     1     -12.392   8.634  71.033  1.00  0.00    -0.257 OA 
HETATM   17  N   UNL     1     -11.816   7.655  72.992  1.00  0.00    -0.598 N  
HETATM   18  H2  UNL     1     -11.191   7.083  73.560  1.00  0.00     0.000 HD 
ENDBRANCH  13  14
ENDBRANCH  12  13
ENDBRANCH   4  12
TORSDOF 5
ENDMDL
MODEL      232
REMARK 921   NORMALIZED FREE ENERGY PREDICTED BY IDOCK:   -2.17 KCAL/MOL
REMARK 922        TOTAL FREE ENERGY PREDICTED BY IDOCK:   -3.00 KCAL/MOL
REMARK 923 INTER-LIGAND FREE ENERGY PREDICTED BY IDOCK:   -2.68 KCAL/MOL
REMARK 924 INTRA-LIGAND FREE ENERGY PREDICTED BY IDOCK:   -0.32 KCAL/MOL
REMARK 927      BINDING AFFINITY PREDICTED BY RF-SCORE:    0.00 PKD
ROOT
HETATM    1  N   UNL     1      -6.574   7.223  70.572  1.00  0.00    -0.046 NA 
HETATM    2  H1  UNL     1      -6.042   6.950  69.745  1.00  0.00     0.000 HD 
HETATM    3  H2  UNL     1      -6.024   7.134  71.427  1.00  0.00     0.000 HD 
HETATM    4  C   UNL     1      -7.834   6.452  70.641  1.00  0.00    -0.107 C  
ENDROOT
BRANCH   4   5
HETATM    5  C   UNL     1      -8.687   6.631  69.363  1.00  0.00    -0.135 C  
BRANCH   5   6
HETATM    6  C   UNL     1      -8.843   5.358  68.558  1.00  0.00    -0.103 A  
HETATM    7  C   UNL     1      -9.304   2.989  67.127  1.00  0.00    -0.178 A  
HETATM    8  C   UNL     1      -8.557   4.112  69.133  1.00  0.00    -0.112 A  
HETATM    9  C   UNL     1      -9.317   5.402  67.240  1.00  0.00    -0.118 A  
HETATM   10  C   UNL     1      -9.556   4.224  66.532  1.00  0.00    -0.214 A  
HETATM   11  C   UNL     1      -8.790   2.934  68.421  1.00  0.00    -0.168 A  
ENDBRANCH   5   6
ENDBRANCH   4   5
BRANCH   4  12
HETATM   12  C   UNL     1      -8.640   6.865  71.892  1.00  0.00    -0.118 C  
BRANCH  12  13
HETATM   13  O   UNL     1     -10.054   6.868  71.611  1.00  0.00    -0.190 OA 
BRANCH  13  14
HETATM   14  C   UNL     1     -10.816   7.527  72.515  1.00  0.00    -0.299 C  
HETATM   15  H1  UNL     1     -11.405   7.352  74.366  1.00  0.00     0.000 HD 
HETATM   16  O   UNL     1     -11.416   8.573  72.330  1.00  0.00    -0.355 OA 
HETATM   17  N   UNL     1     -10.831   6.856  73.685  1.00  0.00    -0.537 N  
HETATM   18  H2  UNL     1     -10.340   5.980  73.863  1.00  0.00     0.000 HD 
ENDBRANCH  13  14
ENDBRANCH  12  13
ENDBRANCH   4  12
TORSDOF 5
ENDMDL
MODEL      233
REMARK 921   NORMALIZED FREE ENERGY PREDICTED BY IDOCK:   -2.12 KCAL/MOL
REMARK 922        TOTAL FREE ENERGY PREDICTED BY IDOCK:   -2.94 KCAL/MOL
REMARK 923 INTER-LIGAND FREE ENERGY PREDICTED BY IDOCK:   -2.85 KCAL/MOL
REMARK 924 INTRA-LIGAND FREE ENERGY PREDICTED BY IDOCK:   -0.09 KCAL/MOL
REMARK 927      BINDING AFFINITY PREDICTED BY RF-SCORE:    0.00 PKD
ROOT
HETATM    1  N   UNL     1      -9.003   9.733  70.218  1.00  0.00    -0.337 NA 
HETATM    2  H1  UNL     1      -8.395   9.328  69.506  1.00  0.00     0.000 HD 
HETATM    3  H2  UNL     1      -8.924   9.244  71.111  1.00  0.00     0.000 HD 
HETATM    4  C   UNL     1     -10.398   9.775  69.731  1.00  0.00    -0.246 C  
ENDROOT
BRANCH   4   5
HETATM    5  C   UNL     1     -10.518  10.561  68.404  1.00  0.00    -0.212 C  
BRANCH   5   6
HETATM    6  C   UNL     1      -9.285  11.372  68.068  1.00  0.00    -0.171 A  
HETATM    7  C   UNL     1      -7.087  12.939  67.302  1.00  0.00    -0.071 A  
HETATM    8  C   UNL     1      -8.291  10.844  67.231  1.00  0.00    -0.123 A  
HETATM    9  C   UNL     1      -9.136  12.677  68.555  1.00  0.00    -0.052 A  
HETATM   10  C   UNL     1      -8.049  13.460  68.165  1.00  0.00    -0.155 A  
HETATM   11  C   UNL     1      -7.200  11.627  66.848  1.00  0.00    -0.125 A  
ENDBRANCH   5   6
ENDBRANCH   4   5
BRANCH   4  12
HETATM   12  C   UNL     1     -11.318  10.388  70.809  1.00  0.00    -0.284 C  
BRANCH  12  13
HETATM   13  O   UNL     1     -12.626   9.782  70.770  1.00  0.00    -0.276 OA 
BRANCH  13  14
HETATM   14  C   UNL     1     -12.718   8.581  71.385  1.00  0.00    -0.271 C  
HETATM   15  H1  UNL     1     -13.549   6.836  71.117  1.00  0.00     0.000 HD 
HETATM   16  O   UNL     1     -12.203   8.270  72.447  1.00  0.00    -0.361 OA 
HETATM   17  N   UNL     1     -13.480   7.742  70.653  1.00  0.00    -0.170 N  
HETATM   18  H2  UNL     1     -13.922   7.979  69.765  1.00  0.00     0.000 HD 
ENDBRANCH  13  14
ENDBRANCH  12  13
ENDBRANCH   4  12
TORSDOF 5
ENDMDL
MODEL      234
REMARK 921   NORMALIZED FREE ENERGY PREDICTED BY IDOCK:   -2.07 KCAL/MOL
REMARK 922        TOTAL FREE ENERGY PREDICTED BY IDOCK:   -2.88 KCAL/MOL
REMARK 923 INTER-LIGAND FREE ENERGY PREDICTED BY IDOCK:   -2.64 KCAL/MOL
REMARK 924 INTRA-LIGAND FREE ENERGY PREDICTED BY IDOCK:   -0.24 KCAL/MOL
REMARK 927      BINDING AFFINITY PREDICTED BY RF-SCORE:    0.00 PKD
ROOT
HETATM    1  N   UNL     1      -9.970   9.479  67.528  1.00  0.00    -0.175 NA 
HETATM    2  H1  UNL     1     -10.183   8.997  68.401  1.00  0.00     0.000 HD 
HETATM    3  H2  UNL     1     -10.778   9.987  67.164  1.00  0.00     0.000 HD 
HETATM    4  C   UNL     1      -9.427   8.523  66.540  1.00  0.00    -0.218 C  
ENDROOT
BRANCH   4   5
HETATM    5  C   UNL     1      -8.172   7.795  67.077  1.00  0.00    -0.117 C  
BRANCH   5   6
HETATM    6  C   UNL     1      -8.399   6.323  67.351  1.00  0.00    -0.109 A  
HETATM    7  C   UNL     1      -8.648   3.586  67.915  1.00  0.00    -0.117 A  
HETATM    8  C   UNL     1      -8.134   5.365  66.362  1.00  0.00    -0.105 A  
HETATM    9  C   UNL     1      -8.837   5.891  68.610  1.00  0.00    -0.111 A  
HETATM   10  C   UNL     1      -8.950   4.530  68.894  1.00  0.00    -0.151 A  
HETATM   11  C   UNL     1      -8.255   4.003  66.645  1.00  0.00    -0.101 A  
ENDBRANCH   5   6
ENDBRANCH   4   5
BRANCH   4  12
HETATM   12  C   UNL     1      -9.105   9.253  65.217  1.00  0.00    -0.215 C  
BRANCH  12  13
HETATM   13  O   UNL     1      -9.313  10.673  65.354  1.00  0.00    -0.187 OA 
BRANCH  13  14
HETATM   14  C   UNL     1      -9.909  11.268  64.295  1.00  0.00    -0.273 C  
HETATM   15  H1  UNL     1     -10.457  13.045  63.707  1.00  0.00     0.000 HD 
HETATM   16  O   UNL     1     -10.312  10.714  63.286  1.00  0.00    -0.210 OA 
HETATM   17  N   UNL     1     -10.008  12.597  64.505  1.00  0.00    -0.549 N  
HETATM   18  H2  UNL     1      -9.682  13.083  65.341  1.00  0.00     0.000 HD 
ENDBRANCH  13  14
ENDBRANCH  12  13
ENDBRANCH   4  12
TORSDOF 5
ENDMDL
MODEL      235
REMARK 921   NORMALIZED FREE ENERGY PREDICTED BY IDOCK:   -1.84 KCAL/MOL
REMARK 922        TOTAL FREE ENERGY PREDICTED BY IDOCK:   -2.58 KCAL/MOL
REMARK 923 INTER-LIGAND FREE ENERGY PREDICTED BY IDOCK:   -2.15 KCAL/MOL
REMARK 924 INTRA-LIGAND FREE ENERGY PREDICTED BY IDOCK:   -0.43 KCAL/MOL
REMARK 927      BINDING AFFINITY PREDICTED BY RF-SCORE:    0.00 PKD
ROOT
HETATM    1  N   UNL     1     -10.661   9.222  66.805  1.00  0.00    -0.188 NA 
HETATM    2  H1  UNL     1     -11.035   8.306  66.557  1.00  0.00     0.000 HD 
HETATM    3  H2  UNL     1     -10.750   9.891  66.039  1.00  0.00     0.000 HD 
HETATM    4  C   UNL     1      -9.261   9.091  67.265  1.00  0.00    -0.134 C  
ENDROOT
BRANCH   4   5
HETATM    5  C   UNL     1      -9.140   8.114  68.458  1.00  0.00    -0.136 C  
BRANCH   5   6
HETATM    6  C   UNL     1      -8.758   6.707  68.050  1.00  0.00    -0.117 A  
HETATM    7  C   UNL     1      -8.210   4.086  67.211  1.00  0.00    -0.099 A  
HETATM    8  C   UNL     1      -9.087   5.615  68.865  1.00  0.00    -0.125 A  
HETATM    9  C   UNL     1      -8.106   6.469  66.833  1.00  0.00    -0.113 A  
HETATM   10  C   UNL     1      -7.844   5.166  66.410  1.00  0.00    -0.103 A  
HETATM   11  C   UNL     1      -8.817   4.311  68.445  1.00  0.00    -0.135 A  
ENDBRANCH   5   6
ENDBRANCH   4   5
BRANCH   4  12
HETATM   12  C   UNL     1      -8.695  10.478  67.640  1.00  0.00    -0.121 C  
BRANCH  12  13
HETATM   13  O   UNL     1      -9.552  11.140  68.592  1.00  0.00    -0.190 OA 
BRANCH  13  14
HETATM   14  C   UNL     1     -10.067  12.319  68.175  1.00  0.00    -0.211 C  
HETATM   15  H1  UNL     1     -11.776  13.076  67.617  1.00  0.00     0.000 HD 
HETATM   16  O   UNL     1      -9.455  13.364  68.027  1.00  0.00    -0.204 OA 
HETATM   17  N   UNL     1     -11.388  12.188  67.932  1.00  0.00    -0.277 N  
HETATM   18  H2  UNL     1     -11.920  11.325  68.046  1.00  0.00     0.000 HD 
ENDBRANCH  13  14
ENDBRANCH  12  13
ENDBRANCH   4  12
TORSDOF 5
ENDMDL
MODEL      236
REMARK 921   NORMALIZED FREE ENERGY PREDICTED BY IDOCK:   -1.74 KCAL/MOL
REMARK 922        TOTAL FREE ENERGY PREDICTED BY IDOCK:   -2.45 KCAL/MOL
REMARK 923 INTER-LIGAND FREE ENERGY PREDICTED BY IDOCK:   -2.18 KCAL/MOL
REMARK 924 INTRA-LIGAND FREE ENERGY PREDICTED BY IDOCK:   -0.27 KCAL/MOL
REMARK 927      BINDING AFFINITY PREDICTED BY RF-SCORE:    0.00 PKD
ROOT
HETATM    1  N   UNL     1     -10.264   9.873  67.376  1.00  0.00    -0.208 NA 
HETATM    2  H1  UNL     1     -11.078   9.269  67.259  1.00  0.00     0.000 HD 
HETATM    3  H2  UNL     1     -10.259  10.642  66.705  1.00  0.00     0.000 HD 
HETATM    4  C   UNL     1      -9.023   9.071  67.308  1.00  0.00    -0.127 C  
ENDROOT
BRANCH   4   5
HETATM    5  C   UNL     1      -9.016   7.938  68.362  1.00  0.00    -0.133 C  
BRANCH   5   6
HETATM    6  C   UNL     1      -9.373   6.581  67.792  1.00  0.00    -0.118 A  
HETATM    7  C   UNL     1      -9.894   4.083  66.626  1.00  0.00    -0.169 A  
HETATM    8  C   UNL     1     -10.229   6.476  66.687  1.00  0.00    -0.209 A  
HETATM    9  C   UNL     1      -8.822   5.412  68.334  1.00  0.00    -0.102 A  
HETATM   10  C   UNL     1      -9.072   4.171  67.748  1.00  0.00    -0.164 A  
HETATM   11  C   UNL     1     -10.484   5.232  66.105  1.00  0.00    -0.259 A  
ENDBRANCH   5   6
ENDBRANCH   4   5
BRANCH   4  12
HETATM   12  C   UNL     1      -7.791   9.984  67.486  1.00  0.00    -0.095 C  
BRANCH  12  13
HETATM   13  O   UNL     1      -8.010  10.937  68.547  1.00  0.00    -0.117 OA 
BRANCH  13  14
HETATM   14  C   UNL     1      -7.071  10.934  69.521  1.00  0.00    -0.123 C  
HETATM   15  H1  UNL     1      -5.798  12.153  70.357  1.00  0.00     0.000 HD 
HETATM   16  O   UNL     1      -6.756   9.985  70.220  1.00  0.00    -0.106 OA 
HETATM   17  N   UNL     1      -6.506  12.155  69.623  1.00  0.00    -0.252 N  
HETATM   18  H2  UNL     1      -6.750  12.962  69.049  1.00  0.00     0.000 HD 
ENDBRANCH  13  14
ENDBRANCH  12  13
ENDBRANCH   4  12
TORSDOF 5
ENDMDL
MODEL      237
REMARK 921   NORMALIZED FREE ENERGY PREDICTED BY IDOCK:   -1.73 KCAL/MOL
REMARK 922        TOTAL FREE ENERGY PREDICTED BY IDOCK:   -2.44 KCAL/MOL
REMARK 923 INTER-LIGAND FREE ENERGY PREDICTED BY IDOCK:   -2.15 KCAL/MOL
REMARK 924 INTRA-LIGAND FREE ENERGY PREDICTED BY IDOCK:   -0.29 KCAL/MOL
REMARK 927      BINDING AFFINITY PREDICTED BY RF-SCORE:    0.00 PKD
ROOT
HETATM    1  N   UNL     1     -10.295   9.697  67.621  1.00  0.00    -0.221 NA 
HETATM    2  H1  UNL     1     -11.021   9.027  67.366  1.00  0.00     0.000 HD 
HETATM    3  H2  UNL     1      -9.860  10.120  66.800  1.00  0.00     0.000 HD 
HETATM    4  C   UNL     1      -9.300   9.055  68.506  1.00  0.00    -0.139 C  
ENDROOT
BRANCH   4   5
HETATM    5  C   UNL     1      -9.959   8.461  69.773  1.00  0.00    -0.191 C  
BRANCH   5   6
HETATM    6  C   UNL     1      -9.828   6.956  69.873  1.00  0.00    -0.172 A  
HETATM    7  C   UNL     1      -9.405   4.187  70.036  1.00  0.00    -0.237 A  
HETATM    8  C   UNL     1      -9.893   6.157  68.723  1.00  0.00    -0.160 A  
HETATM    9  C   UNL     1      -9.597   6.341  71.111  1.00  0.00    -0.190 A  
HETATM   10  C   UNL     1      -9.376   4.966  71.191  1.00  0.00    -0.204 A  
HETATM   11  C   UNL     1      -9.679   4.779  68.805  1.00  0.00    -0.235 A  
ENDBRANCH   5   6
ENDBRANCH   4   5
BRANCH   4  12
HETATM   12  C   UNL     1      -8.201  10.069  68.892  1.00  0.00    -0.121 C  
BRANCH  12  13
HETATM   13  O   UNL     1      -7.046   9.919  68.042  1.00  0.00    -0.080 OA 
BRANCH  13  14
HETATM   14  C   UNL     1      -6.607  11.061  67.467  1.00  0.00    -0.068 C  
HETATM   15  H1  UNL     1      -5.039  12.222  67.481  1.00  0.00     0.000 HD 
HETATM   16  O   UNL     1      -7.215  11.746  66.661  1.00  0.00    -0.089 OA 
HETATM   17  N   UNL     1      -5.370  11.361  67.914  1.00  0.00    -0.043 N  
HETATM   18  H2  UNL     1      -4.842  10.806  68.589  1.00  0.00     0.000 HD 
ENDBRANCH  13  14
ENDBRANCH  12  13
ENDBRANCH   4  12
TORSDOF 5
ENDMDL
MODEL      238
REMARK 921   NORMALIZED FREE ENERGY PREDICTED BY IDOCK:   -1.21 KCAL/MOL
REMARK 922        TOTAL FREE ENERGY PREDICTED BY IDOCK:   -1.76 KCAL/MOL
REMARK 923 INTER-LIGAND FREE ENERGY PREDICTED BY IDOCK:   -1.68 KCAL/MOL
REMARK 924 INTRA-LIGAND FREE ENERGY PREDICTED BY IDOCK:   -0.08 KCAL/MOL
REMARK 927      BINDING AFFINITY PREDICTED BY RF-SCORE:    0.00 PKD
ROOT
HETATM    1  N   UNL     1      -7.544  12.349  67.137  1.00  0.00    -0.290 NA 
HETATM    2  H1  UNL     1      -6.652  12.798  67.347  1.00  0.00     0.000 HD 
HETATM    3  H2  UNL     1      -7.433  11.556  66.504  1.00  0.00     0.000 HD 
HETATM    4  C   UNL     1      -8.502  13.346  66.613  1.00  0.00     0.159 C  
ENDROOT
BRANCH   4   5
HETATM    5  C   UNL     1      -8.704  14.521  67.599  1.00  0.00    -0.186 C  
BRANCH   5   6
HETATM    6  C   UNL     1      -7.556  14.698  68.571  1.00  0.00    -0.120 A  
HETATM    7  C   UNL     1      -5.525  15.156  70.452  1.00  0.00    -0.134 A  
HETATM    8  C   UNL     1      -6.529  15.613  68.301  1.00  0.00    -0.123 A  
HETATM    9  C   UNL     1      -7.524  13.981  69.774  1.00  0.00     0.423 A  
HETATM   10  C   UNL     1      -6.521  14.216  70.714  1.00  0.00     0.098 A  
HETATM   11  C   UNL     1      -5.521  15.842  69.239  1.00  0.00    -0.112 A  
ENDBRANCH   5   6
ENDBRANCH   4   5
BRANCH   4  12
HETATM   12  C   UNL     1      -9.853  12.667  66.296  1.00  0.00    -0.262 C  
BRANCH  12  13
HETATM   13  O   UNL     1     -10.651  12.535  67.490  1.00  0.00    -0.216 OA 
BRANCH  13  14
HETATM   14  C   UNL     1     -10.686  11.291  68.020  1.00  0.00    -0.203 C  
HETATM   15  H1  UNL     1     -10.480  10.409  69.748  1.00  0.00     0.000 HD 
HETATM   16  O   UNL     1     -10.890  10.252  67.414  1.00  0.00    -0.279 OA 
HETATM   17  N   UNL     1     -10.454  11.346  69.348  1.00  0.00    -0.434 N  
HETATM   18  H2  UNL     1     -10.278  12.202  69.876  1.00  0.00     0.000 HD 
ENDBRANCH  13  14
ENDBRANCH  12  13
ENDBRANCH   4  12
TORSDOF 5
ENDMDL
